MODEL 1
REMARK minimizedAffinity -4.97334576
REMARK minimizedRMSD -1
REMARK  0 active torsions:
REMARK  status: ('A' for Active; 'I' for Inactive)
ROOT
ATOM      1  C1  BNZ d   1      -1.332  -0.235  -0.779  0.00  0.00     0.000 A 
ATOM      2  C2  BNZ d   1      -0.775  -0.853   0.309  0.00  0.00     0.000 A 
ATOM      3  C3  BNZ d   1      -1.532  -1.645   1.127  0.00  0.00     0.000 A 
ATOM      4  C4  BNZ d   1      -2.850  -1.784   0.881  0.00  0.00     0.000 A 
ATOM      5  C5  BNZ d   1      -3.428  -1.159  -0.206  0.00  0.00     0.000 A 
ATOM      6  C6  BNZ d   1      -2.656  -0.395  -1.050  0.00  0.00     0.000 A 
ENDROOT
TORSDOF 0
ENDMDL
