MODEL 1
REMARK minimizedAffinity -3.06260753
REMARK minimizedRMSD -1
REMARK  0 active torsions:
REMARK  status: ('A' for Active; 'I' for Inactive)
ROOT
ATOM      1  C1  BNZ d   1      -1.334   0.044  -1.621  0.00  0.00     0.000 A 
ATOM      2  C2  BNZ d   1      -0.091   0.417  -1.183  0.00  0.00     0.000 A 
ATOM      3  C3  BNZ d   1       0.351   0.057   0.059  0.00  0.00     0.000 A 
ATOM      4  C4  BNZ d   1      -0.465  -0.641   0.876  0.00  0.00     0.000 A 
ATOM      5  C5  BNZ d   1      -1.724  -1.017   0.452  0.00  0.00     0.000 A 
ATOM      6  C6  BNZ d   1      -2.150  -0.686  -0.814  0.00  0.00     0.000 A 
ENDROOT
TORSDOF 0
ENDMDL
