MODEL 1
REMARK minimizedAffinity -3.15041876
REMARK minimizedRMSD -1
REMARK  0 active torsions:
REMARK  status: ('A' for Active; 'I' for Inactive)
ROOT
ATOM      1  C1  BNZ d   1      -0.122   0.203  -1.458  0.00  0.00     0.000 A 
ATOM      2  C2  BNZ d   1      -1.433  -0.187  -1.392  0.00  0.00     0.000 A 
ATOM      3  C3  BNZ d   1      -1.931  -0.782  -0.268  0.00  0.00     0.000 A 
ATOM      4  C4  BNZ d   1      -1.109  -1.024   0.774  0.00  0.00     0.000 A 
ATOM      5  C5  BNZ d   1       0.218  -0.646   0.719  0.00  0.00     0.000 A 
ATOM      6  C6  BNZ d   1       0.706  -0.012  -0.400  0.00  0.00     0.000 A 
ENDROOT
TORSDOF 0
ENDMDL
