MODEL 1
REMARK minimizedAffinity -1.89004827
REMARK minimizedRMSD -1
REMARK  0 active torsions:
REMARK  status: ('A' for Active; 'I' for Inactive)
ROOT
ATOM      1  C1  BNZ d   1       0.881   0.389   1.998  0.00  0.00     0.000 A 
ATOM      2  C2  BNZ d   1       1.714   1.440   2.272  0.00  0.00     0.000 A 
ATOM      3  C3  BNZ d   1       2.387   2.080   1.269  0.00  0.00     0.000 A 
ATOM      4  C4  BNZ d   1       2.257   1.642  -0.001  0.00  0.00     0.000 A 
ATOM      5  C5  BNZ d   1       1.428   0.577  -0.292  0.00  0.00     0.000 A 
ATOM      6  C6  BNZ d   1       0.722  -0.039   0.716  0.00  0.00     0.000 A 
ENDROOT
TORSDOF 0
ENDMDL
