MODEL 1
REMARK minimizedAffinity -3.17887998
REMARK minimizedRMSD -1
REMARK  0 active torsions:
REMARK  status: ('A' for Active; 'I' for Inactive)
ROOT
ATOM      1  C1  BNZ d   1      -3.336  -1.649  -0.134  0.00  0.00     0.000 A 
ATOM      2  C2  BNZ d   1      -2.935  -0.495  -0.752  0.00  0.00     0.000 A 
ATOM      3  C3  BNZ d   1      -1.655  -0.036  -0.614  0.00  0.00     0.000 A 
ATOM      4  C4  BNZ d   1      -0.790  -0.709   0.172  0.00  0.00     0.000 A 
ATOM      5  C5  BNZ d   1      -1.182  -1.870   0.809  0.00  0.00     0.000 A 
ATOM      6  C6  BNZ d   1      -2.460  -2.350   0.637  0.00  0.00     0.000 A 
ENDROOT
TORSDOF 0
ENDMDL
