MODEL 1
REMARK minimizedAffinity -3.45014429
REMARK minimizedRMSD -1
REMARK  0 active torsions:
REMARK  status: ('A' for Active; 'I' for Inactive)
ROOT
ATOM      1  C1  BNZ d   1      -2.571  -0.030  -1.821  0.00  0.00     0.000 A 
ATOM      2  C2  BNZ d   1      -1.412   0.693  -1.927  0.00  0.00     0.000 A 
ATOM      3  C3  BNZ d   1      -0.289   0.319  -1.244  0.00  0.00     0.000 A 
ATOM      4  C4  BNZ d   1      -0.337  -0.752  -0.425  0.00  0.00     0.000 A 
ATOM      5  C5  BNZ d   1      -1.500  -1.486  -0.300  0.00  0.00     0.000 A 
ATOM      6  C6  BNZ d   1      -2.617  -1.129  -1.020  0.00  0.00     0.000 A 
ENDROOT
TORSDOF 0
ENDMDL
