MODEL 1
REMARK minimizedAffinity -2.78528953
REMARK minimizedRMSD -1
REMARK  0 active torsions:
REMARK  status: ('A' for Active; 'I' for Inactive)
ROOT
ATOM      1  C1  BNZ d   1      -0.994   0.521  -0.999  0.00  0.00     0.000 A 
ATOM      2  C2  BNZ d   1      -2.138  -0.163  -1.315  0.00  0.00     0.000 A 
ATOM      3  C3  BNZ d   1      -2.573  -1.196  -0.533  0.00  0.00     0.000 A 
ATOM      4  C4  BNZ d   1      -1.846  -1.570   0.539  0.00  0.00     0.000 A 
ATOM      5  C5  BNZ d   1      -0.686  -0.896   0.865  0.00  0.00     0.000 A 
ATOM      6  C6  BNZ d   1      -0.271   0.169   0.099  0.00  0.00     0.000 A 
ENDROOT
TORSDOF 0
ENDMDL
