MODEL 1
REMARK minimizedAffinity -4.89118814
REMARK minimizedRMSD -1
REMARK  0 active torsions:
REMARK  status: ('A' for Active; 'I' for Inactive)
ROOT
ATOM      1  C1  BNZ d   1      -2.982  -0.981   0.060  0.00  0.00     0.000 A 
ATOM      2  C2  BNZ d   1      -3.074  -2.214   0.649  0.00  0.00     0.000 A 
ATOM      3  C3  BNZ d   1      -1.976  -2.806   1.208  0.00  0.00     0.000 A 
ATOM      4  C4  BNZ d   1      -0.781  -2.185   1.142  0.00  0.00     0.000 A 
ATOM      5  C5  BNZ d   1      -0.670  -0.946   0.543  0.00  0.00     0.000 A 
ATOM      6  C6  BNZ d   1      -1.785  -0.335   0.016  0.00  0.00     0.000 A 
ENDROOT
TORSDOF 0
ENDMDL
