MODEL 1
REMARK minimizedAffinity -3.94106388
REMARK minimizedRMSD -1
REMARK  0 active torsions:
REMARK  status: ('A' for Active; 'I' for Inactive)
ROOT
ATOM      1  C1  BNZ d   1      -1.364  -0.526   0.294  0.00  0.00     0.000 A 
ATOM      2  C2  BNZ d   1      -2.301  -0.647  -0.697  0.00  0.00     0.000 A 
ATOM      3  C3  BNZ d   1      -3.129  -1.734  -0.748  0.00  0.00     0.000 A 
ATOM      4  C4  BNZ d   1      -2.992  -2.715   0.167  0.00  0.00     0.000 A 
ATOM      5  C5  BNZ d   1      -2.046  -2.612   1.167  0.00  0.00     0.000 A 
ATOM      6  C6  BNZ d   1      -1.241  -1.499   1.238  0.00  0.00     0.000 A 
ENDROOT
TORSDOF 0
ENDMDL
