MODEL 1
REMARK minimizedAffinity -3.68122172
REMARK minimizedRMSD -1
REMARK  0 active torsions:
REMARK  status: ('A' for Active; 'I' for Inactive)
ROOT
ATOM      1  C1  BNZ d   1      -1.050   0.063   0.850  0.00  0.00     0.000 A 
ATOM      2  C2  BNZ d   1      -2.297  -0.452   0.615  0.00  0.00     0.000 A 
ATOM      3  C3  BNZ d   1      -2.767  -0.593  -0.661  0.00  0.00     0.000 A 
ATOM      4  C4  BNZ d   1      -2.006  -0.183  -1.696  0.00  0.00     0.000 A 
ATOM      5  C5  BNZ d   1      -0.750   0.346  -1.475  0.00  0.00     0.000 A 
ATOM      6  C6  BNZ d   1      -0.265   0.451  -0.192  0.00  0.00     0.000 A 
ENDROOT
TORSDOF 0
ENDMDL
