MODEL 1
REMARK minimizedAffinity -4.24910164
REMARK minimizedRMSD -1
REMARK  0 active torsions:
REMARK  status: ('A' for Active; 'I' for Inactive)
ROOT
ATOM      1  C1  BNZ d   1      -0.564  -0.681   0.670  0.00  0.00     0.000 A 
ATOM      2  C2  BNZ d   1      -0.788  -1.851   1.346  0.00  0.00     0.000 A 
ATOM      3  C3  BNZ d   1      -1.909  -2.596   1.105  0.00  0.00     0.000 A 
ATOM      4  C4  BNZ d   1      -2.823  -2.150   0.219  0.00  0.00     0.000 A 
ATOM      5  C5  BNZ d   1      -2.617  -0.968  -0.463  0.00  0.00     0.000 A 
ATOM      6  C6  BNZ d   1      -1.468  -0.241  -0.247  0.00  0.00     0.000 A 
ENDROOT
TORSDOF 0
ENDMDL
