MODEL 1
REMARK minimizedAffinity -5.19647694
REMARK minimizedRMSD -1
REMARK  0 active torsions:
REMARK  status: ('A' for Active; 'I' for Inactive)
ROOT
ATOM      1  C1  BNZ d   1      -0.457  -1.285   0.516  0.00  0.00     0.000 A 
ATOM      2  C2  BNZ d   1      -0.809  -2.353   1.297  0.00  0.00     0.000 A 
ATOM      3  C3  BNZ d   1      -2.044  -2.927   1.183  0.00  0.00     0.000 A 
ATOM      4  C4  BNZ d   1      -2.938  -2.408   0.317  0.00  0.00     0.000 A 
ATOM      5  C5  BNZ d   1      -2.602  -1.326  -0.471  0.00  0.00     0.000 A 
ATOM      6  C6  BNZ d   1      -1.344  -0.775  -0.381  0.00  0.00     0.000 A 
ENDROOT
TORSDOF 0
ENDMDL
