MODEL 1
REMARK minimizedAffinity -2.98659801
REMARK minimizedRMSD -1
REMARK  0 active torsions:
REMARK  status: ('A' for Active; 'I' for Inactive)
ROOT
ATOM      1  C1  BNZ d   1      -1.384  -0.696   0.257  0.00  0.00     0.000 A 
ATOM      2  C2  BNZ d   1      -0.225  -0.032  -0.041  0.00  0.00     0.000 A 
ATOM      3  C3  BNZ d   1       0.030   0.394  -1.315  0.00  0.00     0.000 A 
ATOM      4  C4  BNZ d   1      -0.856   0.122  -2.295  0.00  0.00     0.000 A 
ATOM      5  C5  BNZ d   1      -2.025  -0.555  -2.012  0.00  0.00     0.000 A 
ATOM      6  C6  BNZ d   1      -2.296  -0.949  -0.721  0.00  0.00     0.000 A 
ENDROOT
TORSDOF 0
ENDMDL
