MODEL 1
REMARK minimizedAffinity -3.63602591
REMARK minimizedRMSD -1
REMARK  0 active torsions:
REMARK  status: ('A' for Active; 'I' for Inactive)
ROOT
ATOM      1  C2' OXE d   1       1.194   0.093  -1.028  0.00  0.00     0.078 C 
ATOM      2  C1' OXE d   1       1.181   1.018   1.623  0.00  0.00     0.078 C 
ATOM      3  C1  OXE d   1       1.263   2.044   0.521  0.00  0.00    -0.078 A 
ATOM      4  C2  OXE d   1       1.316   1.580  -0.772  0.00  0.00    -0.078 A 
ATOM      5  C3  OXE d   1       1.338   2.486  -1.829  0.00  0.00     0.003 A 
ATOM      6  C4  OXE d   1       1.461   3.859  -1.584  0.00  0.00    -0.002 A 
ATOM      7  C5  OXE d   1       1.448   4.350  -0.274  0.00  0.00    -0.002 A 
ATOM      8  C6  OXE d   1       1.307   3.461   0.786  0.00  0.00     0.003 A 
ENDROOT
TORSDOF 0
ENDMDL
