MODEL 1
REMARK minimizedAffinity -0.259138823
REMARK minimizedRMSD -1
REMARK  0 active torsions:
REMARK  status: ('A' for Active; 'I' for Inactive)
ROOT
ATOM      1  C2' OXE d   1       1.566  -0.549   0.376  0.00  0.00     0.078 C 
ATOM      2  C1' OXE d   1       1.392   1.651   2.110  0.00  0.00     0.078 C 
ATOM      3  C1  OXE d   1       1.371   1.921   0.626  0.00  0.00    -0.078 A 
ATOM      4  C2  OXE d   1       1.503   0.843  -0.215  0.00  0.00    -0.078 A 
ATOM      5  C3  OXE d   1       1.435   1.030  -1.592  0.00  0.00     0.003 A 
ATOM      6  C4  OXE d   1       1.387   2.321  -2.131  0.00  0.00    -0.002 A 
ATOM      7  C5  OXE d   1       1.292   3.437  -1.292  0.00  0.00    -0.002 A 
ATOM      8  C6  OXE d   1       1.239   3.252   0.085  0.00  0.00     0.003 A 
ENDROOT
TORSDOF 0
ENDMDL
