MODEL 1
REMARK minimizedAffinity 1.24238014
REMARK minimizedRMSD -1
REMARK  0 active torsions:
REMARK  status: ('A' for Active; 'I' for Inactive)
ROOT
ATOM      1  C2' OXE d   1       1.600   5.604  -0.998  0.00  0.00     0.078 C 
ATOM      2  C1' OXE d   1       1.320   4.436   1.539  0.00  0.00     0.078 C 
ATOM      3  C1  OXE d   1       1.251   3.529   0.335  0.00  0.00    -0.078 A 
ATOM      4  C2  OXE d   1       1.343   4.115  -0.904  0.00  0.00    -0.078 A 
ATOM      5  C3  OXE d   1       1.340   3.319  -2.045  0.00  0.00     0.003 A 
ATOM      6  C4  OXE d   1       1.092   1.944  -1.950  0.00  0.00    -0.002 A 
ATOM      7  C5  OXE d   1       0.956   1.332  -0.699  0.00  0.00    -0.002 A 
ATOM      8  C6  OXE d   1       1.076   2.102   0.452  0.00  0.00     0.003 A 
ENDROOT
TORSDOF 0
ENDMDL
