MODEL 1
REMARK minimizedAffinity -1.1518693
REMARK minimizedRMSD -1
REMARK  0 active torsions:
REMARK  status: ('A' for Active; 'I' for Inactive)
ROOT
ATOM      1  C2' OXE d   1       1.523   4.965  -0.877  0.00  0.00     0.078 C 
ATOM      2  C1' OXE d   1       1.524   3.785   1.670  0.00  0.00     0.078 C 
ATOM      3  C1  OXE d   1       1.468   2.872   0.472  0.00  0.00    -0.078 A 
ATOM      4  C2  OXE d   1       1.420   3.459  -0.770  0.00  0.00    -0.078 A 
ATOM      5  C3  OXE d   1       1.423   2.662  -1.911  0.00  0.00     0.003 A 
ATOM      6  C4  OXE d   1       1.317   1.270  -1.803  0.00  0.00    -0.002 A 
ATOM      7  C5  OXE d   1       1.324   0.653  -0.547  0.00  0.00    -0.002 A 
ATOM      8  C6  OXE d   1       1.441   1.435   0.596  0.00  0.00     0.003 A 
ENDROOT
TORSDOF 0
ENDMDL
