MODEL 1
REMARK minimizedAffinity 4.23681355
REMARK minimizedRMSD -1
REMARK  0 active torsions:
REMARK  status: ('A' for Active; 'I' for Inactive)
ROOT
ATOM      1  C2' OXE d   1       2.351   6.000  -0.755  0.00  0.00     0.078 C 
ATOM      2  C1' OXE d   1       1.834   4.484   1.551  0.00  0.00     0.078 C 
ATOM      3  C1  OXE d   1       1.714   3.795   0.214  0.00  0.00    -0.078 A 
ATOM      4  C2  OXE d   1       1.923   4.556  -0.911  0.00  0.00    -0.078 A 
ATOM      5  C3  OXE d   1       1.879   3.957  -2.166  0.00  0.00     0.003 A 
ATOM      6  C4  OXE d   1       1.473   2.624  -2.302  0.00  0.00    -0.002 A 
ATOM      7  C5  OXE d   1       1.217   1.842  -1.171  0.00  0.00    -0.002 A 
ATOM      8  C6  OXE d   1       1.374   2.399   0.093  0.00  0.00     0.003 A 
ENDROOT
TORSDOF 0
ENDMDL
