MODEL 1
REMARK minimizedAffinity -2.76438427
REMARK minimizedRMSD -1
REMARK  0 active torsions:
REMARK  status: ('A' for Active; 'I' for Inactive)
ROOT
ATOM      1  C2' OXE d   1       1.778   5.246  -0.514  0.00  0.00     0.078 C 
ATOM      2  C1' OXE d   1       1.917   3.452   1.641  0.00  0.00     0.078 C 
ATOM      3  C1  OXE d   1       1.735   2.878   0.258  0.00  0.00    -0.078 A 
ATOM      4  C2  OXE d   1       1.622   3.765  -0.785  0.00  0.00    -0.078 A 
ATOM      5  C3  OXE d   1       1.508   3.287  -2.087  0.00  0.00     0.003 A 
ATOM      6  C4  OXE d   1       1.354   1.917  -2.329  0.00  0.00    -0.002 A 
ATOM      7  C5  OXE d   1       1.427   0.998  -1.276  0.00  0.00    -0.002 A 
ATOM      8  C6  OXE d   1       1.659   1.458   0.015  0.00  0.00     0.003 A 
ENDROOT
TORSDOF 0
ENDMDL
