MODEL 1
REMARK minimizedAffinity 0.0385193713
REMARK minimizedRMSD -1
REMARK  0 active torsions:
REMARK  status: ('A' for Active; 'I' for Inactive)
ROOT
ATOM      1  C2' OXE d   1       0.521   0.265  -1.257  0.00  0.00     0.078 C 
ATOM      2  C1' OXE d   1       1.172   1.485   1.186  0.00  0.00     0.078 C 
ATOM      3  C1  OXE d   1       1.133   2.354  -0.045  0.00  0.00    -0.078 A 
ATOM      4  C2  OXE d   1       0.860   1.740  -1.244  0.00  0.00    -0.078 A 
ATOM      5  C3  OXE d   1       0.758   2.505  -2.403  0.00  0.00     0.003 A 
ATOM      6  C4  OXE d   1       1.083   3.867  -2.384  0.00  0.00    -0.002 A 
ATOM      7  C5  OXE d   1       1.403   4.504  -1.181  0.00  0.00    -0.002 A 
ATOM      8  C6  OXE d   1       1.391   3.772   0.002  0.00  0.00     0.003 A 
ENDROOT
TORSDOF 0
ENDMDL
