MODEL 1
REMARK minimizedAffinity -3.24692917
REMARK minimizedRMSD -1
REMARK  0 active torsions:
REMARK  status: ('A' for Active; 'I' for Inactive)
ROOT
ATOM      1  C2' OXE d   1       1.302   4.307  -1.094  0.00  0.00     0.078 C 
ATOM      2  C1' OXE d   1       0.733   3.444   1.516  0.00  0.00     0.078 C 
ATOM      3  C1  OXE d   1       0.945   2.391   0.457  0.00  0.00    -0.078 A 
ATOM      4  C2  OXE d   1       1.176   2.822  -0.826  0.00  0.00    -0.078 A 
ATOM      5  C3  OXE d   1       1.433   1.893  -1.830  0.00  0.00     0.003 A 
ATOM      6  C4  OXE d   1       1.305   0.522  -1.576  0.00  0.00    -0.002 A 
ATOM      7  C5  OXE d   1       1.031   0.062  -0.284  0.00  0.00    -0.002 A 
ATOM      8  C6  OXE d   1       0.890   0.980   0.751  0.00  0.00     0.003 A 
ENDROOT
TORSDOF 0
ENDMDL
