MODEL 1
REMARK minimizedAffinity 5.43227291
REMARK minimizedRMSD -1
REMARK  0 active torsions:
REMARK  status: ('A' for Active; 'I' for Inactive)
ROOT
ATOM      1  C2' OXE d   1      -0.186   3.179  -2.998  0.00  0.00     0.078 C 
ATOM      2  C1' OXE d   1       1.557   4.167  -1.031  0.00  0.00     0.078 C 
ATOM      3  C1  OXE d   1       1.579   2.685  -1.311  0.00  0.00    -0.078 A 
ATOM      4  C2  OXE d   1       0.690   2.204  -2.242  0.00  0.00    -0.078 A 
ATOM      5  C3  OXE d   1       0.707   0.853  -2.577  0.00  0.00     0.003 A 
ATOM      6  C4  OXE d   1       1.514  -0.044  -1.866  0.00  0.00    -0.002 A 
ATOM      7  C5  OXE d   1       2.398   0.419  -0.887  0.00  0.00    -0.002 A 
ATOM      8  C6  OXE d   1       2.474   1.784  -0.628  0.00  0.00     0.003 A 
ENDROOT
TORSDOF 0
ENDMDL
