MODEL 1
REMARK minimizedAffinity -0.483709663
REMARK minimizedRMSD -1
REMARK  0 active torsions:
REMARK  status: ('A' for Active; 'I' for Inactive)
ROOT
ATOM      1  C2' OXE d   1       0.911  -0.266  -2.354  0.00  0.00     0.078 C 
ATOM      2  C1' OXE d   1       2.346   0.041   0.039  0.00  0.00     0.078 C 
ATOM      3  C1  OXE d   1       1.657   1.256  -0.529  0.00  0.00    -0.078 A 
ATOM      4  C2  OXE d   1       0.996   1.107  -1.725  0.00  0.00    -0.078 A 
ATOM      5  C3  OXE d   1       0.297   2.183  -2.265  0.00  0.00     0.003 A 
ATOM      6  C4  OXE d   1       0.389   3.453  -1.682  0.00  0.00    -0.002 A 
ATOM      7  C5  OXE d   1       1.090   3.635  -0.485  0.00  0.00    -0.002 A 
ATOM      8  C6  OXE d   1       1.692   2.541   0.126  0.00  0.00     0.003 A 
ENDROOT
TORSDOF 0
ENDMDL
