MODEL 1
REMARK minimizedAffinity -1.33639181
REMARK minimizedRMSD -1
REMARK  0 active torsions:
REMARK  status: ('A' for Active; 'I' for Inactive)
ROOT
ATOM      1  C2' OXE d   1       1.717   1.909  -1.953  0.00  0.00     0.078 C 
ATOM      2  C1' OXE d   1       1.472   1.237   0.762  0.00  0.00     0.078 C 
ATOM      3  C1  OXE d   1       1.286   0.138  -0.254  0.00  0.00    -0.078 A 
ATOM      4  C2  OXE d   1       1.361   0.485  -1.582  0.00  0.00    -0.078 A 
ATOM      5  C3  OXE d   1       1.252  -0.500  -2.559  0.00  0.00     0.003 A 
ATOM      6  C4  OXE d   1       0.913  -1.812  -2.208  0.00  0.00    -0.002 A 
ATOM      7  C5  OXE d   1       0.793  -2.179  -0.863  0.00  0.00    -0.002 A 
ATOM      8  C6  OXE d   1       1.018  -1.227   0.125  0.00  0.00     0.003 A 
ENDROOT
TORSDOF 0
ENDMDL
