MODEL 1
REMARK minimizedAffinity 4.48707676
REMARK minimizedRMSD -1
REMARK  0 active torsions:
REMARK  status: ('A' for Active; 'I' for Inactive)
ROOT
ATOM      1  C2' OXE d   1       1.510   5.177  -0.607  0.00  0.00     0.078 C 
ATOM      2  C1' OXE d   1       1.346   3.604   1.712  0.00  0.00     0.078 C 
ATOM      3  C1  OXE d   1       1.416   2.893   0.384  0.00  0.00    -0.078 A 
ATOM      4  C2  OXE d   1       1.448   3.671  -0.749  0.00  0.00    -0.078 A 
ATOM      5  C3  OXE d   1       1.568   3.067  -1.997  0.00  0.00     0.003 A 
ATOM      6  C4  OXE d   1       1.501   1.674  -2.120  0.00  0.00    -0.002 A 
ATOM      7  C5  OXE d   1       1.427   0.864  -0.982  0.00  0.00    -0.002 A 
ATOM      8  C6  OXE d   1       1.427   1.455   0.277  0.00  0.00     0.003 A 
ENDROOT
TORSDOF 0
ENDMDL
