MODEL 1
REMARK minimizedAffinity 0.956720531
REMARK minimizedRMSD -1
REMARK  0 active torsions:
REMARK  status: ('A' for Active; 'I' for Inactive)
ROOT
ATOM      1  C2' OXE d   1       2.251  -1.566  -0.057  0.00  0.00     0.078 C 
ATOM      2  C1' OXE d   1       3.127   0.833   1.107  0.00  0.00     0.078 C 
ATOM      3  C1  OXE d   1       2.264   0.924  -0.126  0.00  0.00    -0.078 A 
ATOM      4  C2  OXE d   1       1.878  -0.255  -0.716  0.00  0.00    -0.078 A 
ATOM      5  C3  OXE d   1       1.036  -0.229  -1.824  0.00  0.00     0.003 A 
ATOM      6  C4  OXE d   1       0.704   0.988  -2.433  0.00  0.00    -0.002 A 
ATOM      7  C5  OXE d   1       1.119   2.200  -1.871  0.00  0.00    -0.002 A 
ATOM      8  C6  OXE d   1       1.862   2.187  -0.696  0.00  0.00     0.003 A 
ENDROOT
TORSDOF 0
ENDMDL
