MODEL 1
REMARK minimizedAffinity 2.19850326
REMARK minimizedRMSD -1
REMARK  0 active torsions:
REMARK  status: ('A' for Active; 'I' for Inactive)
ROOT
ATOM      1  C2' OXE d   1       2.770   0.502  -0.562  0.00  0.00     0.078 C 
ATOM      2  C1' OXE d   1       2.023   1.972   1.710  0.00  0.00     0.078 C 
ATOM      3  C1  OXE d   1       1.837   2.620   0.360  0.00  0.00    -0.078 A 
ATOM      4  C2  OXE d   1       2.249   1.911  -0.743  0.00  0.00    -0.078 A 
ATOM      5  C3  OXE d   1       2.049   2.440  -2.015  0.00  0.00     0.003 A 
ATOM      6  C4  OXE d   1       1.576   3.748  -2.173  0.00  0.00    -0.002 A 
ATOM      7  C5  OXE d   1       1.188   4.502  -1.061  0.00  0.00    -0.002 A 
ATOM      8  C6  OXE d   1       1.272   3.937   0.208  0.00  0.00     0.003 A 
ENDROOT
TORSDOF 0
ENDMDL
