MODEL 1
REMARK minimizedAffinity 9.43323708
REMARK minimizedRMSD -1
REMARK  0 active torsions:
REMARK  status: ('A' for Active; 'I' for Inactive)
ROOT
ATOM      1  C2' OXE d   1       1.858   5.978   1.769  0.00  0.00     0.078 C 
ATOM      2  C1' OXE d   1       1.415   3.208   1.645  0.00  0.00     0.078 C 
ATOM      3  C1  OXE d   1       1.722   3.930   0.356  0.00  0.00    -0.078 A 
ATOM      4  C2  OXE d   1       1.891   5.292   0.420  0.00  0.00    -0.078 A 
ATOM      5  C3  OXE d   1       2.229   5.999  -0.731  0.00  0.00     0.003 A 
ATOM      6  C4  OXE d   1       2.248   5.360  -1.976  0.00  0.00    -0.002 A 
ATOM      7  C5  OXE d   1       2.039   3.979  -2.068  0.00  0.00    -0.002 A 
ATOM      8  C6  OXE d   1       1.818   3.245  -0.909  0.00  0.00     0.003 A 
ENDROOT
TORSDOF 0
ENDMDL
