MODEL 1
REMARK minimizedAffinity 4.12618113
REMARK minimizedRMSD -1
REMARK  0 active torsions:
REMARK  status: ('A' for Active; 'I' for Inactive)
ROOT
ATOM      1  C2' OXE d   1       0.918  -0.538  -1.819  0.00  0.00     0.078 C 
ATOM      2  C1' OXE d   1       2.527   0.390   0.286  0.00  0.00     0.078 C 
ATOM      3  C1  OXE d   1       1.991   1.406  -0.690  0.00  0.00    -0.078 A 
ATOM      4  C2  OXE d   1       1.243   0.938  -1.744  0.00  0.00    -0.078 A 
ATOM      5  C3  OXE d   1       0.679   1.839  -2.643  0.00  0.00     0.003 A 
ATOM      6  C4  OXE d   1       0.993   3.201  -2.573  0.00  0.00    -0.002 A 
ATOM      7  C5  OXE d   1       1.785   3.694  -1.530  0.00  0.00    -0.002 A 
ATOM      8  C6  OXE d   1       2.256   2.818  -0.559  0.00  0.00     0.003 A 
ENDROOT
TORSDOF 0
ENDMDL
