MODEL 1
REMARK minimizedAffinity -4.29126787
REMARK minimizedRMSD -1
REMARK  0 active torsions:
REMARK  status: ('A' for Active; 'I' for Inactive)
ROOT
ATOM      1  C2' OXE d   1       1.879   2.214  -2.594  0.00  0.00     0.078 C 
ATOM      2  C1' OXE d   1       1.413   0.337  -0.560  0.00  0.00     0.078 C 
ATOM      3  C1  OXE d   1       1.255   1.797  -0.219  0.00  0.00    -0.078 A 
ATOM      4  C2  OXE d   1       1.531   2.711  -1.208  0.00  0.00    -0.078 A 
ATOM      5  C3  OXE d   1       1.348   4.069  -0.962  0.00  0.00     0.003 A 
ATOM      6  C4  OXE d   1       1.035   4.520   0.325  0.00  0.00    -0.002 A 
ATOM      7  C5  OXE d   1       0.789   3.608   1.357  0.00  0.00    -0.002 A 
ATOM      8  C6  OXE d   1       0.853   2.245   1.091  0.00  0.00     0.003 A 
ENDROOT
TORSDOF 0
ENDMDL
