MODEL 1
REMARK minimizedAffinity -4.79323721
REMARK minimizedRMSD -1
REMARK  1 active torsions:
REMARK  status: ('A' for Active; 'I' for Inactive)
REMARK    1  A    between atoms: C3_4  and  O_7 
ROOT
ATOM      1  C   UNL d   1       1.663  -0.056  -2.412  0.00  0.00    -0.033 A 
ATOM      2  C1  UNL d   1       2.033   0.922  -1.487  0.00  0.00     0.039 A 
ATOM      3  C2  UNL d   1       1.300   1.086  -0.310  0.00  0.00    -0.080 A 
ATOM      4  C3  UNL d   1       0.201   0.266  -0.070  0.00  0.00     0.150 A 
ATOM      5  C4  UNL d   1      -0.171  -0.713  -0.986  0.00  0.00    -0.007 A 
ATOM      6  C5  UNL d   1       0.562  -0.875  -2.160  0.00  0.00     0.039 A 
ENDROOT
BRANCH   4   7
ATOM      7  O   UNL d   1      -0.549   0.392   1.062  0.00  0.00    -0.526 OA
ATOM      8  H5  UNL d   1      -0.192   1.127   1.587  0.00  0.00     0.418 HD
ENDBRANCH   4   7
TORSDOF 1
ENDMDL
