MODEL 1
REMARK minimizedAffinity -3.16522932
REMARK minimizedRMSD -1
REMARK  1 active torsions:
REMARK  status: ('A' for Active; 'I' for Inactive)
REMARK    1  A    between atoms: C3_4  and  O_7 
ROOT
ATOM      1  C   UNL d   1      -3.709   3.669  -5.614  0.00  0.00    -0.033 A 
ATOM      2  C1  UNL d   1      -5.073   3.778  -5.888  0.00  0.00     0.039 A 
ATOM      3  C2  UNL d   1      -5.859   2.629  -5.997  0.00  0.00    -0.080 A 
ATOM      4  C3  UNL d   1      -5.270   1.379  -5.828  0.00  0.00     0.150 A 
ATOM      5  C4  UNL d   1      -3.911   1.263  -5.551  0.00  0.00    -0.007 A 
ATOM      6  C5  UNL d   1      -3.128   2.412  -5.443  0.00  0.00     0.039 A 
ENDROOT
BRANCH   4   7
ATOM      7  O   UNL d   1      -5.995   0.229  -5.929  0.00  0.00    -0.526 OA
ATOM      8  H5  UNL d   1      -6.912   0.462  -6.152  0.00  0.00     0.418 HD
ENDBRANCH   4   7
TORSDOF 1
ENDMDL
