MODEL 1
REMARK minimizedAffinity -3.09073114
REMARK minimizedRMSD -1
REMARK  1 active torsions:
REMARK  status: ('A' for Active; 'I' for Inactive)
REMARK    1  A    between atoms: C3_4  and  O_7 
ROOT
ATOM      1  C   UNL d   1      -1.655   1.955   1.155  0.00  0.00    -0.033 A 
ATOM      2  C1  UNL d   1      -2.988   2.327   1.339  0.00  0.00     0.039 A 
ATOM      3  C2  UNL d   1      -3.987   1.352   1.383  0.00  0.00    -0.080 A 
ATOM      4  C3  UNL d   1      -3.639   0.011   1.243  0.00  0.00     0.150 A 
ATOM      5  C4  UNL d   1      -2.312  -0.366   1.063  0.00  0.00    -0.007 A 
ATOM      6  C5  UNL d   1      -1.317   0.609   1.019  0.00  0.00     0.039 A 
ENDROOT
BRANCH   4   7
ATOM      7  O   UNL d   1      -4.579  -0.976   1.274  0.00  0.00    -0.526 OA
ATOM      8  H5  UNL d   1      -5.454  -0.565   1.376  0.00  0.00     0.418 HD
ENDBRANCH   4   7
TORSDOF 1
ENDMDL
