MODEL 1
REMARK minimizedAffinity -3.53253245
REMARK minimizedRMSD -1
REMARK  1 active torsions:
REMARK  status: ('A' for Active; 'I' for Inactive)
REMARK    1  A    between atoms: C3_4  and  O_7 
ROOT
ATOM      1  C   UNL d   1       0.756   0.468   0.540  0.00  0.00    -0.033 A 
ATOM      2  C1  UNL d   1       1.855   1.183   0.062  0.00  0.00     0.039 A 
ATOM      3  C2  UNL d   1       2.281   1.012  -1.257  0.00  0.00    -0.080 A 
ATOM      4  C3  UNL d   1       1.599   0.126  -2.086  0.00  0.00     0.150 A 
ATOM      5  C4  UNL d   1       0.500  -0.587  -1.617  0.00  0.00    -0.007 A 
ATOM      6  C5  UNL d   1       0.077  -0.416  -0.300  0.00  0.00     0.039 A 
ENDROOT
BRANCH   4   7
ATOM      7  O   UNL d   1       1.980  -0.077  -3.379  0.00  0.00    -0.526 OA
ATOM      8  H5  UNL d   1       2.770   0.460  -3.555  0.00  0.00     0.418 HD
ENDBRANCH   4   7
TORSDOF 1
ENDMDL
