MODEL 1
REMARK minimizedAffinity -3.01084113
REMARK minimizedRMSD -1
REMARK  1 active torsions:
REMARK  status: ('A' for Active; 'I' for Inactive)
REMARK    1  A    between atoms: C3_4  and  O_7 
ROOT
ATOM      1  C   UNL d   1       0.177  -0.296   0.843  0.00  0.00    -0.033 A 
ATOM      2  C1  UNL d   1      -0.460  -1.181  -0.029  0.00  0.00     0.039 A 
ATOM      3  C2  UNL d   1      -0.280  -1.058  -1.408  0.00  0.00    -0.080 A 
ATOM      4  C3  UNL d   1       0.540  -0.047  -1.902  0.00  0.00     0.150 A 
ATOM      5  C4  UNL d   1       1.182   0.836  -1.039  0.00  0.00    -0.007 A 
ATOM      6  C5  UNL d   1       1.000   0.711   0.338  0.00  0.00     0.039 A 
ENDROOT
BRANCH   4   7
ATOM      7  O   UNL d   1       0.743   0.116  -3.240  0.00  0.00    -0.526 OA
ATOM      8  H5  UNL d   1       0.214  -0.547  -3.714  0.00  0.00     0.418 HD
ENDBRANCH   4   7
TORSDOF 1
ENDMDL
