MODEL 1
REMARK minimizedAffinity -2.37156081
REMARK minimizedRMSD -1
REMARK  1 active torsions:
REMARK  status: ('A' for Active; 'I' for Inactive)
REMARK    1  A    between atoms: C3_4  and  O_7 
ROOT
ATOM      1  C   UNL d   1      -0.108  -0.059   0.343  0.00  0.00    -0.033 A 
ATOM      2  C1  UNL d   1      -0.677  -0.319   1.590  0.00  0.00     0.039 A 
ATOM      3  C2  UNL d   1      -2.064  -0.274   1.750  0.00  0.00    -0.080 A 
ATOM      4  C3  UNL d   1      -2.868   0.030   0.655  0.00  0.00     0.150 A 
ATOM      5  C4  UNL d   1      -2.307   0.287  -0.592  0.00  0.00    -0.007 A 
ATOM      6  C5  UNL d   1      -0.923   0.243  -0.749  0.00  0.00     0.039 A 
ENDROOT
BRANCH   4   7
ATOM      7  O   UNL d   1      -4.226   0.090   0.763  0.00  0.00    -0.526 OA
ATOM      8  H5  UNL d   1      -4.468  -0.081   1.689  0.00  0.00     0.418 HD
ENDBRANCH   4   7
TORSDOF 1
ENDMDL
