MODEL 1
REMARK minimizedAffinity -4.69744825
REMARK minimizedRMSD -1
REMARK  1 active torsions:
REMARK  status: ('A' for Active; 'I' for Inactive)
REMARK    1  A    between atoms: C3_4  and  O_7 
ROOT
ATOM      1  C   UNL d   1       2.207   0.170  -2.637  0.00  0.00    -0.033 A 
ATOM      2  C1  UNL d   1       1.699  -1.093  -2.325  0.00  0.00     0.039 A 
ATOM      3  C2  UNL d   1       0.852  -1.255  -1.227  0.00  0.00    -0.080 A 
ATOM      4  C3  UNL d   1       0.522  -0.148  -0.450  0.00  0.00     0.150 A 
ATOM      5  C4  UNL d   1       1.021   1.113  -0.757  0.00  0.00    -0.007 A 
ATOM      6  C5  UNL d   1       1.867   1.273  -1.854  0.00  0.00     0.039 A 
ENDROOT
BRANCH   4   7
ATOM      7  O   UNL d   1      -0.297  -0.258   0.635  0.00  0.00    -0.526 OA
ATOM      8  H5  UNL d   1      -0.542  -1.192   0.742  0.00  0.00     0.418 HD
ENDBRANCH   4   7
TORSDOF 1
ENDMDL
