MODEL 1
REMARK minimizedAffinity -4.19257689
REMARK minimizedRMSD -1
REMARK  1 active torsions:
REMARK  status: ('A' for Active; 'I' for Inactive)
REMARK    1  A    between atoms: C3_4  and  O_7 
ROOT
ATOM      1  C   UNL d   1      -0.140   0.071   0.556  0.00  0.00    -0.033 A 
ATOM      2  C1  UNL d   1      -0.094  -0.974  -0.369  0.00  0.00     0.039 A 
ATOM      3  C2  UNL d   1       0.596  -0.814  -1.572  0.00  0.00    -0.080 A 
ATOM      4  C3  UNL d   1       1.236   0.393  -1.838  0.00  0.00     0.150 A 
ATOM      5  C4  UNL d   1       1.198   1.437  -0.920  0.00  0.00    -0.007 A 
ATOM      6  C5  UNL d   1       0.508   1.276   0.281  0.00  0.00     0.039 A 
ENDROOT
BRANCH   4   7
ATOM      7  O   UNL d   1       1.918   0.597  -3.001  0.00  0.00    -0.526 OA
ATOM      8  H5  UNL d   1       1.835  -0.200  -3.550  0.00  0.00     0.418 HD
ENDBRANCH   4   7
TORSDOF 1
ENDMDL
