MODEL 1
REMARK minimizedAffinity -4.81264639
REMARK minimizedRMSD -1
REMARK  1 active torsions:
REMARK  status: ('A' for Active; 'I' for Inactive)
REMARK    1  A    between atoms: C3_4  and  O_7 
ROOT
ATOM      1  C   UNL d   1       0.272   0.638   0.579  0.00  0.00    -0.033 A 
ATOM      2  C1  UNL d   1       0.017  -0.617   0.023  0.00  0.00     0.039 A 
ATOM      3  C2  UNL d   1       0.613  -0.981  -1.185  0.00  0.00    -0.080 A 
ATOM      4  C3  UNL d   1       1.463  -0.084  -1.826  0.00  0.00     0.150 A 
ATOM      5  C4  UNL d   1       1.724   1.167  -1.276  0.00  0.00    -0.007 A 
ATOM      6  C5  UNL d   1       1.127   1.529  -0.070  0.00  0.00     0.039 A 
ENDROOT
BRANCH   4   7
ATOM      7  O   UNL d   1       2.064  -0.393  -3.010  0.00  0.00    -0.526 OA
ATOM      8  H5  UNL d   1       1.768  -1.277  -3.284  0.00  0.00     0.418 HD
ENDBRANCH   4   7
TORSDOF 1
ENDMDL
