MODEL 1
REMARK minimizedAffinity -4.55154705
REMARK minimizedRMSD -1
REMARK  1 active torsions:
REMARK  status: ('A' for Active; 'I' for Inactive)
REMARK    1  A    between atoms: C3_4  and  O_7 
ROOT
ATOM      1  C   UNL d   1       1.865  -0.107  -2.375  0.00  0.00    -0.033 A 
ATOM      2  C1  UNL d   1       2.285  -1.429  -2.534  0.00  0.00     0.039 A 
ATOM      3  C2  UNL d   1       1.764  -2.433  -1.716  0.00  0.00    -0.080 A 
ATOM      4  C3  UNL d   1       0.823  -2.103  -0.744  0.00  0.00     0.150 A 
ATOM      5  C4  UNL d   1       0.397  -0.789  -0.582  0.00  0.00    -0.007 A 
ATOM      6  C5  UNL d   1       0.919   0.213  -1.400  0.00  0.00     0.039 A 
ENDROOT
BRANCH   4   7
ATOM      7  O   UNL d   1       0.289  -3.047   0.081  0.00  0.00    -0.526 OA
ATOM      8  H5  UNL d   1       0.698  -3.904  -0.127  0.00  0.00     0.418 HD
ENDBRANCH   4   7
TORSDOF 1
ENDMDL
