MODEL 1
REMARK minimizedAffinity -4.31380224
REMARK minimizedRMSD -1
REMARK  1 active torsions:
REMARK  status: ('A' for Active; 'I' for Inactive)
REMARK    1  A    between atoms: C3_4  and  O_7 
ROOT
ATOM      1  C   UNL d   1      -0.346  -0.429   0.316  0.00  0.00    -0.033 A 
ATOM      2  C1  UNL d   1       0.171   0.845   0.070  0.00  0.00     0.039 A 
ATOM      3  C2  UNL d   1       0.984   1.067  -1.043  0.00  0.00    -0.080 A 
ATOM      4  C3  UNL d   1       1.270   0.009  -1.902  0.00  0.00     0.150 A 
ATOM      5  C4  UNL d   1       0.755  -1.261  -1.665  0.00  0.00    -0.007 A 
ATOM      6  C5  UNL d   1      -0.055  -1.481  -0.553  0.00  0.00     0.039 A 
ENDROOT
BRANCH   4   7
ATOM      7  O   UNL d   1       2.063   0.177  -2.999  0.00  0.00    -0.526 OA
ATOM      8  H5  UNL d   1       2.370   1.098  -3.019  0.00  0.00     0.418 HD
ENDBRANCH   4   7
TORSDOF 1
ENDMDL
