MODEL 1
REMARK minimizedAffinity -3.07816815
REMARK minimizedRMSD -1
REMARK  1 active torsions:
REMARK  status: ('A' for Active; 'I' for Inactive)
REMARK    1  A    between atoms: C3_4  and  O_7 
ROOT
ATOM      1  C   UNL d   1      -0.100  -0.161   0.580  0.00  0.00    -0.033 A 
ATOM      2  C1  UNL d   1       0.212  -1.281  -0.194  0.00  0.00     0.039 A 
ATOM      3  C2  UNL d   1       1.111  -1.169  -1.256  0.00  0.00    -0.080 A 
ATOM      4  C3  UNL d   1       1.692   0.065  -1.533  0.00  0.00     0.150 A 
ATOM      5  C4  UNL d   1       1.389   1.184  -0.764  0.00  0.00    -0.007 A 
ATOM      6  C5  UNL d   1       0.490   1.071   0.296  0.00  0.00     0.039 A 
ENDROOT
BRANCH   4   7
ATOM      7  O   UNL d   1       2.572   0.224  -2.562  0.00  0.00    -0.526 OA
ATOM      8  H5  UNL d   1       2.663  -0.626  -3.023  0.00  0.00     0.418 HD
ENDBRANCH   4   7
TORSDOF 1
ENDMDL
