MODEL 1
REMARK minimizedAffinity -1.4536835
REMARK minimizedRMSD -1
REMARK  1 active torsions:
REMARK  status: ('A' for Active; 'I' for Inactive)
REMARK    1  A    between atoms: C3_4  and  O_7 
ROOT
ATOM      1  C   UNL d   1      -0.821  -0.932   1.212  0.00  0.00    -0.033 A 
ATOM      2  C1  UNL d   1      -0.547   0.415   0.965  0.00  0.00     0.039 A 
ATOM      3  C2  UNL d   1       0.229   0.781  -0.136  0.00  0.00    -0.080 A 
ATOM      4  C3  UNL d   1       0.723  -0.207  -0.983  0.00  0.00     0.150 A 
ATOM      5  C4  UNL d   1       0.451  -1.551  -0.746  0.00  0.00    -0.007 A 
ATOM      6  C5  UNL d   1      -0.323  -1.915   0.355  0.00  0.00     0.039 A 
ENDROOT
BRANCH   4   7
ATOM      7  O   UNL d   1       1.489   0.101  -2.068  0.00  0.00    -0.526 OA
ATOM      8  H5  UNL d   1       1.618   1.064  -2.089  0.00  0.00     0.418 HD
ENDBRANCH   4   7
TORSDOF 1
ENDMDL
