MODEL 1
REMARK minimizedAffinity -1.62659097
REMARK minimizedRMSD -1
REMARK  1 active torsions:
REMARK  status: ('A' for Active; 'I' for Inactive)
REMARK    1  A    between atoms: C3_4  and  O_7 
ROOT
ATOM      1  C   UNL d   1       2.601   0.451  -1.664  0.00  0.00    -0.033 A 
ATOM      2  C1  UNL d   1       2.104  -0.820  -1.366  0.00  0.00     0.039 A 
ATOM      3  C2  UNL d   1       1.022  -0.961  -0.495  0.00  0.00    -0.080 A 
ATOM      4  C3  UNL d   1       0.446   0.174   0.069  0.00  0.00     0.150 A 
ATOM      5  C4  UNL d   1       0.934   1.443  -0.227  0.00  0.00    -0.007 A 
ATOM      6  C5  UNL d   1       2.015   1.582  -1.096  0.00  0.00     0.039 A 
ENDROOT
BRANCH   4   7
ATOM      7  O   UNL d   1      -0.608   0.086   0.929  0.00  0.00    -0.526 OA
ATOM      8  H5  UNL d   1      -0.819  -0.853   1.063  0.00  0.00     0.418 HD
ENDBRANCH   4   7
TORSDOF 1
ENDMDL
