MODEL 1
REMARK minimizedAffinity -2.09146786
REMARK minimizedRMSD -1
REMARK  1 active torsions:
REMARK  status: ('A' for Active; 'I' for Inactive)
REMARK    1  A    between atoms: C3_4  and  O_7 
ROOT
ATOM      1  C   UNL d   1       1.051   0.797  -1.325  0.00  0.00    -0.033 A 
ATOM      2  C1  UNL d   1       1.879   0.178  -2.264  0.00  0.00     0.039 A 
ATOM      3  C2  UNL d   1       1.965  -1.215  -2.310  0.00  0.00    -0.080 A 
ATOM      4  C3  UNL d   1       1.220  -1.976  -1.414  0.00  0.00     0.150 A 
ATOM      5  C4  UNL d   1       0.391  -1.366  -0.478  0.00  0.00    -0.007 A 
ATOM      6  C5  UNL d   1       0.306   0.025  -0.433  0.00  0.00     0.039 A 
ENDROOT
BRANCH   4   7
ATOM      7  O   UNL d   1       1.275  -3.338  -1.417  0.00  0.00    -0.526 OA
ATOM      8  H5  UNL d   1       1.910  -3.619  -2.097  0.00  0.00     0.418 HD
ENDBRANCH   4   7
TORSDOF 1
ENDMDL
