MODEL 1
REMARK minimizedAffinity -4.23290157
REMARK minimizedRMSD -1
REMARK  1 active torsions:
REMARK  status: ('A' for Active; 'I' for Inactive)
REMARK    1  A    between atoms: C3_4  and  O_7 
ROOT
ATOM      1  C   UNL d   1       0.110  -0.073   0.035  0.00  0.00    -0.033 A 
ATOM      2  C1  UNL d   1       0.810   1.108  -0.218  0.00  0.00     0.039 A 
ATOM      3  C2  UNL d   1       1.438   1.299  -1.451  0.00  0.00    -0.080 A 
ATOM      4  C3  UNL d   1       1.357   0.304  -2.420  0.00  0.00     0.150 A 
ATOM      5  C4  UNL d   1       0.658  -0.874  -2.176  0.00  0.00    -0.007 A 
ATOM      6  C5  UNL d   1       0.033  -1.064  -0.945  0.00  0.00     0.039 A 
ENDROOT
BRANCH   4   7
ATOM      7  O   UNL d   1       1.957   0.443  -3.636  0.00  0.00    -0.526 OA
ATOM      8  H5  UNL d   1       2.427   1.293  -3.652  0.00  0.00     0.418 HD
ENDBRANCH   4   7
TORSDOF 1
ENDMDL
