MODEL 1
REMARK minimizedAffinity -5.4902029
REMARK minimizedRMSD -1
REMARK  1 active torsions:
REMARK  status: ('A' for Active; 'I' for Inactive)
REMARK    1  A    between atoms: C1_2  and  C2_3 
ROOT
ATOM      1  C2  UNL d   1      -0.200  -0.093   0.015  0.00  0.00    -0.077 A 
ATOM      2  C3  UNL d   1       1.147  -0.476   0.082  0.00  0.00     0.002 A 
ATOM      3  C4  UNL d   1       1.746  -0.739   1.316  0.00  0.00     0.002 A 
ATOM      4  C5  UNL d   1       1.005  -0.626   2.490  0.00  0.00    -0.004 A 
ATOM      5  C6  UNL d   1      -0.335  -0.243   2.434  0.00  0.00     0.002 A 
ATOM      6  C7  UNL d   1      -0.935   0.021   1.202  0.00  0.00     0.002 A 
ENDROOT
BRANCH   1   7
ATOM      7  C1  UNL d   1      -0.860   0.143  -1.318  0.00  0.00     0.055 C 
ATOM      8  C   UNL d   1      -0.524   1.522  -1.866  0.00  0.00     0.019 C 
ENDBRANCH   1   7
TORSDOF 1
ENDMDL
