MODEL 1
REMARK minimizedAffinity -4.06078577
REMARK minimizedRMSD -1
REMARK  1 active torsions:
REMARK  status: ('A' for Active; 'I' for Inactive)
REMARK    1  A    between atoms: C1_2  and  C2_3 
ROOT
ATOM      1  C2  UNL d   1      -0.343  -0.442   0.864  0.00  0.00    -0.077 A 
ATOM      2  C3  UNL d   1       0.973   0.039   0.824  0.00  0.00     0.002 A 
ATOM      3  C4  UNL d   1       1.873  -0.279   1.842  0.00  0.00     0.002 A 
ATOM      4  C5  UNL d   1       1.468  -1.083   2.906  0.00  0.00    -0.004 A 
ATOM      5  C6  UNL d   1       0.161  -1.565   2.957  0.00  0.00     0.002 A 
ATOM      6  C7  UNL d   1      -0.741  -1.247   1.940  0.00  0.00     0.002 A 
ENDROOT
BRANCH   1   7
ATOM      7  C1  UNL d   1      -1.302  -0.141  -0.258  0.00  0.00     0.055 C 
ATOM      8  C   UNL d   1      -0.591   0.517  -1.431  0.00  0.00     0.019 C 
ENDBRANCH   1   7
TORSDOF 1
ENDMDL
