MODEL 1
REMARK minimizedAffinity -5.33427858
REMARK minimizedRMSD -1
REMARK  1 active torsions:
REMARK  status: ('A' for Active; 'I' for Inactive)
REMARK    1  A    between atoms: C1_2  and  C2_3 
ROOT
ATOM      1  C2  UNL d   1      -0.037   0.094   0.128  0.00  0.00    -0.077 A 
ATOM      2  C3  UNL d   1       1.302   0.242   0.515  0.00  0.00     0.002 A 
ATOM      3  C4  UNL d   1       1.693  -0.038   1.826  0.00  0.00     0.002 A 
ATOM      4  C5  UNL d   1       0.752  -0.472   2.758  0.00  0.00    -0.004 A 
ATOM      5  C6  UNL d   1      -0.583  -0.620   2.383  0.00  0.00     0.002 A 
ATOM      6  C7  UNL d   1      -0.975  -0.339   1.073  0.00  0.00     0.002 A 
ENDROOT
BRANCH   1   7
ATOM      7  C1  UNL d   1      -0.451   0.348  -1.298  0.00  0.00     0.055 C 
ATOM      8  C   UNL d   1      -0.375   1.828  -1.641  0.00  0.00     0.019 C 
ENDBRANCH   1   7
TORSDOF 1
ENDMDL
