MODEL 1
REMARK minimizedAffinity -6.04994583
REMARK minimizedRMSD -1
REMARK  1 active torsions:
REMARK  status: ('A' for Active; 'I' for Inactive)
REMARK    1  A    between atoms: C1_2  and  C2_3 
ROOT
ATOM      1  C2  UNL d   1      -0.076  -0.223  -0.086  0.00  0.00    -0.077 A 
ATOM      2  C3  UNL d   1       1.266  -0.613   0.034  0.00  0.00     0.002 A 
ATOM      3  C4  UNL d   1       1.828  -0.832   1.293  0.00  0.00     0.002 A 
ATOM      4  C5  UNL d   1       1.056  -0.668   2.441  0.00  0.00    -0.004 A 
ATOM      5  C6  UNL d   1      -0.279  -0.279   2.333  0.00  0.00     0.002 A 
ATOM      6  C7  UNL d   1      -0.842  -0.059   1.075  0.00  0.00     0.002 A 
ENDROOT
BRANCH   1   7
ATOM      7  C1  UNL d   1      -0.697  -0.034  -1.444  0.00  0.00     0.055 C 
ATOM      8  C   UNL d   1      -0.621   1.419  -1.891  0.00  0.00     0.019 C 
ENDBRANCH   1   7
TORSDOF 1
ENDMDL
