MODEL 1
REMARK minimizedAffinity -3.18133235
REMARK minimizedRMSD -1
REMARK  1 active torsions:
REMARK  status: ('A' for Active; 'I' for Inactive)
REMARK    1  A    between atoms: C1_2  and  C2_3 
ROOT
ATOM      1  C2  UNL d   1       0.063  -0.735   0.698  0.00  0.00    -0.077 A 
ATOM      2  C3  UNL d   1       0.012  -1.108   2.048  0.00  0.00     0.002 A 
ATOM      3  C4  UNL d   1       1.186  -1.209   2.797  0.00  0.00     0.002 A 
ATOM      4  C5  UNL d   1       2.417  -0.934   2.207  0.00  0.00    -0.004 A 
ATOM      5  C6  UNL d   1       2.478  -0.565   0.864  0.00  0.00     0.002 A 
ATOM      6  C7  UNL d   1       1.306  -0.465   0.113  0.00  0.00     0.002 A 
ENDROOT
BRANCH   1   7
ATOM      7  C1  UNL d   1      -1.206  -0.579  -0.099  0.00  0.00     0.055 C 
ATOM      8  C   UNL d   1      -2.414  -1.084   0.677  0.00  0.00     0.019 C 
ENDBRANCH   1   7
TORSDOF 1
ENDMDL
