MODEL 1
REMARK minimizedAffinity -5.32939672
REMARK minimizedRMSD -1
REMARK  1 active torsions:
REMARK  status: ('A' for Active; 'I' for Inactive)
REMARK    1  A    between atoms: C1_2  and  C2_3 
ROOT
ATOM      1  C2  UNL d   1       0.045  -0.312  -0.394  0.00  0.00    -0.077 A 
ATOM      2  C3  UNL d   1       1.209  -1.094  -0.374  0.00  0.00     0.002 A 
ATOM      3  C4  UNL d   1       1.631  -1.703   0.809  0.00  0.00     0.002 A 
ATOM      4  C5  UNL d   1       0.894  -1.541   1.980  0.00  0.00    -0.004 A 
ATOM      5  C6  UNL d   1      -0.264  -0.764   1.971  0.00  0.00     0.002 A 
ATOM      6  C7  UNL d   1      -0.687  -0.153   0.790  0.00  0.00     0.002 A 
ENDROOT
BRANCH   1   7
ATOM      7  C1  UNL d   1      -0.438   0.305  -1.680  0.00  0.00     0.055 C 
ATOM      8  C   UNL d   1      -0.110   1.790  -1.739  0.00  0.00     0.019 C 
ENDBRANCH   1   7
TORSDOF 1
ENDMDL
