MODEL 1
REMARK minimizedAffinity -5.29034853
REMARK minimizedRMSD -1
REMARK  2 active torsions:
REMARK  status: ('A' for Active; 'I' for Inactive)
REMARK    1  A    between atoms: C2'_3  and  C1'_4 
REMARK    2  A    between atoms: C1'_4  and  C1_5 
ROOT
ATOM      1  C1  I4B d   1       0.035  -0.100  -0.392  0.00  0.00    -0.075 A 
ATOM      2  C2  I4B d   1      -1.146   0.478  -0.787  0.00  0.00     0.003 A 
ATOM      3  C3  I4B d   1      -2.000   1.079   0.169  0.00  0.00     0.002 A 
ATOM      4  C4  I4B d   1      -1.661   1.035   1.506  0.00  0.00    -0.004 A 
ATOM      5  C5  I4B d   1      -0.452   0.469   1.902  0.00  0.00     0.002 A 
ATOM      6  C6  I4B d   1       0.407  -0.092   0.946  0.00  0.00     0.003 A 
ENDROOT
BRANCH   1   7
ATOM      7  C1' I4B d   1       0.897  -0.755  -1.424  0.00  0.00     0.060 C 
BRANCH   7   8
ATOM      8  C2' I4B d   1       0.865   0.104  -2.672  0.00  0.00    -0.013 C 
ATOM      9  C4' I4B d   1       2.216   0.707  -2.953  0.00  0.00     0.013 C 
ATOM     10  C3' I4B d   1       0.408  -0.754  -3.813  0.00  0.00     0.013 C 
ENDBRANCH   7   8
ENDBRANCH   1   7
TORSDOF 2
ENDMDL
