MODEL 1
REMARK minimizedAffinity -2.27171493
REMARK minimizedRMSD -1
REMARK  2 active torsions:
REMARK  status: ('A' for Active; 'I' for Inactive)
REMARK    1  A    between atoms: C2'_3  and  C1'_4 
REMARK    2  A    between atoms: C1'_4  and  C1_5 
ROOT
ATOM      1  C1  I4B d   1       0.215  -0.001  -1.803  0.00  0.00    -0.075 A 
ATOM      2  C2  I4B d   1       0.168  -0.798  -2.920  0.00  0.00     0.003 A 
ATOM      3  C3  I4B d   1       0.624  -0.305  -4.167  0.00  0.00     0.002 A 
ATOM      4  C4  I4B d   1       1.069   0.998  -4.261  0.00  0.00    -0.004 A 
ATOM      5  C5  I4B d   1       1.137   1.797  -3.124  0.00  0.00     0.002 A 
ATOM      6  C6  I4B d   1       0.720   1.291  -1.884  0.00  0.00     0.003 A 
ENDROOT
BRANCH   1   7
ATOM      7  C1' I4B d   1      -0.305  -0.542  -0.509  0.00  0.00     0.060 C 
BRANCH   7   8
ATOM      8  C2' I4B d   1      -0.922   0.607   0.263  0.00  0.00    -0.013 C 
ATOM      9  C4' I4B d   1      -2.344   0.851  -0.167  0.00  0.00     0.013 C 
ATOM     10  C3' I4B d   1      -0.846   0.276   1.723  0.00  0.00     0.013 C 
ENDBRANCH   7   8
ENDBRANCH   1   7
TORSDOF 2
ENDMDL
