MODEL 1
REMARK minimizedAffinity -3.35132217
REMARK minimizedRMSD -1
REMARK  2 active torsions:
REMARK  status: ('A' for Active; 'I' for Inactive)
REMARK    1  A    between atoms: C2'_3  and  C1'_4 
REMARK    2  A    between atoms: C1'_4  and  C1_5 
ROOT
ATOM      1  C1  I4B d   1      -0.115  -0.113  -0.880  0.00  0.00    -0.075 A 
ATOM      2  C2  I4B d   1      -1.397   0.366  -0.774  0.00  0.00     0.003 A 
ATOM      3  C3  I4B d   1      -1.906   0.768   0.485  0.00  0.00     0.002 A 
ATOM      4  C4  I4B d   1      -1.121   0.628   1.611  0.00  0.00    -0.004 A 
ATOM      5  C5  I4B d   1       0.186   0.164   1.499  0.00  0.00     0.002 A 
ATOM      6  C6  I4B d   1       0.697  -0.197   0.244  0.00  0.00     0.003 A 
ENDROOT
BRANCH   1   7
ATOM      7  C1' I4B d   1       0.380  -0.560  -2.219  0.00  0.00     0.060 C 
BRANCH   7   8
ATOM      8  C2' I4B d   1       0.623   0.675  -3.062  0.00  0.00    -0.013 C 
ATOM      9  C4' I4B d   1       2.042   0.719  -3.567  0.00  0.00     0.013 C 
ATOM     10  C3' I4B d   1      -0.355   0.660  -4.199  0.00  0.00     0.013 C 
ENDBRANCH   7   8
ENDBRANCH   1   7
TORSDOF 2
ENDMDL
