MODEL 1
REMARK minimizedAffinity -4.03426218
REMARK minimizedRMSD -1
REMARK  2 active torsions:
REMARK  status: ('A' for Active; 'I' for Inactive)
REMARK    1  A    between atoms: C2'_3  and  C1'_4 
REMARK    2  A    between atoms: C1'_4  and  C1_5 
ROOT
ATOM      1  C1  I4B d   1       0.695  -0.217  -2.216  0.00  0.00    -0.075 A 
ATOM      2  C2  I4B d   1      -0.327   0.087  -3.080  0.00  0.00     0.003 A 
ATOM      3  C3  I4B d   1      -0.084   0.895  -4.217  0.00  0.00     0.002 A 
ATOM      4  C4  I4B d   1       1.177   1.416  -4.423  0.00  0.00    -0.004 A 
ATOM      5  C5  I4B d   1       2.218   1.088  -3.559  0.00  0.00     0.002 A 
ATOM      6  C6  I4B d   1       1.979   0.257  -2.455  0.00  0.00     0.003 A 
ENDROOT
BRANCH   1   7
ATOM      7  C1' I4B d   1       0.396  -1.046  -1.007  0.00  0.00     0.060 C 
BRANCH   7   8
ATOM      8  C2' I4B d   1       0.492  -0.148   0.210  0.00  0.00    -0.013 C 
ATOM      9  C4' I4B d   1      -0.866   0.101   0.811  0.00  0.00     0.013 C 
ATOM     10  C3' I4B d   1       1.409  -0.804   1.198  0.00  0.00     0.013 C 
ENDBRANCH   7   8
ENDBRANCH   1   7
TORSDOF 2
ENDMDL
