MODEL 1
REMARK minimizedAffinity -5.07343674
REMARK minimizedRMSD -1
REMARK  2 active torsions:
REMARK  status: ('A' for Active; 'I' for Inactive)
REMARK    1  A    between atoms: C2'_3  and  C1'_4 
REMARK    2  A    between atoms: C1'_4  and  C1_5 
ROOT
ATOM      1  C1  I4B d   1      -0.145   0.466   0.275  0.00  0.00    -0.075 A 
ATOM      2  C2  I4B d   1      -1.201   1.292   0.568  0.00  0.00     0.003 A 
ATOM      3  C3  I4B d   1      -1.550   1.552   1.916  0.00  0.00     0.002 A 
ATOM      4  C4  I4B d   1      -0.852   0.931   2.931  0.00  0.00    -0.004 A 
ATOM      5  C5  I4B d   1       0.233   0.111   2.632  0.00  0.00     0.002 A 
ATOM      6  C6  I4B d   1       0.597  -0.113   1.296  0.00  0.00     0.003 A 
ENDROOT
BRANCH   1   7
ATOM      7  C1' I4B d   1       0.175   0.186  -1.159  0.00  0.00     0.060 C 
BRANCH   7   8
ATOM      8  C2' I4B d   1      -0.022  -1.297  -1.401  0.00  0.00    -0.013 C 
ATOM      9  C4' I4B d   1      -1.330  -1.774  -0.828  0.00  0.00     0.013 C 
ATOM     10  C3' I4B d   1       0.042  -1.537  -2.879  0.00  0.00     0.013 C 
ENDBRANCH   7   8
ENDBRANCH   1   7
TORSDOF 2
ENDMDL
