MODEL 1
REMARK minimizedAffinity -1.32206368
REMARK minimizedRMSD -1
REMARK  2 active torsions:
REMARK  status: ('A' for Active; 'I' for Inactive)
REMARK    1  A    between atoms: C2'_3  and  C1'_4 
REMARK    2  A    between atoms: C1'_4  and  C1_5 
ROOT
ATOM      1  C1  I4B d   1       0.096   0.545   0.071  0.00  0.00    -0.075 A 
ATOM      2  C2  I4B d   1      -1.271   0.524   0.196  0.00  0.00     0.003 A 
ATOM      3  C3  I4B d   1      -1.879   0.842   1.434  0.00  0.00     0.002 A 
ATOM      4  C4  I4B d   1      -1.087   1.125   2.528  0.00  0.00    -0.004 A 
ATOM      5  C5  I4B d   1       0.298   1.169   2.394  0.00  0.00     0.002 A 
ATOM      6  C6  I4B d   1       0.893   0.889   1.155  0.00  0.00     0.003 A 
ENDROOT
BRANCH   1   7
ATOM      7  C1' I4B d   1       0.706   0.172  -1.242  0.00  0.00     0.060 C 
BRANCH   7   8
ATOM      8  C2' I4B d   1       0.605   1.371  -2.162  0.00  0.00    -0.013 C 
ATOM      9  C4' I4B d   1       1.742   2.332  -1.933  0.00  0.00     0.013 C 
ATOM     10  C3' I4B d   1       0.595   0.871  -3.576  0.00  0.00     0.013 C 
ENDBRANCH   7   8
ENDBRANCH   1   7
TORSDOF 2
ENDMDL
