MODEL 1
REMARK minimizedAffinity 5.31665182
REMARK minimizedRMSD -1
REMARK  0 active torsions:
REMARK  status: ('A' for Active; 'I' for Inactive)
ROOT
ATOM      1  C   UNL d   1      -0.404   2.229  -0.261  0.00  0.00     0.077 C 
ATOM      2  C1  UNL d   1      -0.223   2.827   1.103  0.00  0.00    -0.074 A 
ATOM      3  C2  UNL d   1       1.034   3.262   1.535  0.00  0.00    -0.005 A 
ATOM      4  C3  UNL d   1       1.186   3.825   2.803  0.00  0.00     0.006 A 
ATOM      5  C4  UNL d   1       0.084   3.958   3.648  0.00  0.00    -0.005 A 
ATOM      6  C5  UNL d   1      -1.181   3.529   3.233  0.00  0.00    -0.074 A 
ATOM      7  C6  UNL d   1      -2.377   3.674   4.126  0.00  0.00     0.077 C 
ATOM      8  C7  UNL d   1      -1.326   2.971   1.955  0.00  0.00    -0.001 A 
ENDROOT
TORSDOF 0
ENDMDL
