MODEL 1
REMARK minimizedAffinity 7.78450441
REMARK minimizedRMSD -1
REMARK  0 active torsions:
REMARK  status: ('A' for Active; 'I' for Inactive)
ROOT
ATOM      1  C   UNL d   1      -0.934  -1.162  -0.633  0.00  0.00     0.077 C 
ATOM      2  C1  UNL d   1      -1.107   0.154   0.065  0.00  0.00    -0.074 A 
ATOM      3  C2  UNL d   1      -2.377   0.611   0.434  0.00  0.00    -0.005 A 
ATOM      4  C3  UNL d   1      -2.521   1.832   1.091  0.00  0.00     0.006 A 
ATOM      5  C4  UNL d   1      -1.400   2.608   1.387  0.00  0.00    -0.005 A 
ATOM      6  C5  UNL d   1      -0.122   2.167   1.028  0.00  0.00    -0.074 A 
ATOM      7  C6  UNL d   1       1.094   2.984   1.347  0.00  0.00     0.077 C 
ATOM      8  C7  UNL d   1       0.015   0.935   0.373  0.00  0.00    -0.001 A 
ENDROOT
TORSDOF 0
ENDMDL
