MODEL 1
REMARK minimizedAffinity 4.66255283
REMARK minimizedRMSD -1
REMARK  0 active torsions:
REMARK  status: ('A' for Active; 'I' for Inactive)
ROOT
ATOM      1  C   UNL d   1      -0.454   3.210   3.894  0.00  0.00     0.077 C 
ATOM      2  C1  UNL d   1      -0.186   2.792   2.479  0.00  0.00    -0.074 A 
ATOM      3  C2  UNL d   1       1.053   2.259   2.109  0.00  0.00    -0.005 A 
ATOM      4  C3  UNL d   1       1.285   1.866   0.791  0.00  0.00     0.006 A 
ATOM      5  C4  UNL d   1       0.282   2.002  -0.169  0.00  0.00    -0.005 A 
ATOM      6  C5  UNL d   1      -0.964   2.532   0.182  0.00  0.00    -0.074 A 
ATOM      7  C6  UNL d   1      -2.056   2.675  -0.836  0.00  0.00     0.077 C 
ATOM      8  C7  UNL d   1      -1.191   2.918   1.510  0.00  0.00    -0.001 A 
ENDROOT
TORSDOF 0
ENDMDL
