MODEL 1
REMARK minimizedAffinity 0.146501258
REMARK minimizedRMSD -1
REMARK  0 active torsions:
REMARK  status: ('A' for Active; 'I' for Inactive)
ROOT
ATOM      1  C   UNL d   1       1.171   1.010  -5.260  0.00  0.00     0.077 C 
ATOM      2  C1  UNL d   1      -0.048   1.872  -5.405  0.00  0.00    -0.074 A 
ATOM      3  C2  UNL d   1      -1.331   1.325  -5.304  0.00  0.00    -0.005 A 
ATOM      4  C3  UNL d   1      -2.455   2.141  -5.432  0.00  0.00     0.006 A 
ATOM      5  C4  UNL d   1      -2.308   3.509  -5.660  0.00  0.00    -0.005 A 
ATOM      6  C5  UNL d   1      -1.033   4.074  -5.762  0.00  0.00    -0.074 A 
ATOM      7  C6  UNL d   1      -0.856   5.545  -5.998  0.00  0.00     0.077 C 
ATOM      8  C7  UNL d   1       0.092   3.249  -5.626  0.00  0.00    -0.001 A 
ENDROOT
TORSDOF 0
ENDMDL
