MODEL 1
REMARK minimizedAffinity 1.50156367
REMARK minimizedRMSD -1
REMARK  0 active torsions:
REMARK  status: ('A' for Active; 'I' for Inactive)
ROOT
ATOM      1  C   UNL d   1       0.319   2.054  -3.439  0.00  0.00     0.077 C 
ATOM      2  C1  UNL d   1       0.513   1.371  -2.118  0.00  0.00    -0.074 A 
ATOM      3  C2  UNL d   1       1.780   0.943  -1.709  0.00  0.00    -0.005 A 
ATOM      4  C3  UNL d   1       1.946   0.318  -0.473  0.00  0.00     0.006 A 
ATOM      5  C4  UNL d   1       0.849   0.115   0.365  0.00  0.00    -0.005 A 
ATOM      6  C5  UNL d   1      -0.425   0.537  -0.027  0.00  0.00    -0.074 A 
ATOM      7  C6  UNL d   1      -1.614   0.335   0.866  0.00  0.00     0.077 C 
ATOM      8  C7  UNL d   1      -0.583   1.170  -1.267  0.00  0.00    -0.001 A 
ENDROOT
TORSDOF 0
ENDMDL
