MODEL 1
REMARK minimizedAffinity -0.068209298
REMARK minimizedRMSD -1
REMARK  0 active torsions:
REMARK  status: ('A' for Active; 'I' for Inactive)
ROOT
ATOM      1  C   UNL d   1       3.503  -2.552  -3.465  0.00  0.00     0.077 C 
ATOM      2  C1  UNL d   1       2.506  -3.649  -3.234  0.00  0.00    -0.074 A 
ATOM      3  C2  UNL d   1       2.903  -4.990  -3.222  0.00  0.00    -0.005 A 
ATOM      4  C3  UNL d   1       1.967  -5.999  -2.996  0.00  0.00     0.006 A 
ATOM      5  C4  UNL d   1       0.626  -5.677  -2.781  0.00  0.00    -0.005 A 
ATOM      6  C5  UNL d   1       0.211  -4.342  -2.789  0.00  0.00    -0.074 A 
ATOM      7  C6  UNL d   1      -1.225  -3.978  -2.550  0.00  0.00     0.077 C 
ATOM      8  C7  UNL d   1       1.159  -3.334  -3.009  0.00  0.00    -0.001 A 
ENDROOT
TORSDOF 0
ENDMDL
