MODEL 1
REMARK minimizedAffinity -2.2461648
REMARK minimizedRMSD -1
REMARK  0 active torsions:
REMARK  status: ('A' for Active; 'I' for Inactive)
ROOT
ATOM      1  C   UNL d   1      -0.172   2.529  -5.998  0.00  0.00     0.077 C 
ATOM      2  C1  UNL d   1      -1.352   3.445  -5.862  0.00  0.00    -0.074 A 
ATOM      3  C2  UNL d   1      -1.177   4.813  -5.632  0.00  0.00    -0.005 A 
ATOM      4  C3  UNL d   1      -2.283   5.655  -5.517  0.00  0.00     0.006 A 
ATOM      5  C4  UNL d   1      -3.574   5.137  -5.632  0.00  0.00    -0.005 A 
ATOM      6  C5  UNL d   1      -3.769   3.772  -5.864  0.00  0.00    -0.074 A 
ATOM      7  C6  UNL d   1      -5.149   3.201  -6.000  0.00  0.00     0.077 C 
ATOM      8  C7  UNL d   1      -2.652   2.934  -5.985  0.00  0.00    -0.001 A 
ENDROOT
TORSDOF 0
ENDMDL
