MODEL 1
REMARK minimizedAffinity 1.11414087
REMARK minimizedRMSD -1
REMARK  0 active torsions:
REMARK  status: ('A' for Active; 'I' for Inactive)
ROOT
ATOM      1  C   UNL d   1       5.070   4.025  -5.996  0.00  0.00     0.077 C 
ATOM      2  C1  UNL d   1       4.024   3.367  -5.146  0.00  0.00    -0.074 A 
ATOM      3  C2  UNL d   1       4.366   2.732  -3.948  0.00  0.00    -0.005 A 
ATOM      4  C3  UNL d   1       3.381   2.133  -3.163  0.00  0.00     0.006 A 
ATOM      5  C4  UNL d   1       2.046   2.164  -3.567  0.00  0.00    -0.005 A 
ATOM      6  C5  UNL d   1       1.684   2.795  -4.761  0.00  0.00    -0.074 A 
ATOM      7  C6  UNL d   1       0.252   2.846  -5.204  0.00  0.00     0.077 C 
ATOM      8  C7  UNL d   1       2.679   3.401  -5.541  0.00  0.00    -0.001 A 
ENDROOT
TORSDOF 0
ENDMDL
