MODEL 1
REMARK minimizedAffinity -5.45420456
REMARK minimizedRMSD -1
REMARK  0 active torsions:
REMARK  status: ('A' for Active; 'I' for Inactive)
ROOT
ATOM      1  C   UNL d   1       2.758  -0.079  -1.222  0.00  0.00     0.077 C 
ATOM      2  C1  UNL d   1       1.482  -0.138  -0.436  0.00  0.00    -0.074 A 
ATOM      3  C2  UNL d   1       0.985  -1.357   0.037  0.00  0.00    -0.005 A 
ATOM      4  C3  UNL d   1      -0.199  -1.395   0.774  0.00  0.00     0.006 A 
ATOM      5  C4  UNL d   1      -0.895  -0.217   1.046  0.00  0.00    -0.005 A 
ATOM      6  C5  UNL d   1      -0.413   1.011   0.583  0.00  0.00    -0.074 A 
ATOM      7  C6  UNL d   1      -1.144   2.287   0.874  0.00  0.00     0.077 C 
ATOM      8  C7  UNL d   1       0.780   1.042  -0.152  0.00  0.00    -0.001 A 
ENDROOT
TORSDOF 0
ENDMDL
