MODEL 1
REMARK minimizedAffinity -1.68417335
REMARK minimizedRMSD -1
REMARK  0 active torsions:
REMARK  status: ('A' for Active; 'I' for Inactive)
ROOT
ATOM      1  C   UNL d   1       2.314  -0.988   0.740  0.00  0.00     0.077 C 
ATOM      2  C1  UNL d   1       0.973  -0.328   0.873  0.00  0.00    -0.074 A 
ATOM      3  C2  UNL d   1      -0.174  -1.080   1.145  0.00  0.00    -0.005 A 
ATOM      4  C3  UNL d   1      -1.412  -0.452   1.276  0.00  0.00     0.006 A 
ATOM      5  C4  UNL d   1      -1.516   0.933   1.136  0.00  0.00    -0.005 A 
ATOM      6  C5  UNL d   1      -0.380   1.701   0.865  0.00  0.00    -0.074 A 
ATOM      7  C6  UNL d   1      -0.472   3.191   0.721  0.00  0.00     0.077 C 
ATOM      8  C7  UNL d   1       0.862   1.063   0.742  0.00  0.00    -0.001 A 
ENDROOT
TORSDOF 0
ENDMDL
