MODEL 1
REMARK minimizedAffinity 1.3467257
REMARK minimizedRMSD -1
REMARK  0 active torsions:
REMARK  status: ('A' for Active; 'I' for Inactive)
ROOT
ATOM      1  C   UNL d   1      -1.849   2.402   0.693  0.00  0.00     0.077 C 
ATOM      2  C1  UNL d   1      -0.456   1.848   0.744  0.00  0.00    -0.074 A 
ATOM      3  C2  UNL d   1      -0.124   0.675   0.059  0.00  0.00    -0.005 A 
ATOM      4  C3  UNL d   1       1.178   0.177   0.107  0.00  0.00     0.006 A 
ATOM      5  C4  UNL d   1       2.159   0.846   0.839  0.00  0.00    -0.005 A 
ATOM      6  C5  UNL d   1       1.846   2.021   1.530  0.00  0.00    -0.074 A 
ATOM      7  C6  UNL d   1       2.892   2.757   2.314  0.00  0.00     0.077 C 
ATOM      8  C7  UNL d   1       0.537   2.519   1.471  0.00  0.00    -0.001 A 
ENDROOT
TORSDOF 0
ENDMDL
