MODEL 1
REMARK minimizedAffinity 3.80955935
REMARK minimizedRMSD -1
REMARK  0 active torsions:
REMARK  status: ('A' for Active; 'I' for Inactive)
ROOT
ATOM      1  C   UNL d   1      -3.440  -4.186  -1.291  0.00  0.00     0.077 C 
ATOM      2  C1  UNL d   1      -2.205  -3.335  -1.268  0.00  0.00    -0.074 A 
ATOM      3  C2  UNL d   1      -1.229  -3.460  -2.261  0.00  0.00    -0.005 A 
ATOM      4  C3  UNL d   1      -0.089  -2.655  -2.232  0.00  0.00     0.006 A 
ATOM      5  C4  UNL d   1       0.084  -1.720  -1.212  0.00  0.00    -0.005 A 
ATOM      6  C5  UNL d   1      -0.882  -1.580  -0.210  0.00  0.00    -0.074 A 
ATOM      7  C6  UNL d   1      -0.716  -0.573   0.889  0.00  0.00     0.077 C 
ATOM      8  C7  UNL d   1      -2.027  -2.388  -0.250  0.00  0.00    -0.001 A 
ENDROOT
TORSDOF 0
ENDMDL
