MODEL 1
REMARK minimizedAffinity 4.45220566
REMARK minimizedRMSD -1
REMARK  0 active torsions:
REMARK  status: ('A' for Active; 'I' for Inactive)
ROOT
ATOM      1  C   UNL d   1       2.358   2.744   2.919  0.00  0.00     0.077 C 
ATOM      2  C1  UNL d   1       1.373   2.026   2.046  0.00  0.00    -0.074 A 
ATOM      3  C2  UNL d   1       1.753   0.900   1.308  0.00  0.00    -0.005 A 
ATOM      4  C3  UNL d   1       0.822   0.237   0.508  0.00  0.00     0.006 A 
ATOM      5  C4  UNL d   1      -0.495   0.691   0.439  0.00  0.00    -0.005 A 
ATOM      6  C5  UNL d   1      -0.894   1.813   1.171  0.00  0.00    -0.074 A 
ATOM      7  C6  UNL d   1      -2.309   2.308   1.116  0.00  0.00     0.077 C 
ATOM      8  C7  UNL d   1       0.045   2.471   1.978  0.00  0.00    -0.001 A 
ENDROOT
TORSDOF 0
ENDMDL
