MODEL 1
REMARK minimizedAffinity 1.11299419
REMARK minimizedRMSD -1
REMARK  0 active torsions:
REMARK  status: ('A' for Active; 'I' for Inactive)
ROOT
ATOM      1  C   UNL d   1       2.267   0.234   0.310  0.00  0.00     0.077 C 
ATOM      2  C1  UNL d   1       0.814   0.246   0.680  0.00  0.00    -0.074 A 
ATOM      3  C2  UNL d   1       0.075  -0.941   0.728  0.00  0.00    -0.005 A 
ATOM      4  C3  UNL d   1      -1.274  -0.916   1.083  0.00  0.00     0.006 A 
ATOM      5  C4  UNL d   1      -1.896   0.294   1.394  0.00  0.00    -0.005 A 
ATOM      6  C5  UNL d   1      -1.173   1.490   1.353  0.00  0.00    -0.074 A 
ATOM      7  C6  UNL d   1      -1.824   2.798   1.693  0.00  0.00     0.077 C 
ATOM      8  C7  UNL d   1       0.184   1.456   1.002  0.00  0.00    -0.001 A 
ENDROOT
TORSDOF 0
ENDMDL
