MODEL 1
REMARK minimizedAffinity 8.25423717
REMARK minimizedRMSD -1
REMARK  0 active torsions:
REMARK  status: ('A' for Active; 'I' for Inactive)
ROOT
ATOM      1  C   UNL d   1      -1.202   1.885  -5.925  0.00  0.00     0.077 C 
ATOM      2  C1  UNL d   1      -2.211   2.988  -5.798  0.00  0.00    -0.074 A 
ATOM      3  C2  UNL d   1      -1.807   4.312  -5.599  0.00  0.00    -0.005 A 
ATOM      4  C3  UNL d   1      -2.756   5.328  -5.493  0.00  0.00     0.006 A 
ATOM      5  C4  UNL d   1      -4.116   5.031  -5.584  0.00  0.00    -0.005 A 
ATOM      6  C5  UNL d   1      -4.539   3.713  -5.783  0.00  0.00    -0.074 A 
ATOM      7  C6  UNL d   1      -5.997   3.378  -5.893  0.00  0.00     0.077 C 
ATOM      8  C7  UNL d   1      -3.579   2.699  -5.896  0.00  0.00    -0.001 A 
ENDROOT
TORSDOF 0
ENDMDL
