MODEL 1
REMARK minimizedAffinity 0.567040861
REMARK minimizedRMSD -1
REMARK  0 active torsions:
REMARK  status: ('A' for Active; 'I' for Inactive)
ROOT
ATOM      1  C   UNL d   1       2.442   3.107   2.921  0.00  0.00     0.077 C 
ATOM      2  C1  UNL d   1       1.355   2.458   2.118  0.00  0.00    -0.074 A 
ATOM      3  C2  UNL d   1       0.088   3.043   2.017  0.00  0.00    -0.005 A 
ATOM      4  C3  UNL d   1      -0.910   2.432   1.259  0.00  0.00     0.006 A 
ATOM      5  C4  UNL d   1      -0.654   1.233   0.594  0.00  0.00    -0.005 A 
ATOM      6  C5  UNL d   1       0.607   0.633   0.682  0.00  0.00    -0.074 A 
ATOM      7  C6  UNL d   1       0.903  -0.651  -0.034  0.00  0.00     0.077 C 
ATOM      8  C7  UNL d   1       1.607   1.257   1.440  0.00  0.00    -0.001 A 
ENDROOT
TORSDOF 0
ENDMDL
