MODEL 1
REMARK minimizedAffinity 9.6040144
REMARK minimizedRMSD -1
REMARK  3 active torsions:
REMARK  status: ('A' for Active; 'I' for Inactive)
REMARK    1  A    between atoms: C3'_2  and  C2'_3 
REMARK    2  A    between atoms: C2'_3  and  C1'_4 
REMARK    3  A    between atoms: C1'_4  and  C1_5 
ROOT
ATOM      1  C1  N4B d   1      -1.712  -3.828  -3.850  0.00  0.00    -0.075 A 
ATOM      2  C2  N4B d   1      -1.806  -2.944  -4.947  0.00  0.00     0.002 A 
ATOM      3  C3  N4B d   1      -0.930  -3.059  -5.999  0.00  0.00     0.002 A 
ATOM      4  C4  N4B d   1       0.055  -4.035  -5.967  0.00  0.00    -0.004 A 
ATOM      5  C5  N4B d   1       0.123  -4.901  -4.916  0.00  0.00     0.002 A 
ATOM      6  C6  N4B d   1      -0.753  -4.799  -3.853  0.00  0.00     0.002 A 
ENDROOT
BRANCH   1   7
ATOM      7  C1' N4B d   1      -2.591  -3.686  -2.638  0.00  0.00     0.057 C 
BRANCH   7   8
ATOM      8  C2' N4B d   1      -2.772  -5.055  -1.987  0.00  0.00     0.009 C 
BRANCH   8   9
ATOM      9  C3' N4B d   1      -4.137  -5.197  -1.335  0.00  0.00     0.004 C 
ATOM     10  C4' N4B d   1      -4.051  -5.543   0.122  0.00  0.00     0.003 C 
ENDBRANCH   8   9
ENDBRANCH   7   8
ENDBRANCH   1   7
TORSDOF 3
ENDMDL
