MODEL 1
REMARK minimizedAffinity 8.03337574
REMARK minimizedRMSD -1
REMARK  3 active torsions:
REMARK  status: ('A' for Active; 'I' for Inactive)
REMARK    1  A    between atoms: C3'_2  and  C2'_3 
REMARK    2  A    between atoms: C2'_3  and  C1'_4 
REMARK    3  A    between atoms: C1'_4  and  C1_5 
ROOT
ATOM      1  C1  N4B d   1      -3.935  -3.702  -1.720  0.00  0.00    -0.075 A 
ATOM      2  C2  N4B d   1      -3.754  -5.068  -1.410  0.00  0.00     0.002 A 
ATOM      3  C3  N4B d   1      -4.656  -5.999  -1.864  0.00  0.00     0.002 A 
ATOM      4  C4  N4B d   1      -5.751  -5.588  -2.609  0.00  0.00    -0.004 A 
ATOM      5  C5  N4B d   1      -5.904  -4.270  -2.926  0.00  0.00     0.002 A 
ATOM      6  C6  N4B d   1      -5.003  -3.323  -2.480  0.00  0.00     0.002 A 
ENDROOT
BRANCH   1   7
ATOM      7  C1' N4B d   1      -3.023  -2.637  -1.175  0.00  0.00     0.057 C 
BRANCH   7   8
ATOM      8  C2' N4B d   1      -2.015  -2.242  -2.250  0.00  0.00     0.009 C 
BRANCH   8   9
ATOM      9  C3' N4B d   1      -1.946  -3.268  -3.368  0.00  0.00     0.004 C 
ATOM     10  C4' N4B d   1      -0.927  -4.338  -3.113  0.00  0.00     0.003 C 
ENDBRANCH   8   9
ENDBRANCH   7   8
ENDBRANCH   1   7
TORSDOF 3
ENDMDL
