MODEL 1
REMARK minimizedAffinity 14.9574566
REMARK minimizedRMSD -1
REMARK  3 active torsions:
REMARK  status: ('A' for Active; 'I' for Inactive)
REMARK    1  A    between atoms: C3'_2  and  C2'_3 
REMARK    2  A    between atoms: C2'_3  and  C1'_4 
REMARK    3  A    between atoms: C1'_4  and  C1_5 
ROOT
ATOM      1  C1  N4B d   1       2.459   0.629   2.026  0.00  0.00    -0.075 A 
ATOM      2  C2  N4B d   1       3.720   0.024   1.835  0.00  0.00     0.002 A 
ATOM      3  C3  N4B d   1       4.287  -0.714   2.845  0.00  0.00     0.002 A 
ATOM      4  C4  N4B d   1       3.623  -0.845   4.056  0.00  0.00    -0.004 A 
ATOM      5  C5  N4B d   1       2.393  -0.278   4.223  0.00  0.00     0.002 A 
ATOM      6  C6  N4B d   1       1.810   0.463   3.215  0.00  0.00     0.002 A 
ENDROOT
BRANCH   1   7
ATOM      7  C1' N4B d   1       1.838   1.516   0.982  0.00  0.00     0.057 C 
BRANCH   7   8
ATOM      8  C2' N4B d   1       1.636   2.911   1.566  0.00  0.00     0.009 C 
BRANCH   8   9
ATOM      9  C3' N4B d   1       0.188   3.362   1.476  0.00  0.00     0.004 C 
ATOM     10  C4' N4B d   1      -0.668   2.784   2.563  0.00  0.00     0.003 C 
ENDBRANCH   8   9
ENDBRANCH   7   8
ENDBRANCH   1   7
TORSDOF 3
ENDMDL
