MODEL 1
REMARK minimizedAffinity 15.810461
REMARK minimizedRMSD -1
REMARK  3 active torsions:
REMARK  status: ('A' for Active; 'I' for Inactive)
REMARK    1  A    between atoms: C3'_2  and  C2'_3 
REMARK    2  A    between atoms: C2'_3  and  C1'_4 
REMARK    3  A    between atoms: C1'_4  and  C1_5 
ROOT
ATOM      1  C1  N4B d   1       3.412   3.709  -4.514  0.00  0.00    -0.075 A 
ATOM      2  C2  N4B d   1       4.132   4.861  -4.901  0.00  0.00     0.002 A 
ATOM      3  C3  N4B d   1       3.459   5.992  -5.294  0.00  0.00     0.002 A 
ATOM      4  C4  N4B d   1       2.072   5.988  -5.325  0.00  0.00    -0.004 A 
ATOM      5  C5  N4B d   1       1.384   4.880  -4.925  0.00  0.00     0.002 A 
ATOM      6  C6  N4B d   1       2.048   3.738  -4.525  0.00  0.00     0.002 A 
ENDROOT
BRANCH   1   7
ATOM      7  C1' N4B d   1       4.105   2.422  -4.159  0.00  0.00     0.057 C 
BRANCH   7   8
ATOM      8  C2' N4B d   1       3.463   1.837  -2.905  0.00  0.00     0.009 C 
BRANCH   8   9
ATOM      9  C3' N4B d   1       4.410   1.862  -1.717  0.00  0.00     0.004 C 
ATOM     10  C4' N4B d   1       3.815   1.243  -0.487  0.00  0.00     0.003 C 
ENDBRANCH   8   9
ENDBRANCH   7   8
ENDBRANCH   1   7
TORSDOF 3
ENDMDL
