MODEL 1
REMARK minimizedAffinity 6.52426004
REMARK minimizedRMSD -1
REMARK  3 active torsions:
REMARK  status: ('A' for Active; 'I' for Inactive)
REMARK    1  A    between atoms: C3'_2  and  C2'_3 
REMARK    2  A    between atoms: C2'_3  and  C1'_4 
REMARK    3  A    between atoms: C1'_4  and  C1_5 
ROOT
ATOM      1  C1  N4B d   1       4.575   4.940   3.126  0.00  0.00    -0.075 A 
ATOM      2  C2  N4B d   1       4.141   5.942   4.022  0.00  0.00     0.002 A 
ATOM      3  C3  N4B d   1       4.643   5.985   5.300  0.00  0.00     0.002 A 
ATOM      4  C4  N4B d   1       5.562   5.030   5.708  0.00  0.00    -0.004 A 
ATOM      5  C5  N4B d   1       5.996   4.081   4.829  0.00  0.00     0.002 A 
ATOM      6  C6  N4B d   1       5.502   4.029   3.540  0.00  0.00     0.002 A 
ENDROOT
BRANCH   1   7
ATOM      7  C1' N4B d   1       3.991   4.801   1.747  0.00  0.00     0.057 C 
BRANCH   7   8
ATOM      8  C2' N4B d   1       4.341   3.424   1.192  0.00  0.00     0.009 C 
BRANCH   8   9
ATOM      9  C3' N4B d   1       3.111   2.548   1.028  0.00  0.00     0.004 C 
ATOM     10  C4' N4B d   1       3.449   1.132   0.668  0.00  0.00     0.003 C 
ENDBRANCH   8   9
ENDBRANCH   7   8
ENDBRANCH   1   7
TORSDOF 3
ENDMDL
