MODEL 1
REMARK minimizedAffinity 7.02062416
REMARK minimizedRMSD -1
REMARK  3 active torsions:
REMARK  status: ('A' for Active; 'I' for Inactive)
REMARK    1  A    between atoms: C3'_2  and  C2'_3 
REMARK    2  A    between atoms: C2'_3  and  C1'_4 
REMARK    3  A    between atoms: C1'_4  and  C1_5 
ROOT
ATOM      1  C1  N4B d   1      -3.685   0.879   3.041  0.00  0.00    -0.075 A 
ATOM      2  C2  N4B d   1      -2.787  -0.074   2.514  0.00  0.00     0.002 A 
ATOM      3  C3  N4B d   1      -1.664   0.340   1.841  0.00  0.00     0.002 A 
ATOM      4  C4  N4B d   1      -1.429   1.696   1.667  0.00  0.00    -0.004 A 
ATOM      5  C5  N4B d   1      -2.289   2.610   2.201  0.00  0.00     0.002 A 
ATOM      6  C6  N4B d   1      -3.420   2.208   2.883  0.00  0.00     0.002 A 
ENDROOT
BRANCH   1   7
ATOM      7  C1' N4B d   1      -4.971   0.474   3.710  0.00  0.00     0.057 C 
BRANCH   7   8
ATOM      8  C2' N4B d   1      -4.841   0.688   5.215  0.00  0.00     0.009 C 
BRANCH   8   9
ATOM      9  C3' N4B d   1      -5.952   1.568   5.762  0.00  0.00     0.004 C 
ATOM     10  C4' N4B d   1      -5.510   2.981   5.999  0.00  0.00     0.003 C 
ENDBRANCH   8   9
ENDBRANCH   7   8
ENDBRANCH   1   7
TORSDOF 3
ENDMDL
