MODEL 1
REMARK minimizedAffinity 8.61894608
REMARK minimizedRMSD -1
REMARK  3 active torsions:
REMARK  status: ('A' for Active; 'I' for Inactive)
REMARK    1  A    between atoms: C3'_2  and  C2'_3 
REMARK    2  A    between atoms: C2'_3  and  C1'_4 
REMARK    3  A    between atoms: C1'_4  and  C1_5 
ROOT
ATOM      1  C1  N4B d   1      -1.587  -0.376   1.959  0.00  0.00    -0.075 A 
ATOM      2  C2  N4B d   1      -0.233  -0.708   2.184  0.00  0.00     0.002 A 
ATOM      3  C3  N4B d   1       0.706   0.286   2.311  0.00  0.00     0.002 A 
ATOM      4  C4  N4B d   1       0.319   1.613   2.198  0.00  0.00    -0.004 A 
ATOM      5  C5  N4B d   1      -0.994   1.926   2.006  0.00  0.00     0.002 A 
ATOM      6  C6  N4B d   1      -1.950   0.937   1.881  0.00  0.00     0.002 A 
ENDROOT
BRANCH   1   7
ATOM      7  C1' N4B d   1      -2.636  -1.430   1.729  0.00  0.00     0.057 C 
BRANCH   7   8
ATOM      8  C2' N4B d   1      -2.574  -1.888   0.275  0.00  0.00     0.009 C 
BRANCH   8   9
ATOM      9  C3' N4B d   1      -3.680  -2.875  -0.057  0.00  0.00     0.004 C 
ATOM     10  C4' N4B d   1      -3.198  -4.295  -0.099  0.00  0.00     0.003 C 
ENDBRANCH   8   9
ENDBRANCH   7   8
ENDBRANCH   1   7
TORSDOF 3
ENDMDL
