MODEL 1
REMARK minimizedAffinity 5.42183638
REMARK minimizedRMSD -1
REMARK  3 active torsions:
REMARK  status: ('A' for Active; 'I' for Inactive)
REMARK    1  A    between atoms: C3'_2  and  C2'_3 
REMARK    2  A    between atoms: C2'_3  and  C1'_4 
REMARK    3  A    between atoms: C1'_4  and  C1_5 
ROOT
ATOM      1  C1  N4B d   1      -3.182   1.518   3.083  0.00  0.00    -0.075 A 
ATOM      2  C2  N4B d   1      -2.492   2.668   2.640  0.00  0.00     0.002 A 
ATOM      3  C3  N4B d   1      -1.355   2.536   1.882  0.00  0.00     0.002 A 
ATOM      4  C4  N4B d   1      -0.880   1.270   1.572  0.00  0.00    -0.004 A 
ATOM      5  C5  N4B d   1      -1.566   0.165   1.983  0.00  0.00     0.002 A 
ATOM      6  C6  N4B d   1      -2.713   0.283   2.742  0.00  0.00     0.002 A 
ENDROOT
BRANCH   1   7
ATOM      7  C1' N4B d   1      -4.382   1.611   3.986  0.00  0.00     0.057 C 
BRANCH   7   8
ATOM      8  C2' N4B d   1      -4.015   2.423   5.225  0.00  0.00     0.009 C 
BRANCH   8   9
ATOM      9  C3' N4B d   1      -5.244   2.865   6.000  0.00  0.00     0.004 C 
ATOM     10  C4' N4B d   1      -5.435   4.352   5.989  0.00  0.00     0.003 C 
ENDBRANCH   8   9
ENDBRANCH   7   8
ENDBRANCH   1   7
TORSDOF 3
ENDMDL
