MODEL 1
REMARK minimizedAffinity 0.858373523
REMARK minimizedRMSD -1
REMARK  3 active torsions:
REMARK  status: ('A' for Active; 'I' for Inactive)
REMARK    1  A    between atoms: C3'_2  and  C2'_3 
REMARK    2  A    between atoms: C2'_3  and  C1'_4 
REMARK    3  A    between atoms: C1'_4  and  C1_5 
ROOT
ATOM      1  C1  N4B d   1      -3.756   1.494   4.390  0.00  0.00    -0.075 A 
ATOM      2  C2  N4B d   1      -2.816   2.456   3.960  0.00  0.00     0.002 A 
ATOM      3  C3  N4B d   1      -1.990   2.181   2.897  0.00  0.00     0.002 A 
ATOM      4  C4  N4B d   1      -2.073   0.950   2.264  0.00  0.00    -0.004 A 
ATOM      5  C5  N4B d   1      -3.001   0.036   2.670  0.00  0.00     0.002 A 
ATOM      6  C6  N4B d   1      -3.840   0.300   3.734  0.00  0.00     0.002 A 
ENDROOT
BRANCH   1   7
ATOM      7  C1' N4B d   1      -4.621   1.715   5.601  0.00  0.00     0.057 C 
BRANCH   7   8
ATOM      8  C2' N4B d   1      -4.641   3.203   5.937  0.00  0.00     0.009 C 
BRANCH   8   9
ATOM      9  C3' N4B d   1      -5.998   3.829   5.664  0.00  0.00     0.004 C 
ATOM     10  C4' N4B d   1      -5.926   5.315   5.477  0.00  0.00     0.003 C 
ENDBRANCH   8   9
ENDBRANCH   7   8
ENDBRANCH   1   7
TORSDOF 3
ENDMDL
