MODEL 1
REMARK minimizedAffinity -1.86404264
REMARK minimizedRMSD -1
REMARK  2 active torsions:
REMARK  status: ('A' for Active; 'I' for Inactive)
REMARK    1  A    between atoms: C2'_3  and  C1'_4 
REMARK    2  A    between atoms: C1'_4  and  C1_5 
ROOT
ATOM      1  C1  I4B d   1      -4.819   2.713  -3.027  0.00  0.00    -0.075 A 
ATOM      2  C2  I4B d   1      -5.798   2.665  -3.988  0.00  0.00     0.003 A 
ATOM      3  C3  I4B d   1      -6.000   3.766  -4.855  0.00  0.00     0.002 A 
ATOM      4  C4  I4B d   1      -5.239   4.906  -4.694  0.00  0.00    -0.004 A 
ATOM      5  C5  I4B d   1      -4.232   4.944  -3.734  0.00  0.00     0.002 A 
ATOM      6  C6  I4B d   1      -4.012   3.836  -2.903  0.00  0.00     0.003 A 
ENDROOT
BRANCH   1   7
ATOM      7  C1' I4B d   1      -4.656   1.545  -2.106  0.00  0.00     0.060 C 
BRANCH   7   8
ATOM      8  C2' I4B d   1      -3.451   0.751  -2.569  0.00  0.00    -0.013 C 
ATOM      9  C4' I4B d   1      -2.167   1.469  -2.244  0.00  0.00     0.013 C 
ATOM     10  C3' I4B d   1      -3.501  -0.594  -1.909  0.00  0.00     0.013 C 
ENDBRANCH   7   8
ENDBRANCH   1   7
TORSDOF 2
ENDMDL
