MODEL 1
REMARK minimizedAffinity 2.05732131
REMARK minimizedRMSD -1
REMARK  2 active torsions:
REMARK  status: ('A' for Active; 'I' for Inactive)
REMARK    1  A    between atoms: C2'_3  and  C1'_4 
REMARK    2  A    between atoms: C1'_4  and  C1_5 
ROOT
ATOM      1  C1  I4B d   1      -0.132   2.903   1.706  0.00  0.00    -0.075 A 
ATOM      2  C2  I4B d   1       0.865   3.515   0.990  0.00  0.00     0.003 A 
ATOM      3  C3  I4B d   1       0.559   4.223  -0.198  0.00  0.00     0.002 A 
ATOM      4  C4  I4B d   1      -0.742   4.249  -0.657  0.00  0.00    -0.004 A 
ATOM      5  C5  I4B d   1      -1.756   3.647   0.083  0.00  0.00     0.002 A 
ATOM      6  C6  I4B d   1      -1.451   2.980   1.278  0.00  0.00     0.003 A 
ENDROOT
BRANCH   1   7
ATOM      7  C1' I4B d   1       0.231   2.136   2.938  0.00  0.00     0.060 C 
BRANCH   7   8
ATOM      8  C2' I4B d   1       0.161   0.659   2.606  0.00  0.00    -0.013 C 
ATOM      9  C4' I4B d   1       1.441   0.180   1.975  0.00  0.00     0.013 C 
ATOM     10  C3' I4B d   1      -0.129  -0.086   3.875  0.00  0.00     0.013 C 
ENDBRANCH   7   8
ENDBRANCH   1   7
TORSDOF 2
ENDMDL
