MODEL 1
REMARK minimizedAffinity 8.1779089
REMARK minimizedRMSD -1
REMARK  2 active torsions:
REMARK  status: ('A' for Active; 'I' for Inactive)
REMARK    1  A    between atoms: C2'_3  and  C1'_4 
REMARK    2  A    between atoms: C1'_4  and  C1_5 
ROOT
ATOM      1  C1  I4B d   1      -1.638   1.134  -0.783  0.00  0.00    -0.075 A 
ATOM      2  C2  I4B d   1      -2.774   0.367  -0.716  0.00  0.00     0.003 A 
ATOM      3  C3  I4B d   1      -2.867  -0.834  -1.461  0.00  0.00     0.002 A 
ATOM      4  C4  I4B d   1      -1.829  -1.201  -2.293  0.00  0.00    -0.004 A 
ATOM      5  C5  I4B d   1      -0.669  -0.433  -2.342  0.00  0.00     0.002 A 
ATOM      6  C6  I4B d   1      -0.568   0.736  -1.573  0.00  0.00     0.003 A 
ENDROOT
BRANCH   1   7
ATOM      7  C1' I4B d   1      -1.586   2.413  -0.009  0.00  0.00     0.060 C 
BRANCH   7   8
ATOM      8  C2' I4B d   1      -1.270   2.074   1.433  0.00  0.00    -0.013 C 
ATOM      9  C4' I4B d   1       0.065   2.636   1.846  0.00  0.00     0.013 C 
ATOM     10  C3' I4B d   1      -2.375   2.617   2.289  0.00  0.00     0.013 C 
ENDBRANCH   7   8
ENDBRANCH   1   7
TORSDOF 2
ENDMDL
