MODEL 1
REMARK minimizedAffinity -1.46029615
REMARK minimizedRMSD -1
REMARK  0 active torsions:
REMARK  status: ('A' for Active; 'I' for Inactive)
ROOT
ATOM      1  N1  IND d   1       0.281  -0.205  -1.178  0.00  0.00    -0.196 N 
ATOM      2  C2  IND d   1       0.467  -1.557  -1.096  0.00  0.00     0.054 A 
ATOM      3  C3  IND d   1       0.589  -1.937   0.196  0.00  0.00    -0.031 A 
ATOM      4  C4  IND d   1       0.415  -0.523   2.340  0.00  0.00     0.051 A 
ATOM      5  C5  IND d   1       0.288   0.768   2.772  0.00  0.00    -0.031 A 
ATOM      6  C6  IND d   1       0.148   1.821   1.892  0.00  0.00     0.015 A 
ATOM      7  C7  IND d   1       0.117   1.620   0.541  0.00  0.00    -0.016 A 
ATOM      8  C8  IND d   1       0.252   0.312   0.098  0.00  0.00    -0.047 A 
ATOM      9  C9  IND d   1       0.437  -0.756   0.985  0.00  0.00    -0.096 A 
ATOM     10  HN1 IND d   1       0.198   0.246  -1.905  0.00  0.00     0.298 HD
ENDROOT
TORSDOF 0
ENDMDL
