MODEL 1
REMARK minimizedAffinity -4.81183672
REMARK minimizedRMSD -1
REMARK  0 active torsions:
REMARK  status: ('A' for Active; 'I' for Inactive)
ROOT
ATOM      1  N1  IND d   1      -0.828   2.218  -0.797  0.00  0.00    -0.196 N 
ATOM      2  C2  IND d   1      -1.474   3.286  -0.240  0.00  0.00     0.054 A 
ATOM      3  C3  IND d   1      -1.557   3.139   1.101  0.00  0.00    -0.031 A 
ATOM      4  C4  IND d   1      -0.611   1.275   2.604  0.00  0.00     0.051 A 
ATOM      5  C5  IND d   1       0.025   0.067   2.550  0.00  0.00    -0.031 A 
ATOM      6  C6  IND d   1       0.420  -0.496   1.354  0.00  0.00     0.015 A 
ATOM      7  C7  IND d   1       0.203   0.136   0.162  0.00  0.00    -0.016 A 
ATOM      8  C8  IND d   1      -0.450   1.360   0.213  0.00  0.00    -0.047 A 
ATOM      9  C9  IND d   1      -0.890   1.917   1.420  0.00  0.00    -0.096 A 
ATOM     10  HN1 IND d   1      -0.682   2.101  -1.636  0.00  0.00     0.298 HD
ENDROOT
TORSDOF 0
ENDMDL
