MODEL 1
REMARK minimizedAffinity -4.36621141
REMARK minimizedRMSD -1
REMARK  0 active torsions:
REMARK  status: ('A' for Active; 'I' for Inactive)
ROOT
ATOM      1  N1  IND d   1      -0.381  -0.532  -1.308  0.00  0.00    -0.196 N 
ATOM      2  C2  IND d   1       0.270  -1.648  -0.861  0.00  0.00     0.054 A 
ATOM      3  C3  IND d   1       0.656  -1.484   0.425  0.00  0.00    -0.031 A 
ATOM      4  C4  IND d   1       0.235   0.493   2.019  0.00  0.00     0.051 A 
ATOM      5  C5  IND d   1      -0.284   1.757   2.054  0.00  0.00    -0.031 A 
ATOM      6  C6  IND d   1      -0.876   2.333   0.949  0.00  0.00     0.015 A 
ATOM      7  C7  IND d   1      -0.982   1.659  -0.234  0.00  0.00    -0.016 A 
ATOM      8  C8  IND d   1      -0.450   0.378  -0.276  0.00  0.00    -0.047 A 
ATOM      9  C9  IND d   1       0.190  -0.196   0.830  0.00  0.00    -0.096 A 
ATOM     10  HN1 IND d   1      -0.695  -0.418  -2.100  0.00  0.00     0.298 HD
ENDROOT
TORSDOF 0
ENDMDL
