MODEL 1
REMARK minimizedAffinity -3.43085408
REMARK minimizedRMSD -1
REMARK  0 active torsions:
REMARK  status: ('A' for Active; 'I' for Inactive)
ROOT
ATOM      1  N1  IND d   1      -0.392   1.845   2.243  0.00  0.00    -0.196 N 
ATOM      2  C2  IND d   1      -1.197   2.874   1.840  0.00  0.00     0.054 A 
ATOM      3  C3  IND d   1      -1.316   2.879   0.493  0.00  0.00    -0.031 A 
ATOM      4  C4  IND d   1      -0.358   1.233  -1.239  0.00  0.00     0.051 A 
ATOM      5  C5  IND d   1       0.470   0.152  -1.354  0.00  0.00    -0.031 A 
ATOM      6  C6  IND d   1       1.063  -0.434  -0.254  0.00  0.00     0.015 A 
ATOM      7  C7  IND d   1       0.839   0.035   1.009  0.00  0.00    -0.016 A 
ATOM      8  C8  IND d   1       0.005   1.137   1.130  0.00  0.00    -0.047 A 
ATOM      9  C9  IND d   1      -0.565   1.762   0.013  0.00  0.00    -0.096 A 
ATOM     10  HN1 IND d   1      -0.171   1.669   3.055  0.00  0.00     0.298 HD
ENDROOT
TORSDOF 0
ENDMDL
