MODEL 1
REMARK minimizedAffinity -1.52157927
REMARK minimizedRMSD -1
REMARK  0 active torsions:
REMARK  status: ('A' for Active; 'I' for Inactive)
ROOT
ATOM      1  N1  IND d   1      -0.135   3.748  -0.571  0.00  0.00    -0.196 N 
ATOM      2  C2  IND d   1      -0.240   3.383  -1.884  0.00  0.00     0.054 A 
ATOM      3  C3  IND d   1      -0.109   2.044  -2.011  0.00  0.00    -0.031 A 
ATOM      4  C4  IND d   1       0.183   0.248  -0.190  0.00  0.00     0.051 A 
ATOM      5  C5  IND d   1       0.370   0.099   1.156  0.00  0.00    -0.031 A 
ATOM      6  C6  IND d   1       0.395   1.181   2.013  0.00  0.00     0.015 A 
ATOM      7  C7  IND d   1       0.223   2.456   1.555  0.00  0.00    -0.016 A 
ATOM      8  C8  IND d   1       0.040   2.612   0.188  0.00  0.00    -0.047 A 
ATOM      9  C9  IND d   1       0.056   1.522  -0.692  0.00  0.00    -0.096 A 
ATOM     10  HN1 IND d   1      -0.173   4.553  -0.269  0.00  0.00     0.298 HD
ENDROOT
TORSDOF 0
ENDMDL
