MODEL 1
REMARK minimizedAffinity 1.04014015
REMARK minimizedRMSD -1
REMARK  0 active torsions:
REMARK  status: ('A' for Active; 'I' for Inactive)
ROOT
ATOM      1  N1  IND d   1      -0.622  -3.631   0.543  0.00  0.00    -0.196 N 
ATOM      2  C2  IND d   1      -0.917  -3.961  -0.750  0.00  0.00     0.054 A 
ATOM      3  C3  IND d   1      -0.730  -2.896  -1.562  0.00  0.00    -0.031 A 
ATOM      4  C4  IND d   1       0.152  -0.544  -0.997  0.00  0.00     0.051 A 
ATOM      5  C5  IND d   1       0.521   0.243   0.058  0.00  0.00    -0.031 A 
ATOM      6  C6  IND d   1       0.530  -0.231   1.354  0.00  0.00     0.015 A 
ATOM      7  C7  IND d   1       0.180  -1.519   1.643  0.00  0.00    -0.016 A 
ATOM      8  C8  IND d   1      -0.201  -2.320   0.576  0.00  0.00    -0.047 A 
ATOM      9  C9  IND d   1      -0.254  -1.832  -0.736  0.00  0.00    -0.096 A 
ATOM     10  HN1 IND d   1      -0.688  -4.155   1.222  0.00  0.00     0.298 HD
ENDROOT
TORSDOF 0
ENDMDL
