MODEL 1
REMARK minimizedAffinity -1.60720026
REMARK minimizedRMSD -1
REMARK  0 active torsions:
REMARK  status: ('A' for Active; 'I' for Inactive)
ROOT
ATOM      1  N1  IND d   1       0.804   0.021  -1.322  0.00  0.00    -0.196 N 
ATOM      2  C2  IND d   1       0.675  -1.339  -1.284  0.00  0.00     0.054 A 
ATOM      3  C3  IND d   1       0.409  -1.752  -0.025  0.00  0.00    -0.031 A 
ATOM      4  C4  IND d   1       0.042  -0.359   2.109  0.00  0.00     0.051 A 
ATOM      5  C5  IND d   1       0.094   0.922   2.581  0.00  0.00    -0.031 A 
ATOM      6  C6  IND d   1       0.388   1.991   1.759  0.00  0.00     0.015 A 
ATOM      7  C7  IND d   1       0.632   1.818   0.426  0.00  0.00    -0.016 A 
ATOM      8  C8  IND d   1       0.587   0.517  -0.055  0.00  0.00    -0.047 A 
ATOM      9  C9  IND d   1       0.331  -0.576   0.782  0.00  0.00    -0.096 A 
ATOM     10  HN1 IND d   1       0.989   0.488  -2.020  0.00  0.00     0.298 HD
ENDROOT
TORSDOF 0
ENDMDL
