MODEL 1
REMARK minimizedAffinity 11.4746923
REMARK minimizedRMSD -1
REMARK  1 active torsions:
REMARK  status: ('A' for Active; 'I' for Inactive)
REMARK    1  A    between atoms: C1_2  and  C2_3 
ROOT
ATOM      1  C2  UNL d   1       1.767  -4.018  -2.576  0.00  0.00    -0.081 A 
ATOM      2  C3  UNL d   1       2.538  -3.835  -1.421  0.00  0.00     0.006 A 
ATOM      3  C4  UNL d   1       2.695  -2.561  -0.869  0.00  0.00     0.002 A 
ATOM      4  C5  UNL d   1       2.077  -1.452  -1.456  0.00  0.00    -0.080 A 
ATOM      5  C6  UNL d   1       2.212  -0.084  -0.855  0.00  0.00     0.076 C 
ATOM      6  C7  UNL d   1       1.321  -1.632  -2.619  0.00  0.00     0.002 A 
ATOM      7  C8  UNL d   1       1.164  -2.905  -3.172  0.00  0.00     0.006 A 
ENDROOT
BRANCH   1   8
ATOM      8  C1  UNL d   1       1.543  -5.399  -3.137  0.00  0.00     0.054 C 
ATOM      9  C   UNL d   1       0.217  -5.486  -3.879  0.00  0.00     0.018 C 
ENDBRANCH   1   8
TORSDOF 1
ENDMDL
