MODEL 1
REMARK minimizedAffinity 10.2739744
REMARK minimizedRMSD -1
REMARK  1 active torsions:
REMARK  status: ('A' for Active; 'I' for Inactive)
REMARK    1  A    between atoms: C1_2  and  C2_3 
ROOT
ATOM      1  C2  UNL d   1       2.275  -1.974  -0.936  0.00  0.00    -0.081 A 
ATOM      2  C3  UNL d   1       1.630  -1.429  -2.053  0.00  0.00     0.006 A 
ATOM      3  C4  UNL d   1       1.721  -0.062  -2.326  0.00  0.00     0.002 A 
ATOM      4  C5  UNL d   1       2.462   0.780  -1.491  0.00  0.00    -0.080 A 
ATOM      5  C6  UNL d   1       2.592   2.245  -1.790  0.00  0.00     0.076 C 
ATOM      6  C7  UNL d   1       3.091   0.239  -0.365  0.00  0.00     0.002 A 
ATOM      7  C8  UNL d   1       3.001  -1.127  -0.092  0.00  0.00     0.006 A 
ENDROOT
BRANCH   1   8
ATOM      8  C1  UNL d   1       2.233  -3.458  -0.675  0.00  0.00     0.054 C 
ATOM      9  C   UNL d   1       3.608  -3.994  -0.303  0.00  0.00     0.018 C 
ENDBRANCH   1   8
TORSDOF 1
ENDMDL
