MODEL 1
REMARK minimizedAffinity 20.7068157
REMARK minimizedRMSD -1
REMARK  1 active torsions:
REMARK  status: ('A' for Active; 'I' for Inactive)
REMARK    1  A    between atoms: C1_2  and  C2_3 
ROOT
ATOM      1  C2  UNL d   1       1.528   3.651   0.676  0.00  0.00    -0.081 A 
ATOM      2  C3  UNL d   1       1.649   2.809   1.788  0.00  0.00     0.006 A 
ATOM      3  C4  UNL d   1       2.544   1.736   1.770  0.00  0.00     0.002 A 
ATOM      4  C5  UNL d   1       3.338   1.494   0.644  0.00  0.00    -0.080 A 
ATOM      5  C6  UNL d   1       4.325   0.364   0.623  0.00  0.00     0.076 C 
ATOM      6  C7  UNL d   1       3.205   2.325  -0.474  0.00  0.00     0.002 A 
ATOM      7  C8  UNL d   1       2.309   3.396  -0.457  0.00  0.00     0.006 A 
ENDROOT
BRANCH   1   8
ATOM      8  C1  UNL d   1       0.610   4.846   0.716  0.00  0.00     0.054 C 
ATOM      9  C   UNL d   1       0.845   5.764  -0.475  0.00  0.00     0.018 C 
ENDBRANCH   1   8
TORSDOF 1
ENDMDL
