MODEL 1
REMARK minimizedAffinity 10.1255465
REMARK minimizedRMSD -1
REMARK  1 active torsions:
REMARK  status: ('A' for Active; 'I' for Inactive)
REMARK    1  A    between atoms: C1_2  and  C2_3 
ROOT
ATOM      1  C2  UNL d   1       1.500  -2.792  -2.301  0.00  0.00    -0.081 A 
ATOM      2  C3  UNL d   1       2.256  -2.559  -1.146  0.00  0.00     0.006 A 
ATOM      3  C4  UNL d   1       2.973  -3.597  -0.547  0.00  0.00     0.002 A 
ATOM      4  C5  UNL d   1       2.953  -4.883  -1.097  0.00  0.00    -0.080 A 
ATOM      5  C6  UNL d   1       3.742  -6.000  -0.481  0.00  0.00     0.076 C 
ATOM      6  C7  UNL d   1       2.183  -5.121  -2.240  0.00  0.00     0.002 A 
ATOM      7  C8  UNL d   1       1.465  -4.083  -2.840  0.00  0.00     0.006 A 
ENDROOT
BRANCH   1   8
ATOM      8  C1  UNL d   1       0.777  -1.661  -2.986  0.00  0.00     0.054 C 
ATOM      9  C   UNL d   1       1.504  -0.338  -2.786  0.00  0.00     0.018 C 
ENDBRANCH   1   8
TORSDOF 1
ENDMDL
