MODEL 1
REMARK minimizedAffinity 11.2108965
REMARK minimizedRMSD -1
REMARK  1 active torsions:
REMARK  status: ('A' for Active; 'I' for Inactive)
REMARK    1  A    between atoms: C1_2  and  C2_3 
ROOT
ATOM      1  C2  UNL d   1       2.966  -1.505  -0.360  0.00  0.00    -0.081 A 
ATOM      2  C3  UNL d   1       2.085  -1.374  -1.441  0.00  0.00     0.006 A 
ATOM      3  C4  UNL d   1       1.909  -0.137  -2.065  0.00  0.00     0.002 A 
ATOM      4  C5  UNL d   1       2.614   0.988  -1.624  0.00  0.00    -0.080 A 
ATOM      5  C6  UNL d   1       2.457   2.315  -2.304  0.00  0.00     0.076 C 
ATOM      6  C7  UNL d   1       3.481   0.861  -0.533  0.00  0.00     0.002 A 
ATOM      7  C8  UNL d   1       3.657  -0.376   0.092  0.00  0.00     0.006 A 
ENDROOT
BRANCH   1   8
ATOM      8  C1  UNL d   1       3.207  -2.852   0.273  0.00  0.00     0.054 C 
ATOM      9  C   UNL d   1       4.694  -3.168   0.350  0.00  0.00     0.018 C 
ENDBRANCH   1   8
TORSDOF 1
ENDMDL
