MODEL 1
REMARK minimizedAffinity 18.3137436
REMARK minimizedRMSD -1
REMARK  1 active torsions:
REMARK  status: ('A' for Active; 'I' for Inactive)
REMARK    1  A    between atoms: C1_2  and  C2_3 
ROOT
ATOM      1  C2  UNL d   1      -1.914   1.004   2.344  0.00  0.00    -0.081 A 
ATOM      2  C3  UNL d   1      -0.944  -0.001   2.237  0.00  0.00     0.006 A 
ATOM      3  C4  UNL d   1       0.409   0.329   2.129  0.00  0.00     0.002 A 
ATOM      4  C5  UNL d   1       0.816   1.668   2.135  0.00  0.00    -0.080 A 
ATOM      5  C6  UNL d   1       2.268   2.034   2.050  0.00  0.00     0.076 C 
ATOM      6  C7  UNL d   1      -0.154   2.672   2.224  0.00  0.00     0.002 A 
ATOM      7  C8  UNL d   1      -1.507   2.343   2.331  0.00  0.00     0.006 A 
ENDROOT
BRANCH   1   8
ATOM      8  C1  UNL d   1      -3.368   0.650   2.525  0.00  0.00     0.054 C 
ATOM      9  C   UNL d   1      -3.537  -0.813   2.908  0.00  0.00     0.018 C 
ENDBRANCH   1   8
TORSDOF 1
ENDMDL
