MODEL 1
REMARK minimizedAffinity 17.9073448
REMARK minimizedRMSD -1
REMARK  1 active torsions:
REMARK  status: ('A' for Active; 'I' for Inactive)
REMARK    1  A    between atoms: C1_2  and  C2_3 
ROOT
ATOM      1  C2  UNL d   1       4.050  -4.579   0.345  0.00  0.00    -0.081 A 
ATOM      2  C3  UNL d   1       3.195  -3.471   0.303  0.00  0.00     0.006 A 
ATOM      3  C4  UNL d   1       1.823  -3.626   0.515  0.00  0.00     0.002 A 
ATOM      4  C5  UNL d   1       1.284  -4.889   0.781  0.00  0.00    -0.080 A 
ATOM      5  C6  UNL d   1      -0.182  -5.065   1.040  0.00  0.00     0.076 C 
ATOM      6  C7  UNL d   1       2.135  -5.999   0.805  0.00  0.00     0.002 A 
ATOM      7  C8  UNL d   1       3.507  -5.845   0.592  0.00  0.00     0.006 A 
ENDROOT
BRANCH   1   8
ATOM      8  C1  UNL d   1       5.538  -4.406   0.180  0.00  0.00     0.054 C 
ATOM      9  C   UNL d   1       5.998  -3.052   0.701  0.00  0.00     0.018 C 
ENDBRANCH   1   8
TORSDOF 1
ENDMDL
