MODEL 1
REMARK minimizedAffinity 19.9290924
REMARK minimizedRMSD -1
REMARK  1 active torsions:
REMARK  status: ('A' for Active; 'I' for Inactive)
REMARK    1  A    between atoms: C1_2  and  C2_3 
ROOT
ATOM      1  C2  UNL d   1       2.685  -4.210  -0.460  0.00  0.00    -0.081 A 
ATOM      2  C3  UNL d   1       3.146  -2.965  -0.014  0.00  0.00     0.006 A 
ATOM      3  C4  UNL d   1       2.772  -1.793  -0.676  0.00  0.00     0.002 A 
ATOM      4  C5  UNL d   1       1.925  -1.845  -1.789  0.00  0.00    -0.080 A 
ATOM      5  C6  UNL d   1       1.492  -0.592  -2.490  0.00  0.00     0.076 C 
ATOM      6  C7  UNL d   1       1.479  -3.090  -2.245  0.00  0.00     0.002 A 
ATOM      7  C8  UNL d   1       1.853  -4.262  -1.584  0.00  0.00     0.006 A 
ENDROOT
BRANCH   1   8
ATOM      8  C1  UNL d   1       3.034  -5.470   0.290  0.00  0.00     0.054 C 
ATOM      9  C   UNL d   1       4.401  -5.998  -0.122  0.00  0.00     0.018 C 
ENDBRANCH   1   8
TORSDOF 1
ENDMDL
