MODEL 1
REMARK minimizedAffinity 8.79388142
REMARK minimizedRMSD -1
REMARK  1 active torsions:
REMARK  status: ('A' for Active; 'I' for Inactive)
REMARK    1  A    between atoms: C1_2  and  C2_3 
ROOT
ATOM      1  C2  UNL d   1       0.133   2.713  -4.146  0.00  0.00    -0.081 A 
ATOM      2  C3  UNL d   1      -0.304   2.169  -5.360  0.00  0.00     0.006 A 
ATOM      3  C4  UNL d   1      -1.483   2.623  -5.956  0.00  0.00     0.002 A 
ATOM      4  C5  UNL d   1      -2.239   3.634  -5.354  0.00  0.00    -0.080 A 
ATOM      5  C6  UNL d   1      -3.491   4.152  -5.999  0.00  0.00     0.076 C 
ATOM      6  C7  UNL d   1      -1.812   4.165  -4.132  0.00  0.00     0.002 A 
ATOM      7  C8  UNL d   1      -0.634   3.711  -3.535  0.00  0.00     0.006 A 
ENDROOT
BRANCH   1   8
ATOM      8  C1  UNL d   1       1.437   2.270  -3.533  0.00  0.00     0.054 C 
ATOM      9  C   UNL d   1       1.882   3.223  -2.433  0.00  0.00     0.018 C 
ENDBRANCH   1   8
TORSDOF 1
ENDMDL
