MODEL 1
REMARK minimizedAffinity 5.880867
REMARK minimizedRMSD -1
REMARK  1 active torsions:
REMARK  status: ('A' for Active; 'I' for Inactive)
REMARK    1  A    between atoms: C1_2  and  C2_3 
ROOT
ATOM      1  C2  UNL d   1      -2.652  -4.445  -5.249  0.00  0.00    -0.081 A 
ATOM      2  C3  UNL d   1      -3.848  -4.957  -5.765  0.00  0.00     0.006 A 
ATOM      3  C4  UNL d   1      -4.938  -4.115  -5.998  0.00  0.00     0.002 A 
ATOM      4  C5  UNL d   1      -4.847  -2.746  -5.726  0.00  0.00    -0.080 A 
ATOM      5  C6  UNL d   1      -5.999  -1.825  -6.000  0.00  0.00     0.076 C 
ATOM      6  C7  UNL d   1      -3.658  -2.236  -5.194  0.00  0.00     0.002 A 
ATOM      7  C8  UNL d   1      -2.568  -3.078  -4.960  0.00  0.00     0.006 A 
ENDROOT
BRANCH   1   8
ATOM      8  C1  UNL d   1      -1.454  -5.340  -5.057  0.00  0.00     0.054 C 
ATOM      9  C   UNL d   1      -0.625  -4.904  -3.858  0.00  0.00     0.018 C 
ENDBRANCH   1   8
TORSDOF 1
ENDMDL
