MODEL 1
REMARK minimizedAffinity 18.2478065
REMARK minimizedRMSD -1
REMARK  1 active torsions:
REMARK  status: ('A' for Active; 'I' for Inactive)
REMARK    1  A    between atoms: C1_2  and  C2_3 
ROOT
ATOM      1  C2  UNL d   1       2.961  -0.144  -1.150  0.00  0.00    -0.081 A 
ATOM      2  C3  UNL d   1       2.853   1.091  -1.801  0.00  0.00     0.006 A 
ATOM      3  C4  UNL d   1       3.754   2.121  -1.521  0.00  0.00     0.002 A 
ATOM      4  C5  UNL d   1       4.783   1.930  -0.592  0.00  0.00    -0.080 A 
ATOM      5  C6  UNL d   1       5.776   3.017  -0.304  0.00  0.00     0.076 C 
ATOM      6  C7  UNL d   1       4.880   0.703   0.072  0.00  0.00     0.002 A 
ATOM      7  C8  UNL d   1       3.978  -0.327  -0.207  0.00  0.00     0.006 A 
ENDROOT
BRANCH   1   8
ATOM      8  C1  UNL d   1       2.030  -1.277  -1.497  0.00  0.00     0.054 C 
ATOM      9  C   UNL d   1       2.430  -2.561  -0.784  0.00  0.00     0.018 C 
ENDBRANCH   1   8
TORSDOF 1
ENDMDL
