MODEL 1
REMARK minimizedAffinity -4.59360743
REMARK minimizedRMSD -1
REMARK  0 active torsions:
REMARK  status: ('A' for Active; 'I' for Inactive)
ROOT
ATOM      1  C   UNL d   1      -2.241  -1.055  -5.945  0.00  0.00    -0.002 A 
ATOM      2  C1  UNL d   1      -2.014  -2.048  -5.002  0.00  0.00     0.010 A 
ATOM      3  C2  UNL d   1      -0.991  -1.913  -4.061  0.00  0.00     0.041 A 
ATOM      4  C3  UNL d   1      -0.194  -0.752  -4.083  0.00  0.00    -0.075 A 
ATOM      5  S   UNL d   1       1.114  -0.369  -3.027  0.00  0.00     0.015 SA
ATOM      6  C4  UNL d   1       1.401   1.121  -3.802  0.00  0.00     0.022 A 
ATOM      7  C5  UNL d   1       0.530   1.338  -4.843  0.00  0.00     0.026 A 
ATOM      8  C6  UNL d   1      -0.405   0.262  -5.021  0.00  0.00    -0.082 A 
ATOM      9  C7  UNL d   1      -1.449   0.096  -5.963  0.00  0.00     0.045 A 
ENDROOT
TORSDOF 0
ENDMDL
