MODEL 1
REMARK minimizedAffinity -5.00318241
REMARK minimizedRMSD -1
REMARK  0 active torsions:
REMARK  status: ('A' for Active; 'I' for Inactive)
ROOT
ATOM      1  C   UNL d   1       0.339   1.080   4.047  0.00  0.00    -0.002 A 
ATOM      2  C1  UNL d   1       1.500   0.410   3.689  0.00  0.00     0.010 A 
ATOM      3  C2  UNL d   1       1.645  -0.127   2.408  0.00  0.00     0.041 A 
ATOM      4  C3  UNL d   1       0.592   0.024   1.483  0.00  0.00    -0.075 A 
ATOM      5  S   UNL d   1       0.546  -0.550  -0.142  0.00  0.00     0.015 SA
ATOM      6  C4  UNL d   1      -1.016   0.081  -0.399  0.00  0.00     0.022 A 
ATOM      7  C5  UNL d   1      -1.506   0.716   0.717  0.00  0.00     0.026 A 
ATOM      8  C6  UNL d   1      -0.587   0.694   1.820  0.00  0.00    -0.082 A 
ATOM      9  C7  UNL d   1      -0.703   1.227   3.127  0.00  0.00     0.045 A 
ENDROOT
TORSDOF 0
ENDMDL
