MODEL 1
REMARK minimizedAffinity -0.685381591
REMARK minimizedRMSD -1
REMARK  0 active torsions:
REMARK  status: ('A' for Active; 'I' for Inactive)
ROOT
ATOM      1  C   UNL d   1       0.663  -0.413  -4.138  0.00  0.00    -0.002 A 
ATOM      2  C1  UNL d   1       1.893  -0.059  -3.599  0.00  0.00     0.010 A 
ATOM      3  C2  UNL d   1       2.034   0.144  -2.225  0.00  0.00     0.041 A 
ATOM      4  C3  UNL d   1       0.909  -0.017  -1.393  0.00  0.00    -0.075 A 
ATOM      5  S   UNL d   1       0.846   0.179   0.319  0.00  0.00     0.015 SA
ATOM      6  C4  UNL d   1      -0.814  -0.203   0.376  0.00  0.00     0.022 A 
ATOM      7  C5  UNL d   1      -1.324  -0.476  -0.871  0.00  0.00     0.026 A 
ATOM      8  C6  UNL d   1      -0.339  -0.374  -1.911  0.00  0.00    -0.082 A 
ATOM      9  C7  UNL d   1      -0.450  -0.572  -3.309  0.00  0.00     0.045 A 
ENDROOT
TORSDOF 0
ENDMDL
