MODEL 1
REMARK minimizedAffinity -2.83378935
REMARK minimizedRMSD -1
REMARK  0 active torsions:
REMARK  status: ('A' for Active; 'I' for Inactive)
ROOT
ATOM      1  C   UNL d   1      -1.252   1.195   2.033  0.00  0.00    -0.002 A 
ATOM      2  C1  UNL d   1      -0.016   1.179   2.663  0.00  0.00     0.010 A 
ATOM      3  C2  UNL d   1       1.068   0.515   2.083  0.00  0.00     0.041 A 
ATOM      4  C3  UNL d   1       0.886  -0.137   0.847  0.00  0.00    -0.075 A 
ATOM      5  S   UNL d   1       2.069  -1.012  -0.050  0.00  0.00     0.015 SA
ATOM      6  C4  UNL d   1       0.961  -1.384  -1.290  0.00  0.00     0.022 A 
ATOM      7  C5  UNL d   1      -0.286  -0.862  -1.042  0.00  0.00     0.026 A 
ATOM      8  C6  UNL d   1      -0.350  -0.134   0.194  0.00  0.00    -0.082 A 
ATOM      9  C7  UNL d   1      -1.429   0.547   0.808  0.00  0.00     0.045 A 
ENDROOT
TORSDOF 0
ENDMDL
