MODEL 1
REMARK minimizedAffinity 18.8408966
REMARK minimizedRMSD -1
REMARK  0 active torsions:
REMARK  status: ('A' for Active; 'I' for Inactive)
ROOT
ATOM      1  C   UNL d   1       4.844   2.543   3.666  0.00  0.00     0.124 A 
ATOM      2  C1  UNL d   1       4.254   2.276   2.438  0.00  0.00     0.062 A 
ATOM      3  C2  UNL d   1       4.204   3.261   1.457  0.00  0.00     0.162 A 
ATOM      4  C3  UNL d   1       4.747   4.523   1.698  0.00  0.00    -0.034 A 
ATOM      5  C4  UNL d   1       5.338   4.785   2.936  0.00  0.00     0.162 A 
ATOM      6  C5  UNL d   1       5.385   3.796   3.914  0.00  0.00     0.062 A 
ATOM      7  F   UNL d   1       5.956   4.056   5.099  0.00  0.00    -0.097 F 
ATOM      8  F1  UNL d   1       5.870   5.987   3.201  0.00  0.00    -0.096 F 
ATOM      9  I   UNL d   1       4.675   5.999   0.233  0.00  0.00    -0.060 I 
ATOM     10  F2  UNL d   1       3.628   2.975   0.280  0.00  0.00    -0.096 F 
ATOM     11  F3  UNL d   1       3.730   1.066   2.197  0.00  0.00    -0.097 F 
ATOM     12  F4  UNL d   1       4.890   1.593   4.609  0.00  0.00    -0.092 F 
ENDROOT
TORSDOF 0
ENDMDL
