MODEL 1
REMARK minimizedAffinity 23.0890083
REMARK minimizedRMSD -1
REMARK  0 active torsions:
REMARK  status: ('A' for Active; 'I' for Inactive)
ROOT
ATOM      1  C   UNL d   1       2.022  -0.575  -4.534  0.00  0.00     0.124 A 
ATOM      2  C1  UNL d   1       0.829  -0.184  -3.942  0.00  0.00     0.062 A 
ATOM      3  C2  UNL d   1      -0.299  -0.994  -4.039  0.00  0.00     0.162 A 
ATOM      4  C3  UNL d   1      -0.239  -2.203  -4.732  0.00  0.00    -0.034 A 
ATOM      5  C4  UNL d   1       0.964  -2.589  -5.326  0.00  0.00     0.162 A 
ATOM      6  C5  UNL d   1       2.089  -1.776  -5.225  0.00  0.00     0.062 A 
ATOM      7  F   UNL d   1       3.240  -2.155  -5.798  0.00  0.00    -0.097 F 
ATOM      8  F1  UNL d   1       1.057  -3.745  -5.999  0.00  0.00    -0.096 F 
ATOM      9  I   UNL d   1      -1.923  -3.416  -4.880  0.00  0.00    -0.060 I 
ATOM     10  F2  UNL d   1      -1.438  -0.591  -3.457  0.00  0.00    -0.096 F 
ATOM     11  F3  UNL d   1       0.763   0.977  -3.274  0.00  0.00    -0.097 F 
ATOM     12  F4  UNL d   1       3.106   0.207  -4.439  0.00  0.00    -0.092 F 
ENDROOT
TORSDOF 0
ENDMDL
