MODEL 1
REMARK minimizedAffinity 18.6886864
REMARK minimizedRMSD -1
REMARK  0 active torsions:
REMARK  status: ('A' for Active; 'I' for Inactive)
ROOT
ATOM      1  C   UNL d   1       3.819   1.016   4.042  0.00  0.00     0.124 A 
ATOM      2  C1  UNL d   1       3.085   0.113   4.799  0.00  0.00     0.062 A 
ATOM      3  C2  UNL d   1       1.881  -0.391   4.315  0.00  0.00     0.162 A 
ATOM      4  C3  UNL d   1       1.403   0.007   3.066  0.00  0.00    -0.034 A 
ATOM      5  C4  UNL d   1       2.146   0.916   2.311  0.00  0.00     0.162 A 
ATOM      6  C5  UNL d   1       3.349   1.416   2.799  0.00  0.00     0.062 A 
ATOM      7  F   UNL d   1       4.056   2.289   2.066  0.00  0.00    -0.097 F 
ATOM      8  F1  UNL d   1       1.715   1.320   1.106  0.00  0.00    -0.096 F 
ATOM      9  I   UNL d   1      -0.397  -0.743   2.339  0.00  0.00    -0.060 I 
ATOM     10  F2  UNL d   1       1.193  -1.262   5.068  0.00  0.00    -0.096 F 
ATOM     11  F3  UNL d   1       3.536  -0.275   6.000  0.00  0.00    -0.097 F 
ATOM     12  F4  UNL d   1       4.976   1.499   4.510  0.00  0.00    -0.092 F 
ENDROOT
TORSDOF 0
ENDMDL
