MODEL 1
REMARK minimizedAffinity 31.3251476
REMARK minimizedRMSD -1
REMARK  0 active torsions:
REMARK  status: ('A' for Active; 'I' for Inactive)
ROOT
ATOM      1  C   UNL d   1      -0.118  -0.981  -2.741  0.00  0.00     0.124 A 
ATOM      2  C1  UNL d   1      -0.761  -1.917  -1.942  0.00  0.00     0.062 A 
ATOM      3  C2  UNL d   1      -1.296  -3.071  -2.507  0.00  0.00     0.162 A 
ATOM      4  C3  UNL d   1      -1.190  -3.297  -3.880  0.00  0.00    -0.034 A 
ATOM      5  C4  UNL d   1      -0.543  -2.351  -4.677  0.00  0.00     0.162 A 
ATOM      6  C5  UNL d   1      -0.010  -1.199  -4.107  0.00  0.00     0.062 A 
ATOM      7  F   UNL d   1       0.610  -0.296  -4.881  0.00  0.00    -0.097 F 
ATOM      8  F1  UNL d   1      -0.423  -2.536  -6.000  0.00  0.00    -0.096 F 
ATOM      9  I   UNL d   1      -1.988  -5.021  -4.729  0.00  0.00    -0.060 I 
ATOM     10  F2  UNL d   1      -1.911  -3.958  -1.711  0.00  0.00    -0.096 F 
ATOM     11  F3  UNL d   1      -0.868  -1.708  -0.622  0.00  0.00    -0.097 F 
ATOM     12  F4  UNL d   1       0.394   0.129  -2.194  0.00  0.00    -0.092 F 
ENDROOT
TORSDOF 0
ENDMDL
