MODEL 1
REMARK minimizedAffinity 25.46591
REMARK minimizedRMSD -1
REMARK  0 active torsions:
REMARK  status: ('A' for Active; 'I' for Inactive)
ROOT
ATOM      1  C   UNL d   1      -4.781   1.544  -0.229  0.00  0.00     0.124 A 
ATOM      2  C1  UNL d   1      -4.961   0.921  -1.456  0.00  0.00     0.062 A 
ATOM      3  C2  UNL d   1      -4.299  -0.270  -1.740  0.00  0.00     0.162 A 
ATOM      4  C3  UNL d   1      -3.451  -0.847  -0.794  0.00  0.00    -0.034 A 
ATOM      5  C4  UNL d   1      -3.275  -0.214   0.438  0.00  0.00     0.162 A 
ATOM      6  C5  UNL d   1      -3.939   0.976   0.717  0.00  0.00     0.062 A 
ATOM      7  F   UNL d   1      -3.764   1.577   1.903  0.00  0.00    -0.097 F 
ATOM      8  F1  UNL d   1      -2.467  -0.741   1.370  0.00  0.00    -0.096 F 
ATOM      9  I   UNL d   1      -2.459  -2.627  -1.215  0.00  0.00    -0.060 I 
ATOM     10  F2  UNL d   1      -4.491  -0.850  -2.934  0.00  0.00    -0.096 F 
ATOM     11  F3  UNL d   1      -5.773   1.468  -2.372  0.00  0.00    -0.097 F 
ATOM     12  F4  UNL d   1      -5.419   2.691   0.041  0.00  0.00    -0.092 F 
ENDROOT
TORSDOF 0
ENDMDL
