MODEL 1
REMARK minimizedAffinity 25.0180473
REMARK minimizedRMSD -1
REMARK  0 active torsions:
REMARK  status: ('A' for Active; 'I' for Inactive)
ROOT
ATOM      1  C   UNL d   1      -2.537  -4.217  -2.462  0.00  0.00     0.124 A 
ATOM      2  C1  UNL d   1      -2.160  -4.421  -3.782  0.00  0.00     0.062 A 
ATOM      3  C2  UNL d   1      -1.321  -3.512  -4.419  0.00  0.00     0.162 A 
ATOM      4  C3  UNL d   1      -0.852  -2.389  -3.736  0.00  0.00    -0.034 A 
ATOM      5  C4  UNL d   1      -1.236  -2.191  -2.409  0.00  0.00     0.162 A 
ATOM      6  C5  UNL d   1      -2.075  -3.103  -1.777  0.00  0.00     0.062 A 
ATOM      7  F   UNL d   1      -2.438  -2.904  -0.501  0.00  0.00    -0.097 F 
ATOM      8  F1  UNL d   1      -0.803  -1.123  -1.723  0.00  0.00    -0.096 F 
ATOM      9  I   UNL d   1       0.403  -1.027  -4.685  0.00  0.00    -0.060 I 
ATOM     10  F2  UNL d   1      -0.973  -3.734  -5.695  0.00  0.00    -0.096 F 
ATOM     11  F3  UNL d   1      -2.606  -5.497  -4.447  0.00  0.00    -0.097 F 
ATOM     12  F4  UNL d   1      -3.346  -5.094  -1.852  0.00  0.00    -0.092 F 
ENDROOT
TORSDOF 0
ENDMDL
