MODEL 1
REMARK minimizedAffinity 12.6711006
REMARK minimizedRMSD -1
REMARK  1 active torsions:
REMARK  status: ('A' for Active; 'I' for Inactive)
REMARK    1  A    between atoms: C1_2  and  C2_3 
ROOT
ATOM      1  C2  UNL d   1      -3.113  -4.661  -2.381  0.00  0.00    -0.076 A 
ATOM      2  C3  UNL d   1      -3.874  -3.753  -3.137  0.00  0.00     0.004 A 
ATOM      3  C4  UNL d   1      -5.082  -3.254  -2.654  0.00  0.00    -0.003 A 
ATOM      4  C5  UNL d   1      -5.549  -3.654  -1.407  0.00  0.00     0.000 A 
ATOM      5  C6  UNL d   1      -4.798  -4.541  -0.636  0.00  0.00     0.000 A 
ATOM      6  C7  UNL d   1      -3.570  -5.041  -1.101  0.00  0.00    -0.073 A 
ATOM      7  C8  UNL d   1      -2.805  -6.000  -0.230  0.00  0.00     0.078 C 
ENDROOT
BRANCH   1   8
ATOM      8  C1  UNL d   1      -1.824  -5.190  -2.968  0.00  0.00     0.053 C 
ATOM      9  C   UNL d   1      -2.049  -5.997  -4.238  0.00  0.00     0.018 C 
ENDBRANCH   1   8
TORSDOF 1
ENDMDL
