MODEL 1
REMARK minimizedAffinity -3.75126338
REMARK minimizedRMSD -1
REMARK  1 active torsions:
REMARK  status: ('A' for Active; 'I' for Inactive)
REMARK    1  A    between atoms: C1_2  and  C2_3 
ROOT
ATOM      1  C2  UNL d   1      -5.264   3.350  -2.838  0.00  0.00    -0.076 A 
ATOM      2  C3  UNL d   1      -5.999   4.548  -2.865  0.00  0.00     0.004 A 
ATOM      3  C4  UNL d   1      -5.666   5.574  -3.747  0.00  0.00    -0.003 A 
ATOM      4  C5  UNL d   1      -4.593   5.419  -4.618  0.00  0.00     0.000 A 
ATOM      5  C6  UNL d   1      -3.864   4.230  -4.617  0.00  0.00     0.000 A 
ATOM      6  C7  UNL d   1      -4.196   3.179  -3.745  0.00  0.00    -0.073 A 
ATOM      7  C8  UNL d   1      -3.372   1.922  -3.783  0.00  0.00     0.078 C 
ENDROOT
BRANCH   1   8
ATOM      8  C1  UNL d   1      -5.654   2.283  -1.840  0.00  0.00     0.053 C 
ATOM      9  C   UNL d   1      -5.910   2.849  -0.452  0.00  0.00     0.018 C 
ENDBRANCH   1   8
TORSDOF 1
ENDMDL
