MODEL 1
REMARK minimizedAffinity 8.90336037
REMARK minimizedRMSD -1
REMARK  1 active torsions:
REMARK  status: ('A' for Active; 'I' for Inactive)
REMARK    1  A    between atoms: C1_2  and  C2_3 
ROOT
ATOM      1  C2  UNL d   1       4.894   4.820   2.529  0.00  0.00    -0.076 A 
ATOM      2  C3  UNL d   1       5.595   5.935   2.039  0.00  0.00     0.004 A 
ATOM      3  C4  UNL d   1       6.000   6.000   0.707  0.00  0.00    -0.003 A 
ATOM      4  C5  UNL d   1       5.709   4.950  -0.158  0.00  0.00     0.000 A 
ATOM      5  C6  UNL d   1       4.999   3.844   0.307  0.00  0.00     0.000 A 
ATOM      6  C7  UNL d   1       4.569   3.770   1.643  0.00  0.00    -0.073 A 
ATOM      7  C8  UNL d   1       3.812   2.550   2.091  0.00  0.00     0.078 C 
ENDROOT
BRANCH   1   8
ATOM      8  C1  UNL d   1       4.504   4.793   3.989  0.00  0.00     0.053 C 
ATOM      9  C   UNL d   1       5.027   6.000   4.754  0.00  0.00     0.018 C 
ENDBRANCH   1   8
TORSDOF 1
ENDMDL
