MODEL 1
REMARK minimizedAffinity -3.0173068
REMARK minimizedRMSD -1
REMARK  1 active torsions:
REMARK  status: ('A' for Active; 'I' for Inactive)
REMARK    1  A    between atoms: C1_2  and  C2_3 
ROOT
ATOM      1  C2  UNL d   1      -4.727   3.807  -4.887  0.00  0.00    -0.076 A 
ATOM      2  C3  UNL d   1      -5.564   3.387  -3.839  0.00  0.00     0.004 A 
ATOM      3  C4  UNL d   1      -5.912   4.257  -2.807  0.00  0.00    -0.003 A 
ATOM      4  C5  UNL d   1      -5.430   5.561  -2.807  0.00  0.00     0.000 A 
ATOM      5  C6  UNL d   1      -4.613   6.000  -3.849  0.00  0.00     0.000 A 
ATOM      6  C7  UNL d   1      -4.266   5.140  -4.905  0.00  0.00    -0.073 A 
ATOM      7  C8  UNL d   1      -3.377   5.664  -6.000  0.00  0.00     0.078 C 
ENDROOT
BRANCH   1   8
ATOM      8  C1  UNL d   1      -4.362   2.811  -5.965  0.00  0.00     0.053 C 
ATOM      9  C   UNL d   1      -5.273   1.593  -5.966  0.00  0.00     0.018 C 
ENDBRANCH   1   8
TORSDOF 1
ENDMDL
