MODEL 1
REMARK minimizedAffinity -0.0976966545
REMARK minimizedRMSD -1
REMARK  1 active torsions:
REMARK  status: ('A' for Active; 'I' for Inactive)
REMARK    1  A    between atoms: C1_2  and  C2_3 
ROOT
ATOM      1  C2  UNL d   1      -5.243   4.801  -4.741  0.00  0.00    -0.076 A 
ATOM      2  C3  UNL d   1      -5.989   3.660  -5.082  0.00  0.00     0.004 A 
ATOM      3  C4  UNL d   1      -5.386   2.568  -5.705  0.00  0.00    -0.003 A 
ATOM      4  C5  UNL d   1      -4.027   2.599  -5.996  0.00  0.00     0.000 A 
ATOM      5  C6  UNL d   1      -3.267   3.716  -5.648  0.00  0.00     0.000 A 
ATOM      6  C7  UNL d   1      -3.856   4.818  -5.006  0.00  0.00    -0.073 A 
ATOM      7  C8  UNL d   1      -2.991   5.999  -4.659  0.00  0.00     0.078 C 
ENDROOT
BRANCH   1   8
ATOM      8  C1  UNL d   1      -5.956   5.965  -4.092  0.00  0.00     0.053 C 
ATOM      9  C   UNL d   1      -5.982   5.861  -2.575  0.00  0.00     0.018 C 
ENDBRANCH   1   8
TORSDOF 1
ENDMDL
