MODEL 1
REMARK minimizedAffinity -1.90319753
REMARK minimizedRMSD -1
REMARK  1 active torsions:
REMARK  status: ('A' for Active; 'I' for Inactive)
REMARK    1  A    between atoms: C1_2  and  C2_3 
ROOT
ATOM      1  C2  UNL d   1      -5.434   3.598  -3.859  0.00  0.00    -0.076 A 
ATOM      2  C3  UNL d   1      -4.882   3.161  -5.075  0.00  0.00     0.004 A 
ATOM      3  C4  UNL d   1      -4.372   4.071  -6.000  0.00  0.00    -0.003 A 
ATOM      4  C5  UNL d   1      -4.404   5.433  -5.722  0.00  0.00     0.000 A 
ATOM      5  C6  UNL d   1      -4.932   5.883  -4.513  0.00  0.00     0.000 A 
ATOM      6  C7  UNL d   1      -5.436   4.978  -3.563  0.00  0.00    -0.073 A 
ATOM      7  C8  UNL d   1      -6.000   5.519  -2.278  0.00  0.00     0.078 C 
ENDROOT
BRANCH   1   8
ATOM      8  C1  UNL d   1      -5.998   2.567  -2.907  0.00  0.00     0.053 C 
ATOM      9  C   UNL d   1      -5.981   3.038  -1.461  0.00  0.00     0.018 C 
ENDBRANCH   1   8
TORSDOF 1
ENDMDL
