MODEL 1
REMARK minimizedAffinity 17.593874
REMARK minimizedRMSD -1
REMARK  1 active torsions:
REMARK  status: ('A' for Active; 'I' for Inactive)
REMARK    1  A    between atoms: C1_2  and  C2_3 
ROOT
ATOM      1  C2  UNL d   1       0.923   2.621  -4.784  0.00  0.00    -0.076 A 
ATOM      2  C3  UNL d   1      -0.383   2.209  -4.468  0.00  0.00     0.004 A 
ATOM      3  C4  UNL d   1      -1.490   2.939  -4.898  0.00  0.00    -0.003 A 
ATOM      4  C5  UNL d   1      -1.309   4.092  -5.653  0.00  0.00     0.000 A 
ATOM      5  C6  UNL d   1      -0.021   4.506  -5.991  0.00  0.00     0.000 A 
ATOM      6  C7  UNL d   1       1.105   3.773  -5.579  0.00  0.00    -0.073 A 
ATOM      7  C8  UNL d   1       2.471   4.268  -5.968  0.00  0.00     0.078 C 
ENDROOT
BRANCH   1   8
ATOM      8  C1  UNL d   1       2.085   1.804  -4.267  0.00  0.00     0.053 C 
ATOM      9  C   UNL d   1       1.661   0.424  -3.788  0.00  0.00     0.018 C 
ENDBRANCH   1   8
TORSDOF 1
ENDMDL
