MODEL 1
REMARK minimizedAffinity -0.48726967
REMARK minimizedRMSD -1
REMARK  1 active torsions:
REMARK  status: ('A' for Active; 'I' for Inactive)
REMARK    1  A    between atoms: C1_2  and  C2_3 
ROOT
ATOM      1  C2  UNL d   1      -5.994   3.141  -0.717  0.00  0.00    -0.076 A 
ATOM      2  C3  UNL d   1      -6.000   2.119  -1.683  0.00  0.00     0.004 A 
ATOM      3  C4  UNL d   1      -5.970   0.777  -1.308  0.00  0.00    -0.003 A 
ATOM      4  C5  UNL d   1      -5.936   0.435   0.039  0.00  0.00     0.000 A 
ATOM      5  C6  UNL d   1      -5.948   1.435   1.011  0.00  0.00     0.000 A 
ATOM      6  C7  UNL d   1      -5.994   2.792   0.650  0.00  0.00    -0.073 A 
ATOM      7  C8  UNL d   1      -5.999   3.829   1.740  0.00  0.00     0.078 C 
ENDROOT
BRANCH   1   8
ATOM      8  C1  UNL d   1      -6.000   4.579  -1.185  0.00  0.00     0.053 C 
ATOM      9  C   UNL d   1      -5.777   4.705  -2.684  0.00  0.00     0.018 C 
ENDBRANCH   1   8
TORSDOF 1
ENDMDL
