MODEL 1
REMARK minimizedAffinity -2.18252039
REMARK minimizedRMSD -1
REMARK  1 active torsions:
REMARK  status: ('A' for Active; 'I' for Inactive)
REMARK    1  A    between atoms: C1_2  and  C2_3 
ROOT
ATOM      1  C2  UNL d   1       3.453   1.823  -3.598  0.00  0.00    -0.076 A 
ATOM      2  C3  UNL d   1       3.986   1.031  -2.567  0.00  0.00     0.004 A 
ATOM      3  C4  UNL d   1       5.144   0.280  -2.763  0.00  0.00    -0.003 A 
ATOM      4  C5  UNL d   1       5.788   0.309  -3.995  0.00  0.00     0.000 A 
ATOM      5  C6  UNL d   1       5.283   1.103  -5.025  0.00  0.00     0.000 A 
ATOM      6  C7  UNL d   1       4.126   1.879  -4.838  0.00  0.00    -0.073 A 
ATOM      7  C8  UNL d   1       3.623   2.712  -5.984  0.00  0.00     0.078 C 
ENDROOT
BRANCH   1   8
ATOM      8  C1  UNL d   1       2.180   2.595  -3.335  0.00  0.00     0.053 C 
ATOM      9  C   UNL d   1       2.042   3.012  -1.879  0.00  0.00     0.018 C 
ENDBRANCH   1   8
TORSDOF 1
ENDMDL
