MODEL 1
REMARK minimizedAffinity 11.5405979
REMARK minimizedRMSD -1
REMARK  1 active torsions:
REMARK  status: ('A' for Active; 'I' for Inactive)
REMARK    1  A    between atoms: C1_2  and  C2_3 
ROOT
ATOM      1  C2  UNL d   1       5.293   3.882   1.179  0.00  0.00    -0.076 A 
ATOM      2  C3  UNL d   1       4.800   3.270   0.013  0.00  0.00     0.004 A 
ATOM      3  C4  UNL d   1       4.119   4.008  -0.952  0.00  0.00    -0.003 A 
ATOM      4  C5  UNL d   1       3.919   5.372  -0.768  0.00  0.00     0.000 A 
ATOM      5  C6  UNL d   1       4.416   6.000   0.374  0.00  0.00     0.000 A 
ATOM      6  C7  UNL d   1       5.119   5.272   1.349  0.00  0.00    -0.073 A 
ATOM      7  C8  UNL d   1       5.628   5.999   2.564  0.00  0.00     0.078 C 
ENDROOT
BRANCH   1   8
ATOM      8  C1  UNL d   1       6.000   3.025   2.204  0.00  0.00     0.053 C 
ATOM      9  C   UNL d   1       5.999   3.653   3.589  0.00  0.00     0.018 C 
ENDBRANCH   1   8
TORSDOF 1
ENDMDL
