MODEL 1
REMARK minimizedAffinity 5.8711009
REMARK minimizedRMSD -1
REMARK  1 active torsions:
REMARK  status: ('A' for Active; 'I' for Inactive)
REMARK    1  A    between atoms: C1_2  and  C2_3 
ROOT
ATOM      1  C2  UNL d   1      -5.445   3.647  -1.860  0.00  0.00    -0.076 A 
ATOM      2  C3  UNL d   1      -5.997   4.871  -1.443  0.00  0.00     0.004 A 
ATOM      3  C4  UNL d   1      -6.000   5.981  -2.286  0.00  0.00    -0.003 A 
ATOM      4  C5  UNL d   1      -5.451   5.886  -3.560  0.00  0.00     0.000 A 
ATOM      5  C6  UNL d   1      -4.914   4.675  -3.996  0.00  0.00     0.000 A 
ATOM      6  C7  UNL d   1      -4.918   3.541  -3.165  0.00  0.00    -0.073 A 
ATOM      7  C8  UNL d   1      -4.321   2.262  -3.685  0.00  0.00     0.078 C 
ENDROOT
BRANCH   1   8
ATOM      8  C1  UNL d   1      -5.445   2.485  -0.892  0.00  0.00     0.053 C 
ATOM      9  C   UNL d   1      -6.000   2.864   0.472  0.00  0.00     0.018 C 
ENDBRANCH   1   8
TORSDOF 1
ENDMDL
