MODEL 1
REMARK minimizedAffinity 8.9183073
REMARK minimizedRMSD -1
REMARK  1 active torsions:
REMARK  status: ('A' for Active; 'I' for Inactive)
REMARK    1  A    between atoms: C1_2  and  C2_3 
ROOT
ATOM      1  C2  UNL d   1      -3.745   5.360  -4.345  0.00  0.00    -0.076 A 
ATOM      2  C3  UNL d   1      -3.264   4.771  -3.163  0.00  0.00     0.004 A 
ATOM      3  C4  UNL d   1      -4.138   4.196  -2.241  0.00  0.00    -0.003 A 
ATOM      4  C5  UNL d   1      -5.506   4.201  -2.487  0.00  0.00     0.000 A 
ATOM      5  C6  UNL d   1      -5.999   4.765  -3.663  0.00  0.00     0.000 A 
ATOM      6  C7  UNL d   1      -5.130   5.334  -4.610  0.00  0.00    -0.073 A 
ATOM      7  C8  UNL d   1      -5.717   5.935  -5.859  0.00  0.00     0.078 C 
ENDROOT
BRANCH   1   8
ATOM      8  C1  UNL d   1      -2.752   5.993  -5.294  0.00  0.00     0.053 C 
ATOM      9  C   UNL d   1      -1.315   5.848  -4.817  0.00  0.00     0.018 C 
ENDBRANCH   1   8
TORSDOF 1
ENDMDL
