MODEL 1
REMARK minimizedAffinity 16.043932
REMARK minimizedRMSD -1
REMARK  1 active torsions:
REMARK  status: ('A' for Active; 'I' for Inactive)
REMARK    1  A    between atoms: C1_2  and  C2_3 
ROOT
ATOM      1  C2  UNL d   1      -2.555  -1.457  -0.533  0.00  0.00    -0.076 A 
ATOM      2  C3  UNL d   1      -2.431  -2.789  -0.966  0.00  0.00     0.004 A 
ATOM      3  C4  UNL d   1      -2.299  -3.832  -0.051  0.00  0.00    -0.003 A 
ATOM      4  C5  UNL d   1      -2.291  -3.560   1.313  0.00  0.00     0.000 A 
ATOM      5  C6  UNL d   1      -2.431  -2.247   1.761  0.00  0.00     0.000 A 
ATOM      6  C7  UNL d   1      -2.580  -1.186   0.852  0.00  0.00    -0.073 A 
ATOM      7  C8  UNL d   1      -2.721   0.212   1.390  0.00  0.00     0.078 C 
ENDROOT
BRANCH   1   8
ATOM      8  C1  UNL d   1      -2.667  -0.365  -1.572  0.00  0.00     0.053 C 
ATOM      9  C   UNL d   1      -2.293  -0.846  -2.966  0.00  0.00     0.018 C 
ENDBRANCH   1   8
TORSDOF 1
ENDMDL
