MODEL 1
REMARK minimizedAffinity 17.3652496
REMARK minimizedRMSD -1
REMARK  1 active torsions:
REMARK  status: ('A' for Active; 'I' for Inactive)
REMARK    1  A    between atoms: C1_2  and  C2_3 
ROOT
ATOM      1  C2  UNL d   1      -2.937  -4.914  -2.747  0.00  0.00    -0.076 A 
ATOM      2  C3  UNL d   1      -3.192  -5.961  -1.844  0.00  0.00     0.004 A 
ATOM      3  C4  UNL d   1      -3.802  -5.716  -0.615  0.00  0.00    -0.003 A 
ATOM      4  C5  UNL d   1      -4.168  -4.420  -0.269  0.00  0.00     0.000 A 
ATOM      5  C6  UNL d   1      -3.939  -3.372  -1.160  0.00  0.00     0.000 A 
ATOM      6  C7  UNL d   1      -3.339  -3.604  -2.410  0.00  0.00    -0.073 A 
ATOM      7  C8  UNL d   1      -3.111  -2.436  -3.329  0.00  0.00     0.078 C 
ENDROOT
BRANCH   1   8
ATOM      8  C1  UNL d   1      -2.248  -5.236  -4.054  0.00  0.00     0.053 C 
ATOM      9  C   UNL d   1      -0.940  -5.986  -3.853  0.00  0.00     0.018 C 
ENDBRANCH   1   8
TORSDOF 1
ENDMDL
