MODEL 1
REMARK minimizedAffinity 14.0830421
REMARK minimizedRMSD -1
REMARK  1 active torsions:
REMARK  status: ('A' for Active; 'I' for Inactive)
REMARK    1  A    between atoms: C1_2  and  C2_3 
ROOT
ATOM      1  C2  UNL d   1      -0.114   3.380  -4.874  0.00  0.00    -0.076 A 
ATOM      2  C3  UNL d   1      -1.427   3.720  -4.503  0.00  0.00     0.004 A 
ATOM      3  C4  UNL d   1      -1.944   4.985  -4.775  0.00  0.00    -0.003 A 
ATOM      4  C5  UNL d   1      -1.158   5.931  -5.424  0.00  0.00     0.000 A 
ATOM      5  C6  UNL d   1       0.140   5.605  -5.815  0.00  0.00     0.000 A 
ATOM      6  C7  UNL d   1       0.672   4.329  -5.562  0.00  0.00    -0.073 A 
ATOM      7  C8  UNL d   1       2.080   4.034  -6.000  0.00  0.00     0.078 C 
ENDROOT
BRANCH   1   8
ATOM      8  C1  UNL d   1       0.402   2.002  -4.528  0.00  0.00     0.053 C 
ATOM      9  C   UNL d   1       1.622   2.048  -3.620  0.00  0.00     0.018 C 
ENDBRANCH   1   8
TORSDOF 1
ENDMDL
