MODEL 1
REMARK minimizedAffinity 6.40181494
REMARK minimizedRMSD -1
REMARK  1 active torsions:
REMARK  status: ('A' for Active; 'I' for Inactive)
REMARK    1  A    between atoms: C1_2  and  C2_3 
ROOT
ATOM      1  C2  UNL d   1       3.653   3.434  -5.938  0.00  0.00    -0.076 A 
ATOM      2  C3  UNL d   1       2.849   4.586  -5.981  0.00  0.00     0.004 A 
ATOM      3  C4  UNL d   1       3.413   5.858  -5.916  0.00  0.00    -0.003 A 
ATOM      4  C5  UNL d   1       4.792   6.000  -5.807  0.00  0.00     0.000 A 
ATOM      5  C6  UNL d   1       5.607   4.869  -5.781  0.00  0.00     0.000 A 
ATOM      6  C7  UNL d   1       5.055   3.579  -5.862  0.00  0.00    -0.073 A 
ATOM      7  C8  UNL d   1       5.981   2.394  -5.823  0.00  0.00     0.078 C 
ENDROOT
BRANCH   1   8
ATOM      8  C1  UNL d   1       2.983   2.079  -5.986  0.00  0.00     0.053 C 
ATOM      9  C   UNL d   1       2.394   1.674  -4.643  0.00  0.00     0.018 C 
ENDBRANCH   1   8
TORSDOF 1
ENDMDL
