MODEL 1
REMARK minimizedAffinity 7.76618052
REMARK minimizedRMSD -1
REMARK  1 active torsions:
REMARK  status: ('A' for Active; 'I' for Inactive)
REMARK    1  A    between atoms: C1_2  and  C2_3 
ROOT
ATOM      1  C2  UNL d   1      -0.291   0.328   0.727  0.00  0.00    -0.076 A 
ATOM      2  C3  UNL d   1      -1.381   0.897   1.409  0.00  0.00     0.004 A 
ATOM      3  C4  UNL d   1      -2.137   0.145   2.307  0.00  0.00    -0.003 A 
ATOM      4  C5  UNL d   1      -1.815  -1.187   2.539  0.00  0.00     0.000 A 
ATOM      5  C6  UNL d   1      -0.726  -1.763   1.885  0.00  0.00     0.000 A 
ATOM      6  C7  UNL d   1       0.056  -1.015   0.988  0.00  0.00    -0.073 A 
ATOM      7  C8  UNL d   1       1.215  -1.688   0.306  0.00  0.00     0.078 C 
ENDROOT
BRANCH   1   8
ATOM      8  C1  UNL d   1       0.475   1.184  -0.255  0.00  0.00     0.053 C 
ATOM      9  C   UNL d   1       0.519   2.647   0.157  0.00  0.00     0.018 C 
ENDBRANCH   1   8
TORSDOF 1
ENDMDL
