MODEL 1
REMARK minimizedAffinity 8.91632938
REMARK minimizedRMSD -1
REMARK  1 active torsions:
REMARK  status: ('A' for Active; 'I' for Inactive)
REMARK    1  A    between atoms: C1_2  and  C2_3 
ROOT
ATOM      1  C2  UNL d   1       4.415  -3.000  -0.088  0.00  0.00    -0.081 A 
ATOM      2  C3  UNL d   1       4.102  -1.901   0.721  0.00  0.00     0.006 A 
ATOM      3  C4  UNL d   1       2.786  -1.675   1.132  0.00  0.00     0.002 A 
ATOM      4  C5  UNL d   1       1.763  -2.549   0.748  0.00  0.00    -0.080 A 
ATOM      5  C6  UNL d   1       0.352  -2.335   1.208  0.00  0.00     0.076 C 
ATOM      6  C7  UNL d   1       2.073  -3.637  -0.074  0.00  0.00     0.002 A 
ATOM      7  C8  UNL d   1       3.388  -3.863  -0.486  0.00  0.00     0.006 A 
ENDROOT
BRANCH   1   8
ATOM      8  C1  UNL d   1       5.843  -3.282  -0.479  0.00  0.00     0.054 C 
ATOM      9  C   UNL d   1       5.999  -4.696  -1.021  0.00  0.00     0.018 C 
ENDBRANCH   1   8
TORSDOF 1
ENDMDL
