MODEL 1
REMARK minimizedAffinity 4.50998783
REMARK minimizedRMSD -1
REMARK  1 active torsions:
REMARK  status: ('A' for Active; 'I' for Inactive)
REMARK    1  A    between atoms: C1_2  and  C2_3 
ROOT
ATOM      1  C2  UNL d   1       4.622  -0.714  -0.091  0.00  0.00    -0.081 A 
ATOM      2  C3  UNL d   1       5.202  -1.944   0.243  0.00  0.00     0.006 A 
ATOM      3  C4  UNL d   1       4.402  -3.030   0.605  0.00  0.00     0.002 A 
ATOM      4  C5  UNL d   1       3.008  -2.907   0.632  0.00  0.00    -0.080 A 
ATOM      5  C6  UNL d   1       2.136  -4.073   0.989  0.00  0.00     0.076 C 
ATOM      6  C7  UNL d   1       2.429  -1.673   0.315  0.00  0.00     0.002 A 
ATOM      7  C8  UNL d   1       3.229  -0.587  -0.047  0.00  0.00     0.006 A 
ENDROOT
BRANCH   1   8
ATOM      8  C1  UNL d   1       5.479   0.440  -0.544  0.00  0.00     0.054 C 
ATOM      9  C   UNL d   1       5.286   1.657   0.348  0.00  0.00     0.018 C 
ENDBRANCH   1   8
TORSDOF 1
ENDMDL
