MODEL 1
REMARK minimizedAffinity 8.11366367
REMARK minimizedRMSD -1
REMARK  1 active torsions:
REMARK  status: ('A' for Active; 'I' for Inactive)
REMARK    1  A    between atoms: C1_2  and  C2_3 
ROOT
ATOM      1  C2  UNL d   1      -0.688   1.654  -2.430  0.00  0.00    -0.081 A 
ATOM      2  C3  UNL d   1      -0.057   2.656  -3.178  0.00  0.00     0.006 A 
ATOM      3  C4  UNL d   1      -0.807   3.669  -3.781  0.00  0.00     0.002 A 
ATOM      4  C5  UNL d   1      -2.198   3.702  -3.638  0.00  0.00    -0.080 A 
ATOM      5  C6  UNL d   1      -3.012   4.801  -4.254  0.00  0.00     0.076 C 
ATOM      6  C7  UNL d   1      -2.831   2.692  -2.906  0.00  0.00     0.002 A 
ATOM      7  C8  UNL d   1      -2.081   1.678  -2.304  0.00  0.00     0.006 A 
ENDROOT
BRANCH   1   8
ATOM      8  C1  UNL d   1       0.123   0.597  -1.726  0.00  0.00     0.054 C 
ATOM      9  C   UNL d   1      -0.602  -0.740  -1.713  0.00  0.00     0.018 C 
ENDBRANCH   1   8
TORSDOF 1
ENDMDL
