MODEL 1
REMARK minimizedAffinity 7.4612937
REMARK minimizedRMSD -1
REMARK  1 active torsions:
REMARK  status: ('A' for Active; 'I' for Inactive)
REMARK    1  A    between atoms: C1_2  and  C2_3 
ROOT
ATOM      1  C2  UNL d   1       1.867  -2.780   2.221  0.00  0.00    -0.081 A 
ATOM      2  C3  UNL d   1       3.045  -3.058   2.924  0.00  0.00     0.006 A 
ATOM      3  C4  UNL d   1       3.877  -4.107   2.525  0.00  0.00     0.002 A 
ATOM      4  C5  UNL d   1       3.548  -4.890   1.413  0.00  0.00    -0.080 A 
ATOM      5  C6  UNL d   1       4.448  -6.000   0.957  0.00  0.00     0.076 C 
ATOM      6  C7  UNL d   1       2.362  -4.623   0.721  0.00  0.00     0.002 A 
ATOM      7  C8  UNL d   1       1.530  -3.575   1.120  0.00  0.00     0.006 A 
ENDROOT
BRANCH   1   8
ATOM      8  C1  UNL d   1       1.001  -1.608   2.609  0.00  0.00     0.054 C 
ATOM      9  C   UNL d   1      -0.384  -2.065   3.047  0.00  0.00     0.018 C 
ENDBRANCH   1   8
TORSDOF 1
ENDMDL
