MODEL 1
REMARK minimizedAffinity 4.56711721
REMARK minimizedRMSD -1
REMARK  1 active torsions:
REMARK  status: ('A' for Active; 'I' for Inactive)
REMARK    1  A    between atoms: C1_2  and  C2_3 
ROOT
ATOM      1  C2  UNL d   1       1.804  -2.793   1.771  0.00  0.00    -0.081 A 
ATOM      2  C3  UNL d   1       0.645  -2.228   2.317  0.00  0.00     0.006 A 
ATOM      3  C4  UNL d   1      -0.075  -1.265   1.607  0.00  0.00     0.002 A 
ATOM      4  C5  UNL d   1       0.346  -0.857   0.337  0.00  0.00    -0.080 A 
ATOM      5  C6  UNL d   1      -0.435   0.154  -0.449  0.00  0.00     0.076 C 
ATOM      6  C7  UNL d   1       1.514  -1.409  -0.202  0.00  0.00     0.002 A 
ATOM      7  C8  UNL d   1       2.235  -2.371   0.508  0.00  0.00     0.006 A 
ENDROOT
BRANCH   1   8
ATOM      8  C1  UNL d   1       2.548  -3.879   2.507  0.00  0.00     0.054 C 
ATOM      9  C   UNL d   1       2.607  -5.161   1.689  0.00  0.00     0.018 C 
ENDBRANCH   1   8
TORSDOF 1
ENDMDL
