MODEL 1
REMARK minimizedAffinity 10.9850578
REMARK minimizedRMSD -1
REMARK  1 active torsions:
REMARK  status: ('A' for Active; 'I' for Inactive)
REMARK    1  A    between atoms: C1_2  and  C2_3 
ROOT
ATOM      1  C2  UNL d   1       0.801  -2.588   1.544  0.00  0.00    -0.081 A 
ATOM      2  C3  UNL d   1       1.417  -3.835   1.706  0.00  0.00     0.006 A 
ATOM      3  C4  UNL d   1       2.800  -3.967   1.558  0.00  0.00     0.002 A 
ATOM      4  C5  UNL d   1       3.590  -2.853   1.253  0.00  0.00    -0.080 A 
ATOM      5  C6  UNL d   1       5.079  -2.975   1.122  0.00  0.00     0.076 C 
ATOM      6  C7  UNL d   1       2.973  -1.611   1.074  0.00  0.00     0.002 A 
ATOM      7  C8  UNL d   1       1.590  -1.479   1.222  0.00  0.00     0.006 A 
ENDROOT
BRANCH   1   8
ATOM      8  C1  UNL d   1      -0.681  -2.431   1.766  0.00  0.00     0.054 C 
ATOM      9  C   UNL d   1      -0.970  -1.638   3.033  0.00  0.00     0.018 C 
ENDBRANCH   1   8
TORSDOF 1
ENDMDL
