MODEL 1
REMARK minimizedAffinity -1.41426444
REMARK minimizedRMSD -1
REMARK  0 active torsions:
REMARK  status: ('A' for Active; 'I' for Inactive)
ROOT
ATOM      1  C   UNL d   1       0.387  -3.026  -0.706  0.00  0.00     0.077 C 
ATOM      2  C1  UNL d   1       1.329  -1.941  -0.276  0.00  0.00    -0.074 A 
ATOM      3  C2  UNL d   1       2.613  -2.246   0.187  0.00  0.00    -0.005 A 
ATOM      4  C3  UNL d   1       3.481  -1.226   0.575  0.00  0.00     0.006 A 
ATOM      5  C4  UNL d   1       3.075   0.107   0.504  0.00  0.00    -0.005 A 
ATOM      6  C5  UNL d   1       1.796   0.431   0.042  0.00  0.00    -0.074 A 
ATOM      7  C6  UNL d   1       1.347   1.860  -0.050  0.00  0.00     0.077 C 
ATOM      8  C7  UNL d   1       0.931  -0.599  -0.352  0.00  0.00    -0.001 A 
ENDROOT
TORSDOF 0
ENDMDL
