MODEL 1
REMARK minimizedAffinity 2.65066147
REMARK minimizedRMSD -1
REMARK  0 active torsions:
REMARK  status: ('A' for Active; 'I' for Inactive)
ROOT
ATOM      1  C   UNL d   1       2.146  -2.616  -0.111  0.00  0.00     0.077 C 
ATOM      2  C1  UNL d   1       2.406  -1.167   0.180  0.00  0.00    -0.074 A 
ATOM      3  C2  UNL d   1       3.712  -0.683   0.308  0.00  0.00    -0.005 A 
ATOM      4  C3  UNL d   1       3.939   0.668   0.569  0.00  0.00     0.006 A 
ATOM      5  C4  UNL d   1       2.864   1.547   0.704  0.00  0.00    -0.005 A 
ATOM      6  C5  UNL d   1       1.552   1.082   0.578  0.00  0.00    -0.074 A 
ATOM      7  C6  UNL d   1       0.385   2.016   0.710  0.00  0.00     0.077 C 
ATOM      8  C7  UNL d   1       1.332  -0.276   0.309  0.00  0.00    -0.001 A 
ENDROOT
TORSDOF 0
ENDMDL
