MODEL 1
REMARK minimizedAffinity 1.8877517
REMARK minimizedRMSD -1
REMARK  0 active torsions:
REMARK  status: ('A' for Active; 'I' for Inactive)
ROOT
ATOM      1  C   UNL d   1       2.755  -1.050  -0.373  0.00  0.00     0.077 C 
ATOM      2  C1  UNL d   1       1.424  -0.361  -0.434  0.00  0.00    -0.074 A 
ATOM      3  C2  UNL d   1       0.606  -0.477  -1.562  0.00  0.00    -0.005 A 
ATOM      4  C3  UNL d   1      -0.634   0.162  -1.600  0.00  0.00     0.006 A 
ATOM      5  C4  UNL d   1      -1.067   0.922  -0.513  0.00  0.00    -0.005 A 
ATOM      6  C5  UNL d   1      -0.262   1.049   0.624  0.00  0.00    -0.074 A 
ATOM      7  C6  UNL d   1      -0.717   1.854   1.805  0.00  0.00     0.077 C 
ATOM      8  C7  UNL d   1       0.979   0.398   0.658  0.00  0.00    -0.001 A 
ENDROOT
TORSDOF 0
ENDMDL
