MODEL 1
REMARK minimizedAffinity 8.05720901
REMARK minimizedRMSD -1
REMARK  0 active torsions:
REMARK  status: ('A' for Active; 'I' for Inactive)
ROOT
ATOM      1  C   UNL d   1      -3.474  -2.319  -1.039  0.00  0.00     0.077 C 
ATOM      2  C1  UNL d   1      -3.844  -0.901  -1.360  0.00  0.00    -0.074 A 
ATOM      3  C2  UNL d   1      -4.671  -0.163  -0.506  0.00  0.00    -0.005 A 
ATOM      4  C3  UNL d   1      -4.998   1.157  -0.813  0.00  0.00     0.006 A 
ATOM      5  C4  UNL d   1      -4.504   1.753  -1.974  0.00  0.00    -0.005 A 
ATOM      6  C5  UNL d   1      -3.675   1.031  -2.839  0.00  0.00    -0.074 A 
ATOM      7  C6  UNL d   1      -3.127   1.659  -4.085  0.00  0.00     0.077 C 
ATOM      8  C7  UNL d   1      -3.345  -0.293  -2.520  0.00  0.00    -0.001 A 
ENDROOT
TORSDOF 0
ENDMDL
