MODEL 1
REMARK minimizedAffinity 4.05850363
REMARK minimizedRMSD -1
REMARK  0 active torsions:
REMARK  status: ('A' for Active; 'I' for Inactive)
ROOT
ATOM      1  C   UNL d   1       1.131   2.240   0.339  0.00  0.00     0.077 C 
ATOM      2  C1  UNL d   1       2.184   1.172   0.305  0.00  0.00    -0.074 A 
ATOM      3  C2  UNL d   1       3.529   1.482   0.528  0.00  0.00    -0.005 A 
ATOM      4  C3  UNL d   1       4.496   0.477   0.503  0.00  0.00     0.006 A 
ATOM      5  C4  UNL d   1       4.128  -0.846   0.254  0.00  0.00    -0.005 A 
ATOM      6  C5  UNL d   1       2.788  -1.175   0.030  0.00  0.00    -0.074 A 
ATOM      7  C6  UNL d   1       2.374  -2.593  -0.229  0.00  0.00     0.077 C 
ATOM      8  C7  UNL d   1       1.821  -0.160   0.064  0.00  0.00    -0.001 A 
ENDROOT
TORSDOF 0
ENDMDL
