MODEL 1
REMARK minimizedAffinity 2.8960371
REMARK minimizedRMSD -1
REMARK  0 active torsions:
REMARK  status: ('A' for Active; 'I' for Inactive)
ROOT
ATOM      1  C   UNL d   1      -2.500  -0.001  -1.117  0.00  0.00     0.077 C 
ATOM      2  C1  UNL d   1      -3.717  -0.686  -0.571  0.00  0.00    -0.074 A 
ATOM      3  C2  UNL d   1      -4.384  -0.180   0.550  0.00  0.00    -0.005 A 
ATOM      4  C3  UNL d   1      -5.520  -0.823   1.041  0.00  0.00     0.006 A 
ATOM      5  C4  UNL d   1      -6.000  -1.976   0.419  0.00  0.00    -0.005 A 
ATOM      6  C5  UNL d   1      -5.347  -2.496  -0.703  0.00  0.00    -0.074 A 
ATOM      7  C6  UNL d   1      -5.855  -3.728  -1.391  0.00  0.00     0.077 C 
ATOM      8  C7  UNL d   1      -4.210  -1.840  -1.196  0.00  0.00    -0.001 A 
ENDROOT
TORSDOF 0
ENDMDL
