MODEL 1
REMARK minimizedAffinity 3.98837399
REMARK minimizedRMSD -1
REMARK  0 active torsions:
REMARK  status: ('A' for Active; 'I' for Inactive)
ROOT
ATOM      1  C   UNL d   1       4.124  -1.730  -2.928  0.00  0.00     0.023 A 
ATOM      2  C1  UNL d   1       3.740  -1.550  -1.599  0.00  0.00     0.003 A 
ATOM      3  C2  UNL d   1       2.972  -2.523  -0.956  0.00  0.00     0.048 A 
ATOM      4  C3  UNL d   1       2.592  -3.673  -1.647  0.00  0.00     0.023 A 
ATOM      5  C4  UNL d   1       2.975  -3.857  -2.976  0.00  0.00     0.048 A 
ATOM      6  C5  UNL d   1       3.742  -2.882  -3.616  0.00  0.00     0.003 A 
ATOM      7  I   UNL d   1       1.449  -5.122  -0.691  0.00  0.00    -0.146 I 
ENDROOT
TORSDOF 0
ENDMDL
