MODEL 1
REMARK minimizedAffinity 3.0691247
REMARK minimizedRMSD -1
REMARK  0 active torsions:
REMARK  status: ('A' for Active; 'I' for Inactive)
ROOT
ATOM      1  C   UNL d   1       4.919  -3.324  -2.668  0.00  0.00     0.023 A 
ATOM      2  C1  UNL d   1       4.405  -4.411  -3.376  0.00  0.00     0.003 A 
ATOM      3  C2  UNL d   1       3.376  -5.179  -2.828  0.00  0.00     0.048 A 
ATOM      4  C3  UNL d   1       2.865  -4.855  -1.571  0.00  0.00     0.023 A 
ATOM      5  C4  UNL d   1       3.376  -3.768  -0.860  0.00  0.00     0.048 A 
ATOM      6  C5  UNL d   1       4.405  -3.003  -1.412  0.00  0.00     0.003 A 
ATOM      7  I   UNL d   1       1.333  -5.996  -0.753  0.00  0.00    -0.146 I 
ENDROOT
TORSDOF 0
ENDMDL
