MODEL 1
REMARK minimizedAffinity 13.8977976
REMARK minimizedRMSD -1
REMARK  0 active torsions:
REMARK  status: ('A' for Active; 'I' for Inactive)
ROOT
ATOM      1  C   UNL d   1       4.411  -5.998  -2.863  0.00  0.00     0.023 A 
ATOM      2  C1  UNL d   1       4.862  -5.159  -3.882  0.00  0.00     0.003 A 
ATOM      3  C2  UNL d   1       4.546  -3.799  -3.860  0.00  0.00     0.048 A 
ATOM      4  C3  UNL d   1       3.779  -3.285  -2.815  0.00  0.00     0.023 A 
ATOM      5  C4  UNL d   1       3.325  -4.120  -1.793  0.00  0.00     0.048 A 
ATOM      6  C5  UNL d   1       3.644  -5.479  -1.820  0.00  0.00     0.003 A 
ATOM      7  I   UNL d   1       3.306  -1.261  -2.780  0.00  0.00    -0.146 I 
ENDROOT
TORSDOF 0
ENDMDL
