MODEL 1
REMARK minimizedAffinity 6.0121417
REMARK minimizedRMSD -1
REMARK  0 active torsions:
REMARK  status: ('A' for Active; 'I' for Inactive)
ROOT
ATOM      1  C   UNL d   1       4.546  -2.305  -0.953  0.00  0.00     0.023 A 
ATOM      2  C1  UNL d   1       3.704  -2.988  -0.075  0.00  0.00     0.003 A 
ATOM      3  C2  UNL d   1       2.922  -4.049  -0.538  0.00  0.00     0.048 A 
ATOM      4  C3  UNL d   1       2.988  -4.422  -1.880  0.00  0.00     0.023 A 
ATOM      5  C4  UNL d   1       3.829  -3.741  -2.762  0.00  0.00     0.048 A 
ATOM      6  C5  UNL d   1       4.608  -2.681  -2.295  0.00  0.00     0.003 A 
ATOM      7  I   UNL d   1       1.826  -6.000  -2.571  0.00  0.00    -0.146 I 
ENDROOT
TORSDOF 0
ENDMDL
