MODEL 1
REMARK minimizedAffinity 1.49508941
REMARK minimizedRMSD -1
REMARK  0 active torsions:
REMARK  status: ('A' for Active; 'I' for Inactive)
ROOT
ATOM      1  C   UNL d   1       3.870  -3.508  -3.244  0.00  0.00     0.023 A 
ATOM      2  C1  UNL d   1       3.892  -4.903  -3.280  0.00  0.00     0.003 A 
ATOM      3  C2  UNL d   1       4.503  -5.619  -2.248  0.00  0.00     0.048 A 
ATOM      4  C3  UNL d   1       5.089  -4.935  -1.184  0.00  0.00     0.023 A 
ATOM      5  C4  UNL d   1       5.069  -3.540  -1.144  0.00  0.00     0.048 A 
ATOM      6  C5  UNL d   1       4.458  -2.828  -2.177  0.00  0.00     0.003 A 
ATOM      7  I   UNL d   1       5.999  -5.999   0.352  0.00  0.00    -0.146 I 
ENDROOT
TORSDOF 0
ENDMDL
