MODEL 1
REMARK minimizedAffinity 4.37281847
REMARK minimizedRMSD -1
REMARK  0 active torsions:
REMARK  status: ('A' for Active; 'I' for Inactive)
ROOT
ATOM      1  C   UNL d   1       4.368  -2.720  -0.280  0.00  0.00     0.023 A 
ATOM      2  C1  UNL d   1       3.773  -2.304  -1.471  0.00  0.00     0.003 A 
ATOM      3  C2  UNL d   1       3.705  -3.175  -2.560  0.00  0.00     0.048 A 
ATOM      4  C3  UNL d   1       4.232  -4.461  -2.452  0.00  0.00     0.023 A 
ATOM      5  C4  UNL d   1       4.828  -4.882  -1.262  0.00  0.00     0.048 A 
ATOM      6  C5  UNL d   1       4.895  -4.008  -0.176  0.00  0.00     0.003 A 
ATOM      7  I   UNL d   1       4.131  -5.759  -4.072  0.00  0.00    -0.146 I 
ENDROOT
TORSDOF 0
ENDMDL
