MODEL 1
REMARK minimizedAffinity 1.08550322
REMARK minimizedRMSD -1
REMARK  0 active torsions:
REMARK  status: ('A' for Active; 'I' for Inactive)
ROOT
ATOM      1  C   UNL d   1       4.607  -2.678  -0.818  0.00  0.00     0.023 A 
ATOM      2  C1  UNL d   1       5.233  -3.924  -0.801  0.00  0.00     0.003 A 
ATOM      3  C2  UNL d   1       5.095  -4.791  -1.886  0.00  0.00     0.048 A 
ATOM      4  C3  UNL d   1       4.329  -4.406  -2.986  0.00  0.00     0.023 A 
ATOM      5  C4  UNL d   1       3.701  -3.160  -3.008  0.00  0.00     0.048 A 
ATOM      6  C5  UNL d   1       3.842  -2.296  -1.920  0.00  0.00     0.003 A 
ATOM      7  I   UNL d   1       4.122  -5.696  -4.602  0.00  0.00    -0.146 I 
ENDROOT
TORSDOF 0
ENDMDL
