MODEL 1
REMARK minimizedAffinity -3.72660375
REMARK minimizedRMSD -1
REMARK  3 active torsions:
REMARK  status: ('A' for Active; 'I' for Inactive)
REMARK    1  A    between atoms: C3'_2  and  C2'_3 
REMARK    2  A    between atoms: C2'_3  and  C1'_4 
REMARK    3  A    between atoms: C1'_4  and  C1_5 
ROOT
ATOM      1  C1  N4B d   1      -0.230   0.114  -0.448  0.00  0.00    -0.075 A 
ATOM      2  C2  N4B d   1      -0.298  -0.092   0.948  0.00  0.00     0.002 A 
ATOM      3  C3  N4B d   1      -0.767   0.906   1.767  0.00  0.00     0.002 A 
ATOM      4  C4  N4B d   1      -1.154   2.119   1.218  0.00  0.00    -0.004 A 
ATOM      5  C5  N4B d   1      -1.110   2.301  -0.133  0.00  0.00     0.002 A 
ATOM      6  C6  N4B d   1      -0.644   1.306  -0.969  0.00  0.00     0.002 A 
ENDROOT
BRANCH   1   7
ATOM      7  C1' N4B d   1       0.356  -0.915  -1.375  0.00  0.00     0.057 C 
BRANCH   7   8
ATOM      8  C2' N4B d   1       0.623  -2.198  -0.593  0.00  0.00     0.009 C 
BRANCH   8   9
ATOM      9  C3' N4B d   1       0.171  -3.432  -1.356  0.00  0.00     0.004 C 
ATOM     10  C4' N4B d   1      -1.029  -3.175  -2.217  0.00  0.00     0.003 C 
ENDBRANCH   8   9
ENDBRANCH   7   8
ENDBRANCH   1   7
TORSDOF 3
ENDMDL
