MODEL 1
REMARK minimizedAffinity -2.19838929
REMARK minimizedRMSD -1
REMARK  3 active torsions:
REMARK  status: ('A' for Active; 'I' for Inactive)
REMARK    1  A    between atoms: C3'_2  and  C2'_3 
REMARK    2  A    between atoms: C2'_3  and  C1'_4 
REMARK    3  A    between atoms: C1'_4  and  C1_5 
ROOT
ATOM      1  C1  N4B d   1       0.264  -0.552  -0.614  0.00  0.00    -0.075 A 
ATOM      2  C2  N4B d   1       0.080   0.624  -1.373  0.00  0.00     0.002 A 
ATOM      3  C3  N4B d   1      -0.079   1.832  -0.741  0.00  0.00     0.002 A 
ATOM      4  C4  N4B d   1      -0.077   1.886   0.645  0.00  0.00    -0.004 A 
ATOM      5  C5  N4B d   1       0.127   0.749   1.371  0.00  0.00     0.002 A 
ATOM      6  C6  N4B d   1       0.293  -0.471   0.749  0.00  0.00     0.002 A 
ENDROOT
BRANCH   1   7
ATOM      7  C1' N4B d   1       0.357  -1.908  -1.258  0.00  0.00     0.057 C 
BRANCH   7   8
ATOM      8  C2' N4B d   1      -0.372  -2.928  -0.388  0.00  0.00     0.009 C 
BRANCH   8   9
ATOM      9  C3' N4B d   1      -0.722  -4.188  -1.161  0.00  0.00     0.004 C 
ATOM     10  C4' N4B d   1      -1.121  -3.908  -2.579  0.00  0.00     0.003 C 
ENDBRANCH   8   9
ENDBRANCH   7   8
ENDBRANCH   1   7
TORSDOF 3
ENDMDL
