MODEL 1
REMARK minimizedAffinity 19.9724751
REMARK minimizedRMSD -1
REMARK  0 active torsions:
REMARK  status: ('A' for Active; 'I' for Inactive)
ROOT
ATOM      1  C   UNL d   1       1.869  -4.590   0.701  0.00  0.00     0.124 A 
ATOM      2  C1  UNL d   1       0.575  -4.800   1.159  0.00  0.00     0.062 A 
ATOM      3  C2  UNL d   1      -0.124  -3.769   1.780  0.00  0.00     0.162 A 
ATOM      4  C3  UNL d   1       0.470  -2.517   1.947  0.00  0.00    -0.034 A 
ATOM      5  C4  UNL d   1       1.771  -2.314   1.484  0.00  0.00     0.162 A 
ATOM      6  C5  UNL d   1       2.465  -3.348   0.864  0.00  0.00     0.062 A 
ATOM      7  F   UNL d   1       3.715  -3.144   0.423  0.00  0.00    -0.097 F 
ATOM      8  F1  UNL d   1       2.371  -1.123   1.628  0.00  0.00    -0.096 F 
ATOM      9  I   UNL d   1      -0.572  -0.973   2.875  0.00  0.00    -0.060 I 
ATOM     10  F2  UNL d   1      -1.372  -4.000   2.213  0.00  0.00    -0.096 F 
ATOM     11  F3  UNL d   1      -0.003  -6.000   1.004  0.00  0.00    -0.097 F 
ATOM     12  F4  UNL d   1       2.539  -5.585   0.105  0.00  0.00    -0.092 F 
ENDROOT
TORSDOF 0
ENDMDL
