MODEL 1
REMARK minimizedAffinity 17.3733692
REMARK minimizedRMSD -1
REMARK  0 active torsions:
REMARK  status: ('A' for Active; 'I' for Inactive)
ROOT
ATOM      1  C   UNL d   1       3.609  -3.763   0.391  0.00  0.00     0.124 A 
ATOM      2  C1  UNL d   1       2.625  -4.742   0.372  0.00  0.00     0.062 A 
ATOM      3  C2  UNL d   1       1.314  -4.424   0.714  0.00  0.00     0.162 A 
ATOM      4  C3  UNL d   1       0.978  -3.120   1.078  0.00  0.00    -0.034 A 
ATOM      5  C4  UNL d   1       1.973  -2.141   1.096  0.00  0.00     0.162 A 
ATOM      6  C5  UNL d   1       3.282  -2.464   0.752  0.00  0.00     0.062 A 
ATOM      7  F   UNL d   1       4.231  -1.517   0.772  0.00  0.00    -0.097 F 
ATOM      8  F1  UNL d   1       1.685  -0.877   1.440  0.00  0.00    -0.096 F 
ATOM      9  I   UNL d   1      -0.981  -2.640   1.590  0.00  0.00    -0.060 I 
ATOM     10  F2  UNL d   1       0.384  -5.390   0.687  0.00  0.00    -0.096 F 
ATOM     11  F3  UNL d   1       2.938  -5.999   0.023  0.00  0.00    -0.097 F 
ATOM     12  F4  UNL d   1       4.869  -4.072   0.062  0.00  0.00    -0.092 F 
ENDROOT
TORSDOF 0
ENDMDL
