MODEL 1
REMARK minimizedAffinity 7.54142952
REMARK minimizedRMSD -1
REMARK  0 active torsions:
REMARK  status: ('A' for Active; 'I' for Inactive)
ROOT
ATOM      1  C   UNL d   1       4.184  -3.703   0.604  0.00  0.00     0.124 A 
ATOM      2  C1  UNL d   1       3.792  -2.388   0.815  0.00  0.00     0.062 A 
ATOM      3  C2  UNL d   1       2.474  -2.097   1.152  0.00  0.00     0.162 A 
ATOM      4  C3  UNL d   1       1.537  -3.122   1.281  0.00  0.00    -0.034 A 
ATOM      5  C4  UNL d   1       1.938  -4.442   1.065  0.00  0.00     0.162 A 
ATOM      6  C5  UNL d   1       3.257  -4.728   0.729  0.00  0.00     0.062 A 
ATOM      7  F   UNL d   1       3.634  -5.999   0.524  0.00  0.00    -0.097 F 
ATOM      8  F1  UNL d   1       1.063  -5.452   1.180  0.00  0.00    -0.096 F 
ATOM      9  I   UNL d   1      -0.436  -2.690   1.784  0.00  0.00    -0.060 I 
ATOM     10  F2  UNL d   1       2.123  -0.818   1.351  0.00  0.00    -0.096 F 
ATOM     11  F3  UNL d   1       4.686  -1.396   0.694  0.00  0.00    -0.097 F 
ATOM     12  F4  UNL d   1       5.453  -3.981   0.279  0.00  0.00    -0.092 F 
ENDROOT
TORSDOF 0
ENDMDL
