MODEL 1
REMARK minimizedAffinity -4.924119
REMARK minimizedRMSD -1
REMARK  1 active torsions:
REMARK  status: ('A' for Active; 'I' for Inactive)
REMARK    1  A    between atoms: C1_2  and  C2_3 
ROOT
ATOM      1  C2  UNL d   1       0.086  -0.284  -0.273  0.00  0.00    -0.073 A 
ATOM      2  C3  UNL d   1       1.064  -0.599   0.676  0.00  0.00    -0.002 A 
ATOM      3  C4  UNL d   1       1.054   0.015   1.929  0.00  0.00     0.004 A 
ATOM      4  C5  UNL d   1       0.064   0.944   2.248  0.00  0.00    -0.004 A 
ATOM      5  C6  UNL d   1      -0.930   1.263   1.316  0.00  0.00    -0.075 A 
ATOM      6  C7  UNL d   1      -2.001   2.262   1.643  0.00  0.00     0.076 C 
ATOM      7  C8  UNL d   1      -0.911   0.644   0.059  0.00  0.00     0.001 A 
ENDROOT
BRANCH   1   8
ATOM      8  C1  UNL d   1       0.089  -0.950  -1.625  0.00  0.00     0.053 C 
ATOM      9  C   UNL d   1      -0.399  -2.388  -1.554  0.00  0.00     0.018 C 
ENDBRANCH   1   8
TORSDOF 1
ENDMDL
