MODEL 1
REMARK minimizedAffinity -3.19251537
REMARK minimizedRMSD -1
REMARK  1 active torsions:
REMARK  status: ('A' for Active; 'I' for Inactive)
REMARK    1  A    between atoms: C1_2  and  C2_3 
ROOT
ATOM      1  C2  UNL d   1       0.166   0.100   0.200  0.00  0.00    -0.073 A 
ATOM      2  C3  UNL d   1       0.371   0.912  -0.921  0.00  0.00    -0.002 A 
ATOM      3  C4  UNL d   1       0.567   0.341  -2.179  0.00  0.00     0.004 A 
ATOM      4  C5  UNL d   1       0.553  -1.045  -2.330  0.00  0.00    -0.004 A 
ATOM      5  C6  UNL d   1       0.337  -1.873  -1.224  0.00  0.00    -0.075 A 
ATOM      6  C7  UNL d   1       0.321  -3.367  -1.370  0.00  0.00     0.076 C 
ATOM      7  C8  UNL d   1       0.144  -1.293   0.036  0.00  0.00     0.001 A 
ENDROOT
BRANCH   1   8
ATOM      8  C1  UNL d   1      -0.052   0.712   1.560  0.00  0.00     0.053 C 
ATOM      9  C   UNL d   1      -1.066   1.845   1.519  0.00  0.00     0.018 C 
ENDBRANCH   1   8
TORSDOF 1
ENDMDL
