MODEL 1
REMARK minimizedAffinity -4.3978734
REMARK minimizedRMSD -1
REMARK  1 active torsions:
REMARK  status: ('A' for Active; 'I' for Inactive)
REMARK    1  A    between atoms: C1_2  and  C2_3 
ROOT
ATOM      1  C2  UNL d   1      -0.204  -0.421  -0.208  0.00  0.00    -0.073 A 
ATOM      2  C3  UNL d   1       0.738  -0.962   0.674  0.00  0.00    -0.002 A 
ATOM      3  C4  UNL d   1       1.009  -0.332   1.889  0.00  0.00     0.004 A 
ATOM      4  C5  UNL d   1       0.336   0.839   2.239  0.00  0.00    -0.004 A 
ATOM      5  C6  UNL d   1      -0.617   1.388   1.376  0.00  0.00    -0.075 A 
ATOM      6  C7  UNL d   1      -1.348   2.649   1.737  0.00  0.00     0.076 C 
ATOM      7  C8  UNL d   1      -0.882   0.752   0.156  0.00  0.00     0.001 A 
ENDROOT
BRANCH   1   8
ATOM      8  C1  UNL d   1      -0.505  -1.100  -1.519  0.00  0.00     0.053 C 
ATOM      9  C   UNL d   1      -0.698  -2.599  -1.353  0.00  0.00     0.018 C 
ENDBRANCH   1   8
TORSDOF 1
ENDMDL
