MODEL 1
REMARK minimizedAffinity 0.953568101
REMARK minimizedRMSD -1
REMARK  0 active torsions:
REMARK  status: ('A' for Active; 'I' for Inactive)
ROOT
ATOM      1  C1  BNZ d   1       0.727  -1.123   0.037  0.00  0.00     0.000 A 
ATOM      2  C2  BNZ d   1      -0.136  -0.592   0.958  0.00  0.00     0.000 A 
ATOM      3  C3  BNZ d   1      -0.270  -1.154   2.197  0.00  0.00     0.000 A 
ATOM      4  C4  BNZ d   1       0.429  -2.267   2.499  0.00  0.00     0.000 A 
ATOM      5  C5  BNZ d   1       1.296  -2.819   1.578  0.00  0.00     0.000 A 
ATOM      6  C6  BNZ d   1       1.458  -2.229   0.346  0.00  0.00     0.000 A 
ENDROOT
TORSDOF 0
ENDMDL
