MODEL 1
REMARK minimizedAffinity -4.53656292
REMARK minimizedRMSD -1
REMARK  0 active torsions:
REMARK  status: ('A' for Active; 'I' for Inactive)
ROOT
ATOM      1  C1  BNZ d   1       1.243  -2.614   3.059  0.00  0.00     0.000 A 
ATOM      2  C2  BNZ d   1       2.093  -3.021   2.065  0.00  0.00     0.000 A 
ATOM      3  C3  BNZ d   1       2.227  -2.292   0.917  0.00  0.00     0.000 A 
ATOM      4  C4  BNZ d   1       1.482  -1.181   0.745  0.00  0.00     0.000 A 
ATOM      5  C5  BNZ d   1       0.613  -0.763   1.733  0.00  0.00     0.000 A 
ATOM      6  C6  BNZ d   1       0.509  -1.478   2.905  0.00  0.00     0.000 A 
ENDROOT
TORSDOF 0
ENDMDL
