MODEL 1
REMARK minimizedAffinity 1.08010948
REMARK minimizedRMSD -1
REMARK  0 active torsions:
REMARK  status: ('A' for Active; 'I' for Inactive)
ROOT
ATOM      1  C1  BNZ d   1      -0.598  -1.468   2.774  0.00  0.00     0.000 A 
ATOM      2  C2  BNZ d   1       0.043  -2.670   2.915  0.00  0.00     0.000 A 
ATOM      3  C3  BNZ d   1       0.994  -3.065   2.015  0.00  0.00     0.000 A 
ATOM      4  C4  BNZ d   1       1.273  -2.277   0.957  0.00  0.00     0.000 A 
ATOM      5  C5  BNZ d   1       0.628  -1.067   0.797  0.00  0.00     0.000 A 
ATOM      6  C6  BNZ d   1      -0.300  -0.655   1.725  0.00  0.00     0.000 A 
ENDROOT
TORSDOF 0
ENDMDL
