MODEL 1
REMARK minimizedAffinity 2.73180437
REMARK minimizedRMSD -1
REMARK  0 active torsions:
REMARK  status: ('A' for Active; 'I' for Inactive)
ROOT
ATOM      1  C1  BNZ d   1      -0.392  -0.916   2.883  0.00  0.00     0.000 A 
ATOM      2  C2  BNZ d   1      -0.696   0.373   3.232  0.00  0.00     0.000 A 
ATOM      3  C3  BNZ d   1      -1.959   0.867   3.055  0.00  0.00     0.000 A 
ATOM      4  C4  BNZ d   1      -2.903   0.085   2.493  0.00  0.00     0.000 A 
ATOM      5  C5  BNZ d   1      -2.610  -1.213   2.127  0.00  0.00     0.000 A 
ATOM      6  C6  BNZ d   1      -1.349  -1.720   2.343  0.00  0.00     0.000 A 
ENDROOT
TORSDOF 0
ENDMDL
