MODEL 1
REMARK minimizedAffinity 0.790943801
REMARK minimizedRMSD -1
REMARK  0 active torsions:
REMARK  status: ('A' for Active; 'I' for Inactive)
ROOT
ATOM      1  C1  BNZ d   1       0.695  -2.284   2.272  0.00  0.00     0.000 A 
ATOM      2  C2  BNZ d   1       0.939  -3.630   2.346  0.00  0.00     0.000 A 
ATOM      3  C3  BNZ d   1       0.016  -4.480   2.887  0.00  0.00     0.000 A 
ATOM      4  C4  BNZ d   1      -1.132  -3.980   3.389  0.00  0.00     0.000 A 
ATOM      5  C5  BNZ d   1      -1.389  -2.625   3.331  0.00  0.00     0.000 A 
ATOM      6  C6  BNZ d   1      -0.474  -1.777   2.751  0.00  0.00     0.000 A 
ENDROOT
TORSDOF 0
ENDMDL
