MODEL 1
REMARK minimizedAffinity -1.64856112
REMARK minimizedRMSD -1
REMARK  0 active torsions:
REMARK  status: ('A' for Active; 'I' for Inactive)
ROOT
ATOM      1  C1  BNZ d   1      -1.768  -0.266   0.737  0.00  0.00     0.000 A 
ATOM      2  C2  BNZ d   1      -2.297  -0.027  -0.504  0.00  0.00     0.000 A 
ATOM      3  C3  BNZ d   1      -1.508  -0.061  -1.619  0.00  0.00     0.000 A 
ATOM      4  C4  BNZ d   1      -0.186  -0.293  -1.489  0.00  0.00     0.000 A 
ATOM      5  C5  BNZ d   1       0.364  -0.526  -0.245  0.00  0.00     0.000 A 
ATOM      6  C6  BNZ d   1      -0.440  -0.530   0.872  0.00  0.00     0.000 A 
ENDROOT
TORSDOF 0
ENDMDL
