MODEL 1
REMARK minimizedAffinity -0.896853149
REMARK minimizedRMSD -1
REMARK  0 active torsions:
REMARK  status: ('A' for Active; 'I' for Inactive)
ROOT
ATOM      1  C1  BNZ d   1      -0.989  -2.976   3.302  0.00  0.00     0.000 A 
ATOM      2  C2  BNZ d   1      -0.063  -3.772   2.682  0.00  0.00     0.000 A 
ATOM      3  C3  BNZ d   1       0.939  -3.226   1.930  0.00  0.00     0.000 A 
ATOM      4  C4  BNZ d   1       0.991  -1.888   1.767  0.00  0.00     0.000 A 
ATOM      5  C5  BNZ d   1       0.060  -1.072   2.378  0.00  0.00     0.000 A 
ATOM      6  C6  BNZ d   1      -0.925  -1.623   3.165  0.00  0.00     0.000 A 
ENDROOT
TORSDOF 0
ENDMDL
