MODEL 1
REMARK minimizedAffinity -3.24724483
REMARK minimizedRMSD -1
REMARK  0 active torsions:
REMARK  status: ('A' for Active; 'I' for Inactive)
ROOT
ATOM      1  C2' OXE d   1       2.834  -1.448  -0.571  0.00  0.00     0.078 C 
ATOM      2  C1' OXE d   1       1.131  -0.131  -2.373  0.00  0.00     0.078 C 
ATOM      3  C1  OXE d   1       0.886   0.070  -0.898  0.00  0.00    -0.078 A 
ATOM      4  C2  OXE d   1       1.695  -0.615  -0.024  0.00  0.00    -0.078 A 
ATOM      5  C3  OXE d   1       1.547  -0.423   1.347  0.00  0.00     0.003 A 
ATOM      6  C4  OXE d   1       0.485   0.341   1.845  0.00  0.00    -0.002 A 
ATOM      7  C5  OXE d   1      -0.375   1.016   0.972  0.00  0.00    -0.002 A 
ATOM      8  C6  OXE d   1      -0.163   0.926  -0.400  0.00  0.00     0.003 A 
ENDROOT
TORSDOF 0
ENDMDL
