MODEL 1
REMARK minimizedAffinity -4.42082739
REMARK minimizedRMSD -1
REMARK  0 active torsions:
REMARK  status: ('A' for Active; 'I' for Inactive)
ROOT
ATOM      1  C2' OXE d   1       1.595  -0.122   2.372  0.00  0.00     0.078 C 
ATOM      2  C1' OXE d   1      -0.844   1.111   3.013  0.00  0.00     0.078 C 
ATOM      3  C1  OXE d   1      -0.585   0.774   1.566  0.00  0.00    -0.078 A 
ATOM      4  C2  OXE d   1       0.631   0.214   1.255  0.00  0.00    -0.078 A 
ATOM      5  C3  OXE d   1       0.899  -0.166  -0.057  0.00  0.00     0.003 A 
ATOM      6  C4  OXE d   1       0.006   0.157  -1.085  0.00  0.00    -0.002 A 
ATOM      7  C5  OXE d   1      -1.220   0.764  -0.796  0.00  0.00    -0.002 A 
ATOM      8  C6  OXE d   1      -1.549   1.040   0.527  0.00  0.00     0.003 A 
ENDROOT
TORSDOF 0
ENDMDL
