MODEL 1
REMARK minimizedAffinity -4.50585079
REMARK minimizedRMSD -1
REMARK  0 active torsions:
REMARK  status: ('A' for Active; 'I' for Inactive)
ROOT
ATOM      1  C2' OXE d   1      -2.416  -0.011  -0.290  0.00  0.00     0.078 C 
ATOM      2  C1' OXE d   1      -1.490   0.715   2.259  0.00  0.00     0.078 C 
ATOM      3  C1  OXE d   1      -0.534  -0.008   1.343  0.00  0.00    -0.078 A 
ATOM      4  C2  OXE d   1      -1.011  -0.401   0.115  0.00  0.00    -0.078 A 
ATOM      5  C3  OXE d   1      -0.155  -1.024  -0.789  0.00  0.00     0.003 A 
ATOM      6  C4  OXE d   1       1.140  -1.390  -0.403  0.00  0.00    -0.002 A 
ATOM      7  C5  OXE d   1       1.632  -1.035   0.858  0.00  0.00    -0.002 A 
ATOM      8  C6  OXE d   1       0.824  -0.308   1.725  0.00  0.00     0.003 A 
ENDROOT
TORSDOF 0
ENDMDL
