MODEL 1
REMARK minimizedAffinity -5.52285147
REMARK minimizedRMSD -1
REMARK  0 active torsions:
REMARK  status: ('A' for Active; 'I' for Inactive)
ROOT
ATOM      1  C2' OXE d   1       0.816   0.440  -2.025  0.00  0.00     0.078 C 
ATOM      2  C1' OXE d   1       1.108  -1.593  -0.112  0.00  0.00     0.078 C 
ATOM      3  C1  OXE d   1       0.312  -0.372   0.275  0.00  0.00    -0.078 A 
ATOM      4  C2  OXE d   1       0.214   0.638  -0.651  0.00  0.00    -0.078 A 
ATOM      5  C3  OXE d   1      -0.554   1.763  -0.365  0.00  0.00     0.003 A 
ATOM      6  C4  OXE d   1      -1.100   1.943   0.911  0.00  0.00    -0.002 A 
ATOM      7  C5  OXE d   1      -0.978   0.944   1.883  0.00  0.00    -0.002 A 
ATOM      8  C6  OXE d   1      -0.312  -0.235   1.568  0.00  0.00     0.003 A 
ENDROOT
TORSDOF 0
ENDMDL
