MODEL 1
REMARK minimizedAffinity -5.30050468
REMARK minimizedRMSD -1
REMARK  0 active torsions:
REMARK  status: ('A' for Active; 'I' for Inactive)
ROOT
ATOM      1  C2' OXE d   1       0.463  -0.812  -0.068  0.00  0.00     0.078 C 
ATOM      2  C1' OXE d   1      -1.479   1.208  -0.233  0.00  0.00     0.078 C 
ATOM      3  C1  OXE d   1      -0.995   0.808   1.138  0.00  0.00    -0.078 A 
ATOM      4  C2  OXE d   1      -0.079  -0.214   1.212  0.00  0.00    -0.078 A 
ATOM      5  C3  OXE d   1       0.442  -0.585   2.449  0.00  0.00     0.003 A 
ATOM      6  C4  OXE d   1      -0.072  -0.034   3.628  0.00  0.00    -0.002 A 
ATOM      7  C5  OXE d   1      -1.034   0.981   3.578  0.00  0.00    -0.002 A 
ATOM      8  C6  OXE d   1      -1.474   1.442   2.342  0.00  0.00     0.003 A 
ENDROOT
TORSDOF 0
ENDMDL
