MODEL 1
REMARK minimizedAffinity -4.96022272
REMARK minimizedRMSD -1
REMARK  0 active torsions:
REMARK  status: ('A' for Active; 'I' for Inactive)
ROOT
ATOM      1  C2' OXE d   1       2.162  -0.087   2.551  0.00  0.00     0.078 C 
ATOM      2  C1' OXE d   1      -0.032   0.943   3.968  0.00  0.00     0.078 C 
ATOM      3  C1  OXE d   1      -0.258   0.505   2.542  0.00  0.00    -0.078 A 
ATOM      4  C2  OXE d   1       0.832   0.046   1.842  0.00  0.00    -0.078 A 
ATOM      5  C3  OXE d   1       0.667  -0.422   0.541  0.00  0.00     0.003 A 
ATOM      6  C4  OXE d   1      -0.564  -0.286  -0.111  0.00  0.00    -0.002 A 
ATOM      7  C5  OXE d   1      -1.677   0.216   0.571  0.00  0.00    -0.002 A 
ATOM      8  C6  OXE d   1      -1.551   0.576   1.909  0.00  0.00     0.003 A 
ENDROOT
TORSDOF 0
ENDMDL
