MODEL 1
REMARK minimizedAffinity -1.41468644
REMARK minimizedRMSD -1
REMARK  0 active torsions:
REMARK  status: ('A' for Active; 'I' for Inactive)
ROOT
ATOM      1  C2' OXE d   1       1.756  -0.468   2.031  0.00  0.00     0.078 C 
ATOM      2  C1' OXE d   1      -0.797   0.636   2.413  0.00  0.00     0.078 C 
ATOM      3  C1  OXE d   1      -0.356   0.356   0.998  0.00  0.00    -0.078 A 
ATOM      4  C2  OXE d   1       0.913  -0.140   0.817  0.00  0.00    -0.078 A 
ATOM      5  C3  OXE d   1       1.349  -0.467  -0.463  0.00  0.00     0.003 A 
ATOM      6  C4  OXE d   1       0.567  -0.152  -1.581  0.00  0.00    -0.002 A 
ATOM      7  C5  OXE d   1      -0.713   0.391  -1.422  0.00  0.00    -0.002 A 
ATOM      8  C6  OXE d   1      -1.205   0.611  -0.140  0.00  0.00     0.003 A 
ENDROOT
TORSDOF 0
ENDMDL
