MODEL 1
REMARK minimizedAffinity -3.59608817
REMARK minimizedRMSD -1
REMARK  0 active torsions:
REMARK  status: ('A' for Active; 'I' for Inactive)
ROOT
ATOM      1  C   UNL d   1       1.363  -0.087   3.089  0.00  0.00     0.020 A 
ATOM      2  C1  UNL d   1       0.145   0.415   3.546  0.00  0.00     0.020 A 
ATOM      3  C2  UNL d   1      -0.891   0.664   2.643  0.00  0.00     0.034 A 
ATOM      4  C3  UNL d   1      -0.711   0.410   1.279  0.00  0.00     0.017 A 
ATOM      5  C4  UNL d   1       0.511  -0.095   0.821  0.00  0.00     0.017 A 
ATOM      6  C5  UNL d   1       1.545  -0.342   1.729  0.00  0.00     0.034 A 
ATOM      7 Cl   UNL d   1       0.808  -0.433  -0.848  0.00  0.00    -0.070 Cl
ATOM      8 Cl1  UNL d   1      -2.035   0.740   0.219  0.00  0.00    -0.070 Cl
ENDROOT
TORSDOF 0
ENDMDL
