MODEL 1
REMARK minimizedAffinity -3.27593946
REMARK minimizedRMSD -1
REMARK  0 active torsions:
REMARK  status: ('A' for Active; 'I' for Inactive)
ROOT
ATOM      1  C   UNL d   1       2.118  -1.086   0.201  0.00  0.00     0.020 A 
ATOM      2  C1  UNL d   1       0.966  -0.813  -0.537  0.00  0.00     0.020 A 
ATOM      3  C2  UNL d   1      -0.180  -0.341   0.107  0.00  0.00     0.034 A 
ATOM      4  C3  UNL d   1      -0.177  -0.141   1.493  0.00  0.00     0.017 A 
ATOM      5  C4  UNL d   1       0.980  -0.415   2.232  0.00  0.00     0.017 A 
ATOM      6  C5  UNL d   1       2.124  -0.887   1.582  0.00  0.00     0.034 A 
ATOM      7 Cl   UNL d   1       1.060  -0.193   3.944  0.00  0.00    -0.070 Cl
ATOM      8 Cl1  UNL d   1      -1.629   0.445   2.223  0.00  0.00    -0.070 Cl
ENDROOT
TORSDOF 0
ENDMDL
