MODEL 1
REMARK minimizedAffinity -3.94763637
REMARK minimizedRMSD -1
REMARK  0 active torsions:
REMARK  status: ('A' for Active; 'I' for Inactive)
ROOT
ATOM      1  C   UNL d   1      -1.623   1.435   1.704  0.00  0.00     0.020 A 
ATOM      2  C1  UNL d   1      -0.573   1.687   2.586  0.00  0.00     0.020 A 
ATOM      3  C2  UNL d   1       0.634   0.997   2.450  0.00  0.00     0.034 A 
ATOM      4  C3  UNL d   1       0.793   0.052   1.430  0.00  0.00     0.017 A 
ATOM      5  C4  UNL d   1      -0.261  -0.200   0.545  0.00  0.00     0.017 A 
ATOM      6  C5  UNL d   1      -1.467   0.494   0.686  0.00  0.00     0.034 A 
ATOM      7 Cl   UNL d   1      -0.139  -1.351  -0.739  0.00  0.00    -0.070 Cl
ATOM      8 Cl1  UNL d   1       2.313  -0.764   1.321  0.00  0.00    -0.070 Cl
ENDROOT
TORSDOF 0
ENDMDL
