MODEL 1
REMARK minimizedAffinity -3.77192259
REMARK minimizedRMSD -1
REMARK  0 active torsions:
REMARK  status: ('A' for Active; 'I' for Inactive)
ROOT
ATOM      1  C   UNL d   1      -0.366   1.463   2.981  0.00  0.00     0.020 A 
ATOM      2  C1  UNL d   1       0.532   0.612   3.624  0.00  0.00     0.020 A 
ATOM      3  C2  UNL d   1       1.293  -0.292   2.880  0.00  0.00     0.034 A 
ATOM      4  C3  UNL d   1       1.156  -0.347   1.488  0.00  0.00     0.017 A 
ATOM      5  C4  UNL d   1       0.255   0.508   0.843  0.00  0.00     0.017 A 
ATOM      6  C5  UNL d   1      -0.504   1.411   1.594  0.00  0.00     0.034 A 
ATOM      7 Cl   UNL d   1       0.032   0.498  -0.871  0.00  0.00    -0.070 Cl
ATOM      8 Cl1  UNL d   1       2.129  -1.489   0.630  0.00  0.00    -0.070 Cl
ENDROOT
TORSDOF 0
ENDMDL
