MODEL 1
REMARK minimizedAffinity -3.61330271
REMARK minimizedRMSD -1
REMARK  0 active torsions:
REMARK  status: ('A' for Active; 'I' for Inactive)
ROOT
ATOM      1  C   UNL d   1      -1.879   0.359   0.515  0.00  0.00     0.020 A 
ATOM      2  C1  UNL d   1      -1.722   0.670   1.865  0.00  0.00     0.020 A 
ATOM      3  C2  UNL d   1      -0.554   0.300   2.535  0.00  0.00     0.034 A 
ATOM      4  C3  UNL d   1       0.461  -0.383   1.855  0.00  0.00     0.017 A 
ATOM      5  C4  UNL d   1       0.302  -0.695   0.500  0.00  0.00     0.017 A 
ATOM      6  C5  UNL d   1      -0.869  -0.322  -0.166  0.00  0.00     0.034 A 
ATOM      7 Cl   UNL d   1       1.511  -1.536  -0.405  0.00  0.00    -0.070 Cl
ATOM      8 Cl1  UNL d   1       1.879  -0.809   2.747  0.00  0.00    -0.070 Cl
ENDROOT
TORSDOF 0
ENDMDL
