MODEL 1
REMARK minimizedAffinity -0.230302304
REMARK minimizedRMSD -1
REMARK  0 active torsions:
REMARK  status: ('A' for Active; 'I' for Inactive)
ROOT
ATOM      1  C   UNL d   1      -1.653  -0.373  -4.064  0.00  0.00     0.020 A 
ATOM      2  C1  UNL d   1      -0.894   0.378  -4.959  0.00  0.00     0.020 A 
ATOM      3  C2  UNL d   1       0.410   0.751  -4.627  0.00  0.00     0.034 A 
ATOM      4  C3  UNL d   1       0.959   0.373  -3.397  0.00  0.00     0.017 A 
ATOM      5  C4  UNL d   1       0.196  -0.382  -2.498  0.00  0.00     0.017 A 
ATOM      6  C5  UNL d   1      -1.109  -0.753  -2.836  0.00  0.00     0.034 A 
ATOM      7 Cl   UNL d   1       0.804  -0.886  -0.961  0.00  0.00    -0.070 Cl
ATOM      8 Cl1  UNL d   1       2.578   0.869  -3.052  0.00  0.00    -0.070 Cl
ENDROOT
TORSDOF 0
ENDMDL
