MODEL 1
REMARK minimizedAffinity -4.44137573
REMARK minimizedRMSD -1
REMARK  1 active torsions:
REMARK  status: ('A' for Active; 'I' for Inactive)
REMARK    1  A    between atoms: C3_4  and  O_7 
ROOT
ATOM      1  C   UNL d   1      -1.080   0.170   3.030  0.00  0.00    -0.033 A 
ATOM      2  C1  UNL d   1      -1.754  -0.476   1.992  0.00  0.00     0.039 A 
ATOM      3  C2  UNL d   1      -1.179  -0.549   0.722  0.00  0.00    -0.080 A 
ATOM      4  C3  UNL d   1       0.070   0.027   0.504  0.00  0.00     0.150 A 
ATOM      5  C4  UNL d   1       0.749   0.669   1.535  0.00  0.00    -0.007 A 
ATOM      6  C5  UNL d   1       0.172   0.741   2.802  0.00  0.00     0.039 A 
ENDROOT
BRANCH   4   7
ATOM      7  O   UNL d   1       0.670  -0.014  -0.719  0.00  0.00    -0.526 OA
ATOM      8  H5  UNL d   1       0.072  -0.464  -1.340  0.00  0.00     0.418 HD
ENDBRANCH   4   7
TORSDOF 1
ENDMDL
