MODEL 1
REMARK minimizedAffinity -5.33945274
REMARK minimizedRMSD -1
REMARK  1 active torsions:
REMARK  status: ('A' for Active; 'I' for Inactive)
REMARK    1  A    between atoms: C3_4  and  O_7 
ROOT
ATOM      1  C   UNL d   1      -1.454   0.125   0.058  0.00  0.00    -0.033 A 
ATOM      2  C1  UNL d   1      -0.065   0.097   0.196  0.00  0.00     0.039 A 
ATOM      3  C2  UNL d   1       0.510   0.029   1.466  0.00  0.00    -0.080 A 
ATOM      4  C3  UNL d   1      -0.313  -0.012   2.588  0.00  0.00     0.150 A 
ATOM      5  C4  UNL d   1      -1.697   0.012   2.457  0.00  0.00    -0.007 A 
ATOM      6  C5  UNL d   1      -2.270   0.081   1.188  0.00  0.00     0.039 A 
ENDROOT
BRANCH   4   7
ATOM      7  O   UNL d   1       0.203  -0.073   3.848  0.00  0.00    -0.526 OA
ATOM      8  H5  UNL d   1       1.172  -0.054   3.786  0.00  0.00     0.418 HD
ENDBRANCH   4   7
TORSDOF 1
ENDMDL
