MODEL 1
REMARK minimizedAffinity -5.5151329
REMARK minimizedRMSD -1
REMARK  1 active torsions:
REMARK  status: ('A' for Active; 'I' for Inactive)
REMARK    1  A    between atoms: C3_4  and  O_7 
ROOT
ATOM      1  C   UNL d   1      -1.505  -0.110   3.499  0.00  0.00    -0.033 A 
ATOM      2  C1  UNL d   1      -2.509  -0.062   2.529  0.00  0.00     0.039 A 
ATOM      3  C2  UNL d   1      -2.175  -0.103   1.174  0.00  0.00    -0.080 A 
ATOM      4  C3  UNL d   1      -0.836  -0.191   0.802  0.00  0.00     0.150 A 
ATOM      5  C4  UNL d   1       0.168  -0.243   1.763  0.00  0.00    -0.007 A 
ATOM      6  C5  UNL d   1      -0.167  -0.202   3.116  0.00  0.00     0.039 A 
ENDROOT
BRANCH   4   7
ATOM      7  O   UNL d   1      -0.461  -0.229  -0.508  0.00  0.00    -0.526 OA
ATOM      8  H5  UNL d   1      -1.259  -0.156  -1.058  0.00  0.00     0.418 HD
ENDBRANCH   4   7
TORSDOF 1
ENDMDL
