MODEL 1
REMARK minimizedAffinity -3.31942391
REMARK minimizedRMSD -1
REMARK  1 active torsions:
REMARK  status: ('A' for Active; 'I' for Inactive)
REMARK    1  A    between atoms: C3_4  and  O_7 
ROOT
ATOM      1  C   UNL d   1       1.016   0.254  -0.149  0.00  0.00    -0.033 A 
ATOM      2  C1  UNL d   1       1.681   0.450   1.063  0.00  0.00     0.039 A 
ATOM      3  C2  UNL d   1       1.071   0.081   2.264  0.00  0.00    -0.080 A 
ATOM      4  C3  UNL d   1      -0.202  -0.482   2.238  0.00  0.00     0.150 A 
ATOM      5  C4  UNL d   1      -0.868  -0.683   1.034  0.00  0.00    -0.007 A 
ATOM      6  C5  UNL d   1      -0.258  -0.313  -0.164  0.00  0.00     0.039 A 
ENDROOT
BRANCH   4   7
ATOM      7  O   UNL d   1      -0.840  -0.854   3.384  0.00  0.00    -0.526 OA
ATOM      8  H5  UNL d   1      -0.271  -0.629   4.140  0.00  0.00     0.418 HD
ENDBRANCH   4   7
TORSDOF 1
ENDMDL
