MODEL 1
REMARK minimizedAffinity -4.95405149
REMARK minimizedRMSD -1
REMARK  1 active torsions:
REMARK  status: ('A' for Active; 'I' for Inactive)
REMARK    1  A    between atoms: C3_4  and  O_7 
ROOT
ATOM      1  C   UNL d   1      -1.179  -0.351   3.139  0.00  0.00    -0.033 A 
ATOM      2  C1  UNL d   1      -2.200  -0.545   2.206  0.00  0.00     0.039 A 
ATOM      3  C2  UNL d   1      -1.911  -0.541   0.840  0.00  0.00    -0.080 A 
ATOM      4  C3  UNL d   1      -0.598  -0.344   0.421  0.00  0.00     0.150 A 
ATOM      5  C4  UNL d   1       0.425  -0.154   1.344  0.00  0.00    -0.007 A 
ATOM      6  C5  UNL d   1       0.133  -0.158   2.708  0.00  0.00     0.039 A 
ENDROOT
BRANCH   4   7
ATOM      7  O   UNL d   1      -0.268  -0.327  -0.902  0.00  0.00    -0.526 OA
ATOM      8  H5  UNL d   1      -1.080  -0.442  -1.423  0.00  0.00     0.418 HD
ENDBRANCH   4   7
TORSDOF 1
ENDMDL
