MODEL 1
REMARK minimizedAffinity -4.49836206
REMARK minimizedRMSD -1
REMARK  1 active torsions:
REMARK  status: ('A' for Active; 'I' for Inactive)
REMARK    1  A    between atoms: C3_4  and  O_7 
ROOT
ATOM      1  C   UNL d   1      -0.152  -0.481   2.834  0.00  0.00    -0.033 A 
ATOM      2  C1  UNL d   1       1.056  -0.139   2.223  0.00  0.00     0.039 A 
ATOM      3  C2  UNL d   1       1.080   0.227   0.876  0.00  0.00    -0.080 A 
ATOM      4  C3  UNL d   1      -0.109   0.248   0.152  0.00  0.00     0.150 A 
ATOM      5  C4  UNL d   1      -1.316  -0.087   0.756  0.00  0.00    -0.007 A 
ATOM      6  C5  UNL d   1      -1.338  -0.453   2.101  0.00  0.00     0.039 A 
ENDROOT
BRANCH   4   7
ATOM      7  O   UNL d   1      -0.135   0.594  -1.166  0.00  0.00    -0.526 OA
ATOM      8  H5  UNL d   1       0.776   0.773  -1.455  0.00  0.00     0.418 HD
ENDBRANCH   4   7
TORSDOF 1
ENDMDL
