MODEL 1
REMARK minimizedAffinity -3.85634995
REMARK minimizedRMSD -1
REMARK  1 active torsions:
REMARK  status: ('A' for Active; 'I' for Inactive)
REMARK    1  A    between atoms: C3_4  and  O_7 
ROOT
ATOM      1  C   UNL d   1      -1.643  -0.181   3.240  0.00  0.00    -0.033 A 
ATOM      2  C1  UNL d   1      -2.598  -0.022   2.234  0.00  0.00     0.039 A 
ATOM      3  C2  UNL d   1      -2.199   0.086   0.900  0.00  0.00    -0.080 A 
ATOM      4  C3  UNL d   1      -0.844   0.031   0.586  0.00  0.00     0.150 A 
ATOM      5  C4  UNL d   1       0.113  -0.132   1.583  0.00  0.00    -0.007 A 
ATOM      6  C5  UNL d   1      -0.288  -0.238   2.914  0.00  0.00     0.039 A 
ENDROOT
BRANCH   4   7
ATOM      7  O   UNL d   1      -0.405   0.137  -0.700  0.00  0.00    -0.526 OA
ATOM      8  H5  UNL d   1      -1.175   0.274  -1.277  0.00  0.00     0.418 HD
ENDBRANCH   4   7
TORSDOF 1
ENDMDL
