MODEL 1
REMARK minimizedAffinity -5.29800701
REMARK minimizedRMSD -1
REMARK  1 active torsions:
REMARK  status: ('A' for Active; 'I' for Inactive)
REMARK    1  A    between atoms: C3_4  and  O_7 
ROOT
ATOM      1  C   UNL d   1      -1.614  -0.210   2.906  0.00  0.00    -0.033 A 
ATOM      2  C1  UNL d   1      -2.454   0.087   1.831  0.00  0.00     0.039 A 
ATOM      3  C2  UNL d   1      -1.945   0.116   0.532  0.00  0.00    -0.080 A 
ATOM      4  C3  UNL d   1      -0.596  -0.155   0.320  0.00  0.00     0.150 A 
ATOM      5  C4  UNL d   1       0.246  -0.457   1.386  0.00  0.00    -0.007 A 
ATOM      6  C5  UNL d   1      -0.264  -0.484   2.683  0.00  0.00     0.039 A 
ENDROOT
BRANCH   4   7
ATOM      7  O   UNL d   1      -0.052  -0.134  -0.930  0.00  0.00    -0.526 OA
ATOM      8  H5  UNL d   1      -0.745   0.117  -1.563  0.00  0.00     0.418 HD
ENDBRANCH   4   7
TORSDOF 1
ENDMDL
