MODEL 1
REMARK minimizedAffinity -5.80761957
REMARK minimizedRMSD -1
REMARK  1 active torsions:
REMARK  status: ('A' for Active; 'I' for Inactive)
REMARK    1  A    between atoms: C3_4  and  O_7 
ROOT
ATOM      1  C   UNL d   1      -1.414  -0.131   3.189  0.00  0.00    -0.033 A 
ATOM      2  C1  UNL d   1      -2.260  -0.021   2.083  0.00  0.00     0.039 A 
ATOM      3  C2  UNL d   1      -1.730  -0.053   0.792  0.00  0.00    -0.080 A 
ATOM      4  C3  UNL d   1      -0.356  -0.196   0.620  0.00  0.00     0.150 A 
ATOM      5  C4  UNL d   1       0.492  -0.310   1.717  0.00  0.00    -0.007 A 
ATOM      6  C5  UNL d   1      -0.039  -0.277   3.006  0.00  0.00     0.039 A 
ENDROOT
BRANCH   4   7
ATOM      7  O   UNL d   1       0.208  -0.227  -0.621  0.00  0.00    -0.526 OA
ATOM      8  H5  UNL d   1      -0.495  -0.109  -1.281  0.00  0.00     0.418 HD
ENDBRANCH   4   7
TORSDOF 1
ENDMDL
