MODEL 1
REMARK minimizedAffinity -1.88544095
REMARK minimizedRMSD -1
REMARK  1 active torsions:
REMARK  status: ('A' for Active; 'I' for Inactive)
REMARK    1  A    between atoms: C3_4  and  O_7 
ROOT
ATOM      1  C   UNL d   1       1.238  -1.240  -3.460  0.00  0.00    -0.033 A 
ATOM      2  C1  UNL d   1       1.572  -0.084  -2.752  0.00  0.00     0.039 A 
ATOM      3  C2  UNL d   1       0.801   0.314  -1.658  0.00  0.00    -0.080 A 
ATOM      4  C3  UNL d   1      -0.299  -0.452  -1.282  0.00  0.00     0.150 A 
ATOM      5  C4  UNL d   1      -0.635  -1.607  -1.981  0.00  0.00    -0.007 A 
ATOM      6  C5  UNL d   1       0.135  -2.002  -3.073  0.00  0.00     0.039 A 
ENDROOT
BRANCH   4   7
ATOM      7  O   UNL d   1      -1.084  -0.101  -0.224  0.00  0.00    -0.526 OA
ATOM      8  H5  UNL d   1      -0.748   0.733   0.144  0.00  0.00     0.418 HD
ENDBRANCH   4   7
TORSDOF 1
ENDMDL
