MODEL 1
REMARK minimizedAffinity -5.23822832
REMARK minimizedRMSD -1
REMARK  1 active torsions:
REMARK  status: ('A' for Active; 'I' for Inactive)
REMARK    1  A    between atoms: C3_4  and  O_7 
ROOT
ATOM      1  C   UNL d   1      -2.001  -0.556   3.212  0.00  0.00    -0.033 A 
ATOM      2  C1  UNL d   1      -2.884  -0.225   2.183  0.00  0.00     0.039 A 
ATOM      3  C2  UNL d   1      -2.400   0.017   0.896  0.00  0.00    -0.080 A 
ATOM      4  C3  UNL d   1      -1.033  -0.075   0.652  0.00  0.00     0.150 A 
ATOM      5  C4  UNL d   1      -0.148  -0.408   1.671  0.00  0.00    -0.007 A 
ATOM      6  C5  UNL d   1      -0.632  -0.649   2.956  0.00  0.00     0.039 A 
ENDROOT
BRANCH   4   7
ATOM      7  O   UNL d   1      -0.513   0.157  -0.587  0.00  0.00    -0.526 OA
ATOM      8  H5  UNL d   1      -1.239   0.404  -1.184  0.00  0.00     0.418 HD
ENDBRANCH   4   7
TORSDOF 1
ENDMDL
