MODEL 1
REMARK minimizedAffinity -0.726453424
REMARK minimizedRMSD -1
REMARK  1 active torsions:
REMARK  status: ('A' for Active; 'I' for Inactive)
REMARK    1  A    between atoms: C3_4  and  O_7 
ROOT
ATOM      1  C   UNL d   1       1.966  -2.094  -3.582  0.00  0.00    -0.033 A 
ATOM      2  C1  UNL d   1       2.575  -1.017  -2.935  0.00  0.00     0.039 A 
ATOM      3  C2  UNL d   1       1.793  -0.023  -2.344  0.00  0.00    -0.080 A 
ATOM      4  C3  UNL d   1       0.406  -0.118  -2.406  0.00  0.00     0.150 A 
ATOM      5  C4  UNL d   1      -0.207  -1.190  -3.046  0.00  0.00    -0.007 A 
ATOM      6  C5  UNL d   1       0.575  -2.181  -3.636  0.00  0.00     0.039 A 
ENDROOT
BRANCH   4   7
ATOM      7  O   UNL d   1      -0.399   0.831  -1.848  0.00  0.00    -0.526 OA
ATOM      8  H5  UNL d   1       0.163   1.525  -1.467  0.00  0.00     0.418 HD
ENDBRANCH   4   7
TORSDOF 1
ENDMDL
