MODEL 1
REMARK minimizedAffinity -1.53119063
REMARK minimizedRMSD -1
REMARK  1 active torsions:
REMARK  status: ('A' for Active; 'I' for Inactive)
REMARK    1  A    between atoms: C3_4  and  O_7 
ROOT
ATOM      1  C   UNL d   1       1.194  -0.038   2.721  0.00  0.00    -0.033 A 
ATOM      2  C1  UNL d   1      -0.027   0.568   2.416  0.00  0.00     0.039 A 
ATOM      3  C2  UNL d   1      -0.387   0.785   1.085  0.00  0.00    -0.080 A 
ATOM      4  C3  UNL d   1       0.480   0.392   0.069  0.00  0.00     0.150 A 
ATOM      5  C4  UNL d   1       1.696  -0.216   0.365  0.00  0.00    -0.007 A 
ATOM      6  C5  UNL d   1       2.054  -0.431   1.695  0.00  0.00     0.039 A 
ENDROOT
BRANCH   4   7
ATOM      7  O   UNL d   1       0.174   0.588  -1.245  0.00  0.00    -0.526 OA
ATOM      8  H5  UNL d   1      -0.683   1.043  -1.296  0.00  0.00     0.418 HD
ENDBRANCH   4   7
TORSDOF 1
ENDMDL
