MODEL 1
REMARK minimizedAffinity -5.15500689
REMARK minimizedRMSD -1
REMARK  1 active torsions:
REMARK  status: ('A' for Active; 'I' for Inactive)
REMARK    1  A    between atoms: C3_4  and  O_7 
ROOT
ATOM      1  C   UNL d   1       0.104   0.318  -0.178  0.00  0.00    -0.033 A 
ATOM      2  C1  UNL d   1      -1.157  -0.189   0.140  0.00  0.00     0.039 A 
ATOM      3  C2  UNL d   1      -1.427  -0.629   1.438  0.00  0.00    -0.080 A 
ATOM      4  C3  UNL d   1      -0.429  -0.556   2.406  0.00  0.00     0.150 A 
ATOM      5  C4  UNL d   1       0.828  -0.049   2.096  0.00  0.00    -0.007 A 
ATOM      6  C5  UNL d   1       1.096   0.390   0.800  0.00  0.00     0.039 A 
ENDROOT
BRANCH   4   7
ATOM      7  O   UNL d   1      -0.644  -0.978   3.684  0.00  0.00    -0.526 OA
ATOM      8  H5  UNL d   1      -1.548  -1.330   3.744  0.00  0.00     0.418 HD
ENDBRANCH   4   7
TORSDOF 1
ENDMDL
