MODEL 1
REMARK minimizedAffinity -3.36330247
REMARK minimizedRMSD -1
REMARK  1 active torsions:
REMARK  status: ('A' for Active; 'I' for Inactive)
REMARK    1  A    between atoms: C3_4  and  O_7 
ROOT
ATOM      1  C   UNL d   1      -0.352  -0.826  -3.446  0.00  0.00    -0.033 A 
ATOM      2  C1  UNL d   1      -0.910   0.299  -2.836  0.00  0.00     0.039 A 
ATOM      3  C2  UNL d   1      -0.453   0.714  -1.583  0.00  0.00    -0.080 A 
ATOM      4  C3  UNL d   1       0.561  -0.003  -0.953  0.00  0.00     0.150 A 
ATOM      5  C4  UNL d   1       1.124  -1.122  -1.558  0.00  0.00    -0.007 A 
ATOM      6  C5  UNL d   1       0.666  -1.535  -2.808  0.00  0.00     0.039 A 
ENDROOT
BRANCH   4   7
ATOM      7  O   UNL d   1       1.035   0.361   0.272  0.00  0.00    -0.526 OA
ATOM      8  H5  UNL d   1       0.533   1.135   0.579  0.00  0.00     0.418 HD
ENDBRANCH   4   7
TORSDOF 1
ENDMDL
