MODEL 1
REMARK minimizedAffinity -4.79881382
REMARK minimizedRMSD -1
REMARK  1 active torsions:
REMARK  status: ('A' for Active; 'I' for Inactive)
REMARK    1  A    between atoms: C3_4  and  O_7 
ROOT
ATOM      1  C   UNL d   1      -1.727  -0.444   3.449  0.00  0.00    -0.033 A 
ATOM      2  C1  UNL d   1      -2.466  -0.086   2.320  0.00  0.00     0.039 A 
ATOM      3  C2  UNL d   1      -1.818   0.154   1.107  0.00  0.00    -0.080 A 
ATOM      4  C3  UNL d   1      -0.433   0.032   1.037  0.00  0.00     0.150 A 
ATOM      5  C4  UNL d   1       0.309  -0.328   2.157  0.00  0.00    -0.007 A 
ATOM      6  C5  UNL d   1      -0.340  -0.567   3.367  0.00  0.00     0.039 A 
ENDROOT
BRANCH   4   7
ATOM      7  O   UNL d   1       0.245   0.261  -0.124  0.00  0.00    -0.526 OA
ATOM      8  H5  UNL d   1      -0.394   0.530  -0.805  0.00  0.00     0.418 HD
ENDBRANCH   4   7
TORSDOF 1
ENDMDL
