MODEL 1
REMARK minimizedAffinity -5.3929348
REMARK minimizedRMSD -1
REMARK  1 active torsions:
REMARK  status: ('A' for Active; 'I' for Inactive)
REMARK    1  A    between atoms: C3_4  and  O_7 
ROOT
ATOM      1  C   UNL d   1      -2.010  -0.073   2.970  0.00  0.00    -0.033 A 
ATOM      2  C1  UNL d   1      -2.741   0.111   1.795  0.00  0.00     0.039 A 
ATOM      3  C2  UNL d   1      -2.126  -0.061   0.554  0.00  0.00    -0.080 A 
ATOM      4  C3  UNL d   1      -0.781  -0.416   0.501  0.00  0.00     0.150 A 
ATOM      5  C4  UNL d   1      -0.047  -0.604   1.668  0.00  0.00    -0.007 A 
ATOM      6  C5  UNL d   1      -0.663  -0.431   2.907  0.00  0.00     0.039 A 
ENDROOT
BRANCH   4   7
ATOM      7  O   UNL d   1      -0.136  -0.590  -0.687  0.00  0.00    -0.526 OA
ATOM      8  H5  UNL d   1      -0.760  -0.399  -1.407  0.00  0.00     0.418 HD
ENDBRANCH   4   7
TORSDOF 1
ENDMDL
