MODEL 1
REMARK minimizedAffinity -3.36233091
REMARK minimizedRMSD -1
REMARK  1 active torsions:
REMARK  status: ('A' for Active; 'I' for Inactive)
REMARK    1  A    between atoms: C3_4  and  O_7 
ROOT
ATOM      1  C   UNL d   1      -1.790   0.529  -0.325  0.00  0.00    -0.033 A 
ATOM      2  C1  UNL d   1      -2.849   0.492   0.584  0.00  0.00     0.039 A 
ATOM      3  C2  UNL d   1      -2.618   0.127   1.912  0.00  0.00    -0.080 A 
ATOM      4  C3  UNL d   1      -1.326  -0.196   2.318  0.00  0.00     0.150 A 
ATOM      5  C4  UNL d   1      -0.266  -0.157   1.418  0.00  0.00    -0.007 A 
ATOM      6  C5  UNL d   1      -0.498   0.206   0.092  0.00  0.00     0.039 A 
ENDROOT
BRANCH   4   7
ATOM      7  O   UNL d   1      -1.053  -0.562   3.602  0.00  0.00    -0.526 OA
ATOM      8  H5  UNL d   1      -1.886  -0.572   4.103  0.00  0.00     0.418 HD
ENDBRANCH   4   7
TORSDOF 1
ENDMDL
