MODEL 1
REMARK minimizedAffinity -5.74096298
REMARK minimizedRMSD -1
REMARK  1 active torsions:
REMARK  status: ('A' for Active; 'I' for Inactive)
REMARK    1  A    between atoms: C3_4  and  O_7 
ROOT
ATOM      1  C   UNL d   1      -1.622  -0.253   2.972  0.00  0.00    -0.033 A 
ATOM      2  C1  UNL d   1      -0.248  -0.324   2.735  0.00  0.00     0.039 A 
ATOM      3  C2  UNL d   1       0.245  -0.196   1.435  0.00  0.00    -0.080 A 
ATOM      4  C3  UNL d   1      -0.645   0.005   0.383  0.00  0.00     0.150 A 
ATOM      5  C4  UNL d   1      -2.014   0.081   0.613  0.00  0.00    -0.007 A 
ATOM      6  C5  UNL d   1      -2.505  -0.049   1.912  0.00  0.00     0.039 A 
ENDROOT
BRANCH   4   7
ATOM      7  O   UNL d   1      -0.211   0.131  -0.903  0.00  0.00    -0.526 OA
ATOM      8  H5  UNL d   1       0.756   0.029  -0.913  0.00  0.00     0.418 HD
ENDBRANCH   4   7
TORSDOF 1
ENDMDL
