MODEL 1
REMARK minimizedAffinity 6.45524979
REMARK minimizedRMSD -1
REMARK  1 active torsions:
REMARK  status: ('A' for Active; 'I' for Inactive)
REMARK    1  A    between atoms: C1_2  and  C2_3 
ROOT
ATOM      1  C2  UNL d   1       4.545  -2.943   1.043  0.00  0.00    -0.081 A 
ATOM      2  C3  UNL d   1       4.411  -1.660   0.498  0.00  0.00     0.006 A 
ATOM      3  C4  UNL d   1       3.161  -1.037   0.454  0.00  0.00     0.002 A 
ATOM      4  C5  UNL d   1       2.028  -1.683   0.960  0.00  0.00    -0.080 A 
ATOM      5  C6  UNL d   1       0.686  -1.013   0.946  0.00  0.00     0.076 C 
ATOM      6  C7  UNL d   1       2.159  -2.971   1.488  0.00  0.00     0.002 A 
ATOM      7  C8  UNL d   1       3.408  -3.595   1.532  0.00  0.00     0.006 A 
ENDROOT
BRANCH   1   8
ATOM      8  C1  UNL d   1       5.902  -3.591   1.151  0.00  0.00     0.054 C 
ATOM      9  C   UNL d   1       5.829  -5.082   0.850  0.00  0.00     0.018 C 
ENDBRANCH   1   8
TORSDOF 1
ENDMDL
