MODEL 1
REMARK minimizedAffinity 17.0081654
REMARK minimizedRMSD -1
REMARK  1 active torsions:
REMARK  status: ('A' for Active; 'I' for Inactive)
REMARK    1  A    between atoms: C1_2  and  C2_3 
ROOT
ATOM      1  C2  UNL d   1      -4.166   1.582  -3.865  0.00  0.00    -0.081 A 
ATOM      2  C3  UNL d   1      -3.470   2.758  -3.559  0.00  0.00     0.006 A 
ATOM      3  C4  UNL d   1      -3.735   3.939  -4.255  0.00  0.00     0.002 A 
ATOM      4  C5  UNL d   1      -4.705   3.967  -5.262  0.00  0.00    -0.080 A 
ATOM      5  C6  UNL d   1      -5.021   5.236  -5.996  0.00  0.00     0.076 C 
ATOM      6  C7  UNL d   1      -5.389   2.788  -5.580  0.00  0.00     0.002 A 
ATOM      7  C8  UNL d   1      -5.123   1.606  -4.885  0.00  0.00     0.006 A 
ENDROOT
BRANCH   1   8
ATOM      8  C1  UNL d   1      -3.928   0.322  -3.072  0.00  0.00     0.054 C 
ATOM      9  C   UNL d   1      -3.623   0.635  -1.614  0.00  0.00     0.018 C 
ENDBRANCH   1   8
TORSDOF 1
ENDMDL
