MODEL 1
REMARK minimizedAffinity 3.93612909
REMARK minimizedRMSD -1
REMARK  1 active torsions:
REMARK  status: ('A' for Active; 'I' for Inactive)
REMARK    1  A    between atoms: C1_2  and  C2_3 
ROOT
ATOM      1  C2  UNL d   1       2.619   5.469   5.335  0.00  0.00    -0.081 A 
ATOM      2  C3  UNL d   1       1.371   5.709   5.924  0.00  0.00     0.006 A 
ATOM      3  C4  UNL d   1       0.210   5.165   5.369  0.00  0.00     0.002 A 
ATOM      4  C5  UNL d   1       0.278   4.367   4.223  0.00  0.00    -0.080 A 
ATOM      5  C6  UNL d   1      -0.958   3.752   3.635  0.00  0.00     0.076 C 
ATOM      6  C7  UNL d   1       1.522   4.141   3.624  0.00  0.00     0.002 A 
ATOM      7  C8  UNL d   1       2.683   4.685   4.178  0.00  0.00     0.006 A 
ENDROOT
BRANCH   1   8
ATOM      8  C1  UNL d   1       3.880   6.000   5.967  0.00  0.00     0.054 C 
ATOM      9  C   UNL d   1       5.037   6.000   4.979  0.00  0.00     0.018 C 
ENDBRANCH   1   8
TORSDOF 1
ENDMDL
