MODEL 1
REMARK minimizedAffinity 4.63119125
REMARK minimizedRMSD -1
REMARK  1 active torsions:
REMARK  status: ('A' for Active; 'I' for Inactive)
REMARK    1  A    between atoms: C1_2  and  C2_3 
ROOT
ATOM      1  C2  UNL d   1       3.582   5.399   5.269  0.00  0.00    -0.081 A 
ATOM      2  C3  UNL d   1       2.305   5.507   5.833  0.00  0.00     0.006 A 
ATOM      3  C4  UNL d   1       1.206   4.898   5.221  0.00  0.00     0.002 A 
ATOM      4  C5  UNL d   1       1.367   4.164   4.041  0.00  0.00    -0.080 A 
ATOM      5  C6  UNL d   1       0.202   3.480   3.391  0.00  0.00     0.076 C 
ATOM      6  C7  UNL d   1       2.640   4.071   3.468  0.00  0.00     0.002 A 
ATOM      7  C8  UNL d   1       3.739   4.680   4.079  0.00  0.00     0.006 A 
ENDROOT
BRANCH   1   8
ATOM      8  C1  UNL d   1       4.779   6.000   5.960  0.00  0.00     0.054 C 
ATOM      9  C   UNL d   1       6.000   6.000   5.052  0.00  0.00     0.018 C 
ENDBRANCH   1   8
TORSDOF 1
ENDMDL
