MODEL 1
REMARK minimizedAffinity 8.84313965
REMARK minimizedRMSD -1
REMARK  1 active torsions:
REMARK  status: ('A' for Active; 'I' for Inactive)
REMARK    1  A    between atoms: C1_2  and  C2_3 
ROOT
ATOM      1  C2  UNL d   1       4.226  -3.675  -0.230  0.00  0.00    -0.081 A 
ATOM      2  C3  UNL d   1       3.143  -4.287  -0.872  0.00  0.00     0.006 A 
ATOM      3  C4  UNL d   1       1.857  -4.196  -0.334  0.00  0.00     0.002 A 
ATOM      4  C5  UNL d   1       1.632  -3.484   0.849  0.00  0.00    -0.080 A 
ATOM      5  C6  UNL d   1       0.252  -3.352   1.421  0.00  0.00     0.076 C 
ATOM      6  C7  UNL d   1       2.717  -2.886   1.500  0.00  0.00     0.002 A 
ATOM      7  C8  UNL d   1       4.003  -2.978   0.963  0.00  0.00     0.006 A 
ENDROOT
BRANCH   1   8
ATOM      8  C1  UNL d   1       5.604  -3.717  -0.842  0.00  0.00     0.054 C 
ATOM      9  C   UNL d   1       5.998  -5.138  -1.218  0.00  0.00     0.018 C 
ENDBRANCH   1   8
TORSDOF 1
ENDMDL
