MODEL 1
REMARK minimizedAffinity 10.7126818
REMARK minimizedRMSD -1
REMARK  1 active torsions:
REMARK  status: ('A' for Active; 'I' for Inactive)
REMARK    1  A    between atoms: C1_2  and  C2_3 
ROOT
ATOM      1  C2  UNL d   1       2.713   4.093   3.953  0.00  0.00    -0.081 A 
ATOM      2  C3  UNL d   1       2.632   4.358   5.325  0.00  0.00     0.006 A 
ATOM      3  C4  UNL d   1       3.698   4.964   5.994  0.00  0.00     0.002 A 
ATOM      4  C5  UNL d   1       4.859   5.321   5.300  0.00  0.00    -0.080 A 
ATOM      5  C6  UNL d   1       6.000   6.000   6.000  0.00  0.00     0.076 C 
ATOM      6  C7  UNL d   1       4.948   5.040   3.933  0.00  0.00     0.002 A 
ATOM      7  C8  UNL d   1       3.882   4.434   3.264  0.00  0.00     0.006 A 
ENDROOT
BRANCH   1   8
ATOM      8  C1  UNL d   1       1.540   3.498   3.216  0.00  0.00     0.054 C 
ATOM      9  C   UNL d   1       1.999   2.619   2.062  0.00  0.00     0.018 C 
ENDBRANCH   1   8
TORSDOF 1
ENDMDL
