MODEL 1
REMARK minimizedAffinity 8.70785999
REMARK minimizedRMSD -1
REMARK  1 active torsions:
REMARK  status: ('A' for Active; 'I' for Inactive)
REMARK    1  A    between atoms: C1_2  and  C2_3 
ROOT
ATOM      1  C2  UNL d   1       2.210   4.879   4.028  0.00  0.00    -0.081 A 
ATOM      2  C3  UNL d   1       2.538   4.427   5.312  0.00  0.00     0.006 A 
ATOM      3  C4  UNL d   1       3.765   4.764   5.889  0.00  0.00     0.002 A 
ATOM      4  C5  UNL d   1       4.680   5.563   5.196  0.00  0.00    -0.080 A 
ATOM      5  C6  UNL d   1       5.988   5.956   5.816  0.00  0.00     0.076 C 
ATOM      6  C7  UNL d   1       4.360   6.000   3.906  0.00  0.00     0.002 A 
ATOM      7  C8  UNL d   1       3.133   5.663   3.328  0.00  0.00     0.006 A 
ENDROOT
BRANCH   1   8
ATOM      8  C1  UNL d   1       0.861   4.571   3.429  0.00  0.00     0.054 C 
ATOM      9  C   UNL d   1       0.557   3.081   3.486  0.00  0.00     0.018 C 
ENDBRANCH   1   8
TORSDOF 1
ENDMDL
