MODEL 1
REMARK minimizedAffinity 6.75242186
REMARK minimizedRMSD -1
REMARK  1 active torsions:
REMARK  status: ('A' for Active; 'I' for Inactive)
REMARK    1  A    between atoms: C1_2  and  C2_3 
ROOT
ATOM      1  C2  UNL d   1       2.098   4.986   4.136  0.00  0.00    -0.081 A 
ATOM      2  C3  UNL d   1       3.249   4.694   3.394  0.00  0.00     0.006 A 
ATOM      3  C4  UNL d   1       4.513   5.032   3.884  0.00  0.00     0.002 A 
ATOM      4  C5  UNL d   1       4.647   5.659   5.127  0.00  0.00    -0.080 A 
ATOM      5  C6  UNL d   1       6.000   6.000   5.678  0.00  0.00     0.076 C 
ATOM      6  C7  UNL d   1       3.497   5.966   5.861  0.00  0.00     0.002 A 
ATOM      7  C8  UNL d   1       2.233   5.630   5.371  0.00  0.00     0.006 A 
ENDROOT
BRANCH   1   8
ATOM      8  C1  UNL d   1       0.738   4.564   3.640  0.00  0.00     0.054 C 
ATOM      9  C   UNL d   1       0.796   3.207   2.953  0.00  0.00     0.018 C 
ENDBRANCH   1   8
TORSDOF 1
ENDMDL
