MODEL 1
REMARK minimizedAffinity 8.69915581
REMARK minimizedRMSD -1
REMARK  1 active torsions:
REMARK  status: ('A' for Active; 'I' for Inactive)
REMARK    1  A    between atoms: C1_2  and  C2_3 
ROOT
ATOM      1  C2  UNL d   1       3.570   5.329   5.207  0.00  0.00    -0.081 A 
ATOM      2  C3  UNL d   1       2.508   4.690   5.858  0.00  0.00     0.006 A 
ATOM      3  C4  UNL d   1       1.523   4.026   5.123  0.00  0.00     0.002 A 
ATOM      4  C5  UNL d   1       1.588   3.982   3.726  0.00  0.00    -0.080 A 
ATOM      5  C6  UNL d   1       0.555   3.247   2.927  0.00  0.00     0.076 C 
ATOM      6  C7  UNL d   1       2.640   4.635   3.075  0.00  0.00     0.002 A 
ATOM      7  C8  UNL d   1       3.625   5.300   3.809  0.00  0.00     0.006 A 
ENDROOT
BRANCH   1   8
ATOM      8  C1  UNL d   1       4.668   5.991   6.000  0.00  0.00     0.054 C 
ATOM      9  C   UNL d   1       5.992   5.952   5.251  0.00  0.00     0.018 C 
ENDBRANCH   1   8
TORSDOF 1
ENDMDL
