MODEL 1
REMARK minimizedAffinity -5.62348604
REMARK minimizedRMSD -1
REMARK  0 active torsions:
REMARK  status: ('A' for Active; 'I' for Inactive)
ROOT
ATOM      1  C1  DEN d   1       0.205   0.242  -0.592  0.00  0.00     0.130 A 
ATOM      2  C2  DEN d   1      -0.975   1.025  -0.235  0.00  0.00    -0.031 A 
ATOM      3  C3  DEN d   1      -1.504   0.498   1.039  0.00  0.00     0.027 A 
ATOM      4  C4  DEN d   1      -0.612  -1.440   2.488  0.00  0.00     0.027 A 
ATOM      5  C5  DEN d   1       0.359  -2.412   2.589  0.00  0.00    -0.003 A 
ATOM      6  C6  DEN d   1       1.318  -2.588   1.628  0.00  0.00     0.001 A 
ATOM      7  C7  DEN d   1       1.355  -1.750   0.544  0.00  0.00     0.017 A 
ATOM      8  C8  DEN d   1       0.375  -0.773   0.432  0.00  0.00    -0.094 A 
ATOM      9  C9  DEN d   1      -0.579  -0.603   1.421  0.00  0.00    -0.072 A 
ENDROOT
TORSDOF 0
ENDMDL
