MODEL 1
REMARK minimizedAffinity -4.9816618
REMARK minimizedRMSD -1
REMARK  0 active torsions:
REMARK  status: ('A' for Active; 'I' for Inactive)
ROOT
ATOM      1  C1  DEN d   1       0.277  -2.502   1.516  0.00  0.00     0.130 A 
ATOM      2  C2  DEN d   1       1.650  -2.984   1.400  0.00  0.00    -0.031 A 
ATOM      3  C3  DEN d   1       2.420  -1.989   0.627  0.00  0.00     0.027 A 
ATOM      4  C4  DEN d   1       1.624   0.243  -0.392  0.00  0.00     0.027 A 
ATOM      5  C5  DEN d   1       0.540   1.074  -0.565  0.00  0.00    -0.003 A 
ATOM      6  C6  DEN d   1      -0.706   0.759  -0.090  0.00  0.00     0.001 A 
ATOM      7  C7  DEN d   1      -0.888  -0.398   0.621  0.00  0.00     0.017 A 
ATOM      8  C8  DEN d   1       0.199  -1.245   0.793  0.00  0.00    -0.094 A 
ATOM      9  C9  DEN d   1       1.453  -0.902   0.316  0.00  0.00    -0.072 A 
ENDROOT
TORSDOF 0
ENDMDL
