MODEL 1
REMARK minimizedAffinity -4.04010248
REMARK minimizedRMSD -1
REMARK  0 active torsions:
REMARK  status: ('A' for Active; 'I' for Inactive)
ROOT
ATOM      1  C1  DEN d   1       0.685  -2.795   1.407  0.00  0.00     0.130 A 
ATOM      2  C2  DEN d   1       2.138  -2.879   1.291  0.00  0.00    -0.031 A 
ATOM      3  C3  DEN d   1       2.618  -1.634   0.658  0.00  0.00     0.027 A 
ATOM      4  C4  DEN d   1       1.260   0.406  -0.144  0.00  0.00     0.027 A 
ATOM      5  C5  DEN d   1      -0.006   0.934  -0.267  0.00  0.00    -0.003 A 
ATOM      6  C6  DEN d   1      -1.125   0.247   0.125  0.00  0.00     0.001 A 
ATOM      7  C7  DEN d   1      -0.995  -0.989   0.701  0.00  0.00     0.017 A 
ATOM      8  C8  DEN d   1       0.278  -1.531   0.821  0.00  0.00    -0.094 A 
ATOM      9  C9  DEN d   1       1.397  -0.816   0.430  0.00  0.00    -0.072 A 
ENDROOT
TORSDOF 0
ENDMDL
