MODEL 1
REMARK minimizedAffinity -6.84323835
REMARK minimizedRMSD -1
REMARK  0 active torsions:
REMARK  status: ('A' for Active; 'I' for Inactive)
ROOT
ATOM      1  C1  DEN d   1       1.895  -1.510   0.080  0.00  0.00     0.130 A 
ATOM      2  C2  DEN d   1       1.206  -0.431  -0.624  0.00  0.00    -0.031 A 
ATOM      3  C3  DEN d   1      -0.011  -0.091   0.140  0.00  0.00     0.027 A 
ATOM      4  C4  DEN d   1      -0.888  -1.120   2.337  0.00  0.00     0.027 A 
ATOM      5  C5  DEN d   1      -0.651  -2.072   3.304  0.00  0.00    -0.003 A 
ATOM      6  C6  DEN d   1       0.424  -2.919   3.247  0.00  0.00     0.001 A 
ATOM      7  C7  DEN d   1       1.328  -2.800   2.224  0.00  0.00     0.017 A 
ATOM      8  C8  DEN d   1       1.091  -1.848   1.241  0.00  0.00    -0.094 A 
ATOM      9  C9  DEN d   1       0.006  -0.993   1.323  0.00  0.00    -0.072 A 
ENDROOT
TORSDOF 0
ENDMDL
