MODEL 1
REMARK minimizedAffinity -3.52736664
REMARK minimizedRMSD -1
REMARK  0 active torsions:
REMARK  status: ('A' for Active; 'I' for Inactive)
ROOT
ATOM      1  C1  DEN d   1       0.547  -2.525   1.468  0.00  0.00     0.130 A 
ATOM      2  C2  DEN d   1       1.471  -2.652   0.344  0.00  0.00    -0.031 A 
ATOM      3  C3  DEN d   1       1.439  -1.389  -0.419  0.00  0.00     0.027 A 
ATOM      4  C4  DEN d   1       0.059   0.744   0.030  0.00  0.00     0.027 A 
ATOM      5  C5  DEN d   1      -0.876   1.322   0.860  0.00  0.00    -0.003 A 
ATOM      6  C6  DEN d   1      -1.423   0.652   1.922  0.00  0.00     0.001 A 
ATOM      7  C7  DEN d   1      -1.005  -0.621   2.210  0.00  0.00     0.017 A 
ATOM      8  C8  DEN d   1      -0.069  -1.213   1.373  0.00  0.00    -0.094 A 
ATOM      9  C9  DEN d   1       0.481  -0.515   0.311  0.00  0.00    -0.072 A 
ENDROOT
TORSDOF 0
ENDMDL
