MODEL 1
REMARK minimizedAffinity -4.19566822
REMARK minimizedRMSD -1
REMARK  0 active torsions:
REMARK  status: ('A' for Active; 'I' for Inactive)
ROOT
ATOM      1  C1  DEN d   1       1.928  -1.318  -0.010  0.00  0.00     0.130 A 
ATOM      2  C2  DEN d   1       1.968  -2.352   1.019  0.00  0.00    -0.031 A 
ATOM      3  C3  DEN d   1       0.726  -2.255   1.812  0.00  0.00     0.027 A 
ATOM      4  C4  DEN d   1      -1.247  -0.615   1.544  0.00  0.00     0.027 A 
ATOM      5  C5  DEN d   1      -1.729   0.451   0.817  0.00  0.00    -0.003 A 
ATOM      6  C6  DEN d   1      -1.017   1.019  -0.206  0.00  0.00     0.001 A 
ATOM      7  C7  DEN d   1       0.198   0.495  -0.560  0.00  0.00     0.017 A 
ATOM      8  C8  DEN d   1       0.694  -0.575   0.172  0.00  0.00    -0.094 A 
ATOM      9  C9  DEN d   1      -0.046  -1.144   1.195  0.00  0.00    -0.072 A 
ENDROOT
TORSDOF 0
ENDMDL
