MODEL 1
REMARK minimizedAffinity -2.39040017
REMARK minimizedRMSD -1
REMARK  0 active torsions:
REMARK  status: ('A' for Active; 'I' for Inactive)
ROOT
ATOM      1  C1  DEN d   1       0.561   0.898  -0.755  0.00  0.00     0.130 A 
ATOM      2  C2  DEN d   1      -0.609   1.301   0.020  0.00  0.00    -0.031 A 
ATOM      3  C3  DEN d   1      -0.706   0.414   1.196  0.00  0.00     0.027 A 
ATOM      4  C4  DEN d   1       0.837  -1.532   1.892  0.00  0.00     0.027 A 
ATOM      5  C5  DEN d   1       1.954  -2.258   1.544  0.00  0.00    -0.003 A 
ATOM      6  C6  DEN d   1       2.660  -2.008   0.397  0.00  0.00     0.001 A 
ATOM      7  C7  DEN d   1       2.282  -0.976  -0.421  0.00  0.00     0.017 A 
ATOM      8  C8  DEN d   1       1.152  -0.244  -0.080  0.00  0.00    -0.094 A 
ATOM      9  C9  DEN d   1       0.459  -0.505   1.090  0.00  0.00    -0.072 A 
ENDROOT
TORSDOF 0
ENDMDL
