MODEL 1
REMARK minimizedAffinity -1.77614105
REMARK minimizedRMSD -1
REMARK  0 active torsions:
REMARK  status: ('A' for Active; 'I' for Inactive)
ROOT
ATOM      1  C1  DEN d   1       1.310   1.183   0.363  0.00  0.00     0.130 A 
ATOM      2  C2  DEN d   1       0.071   1.634  -0.264  0.00  0.00    -0.031 A 
ATOM      3  C3  DEN d   1      -0.844   0.478  -0.351  0.00  0.00     0.027 A 
ATOM      4  C4  DEN d   1      -0.467  -1.952   0.425  0.00  0.00     0.027 A 
ATOM      5  C5  DEN d   1       0.434  -2.818   1.005  0.00  0.00    -0.003 A 
ATOM      6  C6  DEN d   1       1.691  -2.423   1.377  0.00  0.00     0.001 A 
ATOM      7  C7  DEN d   1       2.068  -1.116   1.215  0.00  0.00     0.017 A 
ATOM      8  C8  DEN d   1       1.168  -0.238   0.625  0.00  0.00    -0.094 A 
ATOM      9  C9  DEN d   1      -0.103  -0.654   0.266  0.00  0.00    -0.072 A 
ENDROOT
TORSDOF 0
ENDMDL
