MODEL 1
REMARK minimizedAffinity -5.5247221
REMARK minimizedRMSD -1
REMARK  0 active torsions:
REMARK  status: ('A' for Active; 'I' for Inactive)
ROOT
ATOM      1  C1  DEN d   1       1.122   0.952  -0.060  0.00  0.00     0.130 A 
ATOM      2  C2  DEN d   1      -0.253   1.397  -0.269  0.00  0.00    -0.031 A 
ATOM      3  C3  DEN d   1      -1.142   0.231  -0.092  0.00  0.00     0.027 A 
ATOM      4  C4  DEN d   1      -0.526  -2.206   0.488  0.00  0.00     0.027 A 
ATOM      5  C5  DEN d   1       0.516  -3.068   0.749  0.00  0.00    -0.003 A 
ATOM      6  C6  DEN d   1       1.824  -2.663   0.725  0.00  0.00     0.001 A 
ATOM      7  C7  DEN d   1       2.122  -1.348   0.478  0.00  0.00     0.017 A 
ATOM      8  C8  DEN d   1       1.078  -0.474   0.207  0.00  0.00    -0.094 A 
ATOM      9  C9  DEN d   1      -0.238  -0.901   0.248  0.00  0.00    -0.072 A 
ENDROOT
TORSDOF 0
ENDMDL
