MODEL 1
REMARK minimizedAffinity -3.94159746
REMARK minimizedRMSD -1
REMARK  0 active torsions:
REMARK  status: ('A' for Active; 'I' for Inactive)
ROOT
ATOM      1  C1  DEN d   1       0.121  -2.004   1.274  0.00  0.00     0.130 A 
ATOM      2  C2  DEN d   1       1.497  -2.492   1.267  0.00  0.00    -0.031 A 
ATOM      3  C3  DEN d   1       2.330  -1.500   0.557  0.00  0.00     0.027 A 
ATOM      4  C4  DEN d   1       1.626   0.734  -0.522  0.00  0.00     0.027 A 
ATOM      5  C5  DEN d   1       0.562   1.570  -0.781  0.00  0.00    -0.003 A 
ATOM      6  C6  DEN d   1      -0.719   1.259  -0.406  0.00  0.00     0.001 A 
ATOM      7  C7  DEN d   1      -0.961   0.104   0.289  0.00  0.00     0.017 A 
ATOM      8  C8  DEN d   1       0.106  -0.747   0.547  0.00  0.00    -0.094 A 
ATOM      9  C9  DEN d   1       1.394  -0.410   0.170  0.00  0.00    -0.072 A 
ENDROOT
TORSDOF 0
ENDMDL
