MODEL 1
REMARK minimizedAffinity -4.57266331
REMARK minimizedRMSD -1
REMARK  0 active torsions:
REMARK  status: ('A' for Active; 'I' for Inactive)
ROOT
ATOM      1  C1  DEN d   1      -0.262  -1.507   1.436  0.00  0.00     0.130 A 
ATOM      2  C2  DEN d   1       0.913  -2.372   1.387  0.00  0.00    -0.031 A 
ATOM      3  C3  DEN d   1       1.738  -1.957   0.235  0.00  0.00     0.027 A 
ATOM      4  C4  DEN d   1       1.314  -0.065  -1.466  0.00  0.00     0.027 A 
ATOM      5  C5  DEN d   1       0.443   0.935  -1.839  0.00  0.00    -0.003 A 
ATOM      6  C6  DEN d   1      -0.731   1.167  -1.173  0.00  0.00     0.001 A 
ATOM      7  C7  DEN d   1      -1.045   0.417  -0.070  0.00  0.00     0.017 A 
ATOM      8  C8  DEN d   1      -0.175  -0.597   0.308  0.00  0.00    -0.094 A 
ATOM      9  C9  DEN d   1       1.013  -0.807  -0.371  0.00  0.00    -0.072 A 
ENDROOT
TORSDOF 0
ENDMDL
