MODEL 1
REMARK minimizedAffinity -3.21839333
REMARK minimizedRMSD -1
REMARK  0 active torsions:
REMARK  status: ('A' for Active; 'I' for Inactive)
ROOT
ATOM      1  C1  DEN d   1       0.699  -2.380   1.620  0.00  0.00     0.130 A 
ATOM      2  C2  DEN d   1       2.128  -2.584   1.400  0.00  0.00    -0.031 A 
ATOM      3  C3  DEN d   1       2.617  -1.493   0.532  0.00  0.00     0.027 A 
ATOM      4  C4  DEN d   1       1.307   0.483  -0.483  0.00  0.00     0.027 A 
ATOM      5  C5  DEN d   1       0.066   1.072  -0.587  0.00  0.00    -0.003 A 
ATOM      6  C6  DEN d   1      -1.048   0.537   0.004  0.00  0.00     0.001 A 
ATOM      7  C7  DEN d   1      -0.935  -0.597   0.764  0.00  0.00     0.017 A 
ATOM      8  C8  DEN d   1       0.311  -1.200   0.868  0.00  0.00    -0.094 A 
ATOM      9  C9  DEN d   1       1.428  -0.638   0.273  0.00  0.00    -0.072 A 
ENDROOT
TORSDOF 0
ENDMDL
