MODEL 1
REMARK minimizedAffinity -4.51495838
REMARK minimizedRMSD -1
REMARK  0 active torsions:
REMARK  status: ('A' for Active; 'I' for Inactive)
ROOT
ATOM      1  C1  DEN d   1       0.283  -2.352   1.340  0.00  0.00     0.130 A 
ATOM      2  C2  DEN d   1       1.656  -2.658   0.949  0.00  0.00    -0.031 A 
ATOM      3  C3  DEN d   1       2.196  -1.491   0.224  0.00  0.00     0.027 A 
ATOM      4  C4  DEN d   1       1.046   0.752  -0.325  0.00  0.00     0.027 A 
ATOM      5  C5  DEN d   1      -0.122   1.472  -0.210  0.00  0.00    -0.003 A 
ATOM      6  C6  DEN d   1      -1.239   0.960   0.396  0.00  0.00     0.001 A 
ATOM      7  C7  DEN d   1      -1.197  -0.293   0.949  0.00  0.00     0.017 A 
ATOM      8  C8  DEN d   1      -0.025  -1.028   0.830  0.00  0.00    -0.094 A 
ATOM      9  C9  DEN d   1       1.097  -0.488   0.225  0.00  0.00    -0.072 A 
ENDROOT
TORSDOF 0
ENDMDL
