MODEL 1
REMARK minimizedAffinity 10.2096424
REMARK minimizedRMSD -1
REMARK  0 active torsions:
REMARK  status: ('A' for Active; 'I' for Inactive)
ROOT
ATOM      1  C   UNL d   1      -1.057  -0.552   3.343  0.00  0.00    -0.002 A 
ATOM      2  C1  UNL d   1      -2.195   0.020   2.793  0.00  0.00     0.010 A 
ATOM      3  C2  UNL d   1      -2.284   0.245   1.418  0.00  0.00     0.041 A 
ATOM      4  C3  UNL d   1      -1.199  -0.120   0.596  0.00  0.00    -0.075 A 
ATOM      5  S   UNL d   1      -1.084   0.061  -1.115  0.00  0.00     0.015 SA
ATOM      6  C4  UNL d   1       0.479  -0.619  -1.156  0.00  0.00     0.022 A 
ATOM      7  C5  UNL d   1       0.917  -0.980   0.096  0.00  0.00     0.026 A 
ATOM      8  C6  UNL d   1      -0.042  -0.698   1.126  0.00  0.00    -0.082 A 
ATOM      9  C7  UNL d   1       0.017  -0.913   2.524  0.00  0.00     0.045 A 
ENDROOT
TORSDOF 0
ENDMDL
