MODEL 1
REMARK minimizedAffinity 6.25335979
REMARK minimizedRMSD -1
REMARK  0 active torsions:
REMARK  status: ('A' for Active; 'I' for Inactive)
ROOT
ATOM      1  C   UNL d   1       0.480  -3.765   3.206  0.00  0.00    -0.002 A 
ATOM      2  C1  UNL d   1      -0.793  -3.409   3.629  0.00  0.00     0.010 A 
ATOM      3  C2  UNL d   1      -1.469  -2.345   3.029  0.00  0.00     0.041 A 
ATOM      4  C3  UNL d   1      -0.839  -1.640   1.984  0.00  0.00    -0.075 A 
ATOM      5  S   UNL d   1      -1.475  -0.303   1.101  0.00  0.00     0.015 SA
ATOM      6  C4  UNL d   1      -0.073  -0.175   0.140  0.00  0.00     0.022 A 
ATOM      7  C5  UNL d   1       0.868  -1.121   0.472  0.00  0.00     0.026 A 
ATOM      8  C6  UNL d   1       0.442  -1.981   1.540  0.00  0.00    -0.082 A 
ATOM      9  C7  UNL d   1       1.101  -3.064   2.170  0.00  0.00     0.045 A 
ENDROOT
TORSDOF 0
ENDMDL
