MODEL 1
REMARK minimizedAffinity 0.358886182
REMARK minimizedRMSD -1
REMARK  0 active torsions:
REMARK  status: ('A' for Active; 'I' for Inactive)
ROOT
ATOM      1  C   UNL d   1      -0.661  -5.070   3.710  0.00  0.00    -0.002 A 
ATOM      2  C1  UNL d   1      -1.711  -4.202   3.440  0.00  0.00     0.010 A 
ATOM      3  C2  UNL d   1      -1.534  -3.120   2.576  0.00  0.00     0.041 A 
ATOM      4  C3  UNL d   1      -0.272  -2.923   1.980  0.00  0.00    -0.075 A 
ATOM      5  S   UNL d   1       0.177  -1.666   0.889  0.00  0.00     0.015 SA
ATOM      6  C4  UNL d   1       1.772  -2.251   0.754  0.00  0.00     0.022 A 
ATOM      7  C5  UNL d   1       1.974  -3.377   1.516  0.00  0.00     0.026 A 
ATOM      8  C6  UNL d   1       0.799  -3.783   2.235  0.00  0.00    -0.082 A 
ATOM      9  C7  UNL d   1       0.588  -4.871   3.116  0.00  0.00     0.045 A 
ENDROOT
TORSDOF 0
ENDMDL
