MODEL 1
REMARK minimizedAffinity -0.221222952
REMARK minimizedRMSD -1
REMARK  0 active torsions:
REMARK  status: ('A' for Active; 'I' for Inactive)
ROOT
ATOM      1  C   UNL d   1       1.109  -3.384   2.790  0.00  0.00    -0.002 A 
ATOM      2  C1  UNL d   1       0.100  -3.014   3.668  0.00  0.00     0.010 A 
ATOM      3  C2  UNL d   1      -0.809  -2.012   3.324  0.00  0.00     0.041 A 
ATOM      4  C3  UNL d   1      -0.688  -1.383   2.069  0.00  0.00    -0.075 A 
ATOM      5  S   UNL d   1      -1.688  -0.131   1.432  0.00  0.00     0.015 SA
ATOM      6  C4  UNL d   1      -0.800  -0.059  -0.021  0.00  0.00     0.022 A 
ATOM      7  C5  UNL d   1       0.237  -0.960  -0.037  0.00  0.00     0.026 A 
ATOM      8  C6  UNL d   1       0.319  -1.739   1.167  0.00  0.00    -0.082 A 
ATOM      9  C7  UNL d   1       1.226  -2.758   1.546  0.00  0.00     0.045 A 
ENDROOT
TORSDOF 0
ENDMDL
