MODEL 1
REMARK minimizedAffinity -0.78326726
REMARK minimizedRMSD -1
REMARK  0 active torsions:
REMARK  status: ('A' for Active; 'I' for Inactive)
ROOT
ATOM      1  C   UNL d   1       0.986  -3.480   3.322  0.00  0.00    -0.002 A 
ATOM      2  C1  UNL d   1       1.812  -3.847   2.268  0.00  0.00     0.010 A 
ATOM      3  C2  UNL d   1       1.795  -3.130   1.070  0.00  0.00     0.041 A 
ATOM      4  C3  UNL d   1       0.929  -2.026   0.949  0.00  0.00    -0.075 A 
ATOM      5  S   UNL d   1       0.739  -1.000  -0.424  0.00  0.00     0.015 SA
ATOM      6  C4  UNL d   1      -0.441  -0.049   0.356  0.00  0.00     0.022 A 
ATOM      7  C5  UNL d   1      -0.697  -0.490   1.633  0.00  0.00     0.026 A 
ATOM      8  C6  UNL d   1       0.089  -1.636   1.996  0.00  0.00    -0.082 A 
ATOM      9  C7  UNL d   1       0.128  -2.384   3.197  0.00  0.00     0.045 A 
ENDROOT
TORSDOF 0
ENDMDL
