MODEL 1
REMARK minimizedAffinity 2.76318288
REMARK minimizedRMSD -1
REMARK  1 active torsions:
REMARK  status: ('A' for Active; 'I' for Inactive)
REMARK    1  A    between atoms: C3_4  and  O_7 
ROOT
ATOM      1  C   UNL d   1       0.193   3.187  -1.406  0.00  0.00    -0.033 A 
ATOM      2  C1  UNL d   1      -0.964   2.406  -1.370  0.00  0.00     0.039 A 
ATOM      3  C2  UNL d   1      -1.221   1.587  -0.268  0.00  0.00    -0.080 A 
ATOM      4  C3  UNL d   1      -0.315   1.559   0.789  0.00  0.00     0.150 A 
ATOM      5  C4  UNL d   1       0.837   2.337   0.760  0.00  0.00    -0.007 A 
ATOM      6  C5  UNL d   1       1.093   3.153  -0.341  0.00  0.00     0.039 A 
ENDROOT
BRANCH   4   7
ATOM      7  O   UNL d   1      -0.521   0.772   1.883  0.00  0.00    -0.526 OA
ATOM      8  H5  UNL d   1      -1.342   0.270   1.750  0.00  0.00     0.418 HD
ENDBRANCH   4   7
TORSDOF 1
ENDMDL
