MODEL 1
REMARK minimizedAffinity -0.86195308
REMARK minimizedRMSD -1
REMARK  1 active torsions:
REMARK  status: ('A' for Active; 'I' for Inactive)
REMARK    1  A    between atoms: C3_4  and  O_7 
ROOT
ATOM      1  C   UNL d   1       6.000  -2.283  -2.995  0.00  0.00    -0.033 A 
ATOM      2  C1  UNL d   1       5.629  -3.603  -2.734  0.00  0.00     0.039 A 
ATOM      3  C2  UNL d   1       4.499  -4.147  -3.347  0.00  0.00    -0.080 A 
ATOM      4  C3  UNL d   1       3.750  -3.362  -4.220  0.00  0.00     0.150 A 
ATOM      5  C4  UNL d   1       4.117  -2.047  -4.488  0.00  0.00    -0.007 A 
ATOM      6  C5  UNL d   1       5.245  -1.506  -3.874  0.00  0.00     0.039 A 
ENDROOT
BRANCH   4   7
ATOM      7  O   UNL d   1       2.637  -3.848  -4.839  0.00  0.00    -0.526 OA
ATOM      8  H5  UNL d   1       2.490  -4.760  -4.536  0.00  0.00     0.418 HD
ENDBRANCH   4   7
TORSDOF 1
ENDMDL
