MODEL 1
REMARK minimizedAffinity -2.6392839
REMARK minimizedRMSD -1
REMARK  1 active torsions:
REMARK  status: ('A' for Active; 'I' for Inactive)
REMARK    1  A    between atoms: C3_4  and  O_7 
ROOT
ATOM      1  C   UNL d   1      -0.556   1.478   0.563  0.00  0.00    -0.033 A 
ATOM      2  C1  UNL d   1       0.367   2.189   1.331  0.00  0.00     0.039 A 
ATOM      3  C2  UNL d   1       1.093   3.237   0.760  0.00  0.00    -0.080 A 
ATOM      4  C3  UNL d   1       0.885   3.563  -0.577  0.00  0.00     0.150 A 
ATOM      5  C4  UNL d   1      -0.036   2.860  -1.347  0.00  0.00    -0.007 A 
ATOM      6  C5  UNL d   1      -0.759   1.814  -0.776  0.00  0.00     0.039 A 
ENDROOT
BRANCH   4   7
ATOM      7  O   UNL d   1       1.573   4.573  -1.180  0.00  0.00    -0.526 OA
ATOM      8  H5  UNL d   1       2.195   4.950  -0.535  0.00  0.00     0.418 HD
ENDBRANCH   4   7
TORSDOF 1
ENDMDL
