MODEL 1
REMARK minimizedAffinity -0.136497214
REMARK minimizedRMSD -1
REMARK  1 active torsions:
REMARK  status: ('A' for Active; 'I' for Inactive)
REMARK    1  A    between atoms: C3_4  and  O_7 
ROOT
ATOM      1  C   UNL d   1       0.204   1.564   0.307  0.00  0.00    -0.033 A 
ATOM      2  C1  UNL d   1      -0.026   1.846  -1.041  0.00  0.00     0.039 A 
ATOM      3  C2  UNL d   1       0.182   3.136  -1.532  0.00  0.00    -0.080 A 
ATOM      4  C3  UNL d   1       0.621   4.134  -0.666  0.00  0.00     0.150 A 
ATOM      5  C4  UNL d   1       0.856   3.860   0.677  0.00  0.00    -0.007 A 
ATOM      6  C5  UNL d   1       0.646   2.571   1.166  0.00  0.00     0.039 A 
ENDROOT
BRANCH   4   7
ATOM      7  O   UNL d   1       0.834   5.409  -1.098  0.00  0.00    -0.526 OA
ATOM      8  H5  UNL d   1       0.604   5.458  -2.041  0.00  0.00     0.418 HD
ENDBRANCH   4   7
TORSDOF 1
ENDMDL
