MODEL 1
REMARK minimizedAffinity 1.48316896
REMARK minimizedRMSD -1
REMARK  1 active torsions:
REMARK  status: ('A' for Active; 'I' for Inactive)
REMARK    1  A    between atoms: C3_4  and  O_7 
ROOT
ATOM      1  C   UNL d   1       0.371   4.174  -1.675  0.00  0.00    -0.033 A 
ATOM      2  C1  UNL d   1       0.978   4.375  -0.434  0.00  0.00     0.039 A 
ATOM      3  C2  UNL d   1       0.857   3.411   0.569  0.00  0.00    -0.080 A 
ATOM      4  C3  UNL d   1       0.127   2.253   0.318  0.00  0.00     0.150 A 
ATOM      5  C4  UNL d   1      -0.478   2.044  -0.917  0.00  0.00    -0.007 A 
ATOM      6  C5  UNL d   1      -0.356   3.008  -1.917  0.00  0.00     0.039 A 
ENDROOT
BRANCH   4   7
ATOM      7  O   UNL d   1      -0.024   1.286   1.267  0.00  0.00    -0.526 OA
ATOM      8  H5  UNL d   1       0.423   1.579   2.079  0.00  0.00     0.418 HD
ENDBRANCH   4   7
TORSDOF 1
ENDMDL
