MODEL 1
REMARK minimizedAffinity -0.89729625
REMARK minimizedRMSD -1
REMARK  1 active torsions:
REMARK  status: ('A' for Active; 'I' for Inactive)
REMARK    1  A    between atoms: C3_4  and  O_7 
ROOT
ATOM      1  C   UNL d   1       0.050   3.460  -1.357  0.00  0.00    -0.033 A 
ATOM      2  C1  UNL d   1       1.036   3.665  -0.390  0.00  0.00     0.039 A 
ATOM      3  C2  UNL d   1       1.168   2.773   0.676  0.00  0.00    -0.080 A 
ATOM      4  C3  UNL d   1       0.309   1.681   0.762  0.00  0.00     0.150 A 
ATOM      5  C4  UNL d   1      -0.673   1.468  -0.200  0.00  0.00    -0.007 A 
ATOM      6  C5  UNL d   1      -0.803   2.361  -1.263  0.00  0.00     0.039 A 
ENDROOT
BRANCH   4   7
ATOM      7  O   UNL d   1       0.396   0.785   1.787  0.00  0.00    -0.526 OA
ATOM      8  H5  UNL d   1       1.101   1.076   2.390  0.00  0.00     0.418 HD
ENDBRANCH   4   7
TORSDOF 1
ENDMDL
