MODEL 1
REMARK minimizedAffinity -0.251255304
REMARK minimizedRMSD -1
REMARK  1 active torsions:
REMARK  status: ('A' for Active; 'I' for Inactive)
REMARK    1  A    between atoms: C3_4  and  O_7 
ROOT
ATOM      1  C   UNL d   1      -0.256   1.216   0.973  0.00  0.00    -0.033 A 
ATOM      2  C1  UNL d   1      -1.085   1.571  -0.093  0.00  0.00     0.039 A 
ATOM      3  C2  UNL d   1      -0.679   2.554  -0.997  0.00  0.00    -0.080 A 
ATOM      4  C3  UNL d   1       0.556   3.173  -0.825  0.00  0.00     0.150 A 
ATOM      5  C4  UNL d   1       1.388   2.821   0.232  0.00  0.00    -0.007 A 
ATOM      6  C5  UNL d   1       0.981   1.840   1.135  0.00  0.00     0.039 A 
ENDROOT
BRANCH   4   7
ATOM      7  O   UNL d   1       0.993   4.141  -1.680  0.00  0.00    -0.526 OA
ATOM      8  H5  UNL d   1       0.302   4.300  -2.344  0.00  0.00     0.418 HD
ENDBRANCH   4   7
TORSDOF 1
ENDMDL
