MODEL 1
REMARK minimizedAffinity 6.39209843
REMARK minimizedRMSD -1
REMARK  1 active torsions:
REMARK  status: ('A' for Active; 'I' for Inactive)
REMARK    1  A    between atoms: C3_4  and  O_7 
ROOT
ATOM      1  C   UNL d   1      -0.107   5.985  -2.220  0.00  0.00    -0.033 A 
ATOM      2  C1  UNL d   1      -0.483   5.923  -0.877  0.00  0.00     0.039 A 
ATOM      3  C2  UNL d   1      -0.178   4.792  -0.116  0.00  0.00    -0.080 A 
ATOM      4  C3  UNL d   1       0.503   3.733  -0.710  0.00  0.00     0.150 A 
ATOM      5  C4  UNL d   1       0.883   3.789  -2.046  0.00  0.00    -0.007 A 
ATOM      6  C5  UNL d   1       0.577   4.918  -2.805  0.00  0.00     0.039 A 
ENDROOT
BRANCH   4   7
ATOM      7  O   UNL d   1       0.818   2.606  -0.009  0.00  0.00    -0.526 OA
ATOM      8  H5  UNL d   1       0.467   2.697   0.893  0.00  0.00     0.418 HD
ENDBRANCH   4   7
TORSDOF 1
ENDMDL
