MODEL 1
REMARK minimizedAffinity 3.17408729
REMARK minimizedRMSD -1
REMARK  0 active torsions:
REMARK  status: ('A' for Active; 'I' for Inactive)
ROOT
ATOM      1  C   UNL d   1      -3.560   4.791   1.132  0.00  0.00     0.020 A 
ATOM      2  C1  UNL d   1      -3.560   5.997   1.833  0.00  0.00     0.020 A 
ATOM      3  C2  UNL d   1      -3.386   6.000   3.218  0.00  0.00     0.034 A 
ATOM      4  C3  UNL d   1      -3.212   4.795   3.908  0.00  0.00     0.017 A 
ATOM      5  C4  UNL d   1      -3.212   3.585   3.204  0.00  0.00     0.017 A 
ATOM      6  C5  UNL d   1      -3.386   3.588   1.817  0.00  0.00     0.034 A 
ATOM      7 Cl   UNL d   1      -3.002   2.058   3.986  0.00  0.00    -0.070 Cl
ATOM      8 Cl1  UNL d   1      -3.002   4.873   5.621  0.00  0.00    -0.070 Cl
ENDROOT
TORSDOF 0
ENDMDL
