MODEL 1
REMARK minimizedAffinity -0.527911365
REMARK minimizedRMSD -1
REMARK  0 active torsions:
REMARK  status: ('A' for Active; 'I' for Inactive)
ROOT
ATOM      1  C   UNL d   1      -5.222   5.997   1.644  0.00  0.00     0.020 A 
ATOM      2  C1  UNL d   1      -3.891   5.997   1.226  0.00  0.00     0.020 A 
ATOM      3  C2  UNL d   1      -2.863   5.998   2.171  0.00  0.00     0.034 A 
ATOM      4  C3  UNL d   1      -3.163   5.999   3.538  0.00  0.00     0.017 A 
ATOM      5  C4  UNL d   1      -4.498   5.998   3.957  0.00  0.00     0.017 A 
ATOM      6  C5  UNL d   1      -5.524   5.998   3.006  0.00  0.00     0.034 A 
ATOM      7 Cl   UNL d   1      -4.947   5.999   5.626  0.00  0.00    -0.070 Cl
ATOM      8 Cl1  UNL d   1      -1.841   5.999   4.651  0.00  0.00    -0.070 Cl
ENDROOT
TORSDOF 0
ENDMDL
