MODEL 1
REMARK minimizedAffinity -2.18285632
REMARK minimizedRMSD -1
REMARK  0 active torsions:
REMARK  status: ('A' for Active; 'I' for Inactive)
ROOT
ATOM      1  C   UNL d   1      -3.068   5.972   5.387  0.00  0.00     0.020 A 
ATOM      2  C1  UNL d   1      -4.461   5.973   5.325  0.00  0.00     0.020 A 
ATOM      3  C2  UNL d   1      -5.105   5.982   4.085  0.00  0.00     0.034 A 
ATOM      4  C3  UNL d   1      -4.356   5.990   2.903  0.00  0.00     0.017 A 
ATOM      5  C4  UNL d   1      -2.957   5.988   2.966  0.00  0.00     0.017 A 
ATOM      6  C5  UNL d   1      -2.318   5.979   4.210  0.00  0.00     0.034 A 
ATOM      7 Cl   UNL d   1      -1.965   5.997   1.551  0.00  0.00    -0.070 Cl
ATOM      8 Cl1  UNL d   1      -5.218   6.000   1.406  0.00  0.00    -0.070 Cl
ENDROOT
TORSDOF 0
ENDMDL
