MODEL 1
REMARK minimizedAffinity 4.39912558
REMARK minimizedRMSD -1
REMARK  0 active torsions:
REMARK  status: ('A' for Active; 'I' for Inactive)
ROOT
ATOM      1  C   UNL d   1      -3.736   5.987   1.333  0.00  0.00     0.020 A 
ATOM      2  C1  UNL d   1      -4.990   5.959   1.943  0.00  0.00     0.020 A 
ATOM      3  C2  UNL d   1      -5.087   5.941   3.336  0.00  0.00     0.034 A 
ATOM      4  C3  UNL d   1      -3.930   5.951   4.123  0.00  0.00     0.017 A 
ATOM      5  C4  UNL d   1      -2.673   5.979   3.510  0.00  0.00     0.017 A 
ATOM      6  C5  UNL d   1      -2.580   5.997   2.114  0.00  0.00     0.034 A 
ATOM      7 Cl   UNL d   1      -1.200   5.993   4.414  0.00  0.00    -0.070 Cl
ATOM      8 Cl1  UNL d   1      -4.126   5.928   5.840  0.00  0.00    -0.070 Cl
ENDROOT
TORSDOF 0
ENDMDL
