MODEL 1
REMARK minimizedAffinity -0.360795826
REMARK minimizedRMSD -1
REMARK  0 active torsions:
REMARK  status: ('A' for Active; 'I' for Inactive)
ROOT
ATOM      1  C   UNL d   1      -2.752   6.000   5.478  0.00  0.00     0.020 A 
ATOM      2  C1  UNL d   1      -4.099   6.000   5.838  0.00  0.00     0.020 A 
ATOM      3  C2  UNL d   1      -5.086   6.000   4.849  0.00  0.00     0.034 A 
ATOM      4  C3  UNL d   1      -4.726   6.000   3.496  0.00  0.00     0.017 A 
ATOM      5  C4  UNL d   1      -3.374   6.000   3.137  0.00  0.00     0.017 A 
ATOM      6  C5  UNL d   1      -2.390   6.000   4.131  0.00  0.00     0.034 A 
ATOM      7 Cl   UNL d   1      -2.853   5.999   1.489  0.00  0.00    -0.070 Cl
ATOM      8 Cl1  UNL d   1      -5.998   5.999   2.327  0.00  0.00    -0.070 Cl
ENDROOT
TORSDOF 0
ENDMDL
