MODEL 1
REMARK minimizedAffinity -0.751930356
REMARK minimizedRMSD -1
REMARK  0 active torsions:
REMARK  status: ('A' for Active; 'I' for Inactive)
ROOT
ATOM      1  C   UNL d   1      -3.050   5.841   5.247  0.00  0.00     0.020 A 
ATOM      2  C1  UNL d   1      -4.367   5.469   5.517  0.00  0.00     0.020 A 
ATOM      3  C2  UNL d   1      -5.261   5.255   4.466  0.00  0.00     0.034 A 
ATOM      4  C3  UNL d   1      -4.840   5.412   3.140  0.00  0.00     0.017 A 
ATOM      5  C4  UNL d   1      -3.519   5.785   2.870  0.00  0.00     0.017 A 
ATOM      6  C5  UNL d   1      -2.627   5.999   3.926  0.00  0.00     0.034 A 
ATOM      7 Cl   UNL d   1      -2.926   5.999   1.261  0.00  0.00    -0.070 Cl
ATOM      8 Cl1  UNL d   1      -6.000   5.131   1.891  0.00  0.00    -0.070 Cl
ENDROOT
TORSDOF 0
ENDMDL
