MODEL 1
REMARK minimizedAffinity -1.26443219
REMARK minimizedRMSD -1
REMARK  0 active torsions:
REMARK  status: ('A' for Active; 'I' for Inactive)
ROOT
ATOM      1  C   UNL d   1      -3.324   5.676   5.749  0.00  0.00     0.020 A 
ATOM      2  C1  UNL d   1      -4.453   4.897   5.998  0.00  0.00     0.020 A 
ATOM      3  C2  UNL d   1      -5.235   4.441   4.935  0.00  0.00     0.034 A 
ATOM      4  C3  UNL d   1      -4.890   4.764   3.618  0.00  0.00     0.017 A 
ATOM      5  C4  UNL d   1      -3.756   5.546   3.368  0.00  0.00     0.017 A 
ATOM      6  C5  UNL d   1      -2.976   6.000   4.437  0.00  0.00     0.034 A 
ATOM      7 Cl   UNL d   1      -3.266   5.985   1.770  0.00  0.00    -0.070 Cl
ATOM      8 Cl1  UNL d   1      -5.902   4.166   2.352  0.00  0.00    -0.070 Cl
ENDROOT
TORSDOF 0
ENDMDL
