MODEL 1
REMARK minimizedAffinity 0.756127119
REMARK minimizedRMSD -1
REMARK  0 active torsions:
REMARK  status: ('A' for Active; 'I' for Inactive)
ROOT
ATOM      1  C   UNL d   1      -3.282   2.391   2.555  0.00  0.00     0.020 A 
ATOM      2  C1  UNL d   1      -2.544   2.392   3.739  0.00  0.00     0.020 A 
ATOM      3  C2  UNL d   1      -2.563   3.512   4.572  0.00  0.00     0.034 A 
ATOM      4  C3  UNL d   1      -3.320   4.637   4.223  0.00  0.00     0.017 A 
ATOM      5  C4  UNL d   1      -4.060   4.635   3.035  0.00  0.00     0.017 A 
ATOM      6  C5  UNL d   1      -4.038   3.510   2.204  0.00  0.00     0.034 A 
ATOM      7 Cl   UNL d   1      -5.018   5.984   2.537  0.00  0.00    -0.070 Cl
ATOM      8 Cl1  UNL d   1      -3.297   5.987   5.301  0.00  0.00    -0.070 Cl
ENDROOT
TORSDOF 0
ENDMDL
