MODEL 1
REMARK minimizedAffinity 1.54326928
REMARK minimizedRMSD -1
REMARK  0 active torsions:
REMARK  status: ('A' for Active; 'I' for Inactive)
ROOT
ATOM      1  C   UNL d   1      -2.951   2.351   4.745  0.00  0.00     0.020 A 
ATOM      2  C1  UNL d   1      -3.217   2.351   3.377  0.00  0.00     0.020 A 
ATOM      3  C2  UNL d   1      -3.755   3.488   2.770  0.00  0.00     0.034 A 
ATOM      4  C3  UNL d   1      -4.028   4.630   3.532  0.00  0.00     0.017 A 
ATOM      5  C4  UNL d   1      -3.761   4.629   4.905  0.00  0.00     0.017 A 
ATOM      6  C5  UNL d   1      -3.222   3.488   5.508  0.00  0.00     0.034 A 
ATOM      7 Cl   UNL d   1      -4.071   6.000   5.911  0.00  0.00    -0.070 Cl
ATOM      8 Cl1  UNL d   1      -4.692   6.000   2.715  0.00  0.00    -0.070 Cl
ENDROOT
TORSDOF 0
ENDMDL
