MODEL 1
REMARK minimizedAffinity -1.18459451
REMARK minimizedRMSD -1
REMARK  0 active torsions:
REMARK  status: ('A' for Active; 'I' for Inactive)
ROOT
ATOM      1  C   UNL d   1      -3.003   5.916   5.127  0.00  0.00     0.020 A 
ATOM      2  C1  UNL d   1      -4.353   5.694   5.397  0.00  0.00     0.020 A 
ATOM      3  C2  UNL d   1      -5.261   5.554   4.345  0.00  0.00     0.034 A 
ATOM      4  C3  UNL d   1      -4.821   5.638   3.019  0.00  0.00     0.017 A 
ATOM      5  C4  UNL d   1      -3.466   5.861   2.750  0.00  0.00     0.017 A 
ATOM      6  C5  UNL d   1      -2.561   6.000   3.806  0.00  0.00     0.034 A 
ATOM      7 Cl   UNL d   1      -2.848   5.976   1.140  0.00  0.00    -0.070 Cl
ATOM      8 Cl1  UNL d   1      -5.999   5.456   1.769  0.00  0.00    -0.070 Cl
ENDROOT
TORSDOF 0
ENDMDL
