MODEL 1
REMARK minimizedAffinity 0.250277072
REMARK minimizedRMSD -1
REMARK  0 active torsions:
REMARK  status: ('A' for Active; 'I' for Inactive)
ROOT
ATOM      1  C   UNL d   1      -3.856   5.999   5.513  0.00  0.00     0.020 A 
ATOM      2  C1  UNL d   1      -2.536   5.999   5.066  0.00  0.00     0.020 A 
ATOM      3  C2  UNL d   1      -2.262   5.999   3.697  0.00  0.00     0.034 A 
ATOM      4  C3  UNL d   1      -3.310   5.999   2.769  0.00  0.00     0.017 A 
ATOM      5  C4  UNL d   1      -4.635   5.999   3.219  0.00  0.00     0.017 A 
ATOM      6  C5  UNL d   1      -4.904   5.999   4.591  0.00  0.00     0.034 A 
ATOM      7 Cl   UNL d   1      -5.981   5.999   2.134  0.00  0.00    -0.070 Cl
ATOM      8 Cl1  UNL d   1      -2.898   6.000   1.091  0.00  0.00    -0.070 Cl
ENDROOT
TORSDOF 0
ENDMDL
