MODEL 1
REMARK minimizedAffinity 2.82603836
REMARK minimizedRMSD -1
REMARK  0 active torsions:
REMARK  status: ('A' for Active; 'I' for Inactive)
ROOT
ATOM      1  C   UNL d   1      -2.720   5.820   5.251  0.00  0.00     0.020 A 
ATOM      2  C1  UNL d   1      -4.054   5.997   5.616  0.00  0.00     0.020 A 
ATOM      3  C2  UNL d   1      -5.051   6.000   4.638  0.00  0.00     0.034 A 
ATOM      4  C3  UNL d   1      -4.715   5.826   3.291  0.00  0.00     0.017 A 
ATOM      5  C4  UNL d   1      -3.376   5.648   2.925  0.00  0.00     0.017 A 
ATOM      6  C5  UNL d   1      -2.382   5.646   3.909  0.00  0.00     0.034 A 
ATOM      7 Cl   UNL d   1      -2.885   5.428   1.283  0.00  0.00    -0.070 Cl
ATOM      8 Cl1  UNL d   1      -6.000   5.840   2.135  0.00  0.00    -0.070 Cl
ENDROOT
TORSDOF 0
ENDMDL
