MODEL 1
REMARK minimizedAffinity 3.71659827
REMARK minimizedRMSD -1
REMARK  0 active torsions:
REMARK  status: ('A' for Active; 'I' for Inactive)
ROOT
ATOM      1  C   UNL d   1      -5.312   5.945   4.686  0.00  0.00     0.020 A 
ATOM      2  C1  UNL d   1      -5.183   5.983   3.299  0.00  0.00     0.020 A 
ATOM      3  C2  UNL d   1      -3.914   5.999   2.715  0.00  0.00     0.034 A 
ATOM      4  C3  UNL d   1      -2.769   5.978   3.520  0.00  0.00     0.017 A 
ATOM      5  C4  UNL d   1      -2.899   5.940   4.913  0.00  0.00     0.017 A 
ATOM      6  C5  UNL d   1      -4.172   5.924   5.492  0.00  0.00     0.034 A 
ATOM      7 Cl   UNL d   1      -1.533   5.912   5.971  0.00  0.00    -0.070 Cl
ATOM      8 Cl1  UNL d   1      -1.232   6.000   2.731  0.00  0.00    -0.070 Cl
ENDROOT
TORSDOF 0
ENDMDL
