MODEL 1
REMARK minimizedAffinity 0.161336914
REMARK minimizedRMSD -1
REMARK  0 active torsions:
REMARK  status: ('A' for Active; 'I' for Inactive)
ROOT
ATOM      1  C   UNL d   1      -3.418   5.991   6.000  0.00  0.00     0.020 A 
ATOM      2  C1  UNL d   1      -2.055   5.991   5.710  0.00  0.00     0.020 A 
ATOM      3  C2  UNL d   1      -1.624   5.994   4.381  0.00  0.00     0.034 A 
ATOM      4  C3  UNL d   1      -2.557   5.996   3.338  0.00  0.00     0.017 A 
ATOM      5  C4  UNL d   1      -3.926   5.996   3.631  0.00  0.00     0.017 A 
ATOM      6  C5  UNL d   1      -4.352   5.994   4.963  0.00  0.00     0.034 A 
ATOM      7 Cl   UNL d   1      -5.137   5.999   2.398  0.00  0.00    -0.070 Cl
ATOM      8 Cl1  UNL d   1      -1.953   6.000   1.720  0.00  0.00    -0.070 Cl
ENDROOT
TORSDOF 0
ENDMDL
