MODEL 1
REMARK minimizedAffinity -0.558444798
REMARK minimizedRMSD -1
REMARK  0 active torsions:
REMARK  status: ('A' for Active; 'I' for Inactive)
ROOT
ATOM      1  C   UNL d   1      -3.951   5.990   5.433  0.00  0.00     0.020 A 
ATOM      2  C1  UNL d   1      -2.593   5.990   5.116  0.00  0.00     0.020 A 
ATOM      3  C2  UNL d   1      -2.188   5.991   3.780  0.00  0.00     0.034 A 
ATOM      4  C3  UNL d   1      -3.142   5.994   2.755  0.00  0.00     0.017 A 
ATOM      5  C4  UNL d   1      -4.505   5.995   3.075  0.00  0.00     0.017 A 
ATOM      6  C5  UNL d   1      -4.905   5.993   4.414  0.00  0.00     0.034 A 
ATOM      7 Cl   UNL d   1      -5.740   5.998   1.866  0.00  0.00    -0.070 Cl
ATOM      8 Cl1  UNL d   1      -2.570   5.996   1.125  0.00  0.00    -0.070 Cl
ENDROOT
TORSDOF 0
ENDMDL
