MODEL 1
REMARK minimizedAffinity 3.59583235
REMARK minimizedRMSD -1
REMARK  0 active torsions:
REMARK  status: ('A' for Active; 'I' for Inactive)
ROOT
ATOM      1  C   UNL d   1       5.866   0.723  -5.411  0.00  0.00     0.020 A 
ATOM      2  C1  UNL d   1       5.981   0.648  -4.023  0.00  0.00     0.020 A 
ATOM      3  C2  UNL d   1       4.839   0.723  -3.223  0.00  0.00     0.034 A 
ATOM      4  C3  UNL d   1       3.577   0.873  -3.810  0.00  0.00     0.017 A 
ATOM      5  C4  UNL d   1       3.463   0.948  -5.202  0.00  0.00     0.017 A 
ATOM      6  C5  UNL d   1       4.610   0.872  -5.999  0.00  0.00     0.034 A 
ATOM      7 Cl   UNL d   1       1.940   1.132  -5.999  0.00  0.00    -0.070 Cl
ATOM      8 Cl1  UNL d   1       2.208   0.958  -2.759  0.00  0.00    -0.070 Cl
ENDROOT
TORSDOF 0
ENDMDL
