MODEL 1
REMARK minimizedAffinity 2.98217821
REMARK minimizedRMSD -1
REMARK  0 active torsions:
REMARK  status: ('A' for Active; 'I' for Inactive)
ROOT
ATOM      1  C   UNL d   1       1.721   4.041  -6.000  0.00  0.00     0.020 A 
ATOM      2  C1  UNL d   1       2.187   5.184  -5.352  0.00  0.00     0.020 A 
ATOM      3  C2  UNL d   1       2.418   5.162  -3.975  0.00  0.00     0.034 A 
ATOM      4  C3  UNL d   1       2.183   3.993  -3.241  0.00  0.00     0.017 A 
ATOM      5  C4  UNL d   1       1.715   2.846  -3.892  0.00  0.00     0.017 A 
ATOM      6  C5  UNL d   1       1.486   2.874  -5.271  0.00  0.00     0.034 A 
ATOM      7 Cl   UNL d   1       1.402   1.367  -3.053  0.00  0.00    -0.070 Cl
ATOM      8 Cl1  UNL d   1       2.490   4.037  -1.541  0.00  0.00    -0.070 Cl
ENDROOT
TORSDOF 0
ENDMDL
