MODEL 1
REMARK minimizedAffinity 5.62154198
REMARK minimizedRMSD -1
REMARK  1 active torsions:
REMARK  status: ('A' for Active; 'I' for Inactive)
REMARK    1  A    between atoms: C1_2  and  C2_3 
ROOT
ATOM      1  C2  UNL d   1      -1.564  -2.826  -3.433  0.00  0.00    -0.077 A 
ATOM      2  C3  UNL d   1      -2.322  -3.994  -3.596  0.00  0.00     0.002 A 
ATOM      3  C4  UNL d   1      -2.650  -4.451  -4.873  0.00  0.00     0.002 A 
ATOM      4  C5  UNL d   1      -2.220  -3.750  -5.998  0.00  0.00    -0.004 A 
ATOM      5  C6  UNL d   1      -1.467  -2.586  -5.847  0.00  0.00     0.002 A 
ATOM      6  C7  UNL d   1      -1.140  -2.127  -4.571  0.00  0.00     0.002 A 
ENDROOT
BRANCH   1   7
ATOM      7  C1  UNL d   1      -1.168  -2.357  -2.057  0.00  0.00     0.055 C 
ATOM      8  C   UNL d   1      -0.302  -3.389  -1.350  0.00  0.00     0.019 C 
ENDBRANCH   1   7
TORSDOF 1
ENDMDL
