MODEL 1
REMARK minimizedAffinity 2.61920953
REMARK minimizedRMSD -1
REMARK  1 active torsions:
REMARK  status: ('A' for Active; 'I' for Inactive)
REMARK    1  A    between atoms: C1_2  and  C2_3 
ROOT
ATOM      1  C2  UNL d   1      -1.780  -2.277  -3.562  0.00  0.00    -0.077 A 
ATOM      2  C3  UNL d   1      -1.364  -1.712  -4.776  0.00  0.00     0.002 A 
ATOM      3  C4  UNL d   1      -1.722  -2.303  -5.989  0.00  0.00     0.002 A 
ATOM      4  C5  UNL d   1      -2.500  -3.459  -6.000  0.00  0.00    -0.004 A 
ATOM      5  C6  UNL d   1      -2.917  -4.030  -4.798  0.00  0.00     0.002 A 
ATOM      6  C7  UNL d   1      -2.559  -3.441  -3.584  0.00  0.00     0.002 A 
ENDROOT
BRANCH   1   7
ATOM      7  C1  UNL d   1      -1.437  -1.613  -2.254  0.00  0.00     0.055 C 
ATOM      8  C   UNL d   1      -2.294  -2.153  -1.118  0.00  0.00     0.019 C 
ENDBRANCH   1   7
TORSDOF 1
ENDMDL
