MODEL 1
REMARK minimizedAffinity 0.906997621
REMARK minimizedRMSD -1
REMARK  1 active torsions:
REMARK  status: ('A' for Active; 'I' for Inactive)
REMARK    1  A    between atoms: C1_2  and  C2_3 
ROOT
ATOM      1  C2  UNL d   1       3.257   4.473  -5.950  0.00  0.00    -0.077 A 
ATOM      2  C3  UNL d   1       4.181   3.419  -5.999  0.00  0.00     0.002 A 
ATOM      3  C4  UNL d   1       3.742   2.094  -5.999  0.00  0.00     0.002 A 
ATOM      4  C5  UNL d   1       2.379   1.810  -5.955  0.00  0.00    -0.004 A 
ATOM      5  C6  UNL d   1       1.452   2.851  -5.904  0.00  0.00     0.002 A 
ATOM      6  C7  UNL d   1       1.889   4.176  -5.902  0.00  0.00     0.002 A 
ENDROOT
BRANCH   1   7
ATOM      7  C1  UNL d   1       3.727   5.903  -5.999  0.00  0.00     0.055 C 
ATOM      8  C   UNL d   1       5.247   5.987  -5.991  0.00  0.00     0.019 C 
ENDBRANCH   1   7
TORSDOF 1
ENDMDL
