MODEL 1
REMARK minimizedAffinity 6.78189898
REMARK minimizedRMSD -1
REMARK  1 active torsions:
REMARK  status: ('A' for Active; 'I' for Inactive)
REMARK    1  A    between atoms: C1_2  and  C2_3 
ROOT
ATOM      1  C2  UNL d   1      -1.692  -2.602  -3.583  0.00  0.00    -0.077 A 
ATOM      2  C3  UNL d   1      -1.106  -2.158  -4.777  0.00  0.00     0.002 A 
ATOM      3  C4  UNL d   1      -1.362  -2.820  -5.979  0.00  0.00     0.002 A 
ATOM      4  C5  UNL d   1      -2.208  -3.927  -6.000  0.00  0.00    -0.004 A 
ATOM      5  C6  UNL d   1      -2.794  -4.378  -4.818  0.00  0.00     0.002 A 
ATOM      6  C7  UNL d   1      -2.538  -3.718  -3.615  0.00  0.00     0.002 A 
ENDROOT
BRANCH   1   7
ATOM      7  C1  UNL d   1      -1.455  -1.860  -2.294  0.00  0.00     0.055 C 
ATOM      8  C   UNL d   1      -0.688  -2.715  -1.296  0.00  0.00     0.019 C 
ENDBRANCH   1   7
TORSDOF 1
ENDMDL
