MODEL 1
REMARK minimizedAffinity 2.35733223
REMARK minimizedRMSD -1
REMARK  1 active torsions:
REMARK  status: ('A' for Active; 'I' for Inactive)
REMARK    1  A    between atoms: C1_2  and  C2_3 
ROOT
ATOM      1  C2  UNL d   1      -1.060  -2.282   1.381  0.00  0.00    -0.077 A 
ATOM      2  C3  UNL d   1      -2.074  -1.689   0.617  0.00  0.00     0.002 A 
ATOM      3  C4  UNL d   1      -1.926  -1.542  -0.764  0.00  0.00     0.002 A 
ATOM      4  C5  UNL d   1      -0.766  -1.991  -1.393  0.00  0.00    -0.004 A 
ATOM      5  C6  UNL d   1       0.250  -2.581  -0.642  0.00  0.00     0.002 A 
ATOM      6  C7  UNL d   1       0.103  -2.727   0.739  0.00  0.00     0.002 A 
ENDROOT
BRANCH   1   7
ATOM      7  C1  UNL d   1      -1.239  -2.486   2.862  0.00  0.00     0.055 C 
ATOM      8  C   UNL d   1      -1.821  -3.858   3.166  0.00  0.00     0.019 C 
ENDBRANCH   1   7
TORSDOF 1
ENDMDL
