MODEL 1
REMARK minimizedAffinity 7.67138624
REMARK minimizedRMSD -1
REMARK  1 active torsions:
REMARK  status: ('A' for Active; 'I' for Inactive)
REMARK    1  A    between atoms: C1_2  and  C2_3 
ROOT
ATOM      1  C2  UNL d   1      -1.539  -1.878   1.096  0.00  0.00    -0.077 A 
ATOM      2  C3  UNL d   1      -2.375  -1.254   0.159  0.00  0.00     0.002 A 
ATOM      3  C4  UNL d   1      -2.053  -1.275  -1.200  0.00  0.00     0.002 A 
ATOM      4  C5  UNL d   1      -0.897  -1.922  -1.633  0.00  0.00    -0.004 A 
ATOM      5  C6  UNL d   1      -0.058  -2.543  -0.709  0.00  0.00     0.002 A 
ATOM      6  C7  UNL d   1      -0.378  -2.522   0.649  0.00  0.00     0.002 A 
ENDROOT
BRANCH   1   7
ATOM      7  C1  UNL d   1      -1.910  -1.898   2.556  0.00  0.00     0.055 C 
ATOM      8  C   UNL d   1      -2.012  -3.323   3.080  0.00  0.00     0.019 C 
ENDBRANCH   1   7
TORSDOF 1
ENDMDL
