MODEL 1
REMARK minimizedAffinity 8.58092499
REMARK minimizedRMSD -1
REMARK  1 active torsions:
REMARK  status: ('A' for Active; 'I' for Inactive)
REMARK    1  A    between atoms: C1_2  and  C2_3 
ROOT
ATOM      1  C2  UNL d   1      -0.073  -0.123   2.916  0.00  0.00    -0.077 A 
ATOM      2  C3  UNL d   1       0.144  -0.979   1.828  0.00  0.00     0.002 A 
ATOM      3  C4  UNL d   1      -0.697  -2.072   1.610  0.00  0.00     0.002 A 
ATOM      4  C5  UNL d   1      -1.762  -2.316   2.474  0.00  0.00    -0.004 A 
ATOM      5  C6  UNL d   1      -1.986  -1.471   3.561  0.00  0.00     0.002 A 
ATOM      6  C7  UNL d   1      -1.145  -0.379   3.780  0.00  0.00     0.002 A 
ENDROOT
BRANCH   1   7
ATOM      7  C1  UNL d   1       0.803   1.085   3.125  0.00  0.00     0.055 C 
ATOM      8  C   UNL d   1       1.745   1.295   1.948  0.00  0.00     0.019 C 
ENDBRANCH   1   7
TORSDOF 1
ENDMDL
