MODEL 1
REMARK minimizedAffinity 2.89980412
REMARK minimizedRMSD -1
REMARK  1 active torsions:
REMARK  status: ('A' for Active; 'I' for Inactive)
REMARK    1  A    between atoms: C1_2  and  C2_3 
ROOT
ATOM      1  C2  UNL d   1       2.242   3.830  -3.571  0.00  0.00    -0.077 A 
ATOM      2  C3  UNL d   1       2.258   3.141  -4.792  0.00  0.00     0.002 A 
ATOM      3  C4  UNL d   1       2.261   3.842  -5.999  0.00  0.00     0.002 A 
ATOM      4  C5  UNL d   1       2.252   5.236  -5.997  0.00  0.00    -0.004 A 
ATOM      5  C6  UNL d   1       2.234   5.930  -4.789  0.00  0.00     0.002 A 
ATOM      6  C7  UNL d   1       2.229   5.231  -3.581  0.00  0.00     0.002 A 
ENDROOT
BRANCH   1   7
ATOM      7  C1  UNL d   1       2.288   3.076  -2.268  0.00  0.00     0.055 C 
ATOM      8  C   UNL d   1       3.566   3.377  -1.499  0.00  0.00     0.019 C 
ENDBRANCH   1   7
TORSDOF 1
ENDMDL
