MODEL 1
REMARK minimizedAffinity -0.910032094
REMARK minimizedRMSD -1
REMARK  1 active torsions:
REMARK  status: ('A' for Active; 'I' for Inactive)
REMARK    1  A    between atoms: C1_2  and  C2_3 
ROOT
ATOM      1  C2  UNL d   1       4.885   2.160  -3.568  0.00  0.00    -0.077 A 
ATOM      2  C3  UNL d   1       4.223   2.565  -4.736  0.00  0.00     0.002 A 
ATOM      3  C4  UNL d   1       4.442   1.895  -5.940  0.00  0.00     0.002 A 
ATOM      4  C5  UNL d   1       5.320   0.813  -5.988  0.00  0.00    -0.004 A 
ATOM      5  C6  UNL d   1       5.984   0.404  -4.833  0.00  0.00     0.002 A 
ATOM      6  C7  UNL d   1       5.767   1.074  -3.628  0.00  0.00     0.002 A 
ENDROOT
BRANCH   1   7
ATOM      7  C1  UNL d   1       4.612   2.851  -2.257  0.00  0.00     0.055 C 
ATOM      8  C   UNL d   1       3.421   3.793  -2.365  0.00  0.00     0.019 C 
ENDBRANCH   1   7
TORSDOF 1
ENDMDL
