MODEL 1
REMARK minimizedAffinity -2.01403499
REMARK minimizedRMSD -1
REMARK  1 active torsions:
REMARK  status: ('A' for Active; 'I' for Inactive)
REMARK    1  A    between atoms: C1_2  and  C2_3 
ROOT
ATOM      1  C2  UNL d   1       3.947   4.771  -5.035  0.00  0.00    -0.077 A 
ATOM      2  C3  UNL d   1       2.745   5.322  -4.569  0.00  0.00     0.002 A 
ATOM      3  C4  UNL d   1       1.531   4.679  -4.817  0.00  0.00     0.002 A 
ATOM      4  C5  UNL d   1       1.507   3.481  -5.528  0.00  0.00    -0.004 A 
ATOM      5  C6  UNL d   1       2.696   2.927  -5.998  0.00  0.00     0.002 A 
ATOM      6  C7  UNL d   1       3.911   3.568  -5.752  0.00  0.00     0.002 A 
ENDROOT
BRANCH   1   7
ATOM      7  C1  UNL d   1       5.263   5.436  -4.726  0.00  0.00     0.055 C 
ATOM      8  C   UNL d   1       6.000   5.824  -6.000  0.00  0.00     0.019 C 
ENDBRANCH   1   7
TORSDOF 1
ENDMDL
