MODEL 1
REMARK minimizedAffinity -4.0852108
REMARK minimizedRMSD -1
REMARK  1 active torsions:
REMARK  status: ('A' for Active; 'I' for Inactive)
REMARK    1  A    between atoms: C1_2  and  C2_3 
ROOT
ATOM      1  C2  UNL d   1       4.233   1.816   1.108  0.00  0.00    -0.077 A 
ATOM      2  C3  UNL d   1       3.326   0.831   1.522  0.00  0.00     0.002 A 
ATOM      3  C4  UNL d   1       3.754  -0.236   2.314  0.00  0.00     0.002 A 
ATOM      4  C5  UNL d   1       5.089  -0.325   2.702  0.00  0.00    -0.004 A 
ATOM      5  C6  UNL d   1       6.000   0.648   2.294  0.00  0.00     0.002 A 
ATOM      6  C7  UNL d   1       5.574   1.715   1.501  0.00  0.00     0.002 A 
ENDROOT
BRANCH   1   7
ATOM      7  C1  UNL d   1       3.763   2.994   0.295  0.00  0.00     0.055 C 
ATOM      8  C   UNL d   1       2.381   3.454   0.734  0.00  0.00     0.019 C 
ENDBRANCH   1   7
TORSDOF 1
ENDMDL
