MODEL 1
REMARK minimizedAffinity -3.70666552
REMARK minimizedRMSD -1
REMARK  1 active torsions:
REMARK  status: ('A' for Active; 'I' for Inactive)
REMARK    1  A    between atoms: C1_2  and  C2_3 
ROOT
ATOM      1  C2  UNL d   1       4.051   3.162  -5.483  0.00  0.00    -0.077 A 
ATOM      2  C3  UNL d   1       2.793   3.768  -5.356  0.00  0.00     0.002 A 
ATOM      3  C4  UNL d   1       2.682   5.158  -5.292  0.00  0.00     0.002 A 
ATOM      4  C5  UNL d   1       3.823   5.954  -5.359  0.00  0.00    -0.004 A 
ATOM      5  C6  UNL d   1       5.079   5.362  -5.484  0.00  0.00     0.002 A 
ATOM      6  C7  UNL d   1       5.193   3.972  -5.547  0.00  0.00     0.002 A 
ENDROOT
BRANCH   1   7
ATOM      7  C1  UNL d   1       4.170   1.665  -5.602  0.00  0.00     0.055 C 
ATOM      8  C   UNL d   1       5.165   1.108  -4.595  0.00  0.00     0.019 C 
ENDBRANCH   1   7
TORSDOF 1
ENDMDL
