MODEL 1
REMARK minimizedAffinity 9.42761517
REMARK minimizedRMSD -1
REMARK  0 active torsions:
REMARK  status: ('A' for Active; 'I' for Inactive)
ROOT
ATOM      1  C2' OXE d   1       1.680  -0.307  -4.908  0.00  0.00     0.078 C 
ATOM      2  C1' OXE d   1       3.077  -1.052  -2.590  0.00  0.00     0.078 C 
ATOM      3  C1  OXE d   1       3.879  -0.544  -3.762  0.00  0.00    -0.078 A 
ATOM      4  C2  OXE d   1       3.191  -0.226  -4.908  0.00  0.00    -0.078 A 
ATOM      5  C3  OXE d   1       3.876   0.299  -6.000  0.00  0.00     0.003 A 
ATOM      6  C4  OXE d   1       5.275   0.362  -5.996  0.00  0.00    -0.002 A 
ATOM      7  C5  OXE d   1       5.998   0.005  -4.853  0.00  0.00    -0.002 A 
ATOM      8  C6  OXE d   1       5.314  -0.409  -3.715  0.00  0.00     0.003 A 
ENDROOT
TORSDOF 0
ENDMDL
