MODEL 1
REMARK minimizedAffinity 5.54374647
REMARK minimizedRMSD -1
REMARK  0 active torsions:
REMARK  status: ('A' for Active; 'I' for Inactive)
ROOT
ATOM      1  C2' OXE d   1      -1.157  -0.902  -5.368  0.00  0.00     0.078 C 
ATOM      2  C1' OXE d   1      -0.002  -2.435  -3.319  0.00  0.00     0.078 C 
ATOM      3  C1  OXE d   1       0.917  -1.604  -4.180  0.00  0.00    -0.078 A 
ATOM      4  C2  OXE d   1       0.348  -0.894  -5.210  0.00  0.00    -0.078 A 
ATOM      5  C3  OXE d   1       1.143  -0.069  -6.000  0.00  0.00     0.003 A 
ATOM      6  C4  OXE d   1       2.536  -0.074  -5.853  0.00  0.00    -0.002 A 
ATOM      7  C5  OXE d   1       3.139  -0.821  -4.836  0.00  0.00    -0.002 A 
ATOM      8  C6  OXE d   1       2.342  -1.557  -3.966  0.00  0.00     0.003 A 
ENDROOT
TORSDOF 0
ENDMDL
