MODEL 1
REMARK minimizedAffinity 0.770707786
REMARK minimizedRMSD -1
REMARK  0 active torsions:
REMARK  status: ('A' for Active; 'I' for Inactive)
ROOT
ATOM      1  C2' OXE d   1       0.657   1.229   2.549  0.00  0.00     0.078 C 
ATOM      2  C1' OXE d   1       1.971  -1.115   3.359  0.00  0.00     0.078 C 
ATOM      3  C1  OXE d   1       0.522  -1.225   2.956  0.00  0.00    -0.078 A 
ATOM      4  C2  OXE d   1      -0.126  -0.065   2.606  0.00  0.00    -0.078 A 
ATOM      5  C3  OXE d   1      -1.448  -0.118   2.173  0.00  0.00     0.003 A 
ATOM      6  C4  OXE d   1      -2.168  -1.317   2.238  0.00  0.00    -0.002 A 
ATOM      7  C5  OXE d   1      -1.538  -2.503   2.629  0.00  0.00    -0.002 A 
ATOM      8  C6  OXE d   1      -0.185  -2.482   2.950  0.00  0.00     0.003 A 
ENDROOT
TORSDOF 0
ENDMDL
