MODEL 1
REMARK minimizedAffinity 2.89066577
REMARK minimizedRMSD -1
REMARK  0 active torsions:
REMARK  status: ('A' for Active; 'I' for Inactive)
ROOT
ATOM      1  C2' OXE d   1      -0.542  -0.996  -4.851  0.00  0.00     0.078 C 
ATOM      2  C1' OXE d   1       0.875  -2.183  -2.738  0.00  0.00     0.078 C 
ATOM      3  C1  OXE d   1       1.671  -1.541  -3.846  0.00  0.00    -0.078 A 
ATOM      4  C2  OXE d   1       0.971  -1.004  -4.899  0.00  0.00    -0.078 A 
ATOM      5  C3  OXE d   1       1.655  -0.352  -5.921  0.00  0.00     0.003 A 
ATOM      6  C4  OXE d   1       3.054  -0.372  -5.963  0.00  0.00    -0.002 A 
ATOM      7  C5  OXE d   1       3.787  -0.949  -4.920  0.00  0.00    -0.002 A 
ATOM      8  C6  OXE d   1       3.113  -1.499  -3.836  0.00  0.00     0.003 A 
ENDROOT
TORSDOF 0
ENDMDL
