MODEL 1
REMARK minimizedAffinity 12.2628756
REMARK minimizedRMSD -1
REMARK  0 active torsions:
REMARK  status: ('A' for Active; 'I' for Inactive)
ROOT
ATOM      1  C2' OXE d   1       1.532  -1.888   1.817  0.00  0.00     0.078 C 
ATOM      2  C1' OXE d   1      -0.801  -1.302   3.263  0.00  0.00     0.078 C 
ATOM      3  C1  OXE d   1       0.524  -1.102   3.955  0.00  0.00    -0.078 A 
ATOM      4  C2  OXE d   1       1.659  -1.435   3.255  0.00  0.00    -0.078 A 
ATOM      5  C3  OXE d   1       2.910  -1.218   3.827  0.00  0.00     0.003 A 
ATOM      6  C4  OXE d   1       3.018  -0.808   5.161  0.00  0.00    -0.002 A 
ATOM      7  C5  OXE d   1       1.873  -0.501   5.904  0.00  0.00    -0.002 A 
ATOM      8  C6  OXE d   1       0.623  -0.601   5.304  0.00  0.00     0.003 A 
ENDROOT
TORSDOF 0
ENDMDL
