MODEL 1
REMARK minimizedAffinity 4.47162294
REMARK minimizedRMSD -1
REMARK  0 active torsions:
REMARK  status: ('A' for Active; 'I' for Inactive)
ROOT
ATOM      1  C2' OXE d   1       1.251  -0.536  -4.945  0.00  0.00     0.078 C 
ATOM      2  C1' OXE d   1       2.693  -1.412  -2.701  0.00  0.00     0.078 C 
ATOM      3  C1  OXE d   1       3.467  -0.786  -3.835  0.00  0.00    -0.078 A 
ATOM      4  C2  OXE d   1       2.758  -0.403  -4.948  0.00  0.00    -0.078 A 
ATOM      5  C3  OXE d   1       3.416   0.229  -6.000  0.00  0.00     0.003 A 
ATOM      6  C4  OXE d   1       4.811   0.339  -5.999  0.00  0.00    -0.002 A 
ATOM      7  C5  OXE d   1       5.556  -0.081  -4.892  0.00  0.00    -0.002 A 
ATOM      8  C6  OXE d   1       4.897  -0.606  -3.787  0.00  0.00     0.003 A 
ENDROOT
TORSDOF 0
ENDMDL
