MODEL 1
REMARK minimizedAffinity 4.00158834
REMARK minimizedRMSD -1
REMARK  1 active torsions:
REMARK  status: ('A' for Active; 'I' for Inactive)
REMARK    1  A    between atoms: N_2  and  C1_3 
ROOT
ATOM      1  C1  UNL d   1      -0.205   3.029   1.197  0.00  0.00     0.143 A 
ATOM      2  C2  UNL d   1      -0.883   2.533   0.078  0.00  0.00    -0.057 A 
ATOM      3  C3  UNL d   1      -0.518   2.915  -1.219  0.00  0.00     0.033 A 
ATOM      4  C4  UNL d   1       0.516   3.824  -1.418  0.00  0.00    -0.042 A 
ATOM      5  C5  UNL d   1       1.187   4.348  -0.319  0.00  0.00     0.033 A 
ATOM      6  C6  UNL d   1       0.822   3.958   0.973  0.00  0.00    -0.057 A 
ENDROOT
BRANCH   1   7
ATOM      7  N   UNL d   1      -0.584   2.764   2.516  0.00  0.00    -0.732 N 
ATOM      8  C   UNL d   1       0.233   1.923   3.363  0.00  0.00     0.284 C 
ATOM      9  H3  UNL d   1      -0.961   3.585   2.984  0.00  0.00     0.395 HD
ENDBRANCH   1   7
TORSDOF 1
ENDMDL
