MODEL 1
REMARK minimizedAffinity 7.43033028
REMARK minimizedRMSD -1
REMARK  1 active torsions:
REMARK  status: ('A' for Active; 'I' for Inactive)
REMARK    1  A    between atoms: N_2  and  C1_3 
ROOT
ATOM      1  C1  UNL d   1       0.184   3.187   0.546  0.00  0.00     0.143 A 
ATOM      2  C2  UNL d   1       0.845   4.331   0.085  0.00  0.00    -0.057 A 
ATOM      3  C3  UNL d   1       0.691   4.777  -1.233  0.00  0.00     0.033 A 
ATOM      4  C4  UNL d   1      -0.107   4.068  -2.125  0.00  0.00    -0.042 A 
ATOM      5  C5  UNL d   1      -0.753   2.914  -1.696  0.00  0.00     0.033 A 
ATOM      6  C6  UNL d   1      -0.600   2.477  -0.377  0.00  0.00    -0.057 A 
ENDROOT
BRANCH   1   7
ATOM      7  N   UNL d   1       0.375   2.637   1.816  0.00  0.00    -0.732 N 
ATOM      8  C   UNL d   1      -0.756   2.207   2.610  0.00  0.00     0.284 C 
ATOM      9  H3  UNL d   1       1.171   2.004   1.850  0.00  0.00     0.395 HD
ENDBRANCH   1   7
TORSDOF 1
ENDMDL
