MODEL 1
REMARK minimizedAffinity 10.2865534
REMARK minimizedRMSD -1
REMARK  1 active torsions:
REMARK  status: ('A' for Active; 'I' for Inactive)
REMARK    1  A    between atoms: N_2  and  C1_3 
ROOT
ATOM      1  C1  UNL d   1      -5.997   1.651  -3.232  0.00  0.00     0.143 A 
ATOM      2  C2  UNL d   1      -6.000   0.973  -2.009  0.00  0.00    -0.057 A 
ATOM      3  C3  UNL d   1      -5.932   1.666  -0.794  0.00  0.00     0.033 A 
ATOM      4  C4  UNL d   1      -5.832   3.053  -0.782  0.00  0.00    -0.042 A 
ATOM      5  C5  UNL d   1      -5.802   3.747  -1.987  0.00  0.00     0.033 A 
ATOM      6  C6  UNL d   1      -5.877   3.050  -3.197  0.00  0.00    -0.057 A 
ENDROOT
BRANCH   1   7
ATOM      7  N   UNL d   1      -5.963   1.014  -4.475  0.00  0.00    -0.732 N 
ATOM      8  C   UNL d   1      -5.997  -0.430  -4.564  0.00  0.00     0.284 C 
ATOM      9  H3  UNL d   1      -6.535   1.487  -5.170  0.00  0.00     0.395 HD
ENDBRANCH   1   7
TORSDOF 1
ENDMDL
