MODEL 1
REMARK minimizedAffinity 17.7198849
REMARK minimizedRMSD -1
REMARK  1 active torsions:
REMARK  status: ('A' for Active; 'I' for Inactive)
REMARK    1  A    between atoms: N_2  and  C1_3 
ROOT
ATOM      1  C1  UNL d   1       4.620  -4.907  -3.178  0.00  0.00     0.143 A 
ATOM      2  C2  UNL d   1       4.165  -5.992  -2.421  0.00  0.00    -0.057 A 
ATOM      3  C3  UNL d   1       4.274  -6.000  -1.025  0.00  0.00     0.033 A 
ATOM      4  C4  UNL d   1       4.869  -4.932  -0.361  0.00  0.00    -0.042 A 
ATOM      5  C5  UNL d   1       5.352  -3.854  -1.095  0.00  0.00     0.033 A 
ATOM      6  C6  UNL d   1       5.234  -3.849  -2.488  0.00  0.00    -0.057 A 
ENDROOT
BRANCH   1   7
ATOM      7  N   UNL d   1       4.629  -4.882  -4.574  0.00  0.00    -0.732 N 
ATOM      8  C   UNL d   1       4.112  -6.000  -5.335  0.00  0.00     0.284 C 
ATOM      9  H3  UNL d   1       4.374  -3.971  -4.948  0.00  0.00     0.395 HD
ENDBRANCH   1   7
TORSDOF 1
ENDMDL
