MODEL 1
REMARK minimizedAffinity 7.41934586
REMARK minimizedRMSD -1
REMARK  1 active torsions:
REMARK  status: ('A' for Active; 'I' for Inactive)
REMARK    1  A    between atoms: N_2  and  C1_3 
ROOT
ATOM      1  C1  UNL d   1      -4.654  -0.012   4.072  0.00  0.00     0.143 A 
ATOM      2  C2  UNL d   1      -5.619   0.284   5.041  0.00  0.00    -0.057 A 
ATOM      3  C3  UNL d   1      -6.000  -0.663   5.999  0.00  0.00     0.033 A 
ATOM      4  C4  UNL d   1      -5.441  -1.937   5.987  0.00  0.00    -0.042 A 
ATOM      5  C5  UNL d   1      -4.499  -2.261   5.018  0.00  0.00     0.033 A 
ATOM      6  C6  UNL d   1      -4.117  -1.309   4.068  0.00  0.00    -0.057 A 
ENDROOT
BRANCH   1   7
ATOM      7  N   UNL d   1      -4.304   0.853   3.032  0.00  0.00    -0.732 N 
ATOM      8  C   UNL d   1      -3.537   0.375   1.902  0.00  0.00     0.284 C 
ATOM      9  H3  UNL d   1      -5.061   1.487   2.784  0.00  0.00     0.395 HD
ENDBRANCH   1   7
TORSDOF 1
ENDMDL
