MODEL 1
REMARK minimizedAffinity 5.22049427
REMARK minimizedRMSD -1
REMARK  1 active torsions:
REMARK  status: ('A' for Active; 'I' for Inactive)
REMARK    1  A    between atoms: N_2  and  C1_3 
ROOT
ATOM      1  C1  UNL d   1      -5.563   3.275  -4.099  0.00  0.00     0.143 A 
ATOM      2  C2  UNL d   1      -6.000   3.033  -2.793  0.00  0.00    -0.057 A 
ATOM      3  C3  UNL d   1      -5.451   3.722  -1.704  0.00  0.00     0.033 A 
ATOM      4  C4  UNL d   1      -4.432   4.648  -1.902  0.00  0.00    -0.042 A 
ATOM      5  C5  UNL d   1      -3.965   4.887  -3.189  0.00  0.00     0.033 A 
ATOM      6  C6  UNL d   1      -4.521   4.200  -4.273  0.00  0.00    -0.057 A 
ENDROOT
BRANCH   1   7
ATOM      7  N   UNL d   1      -6.000   2.552  -5.212  0.00  0.00    -0.732 N 
ATOM      8  C   UNL d   1      -5.934   1.106  -5.223  0.00  0.00     0.284 C 
ATOM      9  H3  UNL d   1      -6.854   2.932  -5.612  0.00  0.00     0.395 HD
ENDBRANCH   1   7
TORSDOF 1
ENDMDL
