MODEL 1
REMARK minimizedAffinity -2.11569667
REMARK minimizedRMSD -1
REMARK  0 active torsions:
REMARK  status: ('A' for Active; 'I' for Inactive)
ROOT
ATOM      1  C   UNL d   1      -0.087  -2.549   1.251  0.00  0.00     0.023 A 
ATOM      2  C1  UNL d   1      -0.769  -1.616   0.469  0.00  0.00     0.003 A 
ATOM      3  C2  UNL d   1      -0.066  -0.593  -0.171  0.00  0.00     0.048 A 
ATOM      4  C3  UNL d   1       1.319  -0.510  -0.027  0.00  0.00     0.023 A 
ATOM      5  C4  UNL d   1       2.005  -1.442   0.753  0.00  0.00     0.048 A 
ATOM      6  C5  UNL d   1       1.298  -2.462   1.392  0.00  0.00     0.003 A 
ATOM      7  I   UNL d   1       2.367   1.010  -0.980  0.00  0.00    -0.146 I 
ENDROOT
TORSDOF 0
ENDMDL
