MODEL 1
REMARK minimizedAffinity -1.79898906
REMARK minimizedRMSD -1
REMARK  0 active torsions:
REMARK  status: ('A' for Active; 'I' for Inactive)
ROOT
ATOM      1  C   UNL d   1      -0.574   0.683   0.562  0.00  0.00     0.023 A 
ATOM      2  C1  UNL d   1      -0.259  -0.154  -0.509  0.00  0.00     0.003 A 
ATOM      3  C2  UNL d   1      -0.762   0.120  -1.782  0.00  0.00     0.048 A 
ATOM      4  C3  UNL d   1      -1.579   1.233  -1.978  0.00  0.00     0.023 A 
ATOM      5  C4  UNL d   1      -1.896   2.074  -0.910  0.00  0.00     0.048 A 
ATOM      6  C5  UNL d   1      -1.392   1.795   0.362  0.00  0.00     0.003 A 
ATOM      7  I   UNL d   1      -2.329   1.643  -3.873  0.00  0.00    -0.146 I 
ENDROOT
TORSDOF 0
ENDMDL
