MODEL 1
REMARK minimizedAffinity -0.301924765
REMARK minimizedRMSD -1
REMARK  0 active torsions:
REMARK  status: ('A' for Active; 'I' for Inactive)
ROOT
ATOM      1  C   UNL d   1      -2.719   2.038  -2.769  0.00  0.00     0.023 A 
ATOM      2  C1  UNL d   1      -1.993   2.804  -1.857  0.00  0.00     0.003 A 
ATOM      3  C2  UNL d   1      -1.219   3.876  -2.304  0.00  0.00     0.048 A 
ATOM      4  C3  UNL d   1      -1.175   4.177  -3.665  0.00  0.00     0.023 A 
ATOM      5  C4  UNL d   1      -1.900   3.414  -4.582  0.00  0.00     0.048 A 
ATOM      6  C5  UNL d   1      -2.673   2.342  -4.130  0.00  0.00     0.003 A 
ATOM      7  I   UNL d   1      -0.023   5.772  -4.333  0.00  0.00    -0.146 I 
ENDROOT
TORSDOF 0
ENDMDL
