MODEL 1
REMARK minimizedAffinity -3.67128658
REMARK minimizedRMSD -1
REMARK  0 active torsions:
REMARK  status: ('A' for Active; 'I' for Inactive)
ROOT
ATOM      1  C   UNL d   1      -0.361  -1.910   1.850  0.00  0.00     0.023 A 
ATOM      2  C1  UNL d   1       0.206  -2.039   0.582  0.00  0.00     0.003 A 
ATOM      3  C2  UNL d   1       0.114  -0.989  -0.334  0.00  0.00     0.048 A 
ATOM      4  C3  UNL d   1      -0.545   0.186   0.024  0.00  0.00     0.023 A 
ATOM      5  C4  UNL d   1      -1.113   0.320   1.292  0.00  0.00     0.048 A 
ATOM      6  C5  UNL d   1      -1.019  -0.732   2.205  0.00  0.00     0.003 A 
ATOM      7  I   UNL d   1      -0.682   1.749  -1.339  0.00  0.00    -0.146 I 
ENDROOT
TORSDOF 0
ENDMDL
