MODEL 1
REMARK minimizedAffinity -4.58913851
REMARK minimizedRMSD -1
REMARK  0 active torsions:
REMARK  status: ('A' for Active; 'I' for Inactive)
ROOT
ATOM      1  C   UNL d   1       1.512  -2.120   1.403  0.00  0.00     0.023 A 
ATOM      2  C1  UNL d   1       2.161  -1.165   0.621  0.00  0.00     0.003 A 
ATOM      3  C2  UNL d   1       1.423  -0.174  -0.029  0.00  0.00     0.048 A 
ATOM      4  C3  UNL d   1       0.035  -0.143   0.109  0.00  0.00     0.023 A 
ATOM      5  C4  UNL d   1      -0.618  -1.096   0.891  0.00  0.00     0.048 A 
ATOM      6  C5  UNL d   1       0.124  -2.085   1.539  0.00  0.00     0.003 A 
ATOM      7  I   UNL d   1      -1.066   1.332  -0.857  0.00  0.00    -0.146 I 
ENDROOT
TORSDOF 0
ENDMDL
