MODEL 1
REMARK minimizedAffinity -4.84909534
REMARK minimizedRMSD -1
REMARK  0 active torsions:
REMARK  status: ('A' for Active; 'I' for Inactive)
ROOT
ATOM      1  C   UNL d   1       1.622  -1.666   0.979  0.00  0.00     0.023 A 
ATOM      2  C1  UNL d   1       0.274  -1.524   1.310  0.00  0.00     0.003 A 
ATOM      3  C2  UNL d   1      -0.506  -0.561   0.667  0.00  0.00     0.048 A 
ATOM      4  C3  UNL d   1       0.067   0.256  -0.307  0.00  0.00     0.023 A 
ATOM      5  C4  UNL d   1       1.415   0.117  -0.642  0.00  0.00     0.048 A 
ATOM      6  C5  UNL d   1       2.192  -0.847   0.004  0.00  0.00     0.003 A 
ATOM      7  I   UNL d   1      -1.092   1.690  -1.266  0.00  0.00    -0.146 I 
ENDROOT
TORSDOF 0
ENDMDL
