MODEL 1
REMARK minimizedAffinity 1.31742537
REMARK minimizedRMSD -1
REMARK  0 active torsions:
REMARK  status: ('A' for Active; 'I' for Inactive)
ROOT
ATOM      1  C   UNL d   1      -0.460  -2.205   1.268  0.00  0.00     0.023 A 
ATOM      2  C1  UNL d   1      -0.977  -0.974   0.866  0.00  0.00     0.003 A 
ATOM      3  C2  UNL d   1      -0.117   0.040   0.437  0.00  0.00     0.048 A 
ATOM      4  C3  UNL d   1       1.259  -0.186   0.411  0.00  0.00     0.023 A 
ATOM      5  C4  UNL d   1       1.781  -1.418   0.811  0.00  0.00     0.048 A 
ATOM      6  C5  UNL d   1       0.917  -2.427   1.240  0.00  0.00     0.003 A 
ATOM      7  I   UNL d   1       2.541   1.320  -0.227  0.00  0.00    -0.146 I 
ENDROOT
TORSDOF 0
ENDMDL
