MODEL 1
REMARK minimizedAffinity -2.93851113
REMARK minimizedRMSD -1
REMARK  0 active torsions:
REMARK  status: ('A' for Active; 'I' for Inactive)
ROOT
ATOM      1  C   UNL d   1       0.771   2.344  -0.608  0.00  0.00     0.023 A 
ATOM      2  C1  UNL d   1      -0.520   1.878  -0.359  0.00  0.00     0.003 A 
ATOM      3  C2  UNL d   1      -0.726   0.546   0.004  0.00  0.00     0.048 A 
ATOM      4  C3  UNL d   1       0.365  -0.316   0.117  0.00  0.00     0.023 A 
ATOM      5  C4  UNL d   1       1.659   0.145  -0.130  0.00  0.00     0.048 A 
ATOM      6  C5  UNL d   1       1.859   1.478  -0.493  0.00  0.00     0.003 A 
ATOM      7  I   UNL d   1       0.062  -2.300   0.658  0.00  0.00    -0.146 I 
ENDROOT
TORSDOF 0
ENDMDL
