MODEL 1
REMARK minimizedAffinity -3.03504515
REMARK minimizedRMSD -1
REMARK  0 active torsions:
REMARK  status: ('A' for Active; 'I' for Inactive)
ROOT
ATOM      1  C   UNL d   1      -3.238   1.012  -2.338  0.00  0.00     0.023 A 
ATOM      2  C1  UNL d   1      -1.897   1.085  -1.962  0.00  0.00     0.003 A 
ATOM      3  C2  UNL d   1      -1.082   2.099  -2.468  0.00  0.00     0.048 A 
ATOM      4  C3  UNL d   1      -1.615   3.038  -3.350  0.00  0.00     0.023 A 
ATOM      5  C4  UNL d   1      -2.957   2.970  -3.729  0.00  0.00     0.048 A 
ATOM      6  C5  UNL d   1      -3.767   1.954  -3.221  0.00  0.00     0.003 A 
ATOM      7  I   UNL d   1      -0.404   4.549  -4.106  0.00  0.00    -0.146 I 
ENDROOT
TORSDOF 0
ENDMDL
