MODEL 1
REMARK minimizedAffinity 0.389223427
REMARK minimizedRMSD -1
REMARK  0 active torsions:
REMARK  status: ('A' for Active; 'I' for Inactive)
ROOT
ATOM      1  C   UNL d   1       1.643  -2.334   0.994  0.00  0.00     0.023 A 
ATOM      2  C1  UNL d   1       2.446  -1.300   0.513  0.00  0.00     0.003 A 
ATOM      3  C2  UNL d   1       1.861  -0.146  -0.013  0.00  0.00     0.048 A 
ATOM      4  C3  UNL d   1       0.471  -0.033  -0.054  0.00  0.00     0.023 A 
ATOM      5  C4  UNL d   1      -0.336  -1.065   0.427  0.00  0.00     0.048 A 
ATOM      6  C5  UNL d   1       0.254  -2.217   0.951  0.00  0.00     0.003 A 
ATOM      7  I   UNL d   1      -0.403   1.683  -0.836  0.00  0.00    -0.146 I 
ENDROOT
TORSDOF 0
ENDMDL
