MODEL 1
REMARK minimizedAffinity -3.80268908
REMARK minimizedRMSD -1
REMARK  0 active torsions:
REMARK  status: ('A' for Active; 'I' for Inactive)
ROOT
ATOM      1  C   UNL d   1       1.719  -1.747   1.161  0.00  0.00     0.023 A 
ATOM      2  C1  UNL d   1       0.343  -1.973   1.139  0.00  0.00     0.003 A 
ATOM      3  C2  UNL d   1      -0.493  -1.130   0.404  0.00  0.00     0.048 A 
ATOM      4  C3  UNL d   1       0.055  -0.063  -0.308  0.00  0.00     0.023 A 
ATOM      5  C4  UNL d   1       1.431   0.167  -0.289  0.00  0.00     0.048 A 
ATOM      6  C5  UNL d   1       2.263  -0.679   0.448  0.00  0.00     0.003 A 
ATOM      7  I   UNL d   1      -1.187   1.194  -1.403  0.00  0.00    -0.146 I 
ENDROOT
TORSDOF 0
ENDMDL
