MODEL 1
REMARK minimizedAffinity -2.58861995
REMARK minimizedRMSD -1
REMARK  0 active torsions:
REMARK  status: ('A' for Active; 'I' for Inactive)
ROOT
ATOM      1  C   UNL d   1      -0.657   1.233  -0.040  0.00  0.00     0.023 A 
ATOM      2  C1  UNL d   1       0.649   0.866  -0.365  0.00  0.00     0.003 A 
ATOM      3  C2  UNL d   1       1.142  -0.382   0.023  0.00  0.00     0.048 A 
ATOM      4  C3  UNL d   1       0.324  -1.258   0.734  0.00  0.00     0.023 A 
ATOM      5  C4  UNL d   1      -0.984  -0.895   1.061  0.00  0.00     0.048 A 
ATOM      6  C5  UNL d   1      -1.472   0.353   0.672  0.00  0.00     0.003 A 
ATOM      7  I   UNL d   1       1.055  -3.116   1.312  0.00  0.00    -0.146 I 
ENDROOT
TORSDOF 0
ENDMDL
