MODEL 1
REMARK minimizedAffinity -0.542175472
REMARK minimizedRMSD -1
REMARK  0 active torsions:
REMARK  status: ('A' for Active; 'I' for Inactive)
ROOT
ATOM      1  C   UNL d   1       0.394  -0.509   1.330  0.00  0.00     0.023 A 
ATOM      2  C1  UNL d   1       1.210  -0.028   0.307  0.00  0.00     0.003 A 
ATOM      3  C2  UNL d   1       0.641   0.592  -0.808  0.00  0.00     0.048 A 
ATOM      4  C3  UNL d   1      -0.744   0.728  -0.892  0.00  0.00     0.023 A 
ATOM      5  C4  UNL d   1      -1.564   0.248   0.130  0.00  0.00     0.048 A 
ATOM      6  C5  UNL d   1      -0.992  -0.371   1.242  0.00  0.00     0.003 A 
ATOM      7  I   UNL d   1      -1.593   1.650  -2.550  0.00  0.00    -0.146 I 
ENDROOT
TORSDOF 0
ENDMDL
