MODEL 1
REMARK minimizedAffinity -2.00172329
REMARK minimizedRMSD -1
REMARK  0 active torsions:
REMARK  status: ('A' for Active; 'I' for Inactive)
ROOT
ATOM      1  C   UNL d   1       1.913  -2.656   1.059  0.00  0.00     0.023 A 
ATOM      2  C1  UNL d   1       0.583  -2.952   0.757  0.00  0.00     0.003 A 
ATOM      3  C2  UNL d   1      -0.207  -2.015   0.087  0.00  0.00     0.048 A 
ATOM      4  C3  UNL d   1       0.339  -0.786  -0.279  0.00  0.00     0.023 A 
ATOM      5  C4  UNL d   1       1.669  -0.486   0.020  0.00  0.00     0.048 A 
ATOM      6  C5  UNL d   1       2.455  -1.425   0.690  0.00  0.00     0.003 A 
ATOM      7  I   UNL d   1      -0.835   0.610  -1.277  0.00  0.00    -0.146 I 
ENDROOT
TORSDOF 0
ENDMDL
