MODEL 1
REMARK minimizedAffinity -3.62637138
REMARK minimizedRMSD -1
REMARK  0 active torsions:
REMARK  status: ('A' for Active; 'I' for Inactive)
ROOT
ATOM      1  C   UNL d   1       1.914  -2.217   0.725  0.00  0.00     0.023 A 
ATOM      2  C1  UNL d   1       2.460  -1.152   0.009  0.00  0.00     0.003 A 
ATOM      3  C2  UNL d   1       1.644  -0.100  -0.411  0.00  0.00     0.048 A 
ATOM      4  C3  UNL d   1       0.283  -0.118  -0.110  0.00  0.00     0.023 A 
ATOM      5  C4  UNL d   1      -0.268  -1.181   0.607  0.00  0.00     0.048 A 
ATOM      6  C5  UNL d   1       0.552  -2.232   1.024  0.00  0.00     0.003 A 
ATOM      7  I   UNL d   1      -0.934   1.448  -0.734  0.00  0.00    -0.146 I 
ENDROOT
TORSDOF 0
ENDMDL
