MODEL 1
REMARK minimizedAffinity -4.06841278
REMARK minimizedRMSD -1
REMARK  0 active torsions:
REMARK  status: ('A' for Active; 'I' for Inactive)
ROOT
ATOM      1  C   UNL d   1      -0.635   1.387  -0.016  0.00  0.00     0.023 A 
ATOM      2  C1  UNL d   1       0.473   0.982  -0.760  0.00  0.00     0.003 A 
ATOM      3  C2  UNL d   1       1.142  -0.199  -0.431  0.00  0.00     0.048 A 
ATOM      4  C3  UNL d   1       0.697  -0.970   0.642  0.00  0.00     0.023 A 
ATOM      5  C4  UNL d   1      -0.412  -0.569   1.388  0.00  0.00     0.048 A 
ATOM      6  C5  UNL d   1      -1.078   0.612   1.056  0.00  0.00     0.003 A 
ATOM      7  I   UNL d   1       1.691  -2.728   1.133  0.00  0.00    -0.146 I 
ENDROOT
TORSDOF 0
ENDMDL
