MODEL 1
REMARK minimizedAffinity 0.275100768
REMARK minimizedRMSD -1
REMARK  0 active torsions:
REMARK  status: ('A' for Active; 'I' for Inactive)
ROOT
ATOM      1  C   UNL d   1       1.656  -2.212   2.677  0.00  0.00     0.020 A 
ATOM      2  C1  UNL d   1       1.015  -1.616   3.762  0.00  0.00     0.020 A 
ATOM      3  C2  UNL d   1       1.154  -0.245   3.988  0.00  0.00     0.034 A 
ATOM      4  C3  UNL d   1       1.937   0.534   3.129  0.00  0.00     0.017 A 
ATOM      5  C4  UNL d   1       2.581  -0.065   2.040  0.00  0.00     0.017 A 
ATOM      6  C5  UNL d   1       2.437  -1.439   1.818  0.00  0.00     0.034 A 
ATOM      7 Cl   UNL d   1       3.563   0.831   0.936  0.00  0.00    -0.070 Cl
ATOM      8 Cl1  UNL d   1       2.065   2.223   3.468  0.00  0.00    -0.070 Cl
ENDROOT
TORSDOF 0
ENDMDL
