MODEL 1
REMARK minimizedAffinity 4.80630398
REMARK minimizedRMSD -1
REMARK  0 active torsions:
REMARK  status: ('A' for Active; 'I' for Inactive)
ROOT
ATOM      1  C   UNL d   1       5.394  -5.963  -5.664  0.00  0.00     0.020 A 
ATOM      2  C1  UNL d   1       5.957  -5.962  -4.388  0.00  0.00     0.020 A 
ATOM      3  C2  UNL d   1       5.132  -5.973  -3.261  0.00  0.00     0.034 A 
ATOM      4  C3  UNL d   1       3.740  -5.985  -3.407  0.00  0.00     0.017 A 
ATOM      5  C4  UNL d   1       3.176  -5.985  -4.688  0.00  0.00     0.017 A 
ATOM      6  C5  UNL d   1       4.006  -5.974  -5.813  0.00  0.00     0.034 A 
ATOM      7 Cl   UNL d   1       1.468  -5.999  -4.948  0.00  0.00    -0.070 Cl
ATOM      8 Cl1  UNL d   1       2.782  -5.998  -1.970  0.00  0.00    -0.070 Cl
ENDROOT
TORSDOF 0
ENDMDL
