MODEL 1
REMARK minimizedAffinity -0.555354774
REMARK minimizedRMSD -1
REMARK  0 active torsions:
REMARK  status: ('A' for Active; 'I' for Inactive)
ROOT
ATOM      1  C   UNL d   1       3.490  -5.994  -1.251  0.00  0.00     0.020 A 
ATOM      2  C1  UNL d   1       4.883  -5.994  -1.200  0.00  0.00     0.020 A 
ATOM      3  C2  UNL d   1       5.625  -5.996  -2.384  0.00  0.00     0.034 A 
ATOM      4  C3  UNL d   1       4.974  -5.997  -3.623  0.00  0.00     0.017 A 
ATOM      5  C4  UNL d   1       3.575  -5.997  -3.673  0.00  0.00     0.017 A 
ATOM      6  C5  UNL d   1       2.837  -5.995  -2.485  0.00  0.00     0.034 A 
ATOM      7 Cl   UNL d   1       2.701  -5.999  -5.164  0.00  0.00    -0.070 Cl
ATOM      8 Cl1  UNL d   1       5.954  -5.999  -5.045  0.00  0.00    -0.070 Cl
ENDROOT
TORSDOF 0
ENDMDL
