MODEL 1
REMARK minimizedAffinity 4.27793837
REMARK minimizedRMSD -1
REMARK  0 active torsions:
REMARK  status: ('A' for Active; 'I' for Inactive)
ROOT
ATOM      1  C   UNL d   1       4.597  -5.996  -1.983  0.00  0.00     0.020 A 
ATOM      2  C1  UNL d   1       3.292  -5.997  -1.491  0.00  0.00     0.020 A 
ATOM      3  C2  UNL d   1       2.212  -5.998  -2.376  0.00  0.00     0.034 A 
ATOM      4  C3  UNL d   1       2.435  -5.998  -3.758  0.00  0.00     0.017 A 
ATOM      5  C4  UNL d   1       3.745  -5.997  -4.251  0.00  0.00     0.017 A 
ATOM      6  C5  UNL d   1       4.823  -5.996  -3.360  0.00  0.00     0.034 A 
ATOM      7 Cl   UNL d   1       4.099  -5.997  -5.942  0.00  0.00    -0.070 Cl
ATOM      8 Cl1  UNL d   1       1.053  -6.000  -4.794  0.00  0.00    -0.070 Cl
ENDROOT
TORSDOF 0
ENDMDL
