MODEL 1
REMARK minimizedAffinity -2.48696685
REMARK minimizedRMSD -1
REMARK  0 active torsions:
REMARK  status: ('A' for Active; 'I' for Inactive)
ROOT
ATOM      1  C   UNL d   1       4.729  -5.998  -2.096  0.00  0.00     0.020 A 
ATOM      2  C1  UNL d   1       3.335  -5.998  -2.061  0.00  0.00     0.020 A 
ATOM      3  C2  UNL d   1       2.607  -5.965  -3.252  0.00  0.00     0.034 A 
ATOM      4  C3  UNL d   1       3.272  -5.931  -4.483  0.00  0.00     0.017 A 
ATOM      5  C4  UNL d   1       4.671  -5.931  -4.517  0.00  0.00     0.017 A 
ATOM      6  C5  UNL d   1       5.395  -5.964  -3.321  0.00  0.00     0.034 A 
ATOM      7 Cl   UNL d   1       5.562  -5.890  -5.997  0.00  0.00    -0.070 Cl
ATOM      8 Cl1  UNL d   1       2.308  -5.892  -5.917  0.00  0.00    -0.070 Cl
ENDROOT
TORSDOF 0
ENDMDL
