MODEL 1
REMARK minimizedAffinity -0.453319252
REMARK minimizedRMSD -1
REMARK  0 active torsions:
REMARK  status: ('A' for Active; 'I' for Inactive)
ROOT
ATOM      1  C   UNL d   1       3.168  -5.993  -5.610  0.00  0.00     0.020 A 
ATOM      2  C1  UNL d   1       4.445  -5.993  -5.048  0.00  0.00     0.020 A 
ATOM      3  C2  UNL d   1       4.597  -5.995  -3.660  0.00  0.00     0.034 A 
ATOM      4  C3  UNL d   1       3.472  -5.997  -2.829  0.00  0.00     0.017 A 
ATOM      5  C4  UNL d   1       2.191  -5.997  -3.393  0.00  0.00     0.017 A 
ATOM      6  C5  UNL d   1       2.044  -5.995  -4.783  0.00  0.00     0.034 A 
ATOM      7 Cl   UNL d   1       0.754  -6.000  -2.431  0.00  0.00    -0.070 Cl
ATOM      8 Cl1  UNL d   1       3.734  -6.000  -1.121  0.00  0.00    -0.070 Cl
ENDROOT
TORSDOF 0
ENDMDL
