MODEL 1
REMARK minimizedAffinity 0.554933369
REMARK minimizedRMSD -1
REMARK  0 active torsions:
REMARK  status: ('A' for Active; 'I' for Inactive)
ROOT
ATOM      1  C   UNL d   1       3.655  -5.987  -1.287  0.00  0.00     0.020 A 
ATOM      2  C1  UNL d   1       2.360  -5.990  -1.805  0.00  0.00     0.020 A 
ATOM      3  C2  UNL d   1       2.161  -5.989  -3.187  0.00  0.00     0.034 A 
ATOM      4  C3  UNL d   1       3.258  -5.985  -4.056  0.00  0.00     0.017 A 
ATOM      5  C4  UNL d   1       4.557  -5.983  -3.536  0.00  0.00     0.017 A 
ATOM      6  C5  UNL d   1       4.751  -5.984  -2.151  0.00  0.00     0.034 A 
ATOM      7 Cl   UNL d   1       5.960  -5.979  -4.545  0.00  0.00    -0.070 Cl
ATOM      8 Cl1  UNL d   1       2.937  -5.985  -5.754  0.00  0.00    -0.070 Cl
ENDROOT
TORSDOF 0
ENDMDL
