MODEL 1
REMARK minimizedAffinity 2.37037873
REMARK minimizedRMSD -1
REMARK  0 active torsions:
REMARK  status: ('A' for Active; 'I' for Inactive)
ROOT
ATOM      1  C   UNL d   1       1.990  -3.949   3.416  0.00  0.00     0.020 A 
ATOM      2  C1  UNL d   1       2.038  -3.432   4.711  0.00  0.00     0.020 A 
ATOM      3  C2  UNL d   1       2.030  -2.051   4.911  0.00  0.00     0.034 A 
ATOM      4  C3  UNL d   1       1.975  -1.181   3.816  0.00  0.00     0.017 A 
ATOM      5  C4  UNL d   1       1.926  -1.700   2.518  0.00  0.00     0.017 A 
ATOM      6  C5  UNL d   1       1.934  -3.085   2.322  0.00  0.00     0.034 A 
ATOM      7 Cl   UNL d   1       1.856  -0.690   1.117  0.00  0.00    -0.070 Cl
ATOM      8 Cl1  UNL d   1       1.968   0.517   4.138  0.00  0.00    -0.070 Cl
ENDROOT
TORSDOF 0
ENDMDL
