MODEL 1
REMARK minimizedAffinity 9.664011
REMARK minimizedRMSD -1
REMARK  0 active torsions:
REMARK  status: ('A' for Active; 'I' for Inactive)
ROOT
ATOM      1  C   UNL d   1       3.384  -5.936  -1.405  0.00  0.00     0.020 A 
ATOM      2  C1  UNL d   1       4.670  -5.936  -1.943  0.00  0.00     0.020 A 
ATOM      3  C2  UNL d   1       4.848  -5.955  -3.328  0.00  0.00     0.034 A 
ATOM      4  C3  UNL d   1       3.738  -5.975  -4.180  0.00  0.00     0.017 A 
ATOM      5  C4  UNL d   1       2.447  -5.975  -3.639  0.00  0.00     0.017 A 
ATOM      6  C5  UNL d   1       2.275  -5.956  -2.252  0.00  0.00     0.034 A 
ATOM      7 Cl   UNL d   1       1.029  -5.999  -4.626  0.00  0.00    -0.070 Cl
ATOM      8 Cl1  UNL d   1       4.032  -5.998  -5.882  0.00  0.00    -0.070 Cl
ENDROOT
TORSDOF 0
ENDMDL
