MODEL 1
REMARK minimizedAffinity 5.63189316
REMARK minimizedRMSD -1
REMARK  0 active torsions:
REMARK  status: ('A' for Active; 'I' for Inactive)
ROOT
ATOM      1  C   UNL d   1       3.711  -2.363   3.156  0.00  0.00     0.020 A 
ATOM      2  C1  UNL d   1       2.649  -3.221   2.874  0.00  0.00     0.020 A 
ATOM      3  C2  UNL d   1       1.480  -2.720   2.297  0.00  0.00     0.034 A 
ATOM      4  C3  UNL d   1       1.371  -1.356   2.000  0.00  0.00     0.017 A 
ATOM      5  C4  UNL d   1       2.437  -0.496   2.283  0.00  0.00     0.017 A 
ATOM      6  C5  UNL d   1       3.605  -1.003   2.861  0.00  0.00     0.034 A 
ATOM      7 Cl   UNL d   1       2.376   1.198   1.946  0.00  0.00    -0.070 Cl
ATOM      8 Cl1  UNL d   1      -0.103  -0.805   1.286  0.00  0.00    -0.070 Cl
ENDROOT
TORSDOF 0
ENDMDL
