MODEL 1
REMARK minimizedAffinity 10.6516733
REMARK minimizedRMSD -1
REMARK  1 active torsions:
REMARK  status: ('A' for Active; 'I' for Inactive)
REMARK    1  A    between atoms: C3_4  and  O_7 
ROOT
ATOM      1  C   UNL d   1       4.195   3.092   0.378  0.00  0.00    -0.033 A 
ATOM      2  C1  UNL d   1       5.379   2.467  -0.020  0.00  0.00     0.039 A 
ATOM      3  C2  UNL d   1       6.000   1.543   0.823  0.00  0.00    -0.080 A 
ATOM      4  C3  UNL d   1       5.428   1.253   2.059  0.00  0.00     0.150 A 
ATOM      5  C4  UNL d   1       4.247   1.870   2.460  0.00  0.00    -0.007 A 
ATOM      6  C5  UNL d   1       3.629   2.792   1.617  0.00  0.00     0.039 A 
ENDROOT
BRANCH   4   7
ATOM      7  O   UNL d   1       6.000   0.363   2.918  0.00  0.00    -0.526 OA
ATOM      8  H5  UNL d   1       6.825   0.038   2.520  0.00  0.00     0.418 HD
ENDBRANCH   4   7
TORSDOF 1
ENDMDL
