MODEL 1
REMARK minimizedAffinity 6.67900753
REMARK minimizedRMSD -1
REMARK  1 active torsions:
REMARK  status: ('A' for Active; 'I' for Inactive)
REMARK    1  A    between atoms: C3_4  and  O_7 
ROOT
ATOM      1  C   UNL d   1       6.000   0.515  -3.936  0.00  0.00    -0.033 A 
ATOM      2  C1  UNL d   1       5.011   1.471  -3.697  0.00  0.00     0.039 A 
ATOM      3  C2  UNL d   1       3.893   1.144  -2.927  0.00  0.00    -0.080 A 
ATOM      4  C3  UNL d   1       3.776  -0.141  -2.403  0.00  0.00     0.150 A 
ATOM      5  C4  UNL d   1       4.760  -1.097  -2.634  0.00  0.00    -0.007 A 
ATOM      6  C5  UNL d   1       5.875  -0.768  -3.404  0.00  0.00     0.039 A 
ENDROOT
BRANCH   4   7
ATOM      7  O   UNL d   1       2.701  -0.508  -1.649  0.00  0.00    -0.526 OA
ATOM      8  H5  UNL d   1       2.090   0.246  -1.597  0.00  0.00     0.418 HD
ENDBRANCH   4   7
TORSDOF 1
ENDMDL
