MODEL 1
REMARK minimizedAffinity 5.36781979
REMARK minimizedRMSD -1
REMARK  1 active torsions:
REMARK  status: ('A' for Active; 'I' for Inactive)
REMARK    1  A    between atoms: C3_4  and  O_7 
ROOT
ATOM      1  C   UNL d   1       3.367   2.750  -0.437  0.00  0.00    -0.033 A 
ATOM      2  C1  UNL d   1       2.586   1.834   0.271  0.00  0.00     0.039 A 
ATOM      3  C2  UNL d   1       2.806   1.634   1.636  0.00  0.00    -0.080 A 
ATOM      4  C3  UNL d   1       3.808   2.355   2.279  0.00  0.00     0.150 A 
ATOM      5  C4  UNL d   1       4.588   3.271   1.580  0.00  0.00    -0.007 A 
ATOM      6  C5  UNL d   1       4.367   3.469   0.218  0.00  0.00     0.039 A 
ENDROOT
BRANCH   4   7
ATOM      7  O   UNL d   1       4.064   2.190   3.608  0.00  0.00    -0.526 OA
ATOM      8  H5  UNL d   1       3.467   1.505   3.953  0.00  0.00     0.418 HD
ENDBRANCH   4   7
TORSDOF 1
ENDMDL
