MODEL 1
REMARK minimizedAffinity 10.5522947
REMARK minimizedRMSD -1
REMARK  1 active torsions:
REMARK  status: ('A' for Active; 'I' for Inactive)
REMARK    1  A    between atoms: C3_4  and  O_7 
ROOT
ATOM      1  C   UNL d   1       2.698  -0.312  -2.036  0.00  0.00    -0.033 A 
ATOM      2  C1  UNL d   1       3.645  -0.986  -2.809  0.00  0.00     0.039 A 
ATOM      3  C2  UNL d   1       4.672  -0.276  -3.434  0.00  0.00    -0.080 A 
ATOM      4  C3  UNL d   1       4.741   1.105  -3.278  0.00  0.00     0.150 A 
ATOM      5  C4  UNL d   1       3.803   1.783  -2.506  0.00  0.00    -0.007 A 
ATOM      6  C5  UNL d   1       2.778   1.073  -1.883  0.00  0.00     0.039 A 
ENDROOT
BRANCH   4   7
ATOM      7  O   UNL d   1       5.722   1.842  -3.873  0.00  0.00    -0.526 OA
ATOM      8  H5  UNL d   1       6.281   1.244  -4.397  0.00  0.00     0.418 HD
ENDBRANCH   4   7
TORSDOF 1
ENDMDL
