MODEL 1
REMARK minimizedAffinity 7.13347483
REMARK minimizedRMSD -1
REMARK  1 active torsions:
REMARK  status: ('A' for Active; 'I' for Inactive)
REMARK    1  A    between atoms: C3_4  and  O_7 
ROOT
ATOM      1  C   UNL d   1      -0.674  -4.779   0.870  0.00  0.00    -0.033 A 
ATOM      2  C1  UNL d   1      -0.756  -5.265   2.177  0.00  0.00     0.039 A 
ATOM      3  C2  UNL d   1      -1.615  -4.658   3.096  0.00  0.00    -0.080 A 
ATOM      4  C3  UNL d   1      -2.384  -3.568   2.696  0.00  0.00     0.150 A 
ATOM      5  C4  UNL d   1      -2.310  -3.082   1.395  0.00  0.00    -0.007 A 
ATOM      6  C5  UNL d   1      -1.451  -3.689   0.479  0.00  0.00     0.039 A 
ENDROOT
BRANCH   4   7
ATOM      7  O   UNL d   1      -3.232  -2.940   3.559  0.00  0.00    -0.526 OA
ATOM      8  H5  UNL d   1      -3.158  -3.366   4.429  0.00  0.00     0.418 HD
ENDBRANCH   4   7
TORSDOF 1
ENDMDL
