MODEL 1
REMARK minimizedAffinity -0.92623347
REMARK minimizedRMSD -1
REMARK  1 active torsions:
REMARK  status: ('A' for Active; 'I' for Inactive)
REMARK    1  A    between atoms: C3_4  and  O_7 
ROOT
ATOM      1  C   UNL d   1      -5.558   4.448   1.634  0.00  0.00    -0.033 A 
ATOM      2  C1  UNL d   1      -4.480   3.717   1.133  0.00  0.00     0.039 A 
ATOM      3  C2  UNL d   1      -3.843   4.124  -0.041  0.00  0.00    -0.080 A 
ATOM      4  C3  UNL d   1      -4.293   5.263  -0.703  0.00  0.00     0.150 A 
ATOM      5  C4  UNL d   1      -5.365   5.999  -0.207  0.00  0.00    -0.007 A 
ATOM      6  C5  UNL d   1      -6.000   5.590   0.965  0.00  0.00     0.039 A 
ENDROOT
BRANCH   4   7
ATOM      7  O   UNL d   1      -3.706   5.697  -1.854  0.00  0.00    -0.526 OA
ATOM      8  H5  UNL d   1      -2.999   5.075  -2.092  0.00  0.00     0.418 HD
ENDBRANCH   4   7
TORSDOF 1
ENDMDL
