MODEL 1
REMARK minimizedAffinity 13.3417816
REMARK minimizedRMSD -1
REMARK  1 active torsions:
REMARK  status: ('A' for Active; 'I' for Inactive)
REMARK    1  A    between atoms: C3_4  and  O_7 
ROOT
ATOM      1  C   UNL d   1       1.884   0.278  -1.470  0.00  0.00    -0.033 A 
ATOM      2  C1  UNL d   1       2.859  -0.194  -0.588  0.00  0.00     0.039 A 
ATOM      3  C2  UNL d   1       3.497   0.688   0.287  0.00  0.00    -0.080 A 
ATOM      4  C3  UNL d   1       3.151   2.036   0.271  0.00  0.00     0.150 A 
ATOM      5  C4  UNL d   1       2.178   2.512  -0.601  0.00  0.00    -0.007 A 
ATOM      6  C5  UNL d   1       1.543   1.631  -1.475  0.00  0.00     0.039 A 
ENDROOT
BRANCH   4   7
ATOM      7  O   UNL d   1       3.749   2.935   1.104  0.00  0.00    -0.526 OA
ATOM      8  H5  UNL d   1       4.420   2.468   1.629  0.00  0.00     0.418 HD
ENDBRANCH   4   7
TORSDOF 1
ENDMDL
