MODEL 1
REMARK minimizedAffinity 8.60732365
REMARK minimizedRMSD -1
REMARK  1 active torsions:
REMARK  status: ('A' for Active; 'I' for Inactive)
REMARK    1  A    between atoms: C3_4  and  O_7 
ROOT
ATOM      1  C   UNL d   1      -2.358  -1.081   0.414  0.00  0.00    -0.033 A 
ATOM      2  C1  UNL d   1      -2.589  -1.927   1.501  0.00  0.00     0.039 A 
ATOM      3  C2  UNL d   1      -1.854  -3.106   1.639  0.00  0.00    -0.080 A 
ATOM      4  C3  UNL d   1      -0.892  -3.427   0.686  0.00  0.00     0.150 A 
ATOM      5  C4  UNL d   1      -0.654  -2.587  -0.398  0.00  0.00    -0.007 A 
ATOM      6  C5  UNL d   1      -1.390  -1.411  -0.534  0.00  0.00     0.039 A 
ENDROOT
BRANCH   4   7
ATOM      7  O   UNL d   1      -0.153  -4.569   0.775  0.00  0.00    -0.526 OA
ATOM      8  H5  UNL d   1      -0.445  -5.064   1.558  0.00  0.00     0.418 HD
ENDBRANCH   4   7
TORSDOF 1
ENDMDL
