MODEL 1
REMARK minimizedAffinity 4.52016973
REMARK minimizedRMSD -1
REMARK  1 active torsions:
REMARK  status: ('A' for Active; 'I' for Inactive)
REMARK    1  A    between atoms: C3_4  and  O_7 
ROOT
ATOM      1  C   UNL d   1      -5.622   4.120   1.504  0.00  0.00    -0.033 A 
ATOM      2  C1  UNL d   1      -4.681   3.419   0.746  0.00  0.00     0.039 A 
ATOM      3  C2  UNL d   1      -4.119   4.006  -0.389  0.00  0.00    -0.080 A 
ATOM      4  C3  UNL d   1      -4.505   5.293  -0.755  0.00  0.00     0.150 A 
ATOM      5  C4  UNL d   1      -5.439   5.998  -0.003  0.00  0.00    -0.007 A 
ATOM      6  C5  UNL d   1      -5.999   5.410   1.130  0.00  0.00     0.039 A 
ENDROOT
BRANCH   4   7
ATOM      7  O   UNL d   1      -3.988   5.906  -1.857  0.00  0.00    -0.526 OA
ATOM      8  H5  UNL d   1      -3.378   5.289  -2.295  0.00  0.00     0.418 HD
ENDBRANCH   4   7
TORSDOF 1
ENDMDL
