MODEL 1
REMARK minimizedAffinity 15.9493284
REMARK minimizedRMSD -1
REMARK  1 active torsions:
REMARK  status: ('A' for Active; 'I' for Inactive)
REMARK    1  A    between atoms: C3_4  and  O_7 
ROOT
ATOM      1  C   UNL d   1       3.484   2.283   0.129  0.00  0.00    -0.033 A 
ATOM      2  C1  UNL d   1       3.970   3.101  -0.892  0.00  0.00     0.039 A 
ATOM      3  C2  UNL d   1       4.501   4.357  -0.589  0.00  0.00    -0.080 A 
ATOM      4  C3  UNL d   1       4.540   4.781   0.736  0.00  0.00     0.150 A 
ATOM      5  C4  UNL d   1       4.061   3.969   1.759  0.00  0.00    -0.007 A 
ATOM      6  C5  UNL d   1       3.531   2.716   1.455  0.00  0.00     0.039 A 
ENDROOT
BRANCH   4   7
ATOM      7  O   UNL d   1       5.044   6.000   1.080  0.00  0.00    -0.526 OA
ATOM      8  H5  UNL d   1       5.311   6.462   0.268  0.00  0.00     0.418 HD
ENDBRANCH   4   7
TORSDOF 1
ENDMDL
