MODEL 1
REMARK minimizedAffinity 3.97073078
REMARK minimizedRMSD -1
REMARK  1 active torsions:
REMARK  status: ('A' for Active; 'I' for Inactive)
REMARK    1  A    between atoms: C3_4  and  O_7 
ROOT
ATOM      1  C   UNL d   1       4.876   1.868   0.275  0.00  0.00    -0.033 A 
ATOM      2  C1  UNL d   1       5.743   2.638  -0.502  0.00  0.00     0.039 A 
ATOM      3  C2  UNL d   1       5.700   4.032  -0.426  0.00  0.00    -0.080 A 
ATOM      4  C3  UNL d   1       4.788   4.642   0.430  0.00  0.00     0.150 A 
ATOM      5  C4  UNL d   1       3.924   3.881   1.210  0.00  0.00    -0.007 A 
ATOM      6  C5  UNL d   1       3.967   2.489   1.132  0.00  0.00     0.039 A 
ENDROOT
BRANCH   4   7
ATOM      7  O   UNL d   1       4.706   5.999   0.534  0.00  0.00    -0.526 OA
ATOM      8  H5  UNL d   1       5.343   6.394  -0.084  0.00  0.00     0.418 HD
ENDBRANCH   4   7
TORSDOF 1
ENDMDL
