MODEL 1
REMARK minimizedAffinity 9.10002995
REMARK minimizedRMSD -1
REMARK  1 active torsions:
REMARK  status: ('A' for Active; 'I' for Inactive)
REMARK    1  A    between atoms: C3_4  and  O_7 
ROOT
ATOM      1  C   UNL d   1      -2.382  -1.319  -0.084  0.00  0.00    -0.033 A 
ATOM      2  C1  UNL d   1      -1.476  -1.725  -1.066  0.00  0.00     0.039 A 
ATOM      3  C2  UNL d   1      -0.703  -2.872  -0.874  0.00  0.00    -0.080 A 
ATOM      4  C3  UNL d   1      -0.846  -3.603   0.302  0.00  0.00     0.150 A 
ATOM      5  C4  UNL d   1      -1.749  -3.206   1.283  0.00  0.00    -0.007 A 
ATOM      6  C5  UNL d   1      -2.519  -2.060   1.090  0.00  0.00     0.039 A 
ENDROOT
BRANCH   4   7
ATOM      7  O   UNL d   1      -0.110  -4.726   0.536  0.00  0.00    -0.526 OA
ATOM      8  H5  UNL d   1       0.492  -4.862  -0.214  0.00  0.00     0.418 HD
ENDBRANCH   4   7
TORSDOF 1
ENDMDL
