MODEL 1
REMARK minimizedAffinity 11.7268162
REMARK minimizedRMSD -1
REMARK  1 active torsions:
REMARK  status: ('A' for Active; 'I' for Inactive)
REMARK    1  A    between atoms: C3_4  and  O_7 
ROOT
ATOM      1  C   UNL d   1       3.678   0.809   3.813  0.00  0.00    -0.033 A 
ATOM      2  C1  UNL d   1       3.602   0.733   5.205  0.00  0.00     0.039 A 
ATOM      3  C2  UNL d   1       3.373   1.887   5.957  0.00  0.00    -0.080 A 
ATOM      4  C3  UNL d   1       3.221   3.108   5.305  0.00  0.00     0.150 A 
ATOM      5  C4  UNL d   1       3.292   3.190   3.919  0.00  0.00    -0.007 A 
ATOM      6  C5  UNL d   1       3.521   2.037   3.170  0.00  0.00     0.039 A 
ENDROOT
BRANCH   4   7
ATOM      7  O   UNL d   1       3.001   4.262   5.997  0.00  0.00    -0.526 OA
ATOM      8  H5  UNL d   1       3.006   4.057   6.947  0.00  0.00     0.418 HD
ENDBRANCH   4   7
TORSDOF 1
ENDMDL
