MODEL 1
REMARK minimizedAffinity -0.102668568
REMARK minimizedRMSD -1
REMARK  0 active torsions:
REMARK  status: ('A' for Active; 'I' for Inactive)
ROOT
ATOM      1  C1  BNZ d   1      -0.304  -6.000  -4.689  0.00  0.00     0.000 A 
ATOM      2  C2  BNZ d   1      -1.671  -5.960  -4.763  0.00  0.00     0.000 A 
ATOM      3  C3  BNZ d   1      -2.307  -4.951  -5.430  0.00  0.00     0.000 A 
ATOM      4  C4  BNZ d   1      -1.578  -3.962  -5.987  0.00  0.00     0.000 A 
ATOM      5  C5  BNZ d   1      -0.199  -3.983  -5.912  0.00  0.00     0.000 A 
ATOM      6  C6  BNZ d   1       0.439  -5.021  -5.274  0.00  0.00     0.000 A 
ENDROOT
TORSDOF 0
ENDMDL
