MODEL 1
REMARK minimizedAffinity 4.54438782
REMARK minimizedRMSD -1
REMARK  0 active torsions:
REMARK  status: ('A' for Active; 'I' for Inactive)
ROOT
ATOM      1  C1  BNZ d   1       1.504   1.871   3.404  0.00  0.00     0.000 A 
ATOM      2  C2  BNZ d   1       0.774   0.712   3.388  0.00  0.00     0.000 A 
ATOM      3  C3  BNZ d   1       0.048   0.357   2.285  0.00  0.00     0.000 A 
ATOM      4  C4  BNZ d   1       0.021   1.180   1.217  0.00  0.00     0.000 A 
ATOM      5  C5  BNZ d   1       0.745   2.356   1.221  0.00  0.00     0.000 A 
ATOM      6  C6  BNZ d   1       1.505   2.691   2.318  0.00  0.00     0.000 A 
ENDROOT
TORSDOF 0
ENDMDL
