MODEL 1
REMARK minimizedAffinity -1.59131253
REMARK minimizedRMSD -1
REMARK  0 active torsions:
REMARK  status: ('A' for Active; 'I' for Inactive)
ROOT
ATOM      1  C1  BNZ d   1       5.657  -2.336  -1.313  0.00  0.00     0.000 A 
ATOM      2  C2  BNZ d   1       5.700  -2.103  -2.662  0.00  0.00     0.000 A 
ATOM      3  C3  BNZ d   1       4.561  -2.148  -3.417  0.00  0.00     0.000 A 
ATOM      4  C4  BNZ d   1       3.389  -2.465  -2.830  0.00  0.00     0.000 A 
ATOM      5  C5  BNZ d   1       3.331  -2.712  -1.473  0.00  0.00     0.000 A 
ATOM      6  C6  BNZ d   1       4.472  -2.628  -0.709  0.00  0.00     0.000 A 
ENDROOT
TORSDOF 0
ENDMDL
