MODEL 1
REMARK minimizedAffinity -3.84391308
REMARK minimizedRMSD -1
REMARK  0 active torsions:
REMARK  status: ('A' for Active; 'I' for Inactive)
ROOT
ATOM      1  C1  BNZ d   1       5.306  -4.332  -1.106  0.00  0.00     0.000 A 
ATOM      2  C2  BNZ d   1       4.749  -4.794  -2.269  0.00  0.00     0.000 A 
ATOM      3  C3  BNZ d   1       3.905  -4.006  -3.001  0.00  0.00     0.000 A 
ATOM      4  C4  BNZ d   1       3.588  -2.776  -2.550  0.00  0.00     0.000 A 
ATOM      5  C5  BNZ d   1       4.133  -2.300  -1.374  0.00  0.00     0.000 A 
ATOM      6  C6  BNZ d   1       5.013  -3.081  -0.660  0.00  0.00     0.000 A 
ENDROOT
TORSDOF 0
ENDMDL
