MODEL 1
REMARK minimizedAffinity -1.0023526
REMARK minimizedRMSD -1
REMARK  0 active torsions:
REMARK  status: ('A' for Active; 'I' for Inactive)
ROOT
ATOM      1  C1  BNZ d   1       4.221  -3.623  -3.829  0.00  0.00     0.000 A 
ATOM      2  C2  BNZ d   1       4.551  -4.949  -3.918  0.00  0.00     0.000 A 
ATOM      3  C3  BNZ d   1       4.720  -5.705  -2.792  0.00  0.00     0.000 A 
ATOM      4  C4  BNZ d   1       4.598  -5.127  -1.580  0.00  0.00     0.000 A 
ATOM      5  C5  BNZ d   1       4.275  -3.789  -1.473  0.00  0.00     0.000 A 
ATOM      6  C6  BNZ d   1       4.067  -3.040  -2.609  0.00  0.00     0.000 A 
ENDROOT
TORSDOF 0
ENDMDL
