MODEL 1
REMARK minimizedAffinity -1.6414119
REMARK minimizedRMSD -1
REMARK  0 active torsions:
REMARK  status: ('A' for Active; 'I' for Inactive)
ROOT
ATOM      1  C1  BNZ d   1       4.984  -5.123  -2.198  0.00  0.00     0.000 A 
ATOM      2  C2  BNZ d   1       5.396  -3.826  -2.051  0.00  0.00     0.000 A 
ATOM      3  C3  BNZ d   1       4.526  -2.789  -2.244  0.00  0.00     0.000 A 
ATOM      4  C4  BNZ d   1       3.258  -3.049  -2.622  0.00  0.00     0.000 A 
ATOM      5  C5  BNZ d   1       2.830  -4.352  -2.784  0.00  0.00     0.000 A 
ATOM      6  C6  BNZ d   1       3.698  -5.394  -2.551  0.00  0.00     0.000 A 
ENDROOT
TORSDOF 0
ENDMDL
