MODEL 1
REMARK minimizedAffinity 1.75861716
REMARK minimizedRMSD -1
REMARK  0 active torsions:
REMARK  status: ('A' for Active; 'I' for Inactive)
ROOT
ATOM      1  C1  BNZ d   1       5.159  -2.884  -2.614  0.00  0.00     0.000 A 
ATOM      2  C2  BNZ d   1       5.555  -3.050  -1.313  0.00  0.00     0.000 A 
ATOM      3  C3  BNZ d   1       4.745  -2.670  -0.281  0.00  0.00     0.000 A 
ATOM      4  C4  BNZ d   1       3.558  -2.089  -0.549  0.00  0.00     0.000 A 
ATOM      5  C5  BNZ d   1       3.147  -1.907  -1.854  0.00  0.00     0.000 A 
ATOM      6  C6  BNZ d   1       3.949  -2.326  -2.891  0.00  0.00     0.000 A 
ENDROOT
TORSDOF 0
ENDMDL
