MODEL 1
REMARK minimizedAffinity -4.51517868
REMARK minimizedRMSD -1
REMARK  0 active torsions:
REMARK  status: ('A' for Active; 'I' for Inactive)
ROOT
ATOM      1  C1  BNZ d   1       5.170  -4.761  -1.553  0.00  0.00     0.000 A 
ATOM      2  C2  BNZ d   1       5.279  -3.577  -0.873  0.00  0.00     0.000 A 
ATOM      3  C3  BNZ d   1       4.624  -2.458  -1.306  0.00  0.00     0.000 A 
ATOM      4  C4  BNZ d   1       3.896  -2.514  -2.440  0.00  0.00     0.000 A 
ATOM      5  C5  BNZ d   1       3.784  -3.697  -3.142  0.00  0.00     0.000 A 
ATOM      6  C6  BNZ d   1       4.413  -4.831  -2.682  0.00  0.00     0.000 A 
ENDROOT
TORSDOF 0
ENDMDL
