MODEL 1
REMARK minimizedAffinity 10.4351339
REMARK minimizedRMSD -1
REMARK  0 active torsions:
REMARK  status: ('A' for Active; 'I' for Inactive)
ROOT
ATOM      1  C   UNL d   1       3.664  -0.363   0.325  0.00  0.00     0.020 A 
ATOM      2  C1  UNL d   1       3.515  -1.389   1.257  0.00  0.00     0.020 A 
ATOM      3  C2  UNL d   1       2.807  -2.543   0.918  0.00  0.00     0.034 A 
ATOM      4  C3  UNL d   1       2.245  -2.675  -0.357  0.00  0.00     0.017 A 
ATOM      5  C4  UNL d   1       2.395  -1.645  -1.293  0.00  0.00     0.017 A 
ATOM      6  C5  UNL d   1       3.105  -0.491  -0.947  0.00  0.00     0.034 A 
ATOM      7 Cl   UNL d   1       1.730  -1.735  -2.886  0.00  0.00    -0.070 Cl
ATOM      8 Cl1  UNL d   1       1.382  -4.130  -0.709  0.00  0.00    -0.070 Cl
ENDROOT
TORSDOF 0
ENDMDL
