MODEL 1
REMARK minimizedAffinity 1.58076262
REMARK minimizedRMSD -1
REMARK  0 active torsions:
REMARK  status: ('A' for Active; 'I' for Inactive)
ROOT
ATOM      1  C   UNL d   1       2.131  -2.498  -0.194  0.00  0.00     0.020 A 
ATOM      2  C1  UNL d   1       0.959  -3.024  -0.736  0.00  0.00     0.020 A 
ATOM      3  C2  UNL d   1      -0.113  -2.180  -1.033  0.00  0.00     0.034 A 
ATOM      4  C3  UNL d   1      -0.015  -0.805  -0.788  0.00  0.00     0.017 A 
ATOM      5  C4  UNL d   1       1.162  -0.278  -0.243  0.00  0.00     0.017 A 
ATOM      6  C5  UNL d   1       2.232  -1.128   0.052  0.00  0.00     0.034 A 
ATOM      7 Cl   UNL d   1       1.356   1.407   0.087  0.00  0.00    -0.070 Cl
ATOM      8 Cl1  UNL d   1      -1.380   0.179  -1.179  0.00  0.00    -0.070 Cl
ENDROOT
TORSDOF 0
ENDMDL
