MODEL 1
REMARK minimizedAffinity 0.397348315
REMARK minimizedRMSD -1
REMARK  0 active torsions:
REMARK  status: ('A' for Active; 'I' for Inactive)
ROOT
ATOM      1  C   UNL d   1       5.336   1.812  -1.399  0.00  0.00     0.020 A 
ATOM      2  C1  UNL d   1       4.636   2.838  -0.764  0.00  0.00     0.020 A 
ATOM      3  C2  UNL d   1       3.353   2.603  -0.266  0.00  0.00     0.034 A 
ATOM      4  C3  UNL d   1       2.765   1.340  -0.403  0.00  0.00     0.017 A 
ATOM      5  C4  UNL d   1       3.468   0.312  -1.041  0.00  0.00     0.017 A 
ATOM      6  C5  UNL d   1       4.752   0.552  -1.537  0.00  0.00     0.034 A 
ATOM      7 Cl   UNL d   1       2.808  -1.272  -1.247  0.00  0.00    -0.070 Cl
ATOM      8 Cl1  UNL d   1       1.175   1.121   0.237  0.00  0.00    -0.070 Cl
ENDROOT
TORSDOF 0
ENDMDL
