MODEL 1
REMARK minimizedAffinity 2.42549777
REMARK minimizedRMSD -1
REMARK  0 active torsions:
REMARK  status: ('A' for Active; 'I' for Inactive)
ROOT
ATOM      1  C   UNL d   1       2.145  -2.650  -0.065  0.00  0.00     0.020 A 
ATOM      2  C1  UNL d   1       0.962  -3.155  -0.603  0.00  0.00     0.020 A 
ATOM      3  C2  UNL d   1      -0.051  -2.282  -1.004  0.00  0.00     0.034 A 
ATOM      4  C3  UNL d   1       0.116  -0.899  -0.867  0.00  0.00     0.017 A 
ATOM      5  C4  UNL d   1       1.305  -0.393  -0.327  0.00  0.00     0.017 A 
ATOM      6  C5  UNL d   1       2.316  -1.272   0.072  0.00  0.00     0.034 A 
ATOM      7 Cl   UNL d   1       1.585   1.301  -0.127  0.00  0.00    -0.070 Cl
ATOM      8 Cl1  UNL d   1      -1.178   0.123  -1.383  0.00  0.00    -0.070 Cl
ENDROOT
TORSDOF 0
ENDMDL
