MODEL 1
REMARK minimizedAffinity 4.8619628
REMARK minimizedRMSD -1
REMARK  0 active torsions:
REMARK  status: ('A' for Active; 'I' for Inactive)
ROOT
ATOM      1  C   UNL d   1       4.168   0.887  -1.357  0.00  0.00     0.020 A 
ATOM      2  C1  UNL d   1       4.870   0.441  -2.477  0.00  0.00     0.020 A 
ATOM      3  C2  UNL d   1       4.544  -0.784  -3.062  0.00  0.00     0.034 A 
ATOM      4  C3  UNL d   1       3.515  -1.568  -2.529  0.00  0.00     0.017 A 
ATOM      5  C4  UNL d   1       2.811  -1.120  -1.405  0.00  0.00     0.017 A 
ATOM      6  C5  UNL d   1       3.141   0.108  -0.823  0.00  0.00     0.034 A 
ATOM      7 Cl   UNL d   1       1.528  -2.031  -0.691  0.00  0.00    -0.070 Cl
ATOM      8 Cl1  UNL d   1       3.165  -3.072  -3.304  0.00  0.00    -0.070 Cl
ENDROOT
TORSDOF 0
ENDMDL
