MODEL 1
REMARK minimizedAffinity 2.48808002
REMARK minimizedRMSD -1
REMARK  0 active torsions:
REMARK  status: ('A' for Active; 'I' for Inactive)
ROOT
ATOM      1  C   UNL d   1       1.842  -2.362  -0.523  0.00  0.00     0.020 A 
ATOM      2  C1  UNL d   1       0.467  -2.246  -0.721  0.00  0.00     0.020 A 
ATOM      3  C2  UNL d   1      -0.114  -0.984  -0.863  0.00  0.00     0.034 A 
ATOM      4  C3  UNL d   1       0.681   0.167  -0.807  0.00  0.00     0.017 A 
ATOM      5  C4  UNL d   1       2.061   0.050  -0.607  0.00  0.00     0.017 A 
ATOM      6  C5  UNL d   1       2.638  -1.216  -0.466  0.00  0.00     0.034 A 
ATOM      7 Cl   UNL d   1       3.106   1.424  -0.527  0.00  0.00    -0.070 Cl
ATOM      8 Cl1  UNL d   1      -0.104   1.695  -0.990  0.00  0.00    -0.070 Cl
ENDROOT
TORSDOF 0
ENDMDL
