MODEL 1
REMARK minimizedAffinity 3.98356032
REMARK minimizedRMSD -1
REMARK  0 active torsions:
REMARK  status: ('A' for Active; 'I' for Inactive)
ROOT
ATOM      1  C   UNL d   1       0.783   1.205   0.335  0.00  0.00     0.020 A 
ATOM      2  C1  UNL d   1      -0.185   1.592  -0.590  0.00  0.00     0.020 A 
ATOM      3  C2  UNL d   1      -0.688   0.664  -1.504  0.00  0.00     0.034 A 
ATOM      4  C3  UNL d   1      -0.223  -0.656  -1.495  0.00  0.00     0.017 A 
ATOM      5  C4  UNL d   1       0.749  -1.044  -0.566  0.00  0.00     0.017 A 
ATOM      6  C5  UNL d   1       1.249  -0.110   0.347  0.00  0.00     0.034 A 
ATOM      7 Cl   UNL d   1       1.372  -2.654  -0.494  0.00  0.00    -0.070 Cl
ATOM      8 Cl1  UNL d   1      -0.890  -1.750  -2.654  0.00  0.00    -0.070 Cl
ENDROOT
TORSDOF 0
ENDMDL
