MODEL 1
REMARK minimizedAffinity -1.06814027
REMARK minimizedRMSD -1
REMARK  0 active torsions:
REMARK  status: ('A' for Active; 'I' for Inactive)
ROOT
ATOM      1  C   UNL d   1       2.006   0.426  -0.070  0.00  0.00     0.020 A 
ATOM      2  C1  UNL d   1       2.432  -0.900  -0.006  0.00  0.00     0.020 A 
ATOM      3  C2  UNL d   1       1.590  -1.925  -0.441  0.00  0.00     0.034 A 
ATOM      4  C3  UNL d   1       0.317  -1.627  -0.941  0.00  0.00     0.017 A 
ATOM      5  C4  UNL d   1      -0.109  -0.295  -1.005  0.00  0.00     0.017 A 
ATOM      6  C5  UNL d   1       0.738   0.728  -0.568  0.00  0.00     0.034 A 
ATOM      7 Cl   UNL d   1      -1.666   0.151  -1.610  0.00  0.00    -0.070 Cl
ATOM      8 Cl1  UNL d   1      -0.671  -2.945  -1.461  0.00  0.00    -0.070 Cl
ENDROOT
TORSDOF 0
ENDMDL
