MODEL 1
REMARK minimizedAffinity 2.98227096
REMARK minimizedRMSD -1
REMARK  0 active torsions:
REMARK  status: ('A' for Active; 'I' for Inactive)
ROOT
ATOM      1  C   UNL d   1       4.262   2.526  -0.581  0.00  0.00     0.020 A 
ATOM      2  C1  UNL d   1       4.468   1.379  -1.347  0.00  0.00     0.020 A 
ATOM      3  C2  UNL d   1       3.541   0.335  -1.303  0.00  0.00     0.034 A 
ATOM      4  C3  UNL d   1       2.406   0.435  -0.492  0.00  0.00     0.017 A 
ATOM      5  C4  UNL d   1       2.200   1.586   0.277  0.00  0.00     0.017 A 
ATOM      6  C5  UNL d   1       3.131   2.629   0.229  0.00  0.00     0.034 A 
ATOM      7 Cl   UNL d   1       0.823   1.782   1.302  0.00  0.00    -0.070 Cl
ATOM      8 Cl1  UNL d   1       1.302  -0.895  -0.486  0.00  0.00    -0.070 Cl
ENDROOT
TORSDOF 0
ENDMDL
