MODEL 1
REMARK minimizedAffinity -2.80762529
REMARK minimizedRMSD -1
REMARK  0 active torsions:
REMARK  status: ('A' for Active; 'I' for Inactive)
ROOT
ATOM      1  C   UNL d   1       1.308  -2.972   1.059  0.00  0.00     0.020 A 
ATOM      2  C1  UNL d   1      -0.027  -3.008   0.660  0.00  0.00     0.020 A 
ATOM      3  C2  UNL d   1      -0.643  -1.851   0.176  0.00  0.00     0.034 A 
ATOM      4  C3  UNL d   1       0.077  -0.654   0.090  0.00  0.00     0.017 A 
ATOM      5  C4  UNL d   1       1.418  -0.619   0.491  0.00  0.00     0.017 A 
ATOM      6  C5  UNL d   1       2.029  -1.780   0.975  0.00  0.00     0.034 A 
ATOM      7 Cl   UNL d   1       2.371   0.821   0.415  0.00  0.00    -0.070 Cl
ATOM      8 Cl1  UNL d   1      -0.747   0.737  -0.518  0.00  0.00    -0.070 Cl
ENDROOT
TORSDOF 0
ENDMDL
