MODEL 1
REMARK minimizedAffinity -3.75438118
REMARK minimizedRMSD -1
REMARK  0 active torsions:
REMARK  status: ('A' for Active; 'I' for Inactive)
ROOT
ATOM      1  C   UNL d   1      -0.447  -1.472   1.086  0.00  0.00     0.020 A 
ATOM      2  C1  UNL d   1       0.939  -1.618   1.101  0.00  0.00     0.020 A 
ATOM      3  C2  UNL d   1       1.740  -0.770   0.333  0.00  0.00     0.034 A 
ATOM      4  C3  UNL d   1       1.154   0.229  -0.454  0.00  0.00     0.017 A 
ATOM      5  C4  UNL d   1      -0.238   0.374  -0.469  0.00  0.00     0.017 A 
ATOM      6  C5  UNL d   1      -1.034  -0.478   0.302  0.00  0.00     0.034 A 
ATOM      7 Cl   UNL d   1      -1.033   1.583  -1.415  0.00  0.00    -0.070 Cl
ATOM      8 Cl1  UNL d   1       2.204   1.242  -1.379  0.00  0.00    -0.070 Cl
ENDROOT
TORSDOF 0
ENDMDL
