MODEL 1
REMARK minimizedAffinity -3.63020873
REMARK minimizedRMSD -1
REMARK  0 active torsions:
REMARK  status: ('A' for Active; 'I' for Inactive)
ROOT
ATOM      1  C   UNL d   1       1.596  -1.995   1.091  0.00  0.00     0.020 A 
ATOM      2  C1  UNL d   1       0.248  -2.258   0.854  0.00  0.00     0.020 A 
ATOM      3  C2  UNL d   1      -0.541  -1.319   0.187  0.00  0.00     0.034 A 
ATOM      4  C3  UNL d   1       0.018  -0.111  -0.247  0.00  0.00     0.017 A 
ATOM      5  C4  UNL d   1       1.372   0.152  -0.009  0.00  0.00     0.017 A 
ATOM      6  C5  UNL d   1       2.157  -0.792   0.659  0.00  0.00     0.034 A 
ATOM      7 Cl   UNL d   1       2.133   1.620  -0.515  0.00  0.00    -0.070 Cl
ATOM      8 Cl1  UNL d   1      -1.015   1.004  -1.067  0.00  0.00    -0.070 Cl
ENDROOT
TORSDOF 0
ENDMDL
