MODEL 1
REMARK minimizedAffinity 3.49342346
REMARK minimizedRMSD -1
REMARK  0 active torsions:
REMARK  status: ('A' for Active; 'I' for Inactive)
ROOT
ATOM      1  C   UNL d   1      -1.310  -0.577   0.780  0.00  0.00     0.020 A 
ATOM      2  C1  UNL d   1       0.013  -0.877   1.102  0.00  0.00     0.020 A 
ATOM      3  C2  UNL d   1       1.052  -0.117   0.562  0.00  0.00     0.034 A 
ATOM      4  C3  UNL d   1       0.771   0.946  -0.304  0.00  0.00     0.017 A 
ATOM      5  C4  UNL d   1      -0.558   1.246  -0.627  0.00  0.00     0.017 A 
ATOM      6  C5  UNL d   1      -1.595   0.482  -0.082  0.00  0.00     0.034 A 
ATOM      7 Cl   UNL d   1      -0.984   2.543  -1.687  0.00  0.00    -0.070 Cl
ATOM      8 Cl1  UNL d   1       2.105   1.844  -0.935  0.00  0.00    -0.070 Cl
ENDROOT
TORSDOF 0
ENDMDL
