MODEL 1
REMARK minimizedAffinity -3.26937199
REMARK minimizedRMSD -1
REMARK  0 active torsions:
REMARK  status: ('A' for Active; 'I' for Inactive)
ROOT
ATOM      1  C   UNL d   1       0.259  -2.267   1.364  0.00  0.00     0.020 A 
ATOM      2  C1  UNL d   1       1.635  -2.459   1.239  0.00  0.00     0.020 A 
ATOM      3  C2  UNL d   1       2.385  -1.617   0.416  0.00  0.00     0.034 A 
ATOM      4  C3  UNL d   1       1.761  -0.579  -0.286  0.00  0.00     0.017 A 
ATOM      5  C4  UNL d   1       0.381  -0.387  -0.160  0.00  0.00     0.017 A 
ATOM      6  C5  UNL d   1      -0.366  -1.233   0.665  0.00  0.00     0.034 A 
ATOM      7 Cl   UNL d   1      -0.460   0.871  -0.995  0.00  0.00    -0.070 Cl
ATOM      8 Cl1  UNL d   1       2.752   0.424  -1.286  0.00  0.00    -0.070 Cl
ENDROOT
TORSDOF 0
ENDMDL
