MODEL 1
REMARK minimizedAffinity -4.12112904
REMARK minimizedRMSD -1
REMARK  0 active torsions:
REMARK  status: ('A' for Active; 'I' for Inactive)
ROOT
ATOM      1  C   UNL d   1       1.721  -2.708   0.173  0.00  0.00     0.020 A 
ATOM      2  C1  UNL d   1       0.651  -3.209   0.913  0.00  0.00     0.020 A 
ATOM      3  C2  UNL d   1      -0.323  -2.340   1.409  0.00  0.00     0.034 A 
ATOM      4  C3  UNL d   1      -0.229  -0.965   1.165  0.00  0.00     0.017 A 
ATOM      5  C4  UNL d   1       0.846  -0.463   0.422  0.00  0.00     0.017 A 
ATOM      6  C5  UNL d   1       1.818  -1.338  -0.072  0.00  0.00     0.034 A 
ATOM      7 Cl   UNL d   1       1.030   1.221   0.079  0.00  0.00    -0.070 Cl
ATOM      8 Cl1  UNL d   1      -1.469   0.052   1.808  0.00  0.00    -0.070 Cl
ENDROOT
TORSDOF 0
ENDMDL
