MODEL 1
REMARK minimizedAffinity -2.04940152
REMARK minimizedRMSD -1
REMARK  0 active torsions:
REMARK  status: ('A' for Active; 'I' for Inactive)
ROOT
ATOM      1  C   UNL d   1      -2.186   2.171  -3.169  0.00  0.00     0.020 A 
ATOM      2  C1  UNL d   1      -2.328   0.817  -3.467  0.00  0.00     0.020 A 
ATOM      3  C2  UNL d   1      -1.824  -0.147  -2.591  0.00  0.00     0.034 A 
ATOM      4  C3  UNL d   1      -1.176   0.241  -1.413  0.00  0.00     0.017 A 
ATOM      5  C4  UNL d   1      -1.034   1.601  -1.115  0.00  0.00     0.017 A 
ATOM      6  C5  UNL d   1      -1.540   2.563  -1.995  0.00  0.00     0.034 A 
ATOM      7 Cl   UNL d   1      -0.247   2.158   0.320  0.00  0.00    -0.070 Cl
ATOM      8 Cl1  UNL d   1      -0.579  -1.005  -0.376  0.00  0.00    -0.070 Cl
ENDROOT
TORSDOF 0
ENDMDL
