MODEL 1
REMARK minimizedAffinity -3.11558223
REMARK minimizedRMSD -1
REMARK  0 active torsions:
REMARK  status: ('A' for Active; 'I' for Inactive)
ROOT
ATOM      1  C   UNL d   1      -0.192   1.272   0.303  0.00  0.00     0.020 A 
ATOM      2  C1  UNL d   1       0.947   0.806  -0.353  0.00  0.00     0.020 A 
ATOM      3  C2  UNL d   1       1.278  -0.550  -0.300  0.00  0.00     0.034 A 
ATOM      4  C3  UNL d   1       0.469  -1.444   0.411  0.00  0.00     0.017 A 
ATOM      5  C4  UNL d   1      -0.674  -0.976   1.068  0.00  0.00     0.017 A 
ATOM      6  C5  UNL d   1      -1.001   0.383   1.012  0.00  0.00     0.034 A 
ATOM      7 Cl   UNL d   1      -1.721  -2.019   1.964  0.00  0.00    -0.070 Cl
ATOM      8 Cl1  UNL d   1       0.938  -3.107   0.434  0.00  0.00    -0.070 Cl
ENDROOT
TORSDOF 0
ENDMDL
