MODEL 1
REMARK minimizedAffinity -2.49542856
REMARK minimizedRMSD -1
REMARK  0 active torsions:
REMARK  status: ('A' for Active; 'I' for Inactive)
ROOT
ATOM      1  C   UNL d   1       1.284  -1.859   1.169  0.00  0.00     0.020 A 
ATOM      2  C1  UNL d   1      -0.071  -2.070   0.920  0.00  0.00     0.020 A 
ATOM      3  C2  UNL d   1      -0.816  -1.102   0.243  0.00  0.00     0.034 A 
ATOM      4  C3  UNL d   1      -0.205   0.082  -0.188  0.00  0.00     0.017 A 
ATOM      5  C4  UNL d   1       1.156   0.293   0.062  0.00  0.00     0.017 A 
ATOM      6  C5  UNL d   1       1.896  -0.680   0.741  0.00  0.00     0.034 A 
ATOM      7 Cl   UNL d   1       1.979   1.727  -0.439  0.00  0.00    -0.070 Cl
ATOM      8 Cl1  UNL d   1      -1.186   1.235  -1.020  0.00  0.00    -0.070 Cl
ENDROOT
TORSDOF 0
ENDMDL
