MODEL 1
REMARK minimizedAffinity -3.55210686
REMARK minimizedRMSD -1
REMARK  0 active torsions:
REMARK  status: ('A' for Active; 'I' for Inactive)
ROOT
ATOM      1  C   UNL d   1       0.012   0.803  -0.508  0.00  0.00     0.020 A 
ATOM      2  C1  UNL d   1       1.245   0.231  -0.816  0.00  0.00     0.020 A 
ATOM      3  C2  UNL d   1       1.602  -1.001  -0.263  0.00  0.00     0.034 A 
ATOM      4  C3  UNL d   1       0.724  -1.665   0.602  0.00  0.00     0.017 A 
ATOM      5  C4  UNL d   1      -0.514  -1.090   0.910  0.00  0.00     0.017 A 
ATOM      6  C5  UNL d   1      -0.866   0.144   0.354  0.00  0.00     0.034 A 
ATOM      7 Cl   UNL d   1      -1.650  -1.849   1.969  0.00  0.00    -0.070 Cl
ATOM      8 Cl1  UNL d   1       1.230  -3.185   1.249  0.00  0.00    -0.070 Cl
ENDROOT
TORSDOF 0
ENDMDL
