MODEL 1
REMARK minimizedAffinity -5.34070253
REMARK minimizedRMSD -1
REMARK  0 active torsions:
REMARK  status: ('A' for Active; 'I' for Inactive)
ROOT
ATOM      1  C   UNL d   1       1.250  -2.327   1.176  0.00  0.00     0.020 A 
ATOM      2  C1  UNL d   1      -0.116  -2.155   1.396  0.00  0.00     0.020 A 
ATOM      3  C2  UNL d   1      -0.773  -1.042   0.867  0.00  0.00     0.034 A 
ATOM      4  C3  UNL d   1      -0.065  -0.097   0.116  0.00  0.00     0.017 A 
ATOM      5  C4  UNL d   1       1.306  -0.271  -0.104  0.00  0.00     0.017 A 
ATOM      6  C5  UNL d   1       1.960  -1.387   0.427  0.00  0.00     0.034 A 
ATOM      7 Cl   UNL d   1       2.248   0.852  -1.021  0.00  0.00    -0.070 Cl
ATOM      8 Cl1  UNL d   1      -0.942   1.255  -0.508  0.00  0.00    -0.070 Cl
ENDROOT
TORSDOF 0
ENDMDL
