MODEL 1
REMARK minimizedAffinity -4.99452877
REMARK minimizedRMSD -1
REMARK  0 active torsions:
REMARK  status: ('A' for Active; 'I' for Inactive)
ROOT
ATOM      1  C   UNL d   1       0.171  -2.425   0.421  0.00  0.00     0.020 A 
ATOM      2  C1  UNL d   1       1.564  -2.407   0.465  0.00  0.00     0.020 A 
ATOM      3  C2  UNL d   1       2.256  -1.219   0.221  0.00  0.00     0.034 A 
ATOM      4  C3  UNL d   1       1.554  -0.043  -0.068  0.00  0.00     0.017 A 
ATOM      5  C4  UNL d   1       0.155  -0.061  -0.112  0.00  0.00     0.017 A 
ATOM      6  C5  UNL d   1      -0.532  -1.254   0.133  0.00  0.00     0.034 A 
ATOM      7 Cl   UNL d   1      -0.780   1.349  -0.463  0.00  0.00    -0.070 Cl
ATOM      8 Cl1  UNL d   1       2.474   1.390  -0.360  0.00  0.00    -0.070 Cl
ENDROOT
TORSDOF 0
ENDMDL
