MODEL 1
REMARK minimizedAffinity -3.61878943
REMARK minimizedRMSD -1
REMARK  0 active torsions:
REMARK  status: ('A' for Active; 'I' for Inactive)
ROOT
ATOM      1  C   UNL d   1       1.886  -2.607   0.967  0.00  0.00     0.020 A 
ATOM      2  C1  UNL d   1       2.491  -1.598   0.220  0.00  0.00     0.020 A 
ATOM      3  C2  UNL d   1       1.783  -0.433  -0.084  0.00  0.00     0.034 A 
ATOM      4  C3  UNL d   1       0.464  -0.276   0.359  0.00  0.00     0.017 A 
ATOM      5  C4  UNL d   1      -0.142  -1.290   1.109  0.00  0.00     0.017 A 
ATOM      6  C5  UNL d   1       0.572  -2.453   1.411  0.00  0.00     0.034 A 
ATOM      7 Cl   UNL d   1      -1.765  -1.167   1.692  0.00  0.00    -0.070 Cl
ATOM      8 Cl1  UNL d   1      -0.352   1.190  -0.053  0.00  0.00    -0.070 Cl
ENDROOT
TORSDOF 0
ENDMDL
