MODEL 1
REMARK minimizedAffinity -2.88585591
REMARK minimizedRMSD -1
REMARK  0 active torsions:
REMARK  status: ('A' for Active; 'I' for Inactive)
ROOT
ATOM      1  C   UNL d   1       2.354  -1.262   0.735  0.00  0.00     0.020 A 
ATOM      2  C1  UNL d   1       1.881  -2.569   0.624  0.00  0.00     0.020 A 
ATOM      3  C2  UNL d   1       0.564  -2.802   0.221  0.00  0.00     0.034 A 
ATOM      4  C3  UNL d   1      -0.283  -1.727  -0.073  0.00  0.00     0.017 A 
ATOM      5  C4  UNL d   1       0.194  -0.416   0.039  0.00  0.00     0.017 A 
ATOM      6  C5  UNL d   1       1.513  -0.188   0.443  0.00  0.00     0.034 A 
ATOM      7 Cl   UNL d   1      -0.792   0.961  -0.306  0.00  0.00    -0.070 Cl
ATOM      8 Cl1  UNL d   1      -1.899  -2.089  -0.566  0.00  0.00    -0.070 Cl
ENDROOT
TORSDOF 0
ENDMDL
