MODEL 1
REMARK minimizedAffinity -4.30799389
REMARK minimizedRMSD -1
REMARK  0 active torsions:
REMARK  status: ('A' for Active; 'I' for Inactive)
ROOT
ATOM      1  C   UNL d   1       1.952  -2.525   1.189  0.00  0.00     0.020 A 
ATOM      2  C1  UNL d   1       2.397  -1.541   0.307  0.00  0.00     0.020 A 
ATOM      3  C2  UNL d   1       1.582  -0.446   0.013  0.00  0.00     0.034 A 
ATOM      4  C3  UNL d   1       0.316  -0.333   0.600  0.00  0.00     0.017 A 
ATOM      5  C4  UNL d   1      -0.130  -1.321   1.485  0.00  0.00     0.017 A 
ATOM      6  C5  UNL d   1       0.691  -2.415   1.776  0.00  0.00     0.034 A 
ATOM      7 Cl   UNL d   1      -1.679  -1.251   2.249  0.00  0.00    -0.070 Cl
ATOM      8 Cl1  UNL d   1      -0.639   1.047   0.191  0.00  0.00    -0.070 Cl
ENDROOT
TORSDOF 0
ENDMDL
