MODEL 1
REMARK minimizedAffinity -3.91023707
REMARK minimizedRMSD -1
REMARK  0 active torsions:
REMARK  status: ('A' for Active; 'I' for Inactive)
ROOT
ATOM      1  C   UNL d   1      -0.040   1.226  -0.298  0.00  0.00     0.020 A 
ATOM      2  C1  UNL d   1       1.153   0.701  -0.794  0.00  0.00     0.020 A 
ATOM      3  C2  UNL d   1       1.590  -0.557  -0.375  0.00  0.00     0.034 A 
ATOM      4  C3  UNL d   1       0.834  -1.295   0.543  0.00  0.00     0.017 A 
ATOM      5  C4  UNL d   1      -0.364  -0.768   1.040  0.00  0.00     0.017 A 
ATOM      6  C5  UNL d   1      -0.797   0.492   0.617  0.00  0.00     0.034 A 
ATOM      7 Cl   UNL d   1      -1.351  -1.620   2.175  0.00  0.00    -0.070 Cl
ATOM      8 Cl1  UNL d   1       1.434  -2.845   1.017  0.00  0.00    -0.070 Cl
ENDROOT
TORSDOF 0
ENDMDL
