MODEL 1
REMARK minimizedAffinity 3.35068631
REMARK minimizedRMSD -1
REMARK  0 active torsions:
REMARK  status: ('A' for Active; 'I' for Inactive)
ROOT
ATOM      1  C   UNL d   1      -0.141  -0.955   2.089  0.00  0.00     0.020 A 
ATOM      2  C1  UNL d   1      -1.094  -1.572   1.278  0.00  0.00     0.020 A 
ATOM      3  C2  UNL d   1      -1.395  -1.036   0.025  0.00  0.00     0.034 A 
ATOM      4  C3  UNL d   1      -0.744   0.120  -0.422  0.00  0.00     0.017 A 
ATOM      5  C4  UNL d   1       0.211   0.738   0.392  0.00  0.00     0.017 A 
ATOM      6  C5  UNL d   1       0.510   0.197   1.646  0.00  0.00     0.034 A 
ATOM      7 Cl   UNL d   1       1.056   2.166  -0.091  0.00  0.00    -0.070 Cl
ATOM      8 Cl1  UNL d   1      -1.167   0.727  -1.984  0.00  0.00    -0.070 Cl
ENDROOT
TORSDOF 0
ENDMDL
