MODEL 1
REMARK minimizedAffinity -0.81788522
REMARK minimizedRMSD -1
REMARK  0 active torsions:
REMARK  status: ('A' for Active; 'I' for Inactive)
ROOT
ATOM      1  C   UNL d   1      -0.150  -0.762  -0.279  0.00  0.00     0.020 A 
ATOM      2  C1  UNL d   1       0.384   0.398   0.281  0.00  0.00     0.020 A 
ATOM      3  C2  UNL d   1       0.072   1.645  -0.265  0.00  0.00     0.034 A 
ATOM      4  C3  UNL d   1      -0.775   1.735  -1.376  0.00  0.00     0.017 A 
ATOM      5  C4  UNL d   1      -1.310   0.570  -1.938  0.00  0.00     0.017 A 
ATOM      6  C5  UNL d   1      -0.995  -0.676  -1.386  0.00  0.00     0.034 A 
ATOM      7 Cl   UNL d   1      -2.362   0.601  -3.308  0.00  0.00    -0.070 Cl
ATOM      8 Cl1  UNL d   1      -1.117   3.309  -2.000  0.00  0.00    -0.070 Cl
ENDROOT
TORSDOF 0
ENDMDL
