MODEL 1
REMARK minimizedAffinity -2.17845464
REMARK minimizedRMSD -1
REMARK  0 active torsions:
REMARK  status: ('A' for Active; 'I' for Inactive)
ROOT
ATOM      1  C   UNL d   1      -0.471   0.923  -0.301  0.00  0.00     0.020 A 
ATOM      2  C1  UNL d   1      -1.394  -0.075   0.005  0.00  0.00     0.020 A 
ATOM      3  C2  UNL d   1      -0.951  -1.340   0.398  0.00  0.00     0.034 A 
ATOM      4  C3  UNL d   1       0.420  -1.609   0.486  0.00  0.00     0.017 A 
ATOM      5  C4  UNL d   1       1.346  -0.606   0.179  0.00  0.00     0.017 A 
ATOM      6  C5  UNL d   1       0.897   0.658  -0.214  0.00  0.00     0.034 A 
ATOM      7 Cl   UNL d   1       3.053  -0.863   0.265  0.00  0.00    -0.070 Cl
ATOM      8 Cl1  UNL d   1       0.897  -3.195   0.979  0.00  0.00    -0.070 Cl
ENDROOT
TORSDOF 0
ENDMDL
