MODEL 1
REMARK minimizedAffinity -1.75140858
REMARK minimizedRMSD -1
REMARK  0 active torsions:
REMARK  status: ('A' for Active; 'I' for Inactive)
ROOT
ATOM      1  C   UNL d   1       3.967   1.363   5.415  0.00  0.00     0.078 C 
ATOM      2  C1  UNL d   1       4.381   2.804   5.431  0.00  0.00    -0.077 A 
ATOM      3  C2  UNL d   1       3.559   3.785   6.000  0.00  0.00    -0.001 A 
ATOM      4  C3  UNL d   1       3.953   5.124   5.998  0.00  0.00     0.003 A 
ATOM      5  C4  UNL d   1       5.169   5.495   5.428  0.00  0.00    -0.005 A 
ATOM      6  C5  UNL d   1       5.992   4.527   4.858  0.00  0.00     0.003 A 
ATOM      7  C6  UNL d   1       5.600   3.187   4.858  0.00  0.00    -0.001 A 
ENDROOT
TORSDOF 0
ENDMDL
