MODEL 1
REMARK minimizedAffinity -2.09386349
REMARK minimizedRMSD -1
REMARK  0 active torsions:
REMARK  status: ('A' for Active; 'I' for Inactive)
ROOT
ATOM      1  C   UNL d   1       4.205   5.986   5.646  0.00  0.00     0.078 C 
ATOM      2  C1  UNL d   1       3.906   4.517   5.631  0.00  0.00    -0.077 A 
ATOM      3  C2  UNL d   1       2.640   4.043   5.265  0.00  0.00    -0.001 A 
ATOM      4  C3  UNL d   1       2.373   2.673   5.265  0.00  0.00     0.003 A 
ATOM      5  C4  UNL d   1       3.366   1.766   5.631  0.00  0.00    -0.005 A 
ATOM      6  C5  UNL d   1       4.627   2.229   5.999  0.00  0.00     0.003 A 
ATOM      7  C6  UNL d   1       4.897   3.598   6.000  0.00  0.00    -0.001 A 
ENDROOT
TORSDOF 0
ENDMDL
