MODEL 1
REMARK minimizedAffinity 1.31611001
REMARK minimizedRMSD -1
REMARK  0 active torsions:
REMARK  status: ('A' for Active; 'I' for Inactive)
ROOT
ATOM      1  C   UNL d   1       4.878   5.921   6.000  0.00  0.00     0.078 C 
ATOM      2  C1  UNL d   1       4.608   4.498   5.610  0.00  0.00    -0.077 A 
ATOM      3  C2  UNL d   1       3.427   3.855   5.999  0.00  0.00    -0.001 A 
ATOM      4  C3  UNL d   1       3.194   2.527   5.637  0.00  0.00     0.003 A 
ATOM      5  C4  UNL d   1       4.137   1.831   4.884  0.00  0.00    -0.005 A 
ATOM      6  C5  UNL d   1       5.317   2.463   4.494  0.00  0.00     0.003 A 
ATOM      7  C6  UNL d   1       5.552   3.790   4.855  0.00  0.00    -0.001 A 
ENDROOT
TORSDOF 0
ENDMDL
