MODEL 1
REMARK minimizedAffinity -0.30594933
REMARK minimizedRMSD -1
REMARK  0 active torsions:
REMARK  status: ('A' for Active; 'I' for Inactive)
ROOT
ATOM      1  C   UNL d   1       2.640   1.418   6.000  0.00  0.00     0.078 C 
ATOM      2  C1  UNL d   1       3.495   2.544   5.500  0.00  0.00    -0.077 A 
ATOM      3  C2  UNL d   1       3.341   3.843   6.000  0.00  0.00    -0.001 A 
ATOM      4  C3  UNL d   1       4.136   4.883   5.518  0.00  0.00     0.003 A 
ATOM      5  C4  UNL d   1       5.090   4.636   4.532  0.00  0.00    -0.005 A 
ATOM      6  C5  UNL d   1       5.249   3.348   4.027  0.00  0.00     0.003 A 
ATOM      7  C6  UNL d   1       4.454   2.306   4.508  0.00  0.00    -0.001 A 
ENDROOT
TORSDOF 0
ENDMDL
