MODEL 1
REMARK minimizedAffinity -2.4607532
REMARK minimizedRMSD -1
REMARK  0 active torsions:
REMARK  status: ('A' for Active; 'I' for Inactive)
ROOT
ATOM      1  C   UNL d   1       2.289  -2.333  -0.030  0.00  0.00     0.078 C 
ATOM      2  C1  UNL d   1       2.909  -0.969  -0.103  0.00  0.00    -0.077 A 
ATOM      3  C2  UNL d   1       3.735  -0.609  -1.175  0.00  0.00    -0.001 A 
ATOM      4  C3  UNL d   1       4.313   0.661  -1.225  0.00  0.00     0.003 A 
ATOM      5  C4  UNL d   1       4.071   1.580  -0.207  0.00  0.00    -0.005 A 
ATOM      6  C5  UNL d   1       3.251   1.231   0.865  0.00  0.00     0.003 A 
ATOM      7  C6  UNL d   1       2.673  -0.039   0.917  0.00  0.00    -0.001 A 
ENDROOT
TORSDOF 0
ENDMDL
