MODEL 1
REMARK minimizedAffinity -4.60964966
REMARK minimizedRMSD -1
REMARK  0 active torsions:
REMARK  status: ('A' for Active; 'I' for Inactive)
ROOT
ATOM      1  C   UNL d   1       3.126   2.713   3.765  0.00  0.00     0.078 C 
ATOM      2  C1  UNL d   1       4.095   3.577   4.516  0.00  0.00    -0.077 A 
ATOM      3  C2  UNL d   1       5.108   3.012   5.299  0.00  0.00    -0.001 A 
ATOM      4  C3  UNL d   1       5.997   3.828   6.000  0.00  0.00     0.003 A 
ATOM      5  C4  UNL d   1       5.880   5.215   5.926  0.00  0.00    -0.005 A 
ATOM      6  C5  UNL d   1       4.874   5.786   5.151  0.00  0.00     0.003 A 
ATOM      7  C6  UNL d   1       3.984   4.972   4.449  0.00  0.00    -0.001 A 
ENDROOT
TORSDOF 0
ENDMDL
