MODEL 1
REMARK minimizedAffinity -3.33007455
REMARK minimizedRMSD -1
REMARK  0 active torsions:
REMARK  status: ('A' for Active; 'I' for Inactive)
ROOT
ATOM      1  C   UNL d   1       2.722   1.517   5.579  0.00  0.00     0.078 C 
ATOM      2  C1  UNL d   1       3.560   2.761   5.563  0.00  0.00    -0.077 A 
ATOM      3  C2  UNL d   1       4.891   2.729   5.129  0.00  0.00    -0.001 A 
ATOM      4  C3  UNL d   1       5.661   3.893   5.129  0.00  0.00     0.003 A 
ATOM      5  C4  UNL d   1       5.110   5.097   5.563  0.00  0.00    -0.005 A 
ATOM      6  C5  UNL d   1       3.788   5.138   5.999  0.00  0.00     0.003 A 
ATOM      7  C6  UNL d   1       3.015   3.976   6.000  0.00  0.00    -0.001 A 
ENDROOT
TORSDOF 0
ENDMDL
