MODEL 1
REMARK minimizedAffinity -4.53280687
REMARK minimizedRMSD -1
REMARK  0 active torsions:
REMARK  status: ('A' for Active; 'I' for Inactive)
ROOT
ATOM      1  C   UNL d   1       0.533   5.180   4.038  0.00  0.00     0.078 C 
ATOM      2  C1  UNL d   1       1.899   4.656   4.369  0.00  0.00    -0.077 A 
ATOM      3  C2  UNL d   1       2.133   3.281   4.492  0.00  0.00    -0.001 A 
ATOM      4  C3  UNL d   1       3.407   2.807   4.811  0.00  0.00     0.003 A 
ATOM      5  C4  UNL d   1       4.456   3.702   5.011  0.00  0.00    -0.005 A 
ATOM      6  C5  UNL d   1       4.232   5.073   4.893  0.00  0.00     0.003 A 
ATOM      7  C6  UNL d   1       2.959   5.548   4.574  0.00  0.00    -0.001 A 
ENDROOT
TORSDOF 0
ENDMDL
