MODEL 1
REMARK minimizedAffinity -3.96027088
REMARK minimizedRMSD -1
REMARK  0 active torsions:
REMARK  status: ('A' for Active; 'I' for Inactive)
ROOT
ATOM      1  C   UNL d   1       3.812   1.225   5.633  0.00  0.00     0.078 C 
ATOM      2  C1  UNL d   1       3.563   2.626   5.161  0.00  0.00    -0.077 A 
ATOM      3  C2  UNL d   1       3.982   3.045   3.892  0.00  0.00    -0.001 A 
ATOM      4  C3  UNL d   1       3.751   4.355   3.469  0.00  0.00     0.003 A 
ATOM      5  C4  UNL d   1       3.103   5.258   4.309  0.00  0.00    -0.005 A 
ATOM      6  C5  UNL d   1       2.685   4.851   5.574  0.00  0.00     0.003 A 
ATOM      7  C6  UNL d   1       2.914   3.541   5.999  0.00  0.00    -0.001 A 
ENDROOT
TORSDOF 0
ENDMDL
