MODEL 1
REMARK minimizedAffinity 0.947407067
REMARK minimizedRMSD -1
REMARK  0 active torsions:
REMARK  status: ('A' for Active; 'I' for Inactive)
ROOT
ATOM      1  C   UNL d   1       1.218   4.779   6.000  0.00  0.00     0.078 C 
ATOM      2  C1  UNL d   1       2.550   4.354   5.459  0.00  0.00    -0.077 A 
ATOM      3  C2  UNL d   1       3.635   5.239   5.437  0.00  0.00    -0.001 A 
ATOM      4  C3  UNL d   1       4.867   4.833   4.921  0.00  0.00     0.003 A 
ATOM      5  C4  UNL d   1       5.025   3.542   4.422  0.00  0.00    -0.005 A 
ATOM      6  C5  UNL d   1       3.951   2.655   4.438  0.00  0.00     0.003 A 
ATOM      7  C6  UNL d   1       2.718   3.059   4.953  0.00  0.00    -0.001 A 
ENDROOT
TORSDOF 0
ENDMDL
