MODEL 1
REMARK minimizedAffinity -0.0372627825
REMARK minimizedRMSD -1
REMARK  0 active torsions:
REMARK  status: ('A' for Active; 'I' for Inactive)
ROOT
ATOM      1  C   UNL d   1       3.219   1.359   5.574  0.00  0.00     0.078 C 
ATOM      2  C1  UNL d   1       3.755   2.675   5.094  0.00  0.00    -0.077 A 
ATOM      3  C2  UNL d   1       4.120   3.679   6.000  0.00  0.00    -0.001 A 
ATOM      4  C3  UNL d   1       4.608   4.902   5.539  0.00  0.00     0.003 A 
ATOM      5  C4  UNL d   1       4.735   5.134   4.171  0.00  0.00    -0.005 A 
ATOM      6  C5  UNL d   1       4.372   4.142   3.262  0.00  0.00     0.003 A 
ATOM      7  C6  UNL d   1       3.883   2.918   3.721  0.00  0.00    -0.001 A 
ENDROOT
TORSDOF 0
ENDMDL
