MODEL 1
REMARK minimizedAffinity -3.91264296
REMARK minimizedRMSD -1
REMARK  2 active torsions:
REMARK  status: ('A' for Active; 'I' for Inactive)
REMARK    1  A    between atoms: C2'_3  and  C1'_4 
REMARK    2  A    between atoms: C1'_4  and  C1_5 
ROOT
ATOM      1  C1  I4B d   1       1.762  -2.726   2.582  0.00  0.00    -0.075 A 
ATOM      2  C2  I4B d   1       2.389  -2.663   1.363  0.00  0.00     0.003 A 
ATOM      3  C3  I4B d   1       2.079  -1.621   0.455  0.00  0.00     0.002 A 
ATOM      4  C4  I4B d   1       1.107  -0.699   0.786  0.00  0.00    -0.004 A 
ATOM      5  C5  I4B d   1       0.489  -0.751   2.032  0.00  0.00     0.002 A 
ATOM      6  C6  I4B d   1       0.827  -1.764   2.941  0.00  0.00     0.003 A 
ENDROOT
BRANCH   1   7
ATOM      7  C1' I4B d   1       2.090  -3.859   3.503  0.00  0.00     0.060 C 
BRANCH   7   8
ATOM      8  C2' I4B d   1       3.576  -3.810   3.793  0.00  0.00    -0.013 C 
ATOM      9  C4' I4B d   1       3.842  -3.368   5.208  0.00  0.00     0.013 C 
ATOM     10  C3' I4B d   1       4.143  -5.175   3.536  0.00  0.00     0.013 C 
ENDBRANCH   7   8
ENDBRANCH   1   7
TORSDOF 2
ENDMDL
