MODEL 1
REMARK minimizedAffinity 2.53422117
REMARK minimizedRMSD -1
REMARK  2 active torsions:
REMARK  status: ('A' for Active; 'I' for Inactive)
REMARK    1  A    between atoms: C2'_3  and  C1'_4 
REMARK    2  A    between atoms: C1'_4  and  C1_5 
ROOT
ATOM      1  C1  I4B d   1       1.124  -0.876   1.683  0.00  0.00    -0.075 A 
ATOM      2  C2  I4B d   1       1.637  -2.148   1.736  0.00  0.00     0.003 A 
ATOM      3  C3  I4B d   1       0.897  -3.190   2.347  0.00  0.00     0.002 A 
ATOM      4  C4  I4B d   1      -0.320  -2.907   2.932  0.00  0.00    -0.004 A 
ATOM      5  C5  I4B d   1      -0.849  -1.622   2.857  0.00  0.00     0.002 A 
ATOM      6  C6  I4B d   1      -0.128  -0.602   2.218  0.00  0.00     0.003 A 
ENDROOT
BRANCH   1   7
ATOM      7  C1' I4B d   1       1.946   0.207   1.059  0.00  0.00     0.060 C 
BRANCH   7   8
ATOM      8  C2' I4B d   1       1.931  -0.001  -0.441  0.00  0.00    -0.013 C 
ATOM      9  C4' I4B d   1       0.524  -0.132  -0.960  0.00  0.00     0.013 C 
ATOM     10  C3' I4B d   1       2.637   1.159  -1.076  0.00  0.00     0.013 C 
ENDBRANCH   7   8
ENDBRANCH   1   7
TORSDOF 2
ENDMDL
