MODEL 1
REMARK minimizedAffinity 5.28471804
REMARK minimizedRMSD -1
REMARK  2 active torsions:
REMARK  status: ('A' for Active; 'I' for Inactive)
REMARK    1  A    between atoms: C2'_3  and  C1'_4 
REMARK    2  A    between atoms: C1'_4  and  C1_5 
ROOT
ATOM      1  C1  I4B d   1      -0.249  -0.719   2.662  0.00  0.00    -0.075 A 
ATOM      2  C2  I4B d   1      -0.623   0.515   3.132  0.00  0.00     0.003 A 
ATOM      3  C3  I4B d   1      -1.988   0.892   3.137  0.00  0.00     0.002 A 
ATOM      4  C4  I4B d   1      -2.933   0.031   2.619  0.00  0.00    -0.004 A 
ATOM      5  C5  I4B d   1      -2.555  -1.229   2.163  0.00  0.00     0.002 A 
ATOM      6  C6  I4B d   1      -1.206  -1.611   2.196  0.00  0.00     0.003 A 
ENDROOT
BRANCH   1   7
ATOM      7  C1' I4B d   1       1.204  -1.072   2.641  0.00  0.00     0.060 C 
BRANCH   7   8
ATOM      8  C2' I4B d   1       1.525  -1.648   1.276  0.00  0.00    -0.013 C 
ATOM      9  C4' I4B d   1       2.077  -0.593   0.355  0.00  0.00     0.013 C 
ATOM     10  C3' I4B d   1       2.505  -2.768   1.465  0.00  0.00     0.013 C 
ENDBRANCH   7   8
ENDBRANCH   1   7
TORSDOF 2
ENDMDL
