MODEL 1
REMARK minimizedAffinity -1.67470181
REMARK minimizedRMSD -1
REMARK  2 active torsions:
REMARK  status: ('A' for Active; 'I' for Inactive)
REMARK    1  A    between atoms: C2'_3  and  C1'_4 
REMARK    2  A    between atoms: C1'_4  and  C1_5 
ROOT
ATOM      1  C1  I4B d   1       3.160  -3.313   1.170  0.00  0.00    -0.075 A 
ATOM      2  C2  I4B d   1       4.284  -3.565   0.422  0.00  0.00     0.003 A 
ATOM      3  C3  I4B d   1       5.463  -4.040   1.046  0.00  0.00     0.002 A 
ATOM      4  C4  I4B d   1       5.490  -4.198   2.417  0.00  0.00    -0.004 A 
ATOM      5  C5  I4B d   1       4.344  -3.963   3.170  0.00  0.00     0.002 A 
ATOM      6  C6  I4B d   1       3.167  -3.530   2.541  0.00  0.00     0.003 A 
ENDROOT
BRANCH   1   7
ATOM      7  C1' I4B d   1       1.942  -2.781   0.483  0.00  0.00     0.060 C 
BRANCH   7   8
ATOM      8  C2' I4B d   1       1.863  -1.294   0.759  0.00  0.00    -0.013 C 
ATOM      9  C4' I4B d   1       1.401  -0.537  -0.459  0.00  0.00     0.013 C 
ATOM     10  C3' I4B d   1       0.926  -1.086   1.911  0.00  0.00     0.013 C 
ENDBRANCH   7   8
ENDBRANCH   1   7
TORSDOF 2
ENDMDL
