MODEL 1
REMARK minimizedAffinity -1.28960598
REMARK minimizedRMSD -1
REMARK  2 active torsions:
REMARK  status: ('A' for Active; 'I' for Inactive)
REMARK    1  A    between atoms: C2'_3  and  C1'_4 
REMARK    2  A    between atoms: C1'_4  and  C1_5 
ROOT
ATOM      1  C1  I4B d   1      -1.397   0.246  -1.262  0.00  0.00    -0.075 A 
ATOM      2  C2  I4B d   1      -0.105  -0.206  -1.165  0.00  0.00     0.003 A 
ATOM      3  C3  I4B d   1       0.359  -0.786   0.040  0.00  0.00     0.002 A 
ATOM      4  C4  I4B d   1      -0.482  -0.848   1.132  0.00  0.00    -0.004 A 
ATOM      5  C5  I4B d   1      -1.799  -0.410   1.025  0.00  0.00     0.002 A 
ATOM      6  C6  I4B d   1      -2.263   0.129  -0.183  0.00  0.00     0.003 A 
ENDROOT
BRANCH   1   7
ATOM      7  C1' I4B d   1      -1.844   0.884  -2.539  0.00  0.00     0.060 C 
BRANCH   7   8
ATOM      8  C2' I4B d   1      -1.831   2.386  -2.340  0.00  0.00    -0.013 C 
ATOM      9  C4' I4B d   1      -0.700   3.027  -3.100  0.00  0.00     0.013 C 
ATOM     10  C3' I4B d   1      -3.158   2.923  -2.789  0.00  0.00     0.013 C 
ENDBRANCH   7   8
ENDBRANCH   1   7
TORSDOF 2
ENDMDL
