MODEL 1
REMARK minimizedAffinity 8.61148071
REMARK minimizedRMSD -1
REMARK  2 active torsions:
REMARK  status: ('A' for Active; 'I' for Inactive)
REMARK    1  A    between atoms: C2'_3  and  C1'_4 
REMARK    2  A    between atoms: C1'_4  and  C1_5 
ROOT
ATOM      1  C1  I4B d   1      -3.149   0.075   1.722  0.00  0.00    -0.075 A 
ATOM      2  C2  I4B d   1      -3.877   0.805   2.628  0.00  0.00     0.003 A 
ATOM      3  C3  I4B d   1      -5.278   0.625   2.728  0.00  0.00     0.002 A 
ATOM      4  C4  I4B d   1      -5.912  -0.253   1.873  0.00  0.00    -0.004 A 
ATOM      5  C5  I4B d   1      -5.170  -1.009   0.970  0.00  0.00     0.002 A 
ATOM      6  C6  I4B d   1      -3.778  -0.854   0.902  0.00  0.00     0.003 A 
ENDROOT
BRANCH   1   7
ATOM      7  C1' I4B d   1      -1.676   0.314   1.620  0.00  0.00     0.060 C 
BRANCH   7   8
ATOM      8  C2' I4B d   1      -0.988  -1.033   1.538  0.00  0.00    -0.013 C 
ATOM      9  C4' I4B d   1       0.211  -0.979   0.629  0.00  0.00     0.013 C 
ATOM     10  C3' I4B d   1      -0.597  -1.439   2.927  0.00  0.00     0.013 C 
ENDBRANCH   7   8
ENDBRANCH   1   7
TORSDOF 2
ENDMDL
