MODEL 1
REMARK minimizedAffinity 4.34122562
REMARK minimizedRMSD -1
REMARK  2 active torsions:
REMARK  status: ('A' for Active; 'I' for Inactive)
REMARK    1  A    between atoms: C2'_3  and  C1'_4 
REMARK    2  A    between atoms: C1'_4  and  C1_5 
ROOT
ATOM      1  C1  I4B d   1       1.601  -1.878   0.877  0.00  0.00    -0.075 A 
ATOM      2  C2  I4B d   1       1.640  -3.125   1.449  0.00  0.00     0.003 A 
ATOM      3  C3  I4B d   1       0.790  -3.436   2.539  0.00  0.00     0.002 A 
ATOM      4  C4  I4B d   1      -0.041  -2.461   3.052  0.00  0.00    -0.004 A 
ATOM      5  C5  I4B d   1      -0.096  -1.204   2.456  0.00  0.00     0.002 A 
ATOM      6  C6  I4B d   1       0.721  -0.914   1.353  0.00  0.00     0.003 A 
ENDROOT
BRANCH   1   7
ATOM      7  C1' I4B d   1       2.535  -1.573  -0.251  0.00  0.00     0.060 C 
BRANCH   7   8
ATOM      8  C2' I4B d   1       2.675  -0.067  -0.348  0.00  0.00    -0.013 C 
ATOM      9  C4' I4B d   1       4.096   0.366  -0.101  0.00  0.00     0.013 C 
ATOM     10  C3' I4B d   1       2.209   0.354  -1.710  0.00  0.00     0.013 C 
ENDBRANCH   7   8
ENDBRANCH   1   7
TORSDOF 2
ENDMDL
