MODEL 1
REMARK minimizedAffinity 1.02152252
REMARK minimizedRMSD -1
REMARK  2 active torsions:
REMARK  status: ('A' for Active; 'I' for Inactive)
REMARK    1  A    between atoms: C2'_3  and  C1'_4 
REMARK    2  A    between atoms: C1'_4  and  C1_5 
ROOT
ATOM      1  C1  I4B d   1       1.244  -1.582   0.582  0.00  0.00    -0.075 A 
ATOM      2  C2  I4B d   1       0.437  -0.667   1.212  0.00  0.00     0.003 A 
ATOM      3  C3  I4B d   1      -0.173  -0.987   2.449  0.00  0.00     0.002 A 
ATOM      4  C4  I4B d   1       0.010  -2.243   2.993  0.00  0.00    -0.004 A 
ATOM      5  C5  I4B d   1       0.847  -3.160   2.364  0.00  0.00     0.002 A 
ATOM      6  C6  I4B d   1       1.478  -2.824   1.158  0.00  0.00     0.003 A 
ENDROOT
BRANCH   1   7
ATOM      7  C1' I4B d   1       1.845  -1.223  -0.740  0.00  0.00     0.060 C 
BRANCH   7   8
ATOM      8  C2' I4B d   1       2.234   0.240  -0.694  0.00  0.00    -0.013 C 
ATOM      9  C4' I4B d   1       3.663   0.410  -0.247  0.00  0.00     0.013 C 
ATOM     10  C3' I4B d   1       2.022   0.820  -2.060  0.00  0.00     0.013 C 
ENDBRANCH   7   8
ENDBRANCH   1   7
TORSDOF 2
ENDMDL
