MODEL 1
REMARK minimizedAffinity 7.82880163
REMARK minimizedRMSD -1
REMARK  3 active torsions:
REMARK  status: ('A' for Active; 'I' for Inactive)
REMARK    1  A    between atoms: C3'_2  and  C2'_3 
REMARK    2  A    between atoms: C2'_3  and  C1'_4 
REMARK    3  A    between atoms: C1'_4  and  C1_5 
ROOT
ATOM      1  C1  N4B d   1       1.612   1.649   1.198  0.00  0.00    -0.075 A 
ATOM      2  C2  N4B d   1       2.116   2.525   2.185  0.00  0.00     0.002 A 
ATOM      3  C3  N4B d   1       1.319   2.906   3.236  0.00  0.00     0.002 A 
ATOM      4  C4  N4B d   1       0.014   2.441   3.312  0.00  0.00    -0.004 A 
ATOM      5  C5  N4B d   1      -0.456   1.575   2.368  0.00  0.00     0.002 A 
ATOM      6  C6  N4B d   1       0.335   1.180   1.308  0.00  0.00     0.002 A 
ENDROOT
BRANCH   1   7
ATOM      7  C1' N4B d   1       2.417   1.272  -0.015  0.00  0.00     0.057 C 
BRANCH   7   8
ATOM      8  C2' N4B d   1       3.424   0.191   0.368  0.00  0.00     0.009 C 
BRANCH   8   9
ATOM      9  C3' N4B d   1       2.953  -1.194  -0.042  0.00  0.00     0.004 C 
ATOM     10  C4' N4B d   1       2.896  -2.152   1.111  0.00  0.00     0.003 C 
ENDBRANCH   8   9
ENDBRANCH   7   8
ENDBRANCH   1   7
TORSDOF 3
ENDMDL
