MODEL 1
REMARK minimizedAffinity 0.412569761
REMARK minimizedRMSD -1
REMARK  3 active torsions:
REMARK  status: ('A' for Active; 'I' for Inactive)
REMARK    1  A    between atoms: C3'_2  and  C2'_3 
REMARK    2  A    between atoms: C2'_3  and  C1'_4 
REMARK    3  A    between atoms: C1'_4  and  C1_5 
ROOT
ATOM      1  C1  N4B d   1       1.500   0.104  -0.538  0.00  0.00    -0.075 A 
ATOM      2  C2  N4B d   1       2.066  -1.173  -0.327  0.00  0.00     0.002 A 
ATOM      3  C3  N4B d   1       1.304  -2.301  -0.511  0.00  0.00     0.002 A 
ATOM      4  C4  N4B d   1      -0.026  -2.176  -0.887  0.00  0.00    -0.004 A 
ATOM      5  C5  N4B d   1      -0.557  -0.940  -1.114  0.00  0.00     0.002 A 
ATOM      6  C6  N4B d   1       0.198   0.201  -0.936  0.00  0.00     0.002 A 
ENDROOT
BRANCH   1   7
ATOM      7  C1' N4B d   1       2.269   1.368  -0.266  0.00  0.00     0.057 C 
BRANCH   7   8
ATOM      8  C2' N4B d   1       3.700   1.201  -0.768  0.00  0.00     0.009 C 
BRANCH   8   9
ATOM      9  C3' N4B d   1       4.444   2.525  -0.811  0.00  0.00     0.004 C 
ATOM     10  C4' N4B d   1       5.932   2.352  -0.894  0.00  0.00     0.003 C 
ENDBRANCH   8   9
ENDBRANCH   7   8
ENDBRANCH   1   7
TORSDOF 3
ENDMDL
