MODEL 1
REMARK minimizedAffinity 1.28865576
REMARK minimizedRMSD -1
REMARK  3 active torsions:
REMARK  status: ('A' for Active; 'I' for Inactive)
REMARK    1  A    between atoms: C3'_2  and  C2'_3 
REMARK    2  A    between atoms: C2'_3  and  C1'_4 
REMARK    3  A    between atoms: C1'_4  and  C1_5 
ROOT
ATOM      1  C1  N4B d   1       1.361  -0.009  -0.123  0.00  0.00    -0.075 A 
ATOM      2  C2  N4B d   1       0.046  -0.235  -0.587  0.00  0.00     0.002 A 
ATOM      3  C3  N4B d   1      -0.352  -1.503  -0.930  0.00  0.00     0.002 A 
ATOM      4  C4  N4B d   1       0.549  -2.554  -0.837  0.00  0.00    -0.004 A 
ATOM      5  C5  N4B d   1       1.809  -2.331  -0.363  0.00  0.00     0.002 A 
ATOM      6  C6  N4B d   1       2.221  -1.062  -0.011  0.00  0.00     0.002 A 
ENDROOT
BRANCH   1   7
ATOM      7  C1' N4B d   1       1.869   1.374   0.182  0.00  0.00     0.057 C 
BRANCH   7   8
ATOM      8  C2' N4B d   1       3.271   1.532  -0.397  0.00  0.00     0.009 C 
BRANCH   8   9
ATOM      9  C3' N4B d   1       3.899   2.860  -0.011  0.00  0.00     0.004 C 
ATOM     10  C4' N4B d   1       3.725   3.184   1.443  0.00  0.00     0.003 C 
ENDBRANCH   8   9
ENDBRANCH   7   8
ENDBRANCH   1   7
TORSDOF 3
ENDMDL
