MODEL 1
REMARK minimizedAffinity -1.62166131
REMARK minimizedRMSD -1
REMARK  3 active torsions:
REMARK  status: ('A' for Active; 'I' for Inactive)
REMARK    1  A    between atoms: C3'_2  and  C2'_3 
REMARK    2  A    between atoms: C2'_3  and  C1'_4 
REMARK    3  A    between atoms: C1'_4  and  C1_5 
ROOT
ATOM      1  C1  N4B d   1       1.211  -0.042  -0.421  0.00  0.00    -0.075 A 
ATOM      2  C2  N4B d   1      -0.052   0.350  -0.915  0.00  0.00     0.002 A 
ATOM      3  C3  N4B d   1      -0.977  -0.601  -1.270  0.00  0.00     0.002 A 
ATOM      4  C4  N4B d   1      -0.655  -1.946  -1.157  0.00  0.00    -0.004 A 
ATOM      5  C5  N4B d   1       0.558  -2.316  -0.655  0.00  0.00     0.002 A 
ATOM      6  C6  N4B d   1       1.495  -1.371  -0.291  0.00  0.00     0.002 A 
ENDROOT
BRANCH   1   7
ATOM      7  C1' N4B d   1       2.285   0.961  -0.102  0.00  0.00     0.057 C 
BRANCH   7   8
ATOM      8  C2' N4B d   1       3.600   0.503  -0.727  0.00  0.00     0.009 C 
BRANCH   8   9
ATOM      9  C3' N4B d   1       4.406   1.669  -1.272  0.00  0.00     0.004 C 
ATOM     10  C4' N4B d   1       4.370   2.871  -0.375  0.00  0.00     0.003 C 
ENDBRANCH   8   9
ENDBRANCH   7   8
ENDBRANCH   1   7
TORSDOF 3
ENDMDL
