MODEL 1
REMARK minimizedAffinity 1.44208372
REMARK minimizedRMSD -1
REMARK  3 active torsions:
REMARK  status: ('A' for Active; 'I' for Inactive)
REMARK    1  A    between atoms: C3'_2  and  C2'_3 
REMARK    2  A    between atoms: C2'_3  and  C1'_4 
REMARK    3  A    between atoms: C1'_4  and  C1_5 
ROOT
ATOM      1  C1  N4B d   1       1.082  -0.239  -0.471  0.00  0.00    -0.075 A 
ATOM      2  C2  N4B d   1      -0.231  -0.291  -0.987  0.00  0.00     0.002 A 
ATOM      3  C3  N4B d   1      -0.797  -1.501  -1.305  0.00  0.00     0.002 A 
ATOM      4  C4  N4B d   1      -0.065  -2.667  -1.133  0.00  0.00    -0.004 A 
ATOM      5  C5  N4B d   1       1.194  -2.610  -0.610  0.00  0.00     0.002 A 
ATOM      6  C6  N4B d   1       1.774  -1.400  -0.283  0.00  0.00     0.002 A 
ENDROOT
BRANCH   1   7
ATOM      7  C1' N4B d   1       1.774   1.067  -0.190  0.00  0.00     0.057 C 
BRANCH   7   8
ATOM      8  C2' N4B d   1       3.197   1.008  -0.737  0.00  0.00     0.009 C 
BRANCH   8   9
ATOM      9  C3' N4B d   1       3.930   2.327  -0.561  0.00  0.00     0.004 C 
ATOM     10  C4' N4B d   1       5.327   2.292  -1.103  0.00  0.00     0.003 C 
ENDBRANCH   8   9
ENDBRANCH   7   8
ENDBRANCH   1   7
TORSDOF 3
ENDMDL
