MODEL 1
REMARK minimizedAffinity 7.36803961
REMARK minimizedRMSD -1
REMARK  1 active torsions:
REMARK  status: ('A' for Active; 'I' for Inactive)
REMARK    1  A    between atoms: C1_2  and  C2_3 
ROOT
ATOM      1  C2  UNL d   1      -0.531  -2.484  -5.369  0.00  0.00    -0.077 A 
ATOM      2  C3  UNL d   1       0.090  -1.396  -5.998  0.00  0.00     0.002 A 
ATOM      3  C4  UNL d   1       0.097  -0.139  -5.391  0.00  0.00     0.002 A 
ATOM      4  C5  UNL d   1      -0.511   0.041  -4.150  0.00  0.00    -0.004 A 
ATOM      5  C6  UNL d   1      -1.133  -1.035  -3.517  0.00  0.00     0.002 A 
ATOM      6  C7  UNL d   1      -1.142  -2.292  -4.123  0.00  0.00     0.002 A 
ENDROOT
BRANCH   1   7
ATOM      7  C1  UNL d   1      -0.497  -3.852  -6.000  0.00  0.00     0.055 C 
ATOM      8  C   UNL d   1      -1.876  -4.495  -6.000  0.00  0.00     0.019 C 
ENDBRANCH   1   7
TORSDOF 1
ENDMDL
