MODEL 1
REMARK minimizedAffinity 6.61857271
REMARK minimizedRMSD -1
REMARK  1 active torsions:
REMARK  status: ('A' for Active; 'I' for Inactive)
REMARK    1  A    between atoms: C1_2  and  C2_3 
ROOT
ATOM      1  C2  UNL d   1      -2.957  -0.550   0.797  0.00  0.00    -0.077 A 
ATOM      2  C3  UNL d   1      -3.653  -0.581  -0.420  0.00  0.00     0.002 A 
ATOM      3  C4  UNL d   1      -4.322   0.554  -0.880  0.00  0.00     0.002 A 
ATOM      4  C5  UNL d   1      -4.299   1.730  -0.132  0.00  0.00    -0.004 A 
ATOM      5  C6  UNL d   1      -3.612   1.770   1.080  0.00  0.00     0.002 A 
ATOM      6  C7  UNL d   1      -2.943   0.636   1.542  0.00  0.00     0.002 A 
ENDROOT
BRANCH   1   7
ATOM      7  C1  UNL d   1      -2.193  -1.759   1.271  0.00  0.00     0.055 C 
ATOM      8  C   UNL d   1      -0.709  -1.455   1.416  0.00  0.00     0.019 C 
ENDBRANCH   1   7
TORSDOF 1
ENDMDL
