MODEL 1
REMARK minimizedAffinity 5.41110325
REMARK minimizedRMSD -1
REMARK  1 active torsions:
REMARK  status: ('A' for Active; 'I' for Inactive)
REMARK    1  A    between atoms: C1_2  and  C2_3 
ROOT
ATOM      1  C2  UNL d   1       1.253  -2.071   4.018  0.00  0.00    -0.077 A 
ATOM      2  C3  UNL d   1       1.480  -0.807   4.581  0.00  0.00     0.002 A 
ATOM      3  C4  UNL d   1       1.082   0.348   3.906  0.00  0.00     0.002 A 
ATOM      4  C5  UNL d   1       0.451   0.251   2.667  0.00  0.00    -0.004 A 
ATOM      5  C6  UNL d   1       0.222  -1.001   2.098  0.00  0.00     0.002 A 
ATOM      6  C7  UNL d   1       0.621  -2.157   2.770  0.00  0.00     0.002 A 
ENDROOT
BRANCH   1   7
ATOM      7  C1  UNL d   1       1.638  -3.321   4.766  0.00  0.00     0.055 C 
ATOM      8  C   UNL d   1       2.883  -3.098   5.612  0.00  0.00     0.019 C 
ENDBRANCH   1   7
TORSDOF 1
ENDMDL
