MODEL 1
REMARK minimizedAffinity 4.23149157
REMARK minimizedRMSD -1
REMARK  1 active torsions:
REMARK  status: ('A' for Active; 'I' for Inactive)
REMARK    1  A    between atoms: C1_2  and  C2_3 
ROOT
ATOM      1  C2  UNL d   1       0.708  -1.725   3.657  0.00  0.00    -0.077 A 
ATOM      2  C3  UNL d   1       1.778  -0.819   3.621  0.00  0.00     0.002 A 
ATOM      3  C4  UNL d   1       1.626   0.428   3.013  0.00  0.00     0.002 A 
ATOM      4  C5  UNL d   1       0.407   0.783   2.441  0.00  0.00    -0.004 A 
ATOM      5  C6  UNL d   1      -0.663  -0.111   2.470  0.00  0.00     0.002 A 
ATOM      6  C7  UNL d   1      -0.513  -1.359   3.076  0.00  0.00     0.002 A 
ENDROOT
BRANCH   1   7
ATOM      7  C1  UNL d   1       0.854  -3.052   4.356  0.00  0.00     0.055 C 
ATOM      8  C   UNL d   1       1.864  -2.971   5.491  0.00  0.00     0.019 C 
ENDBRANCH   1   7
TORSDOF 1
ENDMDL
