MODEL 1
REMARK minimizedAffinity 8.34122753
REMARK minimizedRMSD -1
REMARK  1 active torsions:
REMARK  status: ('A' for Active; 'I' for Inactive)
REMARK    1  A    between atoms: C1_2  and  C2_3 
ROOT
ATOM      1  C2  UNL d   1       1.839  -1.344  -3.189  0.00  0.00    -0.077 A 
ATOM      2  C3  UNL d   1       0.727  -0.843  -3.880  0.00  0.00     0.002 A 
ATOM      3  C4  UNL d   1      -0.560  -1.013  -3.365  0.00  0.00     0.002 A 
ATOM      4  C5  UNL d   1      -0.745  -1.679  -2.155  0.00  0.00    -0.004 A 
ATOM      5  C6  UNL d   1       0.354  -2.182  -1.461  0.00  0.00     0.002 A 
ATOM      6  C7  UNL d   1       1.641  -2.015  -1.976  0.00  0.00     0.002 A 
ENDROOT
BRANCH   1   7
ATOM      7  C1  UNL d   1       3.232  -1.120  -3.718  0.00  0.00     0.055 C 
ATOM      8  C   UNL d   1       3.539   0.364  -3.856  0.00  0.00     0.019 C 
ENDBRANCH   1   7
TORSDOF 1
ENDMDL
