MODEL 1
REMARK minimizedAffinity 7.7147584
REMARK minimizedRMSD -1
REMARK  1 active torsions:
REMARK  status: ('A' for Active; 'I' for Inactive)
REMARK    1  A    between atoms: C1_2  and  C2_3 
ROOT
ATOM      1  C2  UNL d   1      -1.981  -3.919  -3.569  0.00  0.00    -0.077 A 
ATOM      2  C3  UNL d   1      -2.175  -5.307  -3.586  0.00  0.00     0.002 A 
ATOM      3  C4  UNL d   1      -2.214  -6.000  -4.798  0.00  0.00     0.002 A 
ATOM      4  C5  UNL d   1      -2.056  -5.313  -6.000  0.00  0.00    -0.004 A 
ATOM      5  C6  UNL d   1      -1.864  -3.932  -5.993  0.00  0.00     0.002 A 
ATOM      6  C7  UNL d   1      -1.826  -3.238  -4.783  0.00  0.00     0.002 A 
ENDROOT
BRANCH   1   7
ATOM      7  C1  UNL d   1      -1.890  -3.177  -2.261  0.00  0.00     0.055 C 
ATOM      8  C   UNL d   1      -2.752  -1.923  -2.274  0.00  0.00     0.019 C 
ENDBRANCH   1   7
TORSDOF 1
ENDMDL
