MODEL 1
REMARK minimizedAffinity 9.86493301
REMARK minimizedRMSD -1
REMARK  1 active torsions:
REMARK  status: ('A' for Active; 'I' for Inactive)
REMARK    1  A    between atoms: C1_2  and  C2_3 
ROOT
ATOM      1  C2  UNL d   1       0.169  -1.025  -3.356  0.00  0.00    -0.077 A 
ATOM      2  C3  UNL d   1      -0.702  -1.310  -4.416  0.00  0.00     0.002 A 
ATOM      3  C4  UNL d   1      -1.716  -2.257  -4.262  0.00  0.00     0.002 A 
ATOM      4  C5  UNL d   1      -1.871  -2.923  -3.048  0.00  0.00    -0.004 A 
ATOM      5  C6  UNL d   1      -1.009  -2.648  -1.988  0.00  0.00     0.002 A 
ATOM      6  C7  UNL d   1       0.006  -1.702  -2.141  0.00  0.00     0.002 A 
ENDROOT
BRANCH   1   7
ATOM      7  C1  UNL d   1       1.232   0.032  -3.504  0.00  0.00     0.055 C 
ATOM      8  C   UNL d   1       2.579  -0.583  -3.855  0.00  0.00     0.019 C 
ENDBRANCH   1   7
TORSDOF 1
ENDMDL
