MODEL 1
REMARK minimizedAffinity 8.72594643
REMARK minimizedRMSD -1
REMARK  0 active torsions:
REMARK  status: ('A' for Active; 'I' for Inactive)
ROOT
ATOM      1  C   UNL d   1       4.791  -2.635   0.497  0.00  0.00     0.172 C 
ATOM      2  N   UNL d   1       3.933  -1.511   0.202  0.00  0.00    -0.070 N 
ATOM      3  C1  UNL d   1       2.759  -1.566  -0.501  0.00  0.00    -0.004 A 
ATOM      4  C2  UNL d   1       2.245  -0.288  -0.563  0.00  0.00    -0.047 A 
ATOM      5  C3  UNL d   1       3.142   0.563   0.125  0.00  0.00    -0.047 A 
ATOM      6  C4  UNL d   1       4.178  -0.220   0.588  0.00  0.00    -0.004 A 
ENDROOT
TORSDOF 0
ENDMDL
