MODEL 1
REMARK minimizedAffinity 8.54575729
REMARK minimizedRMSD -1
REMARK  0 active torsions:
REMARK  status: ('A' for Active; 'I' for Inactive)
ROOT
ATOM      1  C   UNL d   1       1.691  -0.617  -2.325  0.00  0.00     0.172 C 
ATOM      2  N   UNL d   1       2.678  -0.114  -1.400  0.00  0.00    -0.070 N 
ATOM      3  C1  UNL d   1       3.151  -0.776  -0.298  0.00  0.00    -0.004 A 
ATOM      4  C2  UNL d   1       4.076   0.038   0.319  0.00  0.00    -0.047 A 
ATOM      5  C3  UNL d   1       4.162   1.231  -0.437  0.00  0.00    -0.047 A 
ATOM      6  C4  UNL d   1       3.286   1.110  -1.496  0.00  0.00    -0.004 A 
ENDROOT
TORSDOF 0
ENDMDL
