MODEL 1
REMARK minimizedAffinity 4.15993309
REMARK minimizedRMSD -1
REMARK  0 active torsions:
REMARK  status: ('A' for Active; 'I' for Inactive)
ROOT
ATOM      1  C   UNL d   1      -4.395  -2.966  -4.968  0.00  0.00     0.172 C 
ATOM      2  N   UNL d   1      -3.210  -3.156  -4.165  0.00  0.00    -0.070 N 
ATOM      3  C1  UNL d   1      -3.000  -4.181  -3.281  0.00  0.00    -0.004 A 
ATOM      4  C2  UNL d   1      -1.755  -4.006  -2.718  0.00  0.00    -0.047 A 
ATOM      5  C3  UNL d   1      -1.196  -2.834  -3.283  0.00  0.00    -0.047 A 
ATOM      6  C4  UNL d   1      -2.118  -2.329  -4.175  0.00  0.00    -0.004 A 
ENDROOT
TORSDOF 0
ENDMDL
