MODEL 1
REMARK minimizedAffinity 10.0699253
REMARK minimizedRMSD -1
REMARK  0 active torsions:
REMARK  status: ('A' for Active; 'I' for Inactive)
ROOT
ATOM      1  C   UNL d   1      -0.545   1.451   2.268  0.00  0.00     0.172 C 
ATOM      2  N   UNL d   1      -1.939   1.393   2.637  0.00  0.00    -0.070 N 
ATOM      3  C1  UNL d   1      -2.852   0.485   2.170  0.00  0.00    -0.004 A 
ATOM      4  C2  UNL d   1      -4.065   0.764   2.761  0.00  0.00    -0.047 A 
ATOM      5  C3  UNL d   1      -3.876   1.879   3.611  0.00  0.00    -0.047 A 
ATOM      6  C4  UNL d   1      -2.551   2.248   3.516  0.00  0.00    -0.004 A 
ENDROOT
TORSDOF 0
ENDMDL
