MODEL 1
REMARK minimizedAffinity 5.95117617
REMARK minimizedRMSD -1
REMARK  0 active torsions:
REMARK  status: ('A' for Active; 'I' for Inactive)
ROOT
ATOM      1  C   UNL d   1      -3.320   0.313   1.838  0.00  0.00     0.172 C 
ATOM      2  N   UNL d   1      -1.951   0.767   1.924  0.00  0.00    -0.070 N 
ATOM      3  C1  UNL d   1      -0.899   0.272   1.201  0.00  0.00    -0.004 A 
ATOM      4  C2  UNL d   1       0.232   0.967   1.572  0.00  0.00    -0.047 A 
ATOM      5  C3  UNL d   1      -0.154   1.911   2.552  0.00  0.00    -0.047 A 
ATOM      6  C4  UNL d   1      -1.511   1.766   2.752  0.00  0.00    -0.004 A 
ENDROOT
TORSDOF 0
ENDMDL
