MODEL 1
REMARK minimizedAffinity 10.1757631
REMARK minimizedRMSD -1
REMARK  0 active torsions:
REMARK  status: ('A' for Active; 'I' for Inactive)
ROOT
ATOM      1  C   UNL d   1      -1.369   1.630   2.639  0.00  0.00     0.172 C 
ATOM      2  N   UNL d   1       0.051   1.551   2.893  0.00  0.00    -0.070 N 
ATOM      3  C1  UNL d   1       1.040   1.794   1.978  0.00  0.00    -0.004 A 
ATOM      4  C2  UNL d   1       2.252   1.614   2.609  0.00  0.00    -0.047 A 
ATOM      5  C3  UNL d   1       1.982   1.249   3.949  0.00  0.00    -0.047 A 
ATOM      6  C4  UNL d   1       0.611   1.217   4.098  0.00  0.00    -0.004 A 
ENDROOT
TORSDOF 0
ENDMDL
