MODEL 1
REMARK minimizedAffinity 2.86734295
REMARK minimizedRMSD -1
REMARK  0 active torsions:
REMARK  status: ('A' for Active; 'I' for Inactive)
ROOT
ATOM      1  C   UNL d   1      -3.989   5.256  -6.000  0.00  0.00     0.172 C 
ATOM      2  N   UNL d   1      -2.981   4.410  -5.407  0.00  0.00    -0.070 N 
ATOM      3  C1  UNL d   1      -2.407   4.593  -4.177  0.00  0.00    -0.004 A 
ATOM      4  C2  UNL d   1      -1.497   3.577  -3.981  0.00  0.00    -0.047 A 
ATOM      5  C3  UNL d   1      -1.523   2.756  -5.133  0.00  0.00    -0.047 A 
ATOM      6  C4  UNL d   1      -2.450   3.294  -6.000  0.00  0.00    -0.004 A 
ENDROOT
TORSDOF 0
ENDMDL
