MODEL 1
REMARK minimizedAffinity 3.73745394
REMARK minimizedRMSD -1
REMARK  0 active torsions:
REMARK  status: ('A' for Active; 'I' for Inactive)
ROOT
ATOM      1  C   UNL d   1       3.761  -2.426   0.447  0.00  0.00     0.172 C 
ATOM      2  N   UNL d   1       3.109  -1.256  -0.093  0.00  0.00    -0.070 N 
ATOM      3  C1  UNL d   1       3.140  -0.002   0.455  0.00  0.00    -0.004 A 
ATOM      4  C2  UNL d   1       2.400   0.831  -0.356  0.00  0.00    -0.047 A 
ATOM      5  C3  UNL d   1       1.907   0.050  -1.428  0.00  0.00    -0.047 A 
ATOM      6  C4  UNL d   1       2.361  -1.238  -1.240  0.00  0.00    -0.004 A 
ENDROOT
TORSDOF 0
ENDMDL
