MODEL 1
REMARK minimizedAffinity 10.193325
REMARK minimizedRMSD -1
REMARK  0 active torsions:
REMARK  status: ('A' for Active; 'I' for Inactive)
ROOT
ATOM      1  C   UNL d   1       0.835  -3.386  -2.806  0.00  0.00     0.172 C 
ATOM      2  N   UNL d   1       1.266  -2.349  -1.898  0.00  0.00    -0.070 N 
ATOM      3  C1  UNL d   1       1.073  -1.005  -2.072  0.00  0.00    -0.004 A 
ATOM      4  C2  UNL d   1       1.628  -0.355  -0.990  0.00  0.00    -0.047 A 
ATOM      5  C3  UNL d   1       2.174  -1.344  -0.137  0.00  0.00    -0.047 A 
ATOM      6  C4  UNL d   1       1.936  -2.569  -0.723  0.00  0.00    -0.004 A 
ENDROOT
TORSDOF 0
ENDMDL
