MODEL 1
REMARK minimizedAffinity 8.37186337
REMARK minimizedRMSD -1
REMARK  0 active torsions:
REMARK  status: ('A' for Active; 'I' for Inactive)
ROOT
ATOM      1  C   UNL d   1       0.036   1.375   2.703  0.00  0.00     0.172 C 
ATOM      2  N   UNL d   1       1.162   1.210   1.814  0.00  0.00    -0.070 N 
ATOM      3  C1  UNL d   1       2.377   1.830   1.941  0.00  0.00    -0.004 A 
ATOM      4  C2  UNL d   1       3.175   1.411   0.899  0.00  0.00    -0.047 A 
ATOM      5  C3  UNL d   1       2.414   0.509   0.118  0.00  0.00    -0.047 A 
ATOM      6  C4  UNL d   1       1.172   0.403   0.707  0.00  0.00    -0.004 A 
ENDROOT
TORSDOF 0
ENDMDL
