MODEL 1
REMARK minimizedAffinity 7.70479536
REMARK minimizedRMSD -1
REMARK  0 active torsions:
REMARK  status: ('A' for Active; 'I' for Inactive)
ROOT
ATOM      1  C   UNL d   1       2.732   0.497  -0.248  0.00  0.00     0.172 C 
ATOM      2  N   UNL d   1       3.033  -0.896  -0.015  0.00  0.00    -0.070 N 
ATOM      3  C1  UNL d   1       2.202  -1.949  -0.289  0.00  0.00    -0.004 A 
ATOM      4  C2  UNL d   1       2.854  -3.107   0.074  0.00  0.00    -0.047 A 
ATOM      5  C3  UNL d   1       4.122  -2.738   0.584  0.00  0.00    -0.047 A 
ATOM      6  C4  UNL d   1       4.206  -1.363   0.517  0.00  0.00    -0.004 A 
ENDROOT
TORSDOF 0
ENDMDL
