MODEL 1
REMARK minimizedAffinity 7.47920704
REMARK minimizedRMSD -1
REMARK  0 active torsions:
REMARK  status: ('A' for Active; 'I' for Inactive)
ROOT
ATOM      1  C   UNL d   1       0.217   1.252   2.529  0.00  0.00     0.172 C 
ATOM      2  N   UNL d   1       0.391   1.501   3.941  0.00  0.00    -0.070 N 
ATOM      3  C1  UNL d   1       1.422   1.037   4.713  0.00  0.00    -0.004 A 
ATOM      4  C2  UNL d   1       1.225   1.492   5.999  0.00  0.00    -0.047 A 
ATOM      5  C3  UNL d   1       0.034   2.256   6.000  0.00  0.00    -0.047 A 
ATOM      6  C4  UNL d   1      -0.462   2.245   4.713  0.00  0.00    -0.004 A 
ENDROOT
TORSDOF 0
ENDMDL
