MODEL 1
REMARK minimizedAffinity 5.95520735
REMARK minimizedRMSD -1
REMARK  0 active torsions:
REMARK  status: ('A' for Active; 'I' for Inactive)
ROOT
ATOM      1  C   UNL d   1       2.459  -0.528  -0.224  0.00  0.00     0.172 C 
ATOM      2  N   UNL d   1       3.153  -1.728   0.181  0.00  0.00    -0.070 N 
ATOM      3  C1  UNL d   1       4.477  -1.809   0.519  0.00  0.00    -0.004 A 
ATOM      4  C2  UNL d   1       4.750  -3.121   0.843  0.00  0.00    -0.047 A 
ATOM      5  C3  UNL d   1       3.548  -3.853   0.694  0.00  0.00    -0.047 A 
ATOM      6  C4  UNL d   1       2.576  -2.967   0.282  0.00  0.00    -0.004 A 
ENDROOT
TORSDOF 0
ENDMDL
