MODEL 1
REMARK minimizedAffinity 7.16222191
REMARK minimizedRMSD -1
REMARK  0 active torsions:
REMARK  status: ('A' for Active; 'I' for Inactive)
ROOT
ATOM      1  C   UNL d   1      -1.351  -3.379  -4.152  0.00  0.00     0.172 C 
ATOM      2  N   UNL d   1      -2.682  -3.227  -4.691  0.00  0.00    -0.070 N 
ATOM      3  C1  UNL d   1      -3.009  -2.536  -5.828  0.00  0.00    -0.004 A 
ATOM      4  C2  UNL d   1      -4.374  -2.628  -6.000  0.00  0.00    -0.047 A 
ATOM      5  C3  UNL d   1      -4.884  -3.401  -4.930  0.00  0.00    -0.047 A 
ATOM      6  C4  UNL d   1      -3.816  -3.758  -4.135  0.00  0.00    -0.004 A 
ENDROOT
TORSDOF 0
ENDMDL
