MODEL 1
REMARK minimizedAffinity 4.33525324
REMARK minimizedRMSD -1
REMARK  0 active torsions:
REMARK  status: ('A' for Active; 'I' for Inactive)
ROOT
ATOM      1  C   UNL d   1       1.575   0.248  -0.198  0.00  0.00     0.172 C 
ATOM      2  N   UNL d   1       0.946   0.808   0.975  0.00  0.00    -0.070 N 
ATOM      3  C1  UNL d   1       1.598   1.260   2.092  0.00  0.00    -0.004 A 
ATOM      4  C2  UNL d   1       0.647   1.715   2.980  0.00  0.00    -0.047 A 
ATOM      5  C3  UNL d   1      -0.619   1.530   2.377  0.00  0.00    -0.047 A 
ATOM      6  C4  UNL d   1      -0.405   0.967   1.136  0.00  0.00    -0.004 A 
ENDROOT
TORSDOF 0
ENDMDL
