MODEL 1
REMARK minimizedAffinity 6.39205647
REMARK minimizedRMSD -1
REMARK  0 active torsions:
REMARK  status: ('A' for Active; 'I' for Inactive)
ROOT
ATOM      1  C   UNL d   1       2.271  -2.671   0.056  0.00  0.00     0.172 C 
ATOM      2  N   UNL d   1       2.284  -1.431  -0.683  0.00  0.00    -0.070 N 
ATOM      3  C1  UNL d   1       2.855  -0.259  -0.265  0.00  0.00    -0.004 A 
ATOM      4  C2  UNL d   1       2.654   0.683  -1.251  0.00  0.00    -0.047 A 
ATOM      5  C3  UNL d   1       1.937   0.056  -2.297  0.00  0.00    -0.047 A 
ATOM      6  C4  UNL d   1       1.721  -1.253  -1.919  0.00  0.00    -0.004 A 
ENDROOT
TORSDOF 0
ENDMDL
