MODEL 1
REMARK minimizedAffinity 3.73883486
REMARK minimizedRMSD -1
REMARK  0 active torsions:
REMARK  status: ('A' for Active; 'I' for Inactive)
ROOT
ATOM      1  C1  BNZ d   1      -1.424   4.156  -1.030  0.00  0.00     0.000 A 
ATOM      2  C2  BNZ d   1      -0.224   4.475  -0.454  0.00  0.00     0.000 A 
ATOM      3  C3  BNZ d   1       0.637   3.497  -0.041  0.00  0.00     0.000 A 
ATOM      4  C4  BNZ d   1       0.280   2.203  -0.168  0.00  0.00     0.000 A 
ATOM      5  C5  BNZ d   1      -0.931   1.864  -0.739  0.00  0.00     0.000 A 
ATOM      6  C6  BNZ d   1      -1.778   2.851  -1.189  0.00  0.00     0.000 A 
ENDROOT
TORSDOF 0
ENDMDL
