MODEL 1
REMARK minimizedAffinity 1.93823791
REMARK minimizedRMSD -1
REMARK  0 active torsions:
REMARK  status: ('A' for Active; 'I' for Inactive)
ROOT
ATOM      1  C1  BNZ d   1       1.067   0.013  -1.422  0.00  0.00     0.000 A 
ATOM      2  C2  BNZ d   1       1.706  -0.987  -0.739  0.00  0.00     0.000 A 
ATOM      3  C3  BNZ d   1       1.875  -0.912   0.615  0.00  0.00     0.000 A 
ATOM      4  C4  BNZ d   1       1.442   0.180   1.278  0.00  0.00     0.000 A 
ATOM      5  C5  BNZ d   1       0.804   1.201   0.603  0.00  0.00     0.000 A 
ATOM      6  C6  BNZ d   1       0.601   1.104  -0.755  0.00  0.00     0.000 A 
ENDROOT
TORSDOF 0
ENDMDL
