MODEL 1
REMARK minimizedAffinity 1.42101645
REMARK minimizedRMSD -1
REMARK  0 active torsions:
REMARK  status: ('A' for Active; 'I' for Inactive)
ROOT
ATOM      1  C1  BNZ d   1      -1.880   2.976  -5.559  0.00  0.00     0.000 A 
ATOM      2  C2  BNZ d   1      -1.099   1.855  -5.654  0.00  0.00     0.000 A 
ATOM      3  C3  BNZ d   1      -0.929   1.027  -4.580  0.00  0.00     0.000 A 
ATOM      4  C4  BNZ d   1      -1.506   1.341  -3.403  0.00  0.00     0.000 A 
ATOM      5  C5  BNZ d   1      -2.289   2.473  -3.288  0.00  0.00     0.000 A 
ATOM      6  C6  BNZ d   1      -2.490   3.283  -4.382  0.00  0.00     0.000 A 
ENDROOT
TORSDOF 0
ENDMDL
