MODEL 1
REMARK minimizedAffinity 3.5333426
REMARK minimizedRMSD -1
REMARK  0 active torsions:
REMARK  status: ('A' for Active; 'I' for Inactive)
ROOT
ATOM      1  C1  BNZ d   1       0.490   1.782   0.616  0.00  0.00     0.000 A 
ATOM      2  C2  BNZ d   1       0.930   0.576   1.093  0.00  0.00     0.000 A 
ATOM      3  C3  BNZ d   1       1.278  -0.430   0.236  0.00  0.00     0.000 A 
ATOM      4  C4  BNZ d   1       1.148  -0.244  -1.094  0.00  0.00     0.000 A 
ATOM      5  C5  BNZ d   1       0.697   0.963  -1.590  0.00  0.00     0.000 A 
ATOM      6  C6  BNZ d   1       0.384   1.987  -0.725  0.00  0.00     0.000 A 
ENDROOT
TORSDOF 0
ENDMDL
