MODEL 1
REMARK minimizedAffinity -1.31411612
REMARK minimizedRMSD -1
REMARK  0 active torsions:
REMARK  status: ('A' for Active; 'I' for Inactive)
ROOT
ATOM      1  C1  BNZ d   1      -4.256   5.528  -5.983  0.00  0.00     0.000 A 
ATOM      2  C2  BNZ d   1      -5.564   5.124  -6.000  0.00  0.00     0.000 A 
ATOM      3  C3  BNZ d   1      -5.977   4.057  -5.253  0.00  0.00     0.000 A 
ATOM      4  C4  BNZ d   1      -5.076   3.371  -4.522  0.00  0.00     0.000 A 
ATOM      5  C5  BNZ d   1      -3.751   3.759  -4.501  0.00  0.00     0.000 A 
ATOM      6  C6  BNZ d   1      -3.346   4.858  -5.224  0.00  0.00     0.000 A 
ENDROOT
TORSDOF 0
ENDMDL
