MODEL 1
REMARK minimizedAffinity 1.46352506
REMARK minimizedRMSD -1
REMARK  0 active torsions:
REMARK  status: ('A' for Active; 'I' for Inactive)
ROOT
ATOM      1  C1  BNZ d   1      -2.871   1.615  -3.767  0.00  0.00     0.000 A 
ATOM      2  C2  BNZ d   1      -3.472   2.845  -3.787  0.00  0.00     0.000 A 
ATOM      3  C3  BNZ d   1      -3.439   3.622  -4.911  0.00  0.00     0.000 A 
ATOM      4  C4  BNZ d   1      -2.772   3.187  -5.999  0.00  0.00     0.000 A 
ATOM      5  C5  BNZ d   1      -2.153   1.952  -5.992  0.00  0.00     0.000 A 
ATOM      6  C6  BNZ d   1      -2.221   1.156  -4.872  0.00  0.00     0.000 A 
ENDROOT
TORSDOF 0
ENDMDL
