MODEL 1
REMARK minimizedAffinity 4.42013216
REMARK minimizedRMSD -1
REMARK  0 active torsions:
REMARK  status: ('A' for Active; 'I' for Inactive)
ROOT
ATOM      1  C1  BNZ d   1      -3.078   5.050  -4.919  0.00  0.00     0.000 A 
ATOM      2  C2  BNZ d   1      -2.105   4.095  -4.789  0.00  0.00     0.000 A 
ATOM      3  C3  BNZ d   1      -2.327   2.809  -5.198  0.00  0.00     0.000 A 
ATOM      4  C4  BNZ d   1      -3.533   2.472  -5.698  0.00  0.00     0.000 A 
ATOM      5  C5  BNZ d   1      -4.527   3.421  -5.826  0.00  0.00     0.000 A 
ATOM      6  C6  BNZ d   1      -4.287   4.723  -5.449  0.00  0.00     0.000 A 
ENDROOT
TORSDOF 0
ENDMDL
