MODEL 1
REMARK minimizedAffinity 4.9195509
REMARK minimizedRMSD -1
REMARK  0 active torsions:
REMARK  status: ('A' for Active; 'I' for Inactive)
ROOT
ATOM      1  C1  BNZ d   1      -1.390   1.527  -4.548  0.00  0.00     0.000 A 
ATOM      2  C2  BNZ d   1      -1.466   2.757  -5.147  0.00  0.00     0.000 A 
ATOM      3  C3  BNZ d   1      -2.654   3.430  -5.214  0.00  0.00     0.000 A 
ATOM      4  C4  BNZ d   1      -3.769   2.857  -4.718  0.00  0.00     0.000 A 
ATOM      5  C5  BNZ d   1      -3.710   1.614  -4.119  0.00  0.00     0.000 A 
ATOM      6  C6  BNZ d   1      -2.506   0.957  -4.019  0.00  0.00     0.000 A 
ENDROOT
TORSDOF 0
ENDMDL
