MODEL 1
REMARK minimizedAffinity 3.39799166
REMARK minimizedRMSD -1
REMARK  0 active torsions:
REMARK  status: ('A' for Active; 'I' for Inactive)
ROOT
ATOM      1  C1  BNZ d   1      -2.269   5.219  -4.477  0.00  0.00     0.000 A 
ATOM      2  C2  BNZ d   1      -3.400   5.992  -4.494  0.00  0.00     0.000 A 
ATOM      3  C3  BNZ d   1      -4.485   5.627  -5.241  0.00  0.00     0.000 A 
ATOM      4  C4  BNZ d   1      -4.425   4.513  -5.999  0.00  0.00     0.000 A 
ATOM      5  C5  BNZ d   1      -3.288   3.729  -5.999  0.00  0.00     0.000 A 
ATOM      6  C6  BNZ d   1      -2.212   4.078  -5.216  0.00  0.00     0.000 A 
ENDROOT
TORSDOF 0
ENDMDL
