MODEL 1
REMARK minimizedAffinity 5.64152479
REMARK minimizedRMSD -1
REMARK  1 active torsions:
REMARK  status: ('A' for Active; 'I' for Inactive)
REMARK    1  A    between atoms: N_2  and  C1_3 
ROOT
ATOM      1  C1  UNL d   1      -1.762  -4.417  -5.894  0.00  0.00     0.143 A 
ATOM      2  C2  UNL d   1      -0.371  -4.270  -5.910  0.00  0.00    -0.057 A 
ATOM      3  C3  UNL d   1       0.225  -3.003  -5.942  0.00  0.00     0.033 A 
ATOM      4  C4  UNL d   1      -0.564  -1.858  -5.988  0.00  0.00    -0.042 A 
ATOM      5  C5  UNL d   1      -1.949  -1.982  -5.999  0.00  0.00     0.033 A 
ATOM      6  C6  UNL d   1      -2.537  -3.249  -5.959  0.00  0.00    -0.057 A 
ENDROOT
BRANCH   1   7
ATOM      7  N   UNL d   1      -2.414  -5.651  -5.961  0.00  0.00    -0.732 N 
ATOM      8  C   UNL d   1      -3.454  -5.988  -5.013  0.00  0.00     0.284 C 
ATOM      9  H3  UNL d   1      -2.617  -5.931  -6.918  0.00  0.00     0.395 HD
ENDBRANCH   1   7
TORSDOF 1
ENDMDL
