MODEL 1
REMARK minimizedAffinity -2.09429741
REMARK minimizedRMSD -1
REMARK  1 active torsions:
REMARK  status: ('A' for Active; 'I' for Inactive)
REMARK    1  A    between atoms: N_2  and  C1_3 
ROOT
ATOM      1  C1  UNL d   1      -5.213  -2.150   3.666  0.00  0.00     0.143 A 
ATOM      2  C2  UNL d   1      -5.992  -1.802   4.774  0.00  0.00    -0.057 A 
ATOM      3  C3  UNL d   1      -6.000  -2.588   5.933  0.00  0.00     0.033 A 
ATOM      4  C4  UNL d   1      -5.247  -3.756   5.992  0.00  0.00    -0.042 A 
ATOM      5  C5  UNL d   1      -4.484  -4.135   4.894  0.00  0.00     0.033 A 
ATOM      6  C6  UNL d   1      -4.476  -3.342   3.742  0.00  0.00    -0.057 A 
ENDROOT
BRANCH   1   7
ATOM      7  N   UNL d   1      -5.239  -1.463   2.449  0.00  0.00    -0.732 N 
ATOM      8  C   UNL d   1      -5.264  -0.017   2.420  0.00  0.00     0.284 C 
ATOM      9  H3  UNL d   1      -4.627  -1.883   1.753  0.00  0.00     0.395 HD
ENDBRANCH   1   7
TORSDOF 1
ENDMDL
