MODEL 1
REMARK minimizedAffinity 1.02458084
REMARK minimizedRMSD -1
REMARK  1 active torsions:
REMARK  status: ('A' for Active; 'I' for Inactive)
REMARK    1  A    between atoms: N_2  and  C1_3 
ROOT
ATOM      1  C1  UNL d   1      -5.311  -0.466   2.967  0.00  0.00     0.143 A 
ATOM      2  C2  UNL d   1      -4.147  -1.135   2.574  0.00  0.00    -0.057 A 
ATOM      3  C3  UNL d   1      -3.558  -0.896   1.327  0.00  0.00     0.033 A 
ATOM      4  C4  UNL d   1      -4.141  -0.001   0.436  0.00  0.00    -0.042 A 
ATOM      5  C5  UNL d   1      -5.311   0.657   0.795  0.00  0.00     0.033 A 
ATOM      6  C6  UNL d   1      -5.891   0.419   2.044  0.00  0.00    -0.057 A 
ENDROOT
BRANCH   1   7
ATOM      7  N   UNL d   1      -5.999  -0.733   4.153  0.00  0.00    -0.732 N 
ATOM      8  C   UNL d   1      -6.000  -2.063   4.721  0.00  0.00     0.284 C 
ATOM      9  H3  UNL d   1      -5.896   0.012   4.838  0.00  0.00     0.395 HD
ENDBRANCH   1   7
TORSDOF 1
ENDMDL
