MODEL 1
REMARK minimizedAffinity 6.2719655
REMARK minimizedRMSD -1
REMARK  1 active torsions:
REMARK  status: ('A' for Active; 'I' for Inactive)
REMARK    1  A    between atoms: N_2  and  C1_3 
ROOT
ATOM      1  C1  UNL d   1      -3.050  -4.835  -5.235  0.00  0.00     0.143 A 
ATOM      2  C2  UNL d   1      -3.661  -3.647  -5.649  0.00  0.00    -0.057 A 
ATOM      3  C3  UNL d   1      -5.017  -3.612  -5.999  0.00  0.00     0.033 A 
ATOM      4  C4  UNL d   1      -5.780  -4.774  -5.969  0.00  0.00    -0.042 A 
ATOM      5  C5  UNL d   1      -5.187  -5.972  -5.584  0.00  0.00     0.033 A 
ATOM      6  C6  UNL d   1      -3.835  -5.999  -5.230  0.00  0.00    -0.057 A 
ENDROOT
BRANCH   1   7
ATOM      7  N   UNL d   1      -1.684  -4.955  -4.969  0.00  0.00    -0.732 N 
ATOM      8  C   UNL d   1      -0.844  -5.798  -5.793  0.00  0.00     0.284 C 
ATOM      9  H3  UNL d   1      -1.258  -4.067  -4.713  0.00  0.00     0.395 HD
ENDBRANCH   1   7
TORSDOF 1
ENDMDL
