MODEL 1
REMARK minimizedAffinity 3.32989812
REMARK minimizedRMSD -1
REMARK  1 active torsions:
REMARK  status: ('A' for Active; 'I' for Inactive)
REMARK    1  A    between atoms: N_2  and  C1_3 
ROOT
ATOM      1  C1  UNL d   1      -3.337  -5.180  -5.065  0.00  0.00     0.143 A 
ATOM      2  C2  UNL d   1      -3.618  -3.976  -5.720  0.00  0.00    -0.057 A 
ATOM      3  C3  UNL d   1      -4.936  -3.581  -5.978  0.00  0.00     0.033 A 
ATOM      4  C4  UNL d   1      -5.999  -4.399  -5.609  0.00  0.00    -0.042 A 
ATOM      5  C5  UNL d   1      -5.742  -5.611  -4.979  0.00  0.00     0.033 A 
ATOM      6  C6  UNL d   1      -4.424  -5.997  -4.718  0.00  0.00    -0.057 A 
ENDROOT
BRANCH   1   7
ATOM      7  N   UNL d   1      -2.046  -5.675  -4.868  0.00  0.00    -0.732 N 
ATOM      8  C   UNL d   1      -1.201  -6.000  -5.997  0.00  0.00     0.284 C 
ATOM      9  H3  UNL d   1      -1.561  -5.203  -4.108  0.00  0.00     0.395 HD
ENDBRANCH   1   7
TORSDOF 1
ENDMDL
