MODEL 1
REMARK minimizedAffinity 10.0046597
REMARK minimizedRMSD -1
REMARK  0 active torsions:
REMARK  status: ('A' for Active; 'I' for Inactive)
ROOT
ATOM      1  C   UNL d   1       0.831  -1.636  -2.581  0.00  0.00    -0.002 A 
ATOM      2  C1  UNL d   1       1.547  -1.913  -1.426  0.00  0.00     0.010 A 
ATOM      3  C2  UNL d   1       1.108  -2.897  -0.537  0.00  0.00     0.041 A 
ATOM      4  C3  UNL d   1      -0.073  -3.606  -0.834  0.00  0.00    -0.075 A 
ATOM      5  S   UNL d   1      -0.800  -4.854   0.106  0.00  0.00     0.015 SA
ATOM      6  C4  UNL d   1      -2.078  -5.049  -1.004  0.00  0.00     0.022 A 
ATOM      7  C5  UNL d   1      -1.969  -4.190  -2.072  0.00  0.00     0.026 A 
ATOM      8  C6  UNL d   1      -0.811  -3.345  -1.992  0.00  0.00    -0.082 A 
ATOM      9  C7  UNL d   1      -0.340  -2.340  -2.872  0.00  0.00     0.045 A 
ENDROOT
TORSDOF 0
ENDMDL
