MODEL 1
REMARK minimizedAffinity 8.62784863
REMARK minimizedRMSD -1
REMARK  0 active torsions:
REMARK  status: ('A' for Active; 'I' for Inactive)
ROOT
ATOM      1  C   UNL d   1      -3.895   3.771   1.521  0.00  0.00    -0.002 A 
ATOM      2  C1  UNL d   1      -5.271   3.593   1.554  0.00  0.00     0.010 A 
ATOM      3  C2  UNL d   1      -5.999   3.897   2.706  0.00  0.00     0.041 A 
ATOM      4  C3  UNL d   1      -5.315   4.388   3.835  0.00  0.00    -0.075 A 
ATOM      5  S   UNL d   1      -5.998   4.828   5.356  0.00  0.00     0.015 SA
ATOM      6  C4  UNL d   1      -4.480   5.263   5.997  0.00  0.00     0.022 A 
ATOM      7  C5  UNL d   1      -3.466   5.083   5.087  0.00  0.00     0.026 A 
ATOM      8  C6  UNL d   1      -3.930   4.576   3.826  0.00  0.00    -0.082 A 
ATOM      9  C7  UNL d   1      -3.220   4.258   2.643  0.00  0.00     0.045 A 
ENDROOT
TORSDOF 0
ENDMDL
