MODEL 1
REMARK minimizedAffinity 26.4820309
REMARK minimizedRMSD -1
REMARK  0 active torsions:
REMARK  status: ('A' for Active; 'I' for Inactive)
ROOT
ATOM      1  C   UNL d   1      -3.755   4.955  -0.125  0.00  0.00    -0.002 A 
ATOM      2  C1  UNL d   1      -4.843   5.180  -0.957  0.00  0.00     0.010 A 
ATOM      3  C2  UNL d   1      -5.519   4.111  -1.547  0.00  0.00     0.041 A 
ATOM      4  C3  UNL d   1      -5.081   2.798  -1.283  0.00  0.00    -0.075 A 
ATOM      5  S   UNL d   1      -5.757   1.334  -1.894  0.00  0.00     0.015 SA
ATOM      6  C4  UNL d   1      -4.618   0.375  -1.064  0.00  0.00     0.022 A 
ATOM      7  C5  UNL d   1      -3.736   1.137  -0.334  0.00  0.00     0.026 A 
ATOM      8  C6  UNL d   1      -3.989   2.546  -0.448  0.00  0.00    -0.082 A 
ATOM      9  C7  UNL d   1      -3.324   3.651   0.135  0.00  0.00     0.045 A 
ENDROOT
TORSDOF 0
ENDMDL
