MODEL 1
REMARK minimizedAffinity 21.4618454
REMARK minimizedRMSD -1
REMARK  0 active torsions:
REMARK  status: ('A' for Active; 'I' for Inactive)
ROOT
ATOM      1  C   UNL d   1       0.977  -3.184  -0.379  0.00  0.00    -0.002 A 
ATOM      2  C1  UNL d   1       0.819  -2.588  -1.622  0.00  0.00     0.010 A 
ATOM      3  C2  UNL d   1       1.113  -1.235  -1.804  0.00  0.00     0.041 A 
ATOM      4  C3  UNL d   1       1.575  -0.485  -0.705  0.00  0.00    -0.075 A 
ATOM      5  S   UNL d   1       1.999   1.186  -0.692  0.00  0.00     0.015 SA
ATOM      6  C4  UNL d   1       2.401   1.148   0.964  0.00  0.00     0.022 A 
ATOM      7  C5  UNL d   1       2.222  -0.101   1.509  0.00  0.00     0.026 A 
ATOM      8  C6  UNL d   1       1.744  -1.063   0.556  0.00  0.00    -0.082 A 
ATOM      9  C7  UNL d   1       1.436  -2.437   0.709  0.00  0.00     0.045 A 
ENDROOT
TORSDOF 0
ENDMDL
