MODEL 1
REMARK minimizedAffinity 17.2296429
REMARK minimizedRMSD -1
REMARK  0 active torsions:
REMARK  status: ('A' for Active; 'I' for Inactive)
ROOT
ATOM      1  C   UNL d   1       3.822   1.753   0.243  0.00  0.00    -0.002 A 
ATOM      2  C1  UNL d   1       3.731   1.920  -1.132  0.00  0.00     0.010 A 
ATOM      3  C2  UNL d   1       3.119   0.949  -1.927  0.00  0.00     0.041 A 
ATOM      4  C3  UNL d   1       2.592  -0.204  -1.310  0.00  0.00    -0.075 A 
ATOM      5  S   UNL d   1       1.798  -1.525  -2.083  0.00  0.00     0.015 SA
ATOM      6  C4  UNL d   1       1.559  -2.342  -0.606  0.00  0.00     0.022 A 
ATOM      7  C5  UNL d   1       2.067  -1.638   0.460  0.00  0.00     0.026 A 
ATOM      8  C6  UNL d   1       2.671  -0.394   0.072  0.00  0.00    -0.082 A 
ATOM      9  C7  UNL d   1       3.298   0.608   0.850  0.00  0.00     0.045 A 
ENDROOT
TORSDOF 0
ENDMDL
