MODEL 1
REMARK minimizedAffinity -3.65564656
REMARK minimizedRMSD -1
REMARK  1 active torsions:
REMARK  status: ('A' for Active; 'I' for Inactive)
REMARK    1  A    between atoms: C3_4  and  O_7 
ROOT
ATOM      1  C   UNL d   1      -1.538   0.157   0.330  0.00  0.00    -0.033 A 
ATOM      2  C1  UNL d   1      -1.720   0.488   1.674  0.00  0.00     0.039 A 
ATOM      3  C2  UNL d   1      -0.698   0.254   2.596  0.00  0.00    -0.080 A 
ATOM      4  C3  UNL d   1       0.499  -0.308   2.162  0.00  0.00     0.150 A 
ATOM      5  C4  UNL d   1       0.688  -0.636   0.824  0.00  0.00    -0.007 A 
ATOM      6  C5  UNL d   1      -0.334  -0.403  -0.096  0.00  0.00     0.039 A 
ENDROOT
BRANCH   4   7
ATOM      7  O   UNL d   1       1.523  -0.559   3.026  0.00  0.00    -0.526 OA
ATOM      8  H5  UNL d   1       1.239  -0.308   3.921  0.00  0.00     0.418 HD
ENDBRANCH   4   7
TORSDOF 1
ENDMDL
