MODEL 1
REMARK minimizedAffinity -3.72057009
REMARK minimizedRMSD -1
REMARK  1 active torsions:
REMARK  status: ('A' for Active; 'I' for Inactive)
REMARK    1  A    between atoms: C3_4  and  O_7 
ROOT
ATOM      1  C   UNL d   1      -1.365   0.881   0.441  0.00  0.00    -0.033 A 
ATOM      2  C1  UNL d   1      -1.743   1.294   1.720  0.00  0.00     0.039 A 
ATOM      3  C2  UNL d   1      -0.959   0.955   2.825  0.00  0.00    -0.080 A 
ATOM      4  C3  UNL d   1       0.199   0.205   2.637  0.00  0.00     0.150 A 
ATOM      5  C4  UNL d   1       0.583  -0.206   1.365  0.00  0.00    -0.007 A 
ATOM      6  C5  UNL d   1      -0.201   0.132   0.263  0.00  0.00     0.039 A 
ENDROOT
BRANCH   4   7
ATOM      7  O   UNL d   1       0.993  -0.154   3.685  0.00  0.00    -0.526 OA
ATOM      8  H5  UNL d   1       0.588   0.175   4.505  0.00  0.00     0.418 HD
ENDBRANCH   4   7
TORSDOF 1
ENDMDL
