MODEL 1
REMARK minimizedAffinity -3.08299351
REMARK minimizedRMSD -1
REMARK  1 active torsions:
REMARK  status: ('A' for Active; 'I' for Inactive)
REMARK    1  A    between atoms: C3_4  and  O_7 
ROOT
ATOM      1  C   UNL d   1       0.017   0.270  -1.584  0.00  0.00    -0.033 A 
ATOM      2  C1  UNL d   1      -0.985   1.240  -1.649  0.00  0.00     0.039 A 
ATOM      3  C2  UNL d   1      -1.714   1.570  -0.504  0.00  0.00    -0.080 A 
ATOM      4  C3  UNL d   1      -1.431   0.924   0.696  0.00  0.00     0.150 A 
ATOM      5  C4  UNL d   1      -0.431  -0.040   0.768  0.00  0.00    -0.007 A 
ATOM      6  C5  UNL d   1       0.295  -0.369  -0.376  0.00  0.00     0.039 A 
ENDROOT
BRANCH   4   7
ATOM      7  O   UNL d   1      -2.119   1.209   1.838  0.00  0.00    -0.526 OA
ATOM      8  H5  UNL d   1      -2.798   1.873   1.631  0.00  0.00     0.418 HD
ENDBRANCH   4   7
TORSDOF 1
ENDMDL
