MODEL 1
REMARK minimizedAffinity -1.64708614
REMARK minimizedRMSD -1
REMARK  1 active torsions:
REMARK  status: ('A' for Active; 'I' for Inactive)
REMARK    1  A    between atoms: C3_4  and  O_7 
ROOT
ATOM      1  C   UNL d   1      -1.209   0.620   2.337  0.00  0.00    -0.033 A 
ATOM      2  C1  UNL d   1      -0.003  -0.066   2.171  0.00  0.00     0.039 A 
ATOM      3  C2  UNL d   1       0.469  -0.349   0.888  0.00  0.00    -0.080 A 
ATOM      4  C3  UNL d   1      -0.271   0.058  -0.218  0.00  0.00     0.150 A 
ATOM      5  C4  UNL d   1      -1.470   0.745  -0.060  0.00  0.00    -0.007 A 
ATOM      6  C5  UNL d   1      -1.941   1.026   1.222  0.00  0.00     0.039 A 
ENDROOT
BRANCH   4   7
ATOM      7  O   UNL d   1       0.148  -0.200  -1.490  0.00  0.00    -0.526 OA
ATOM      8  H5  UNL d   1       0.977  -0.705  -1.444  0.00  0.00     0.418 HD
ENDBRANCH   4   7
TORSDOF 1
ENDMDL
