MODEL 1
REMARK minimizedAffinity -2.15990615
REMARK minimizedRMSD -1
REMARK  1 active torsions:
REMARK  status: ('A' for Active; 'I' for Inactive)
REMARK    1  A    between atoms: C3_4  and  O_7 
ROOT
ATOM      1  C   UNL d   1      -1.658   0.098   0.924  0.00  0.00    -0.033 A 
ATOM      2  C1  UNL d   1      -0.712  -0.363   0.007  0.00  0.00     0.039 A 
ATOM      3  C2  UNL d   1       0.542  -0.789   0.449  0.00  0.00    -0.080 A 
ATOM      4  C3  UNL d   1       0.836  -0.750   1.810  0.00  0.00     0.150 A 
ATOM      5  C4  UNL d   1      -0.103  -0.295   2.729  0.00  0.00    -0.007 A 
ATOM      6  C5  UNL d   1      -1.354   0.131   2.285  0.00  0.00     0.039 A 
ENDROOT
BRANCH   4   7
ATOM      7  O   UNL d   1       2.048  -1.152   2.288  0.00  0.00    -0.526 OA
ATOM      8  H5  UNL d   1       2.605  -1.413   1.536  0.00  0.00     0.418 HD
ENDBRANCH   4   7
TORSDOF 1
ENDMDL
