MODEL 1
REMARK minimizedAffinity -3.74027348
REMARK minimizedRMSD -1
REMARK  1 active torsions:
REMARK  status: ('A' for Active; 'I' for Inactive)
REMARK    1  A    between atoms: C3_4  and  O_7 
ROOT
ATOM      1  C   UNL d   1       0.328   0.020  -1.096  0.00  0.00    -0.033 A 
ATOM      2  C1  UNL d   1       0.012   1.369  -0.919  0.00  0.00     0.039 A 
ATOM      3  C2  UNL d   1      -1.000   1.739  -0.032  0.00  0.00    -0.080 A 
ATOM      4  C3  UNL d   1      -1.686   0.754   0.673  0.00  0.00     0.150 A 
ATOM      5  C4  UNL d   1      -1.373  -0.591   0.505  0.00  0.00    -0.007 A 
ATOM      6  C5  UNL d   1      -0.363  -0.959  -0.382  0.00  0.00     0.039 A 
ENDROOT
BRANCH   4   7
ATOM      7  O   UNL d   1      -2.685   1.067   1.547  0.00  0.00    -0.526 OA
ATOM      8  H5  UNL d   1      -2.810   2.031   1.538  0.00  0.00     0.418 HD
ENDBRANCH   4   7
TORSDOF 1
ENDMDL
