MODEL 1
REMARK minimizedAffinity -1.02485788
REMARK minimizedRMSD -1
REMARK  1 active torsions:
REMARK  status: ('A' for Active; 'I' for Inactive)
REMARK    1  A    between atoms: C3_4  and  O_7 
ROOT
ATOM      1  C   UNL d   1      -0.039  -0.518   0.017  0.00  0.00    -0.033 A 
ATOM      2  C1  UNL d   1      -0.399   0.740  -0.470  0.00  0.00     0.039 A 
ATOM      3  C2  UNL d   1      -0.054   1.111  -1.771  0.00  0.00    -0.080 A 
ATOM      4  C3  UNL d   1       0.648   0.216  -2.574  0.00  0.00     0.150 A 
ATOM      5  C4  UNL d   1       1.006  -1.040  -2.096  0.00  0.00    -0.007 A 
ATOM      6  C5  UNL d   1       0.662  -1.409  -0.797  0.00  0.00     0.039 A 
ENDROOT
BRANCH   4   7
ATOM      7  O   UNL d   1       1.011   0.536  -3.849  0.00  0.00    -0.526 OA
ATOM      8  H5  UNL d   1       0.722   1.445  -4.032  0.00  0.00     0.418 HD
ENDBRANCH   4   7
TORSDOF 1
ENDMDL
