MODEL 1
REMARK minimizedAffinity -4.62138271
REMARK minimizedRMSD -1
REMARK  1 active torsions:
REMARK  status: ('A' for Active; 'I' for Inactive)
REMARK    1  A    between atoms: C3_4  and  O_7 
ROOT
ATOM      1  C   UNL d   1      -1.449   0.552   0.111  0.00  0.00    -0.033 A 
ATOM      2  C1  UNL d   1      -0.309  -0.051  -0.423  0.00  0.00     0.039 A 
ATOM      3  C2  UNL d   1       0.673  -0.566   0.427  0.00  0.00    -0.080 A 
ATOM      4  C3  UNL d   1       0.501  -0.472   1.805  0.00  0.00     0.150 A 
ATOM      5  C4  UNL d   1      -0.634   0.124   2.343  0.00  0.00    -0.007 A 
ATOM      6  C5  UNL d   1      -1.612   0.639   1.493  0.00  0.00     0.039 A 
ENDROOT
BRANCH   4   7
ATOM      7  O   UNL d   1       1.434  -0.956   2.673  0.00  0.00    -0.526 OA
ATOM      8  H5  UNL d   1       2.177  -1.314   2.159  0.00  0.00     0.418 HD
ENDBRANCH   4   7
TORSDOF 1
ENDMDL
