MODEL 1
REMARK minimizedAffinity -1.51371539
REMARK minimizedRMSD -1
REMARK  0 active torsions:
REMARK  status: ('A' for Active; 'I' for Inactive)
ROOT
ATOM      1  N1  IND d   1       1.624   0.182  -0.334  0.00  0.00    -0.196 N 
ATOM      2  C2  IND d   1       0.428  -0.219   0.193  0.00  0.00     0.054 A 
ATOM      3  C3  IND d   1      -0.446  -0.515  -0.796  0.00  0.00    -0.031 A 
ATOM      4  C4  IND d   1      -0.092  -0.510  -3.346  0.00  0.00     0.051 A 
ATOM      5  C5  IND d   1       0.823  -0.182  -4.306  0.00  0.00    -0.031 A 
ATOM      6  C6  IND d   1       2.079   0.292  -3.984  0.00  0.00     0.015 A 
ATOM      7  C7  IND d   1       2.471   0.444  -2.685  0.00  0.00    -0.016 A 
ATOM      8  C8  IND d   1       1.542   0.118  -1.707  0.00  0.00    -0.047 A 
ATOM      9  C9  IND d   1       0.251  -0.322  -2.028  0.00  0.00    -0.096 A 
ATOM     10  HN1 IND d   1       2.312   0.432   0.117  0.00  0.00     0.298 HD
ENDROOT
TORSDOF 0
ENDMDL
