MODEL 1
REMARK minimizedAffinity -5.19821978
REMARK minimizedRMSD -1
REMARK  0 active torsions:
REMARK  status: ('A' for Active; 'I' for Inactive)
ROOT
ATOM      1  N1  IND d   1       1.242   0.699   0.399  0.00  0.00    -0.196 N 
ATOM      2  C2  IND d   1       1.034  -0.037  -0.734  0.00  0.00     0.054 A 
ATOM      3  C3  IND d   1      -0.232  -0.511  -0.761  0.00  0.00    -0.031 A 
ATOM      4  C4  IND d   1      -2.161  -0.119   0.898  0.00  0.00     0.051 A 
ATOM      5  C5  IND d   1      -2.444   0.456   2.105  0.00  0.00    -0.031 A 
ATOM      6  C6  IND d   1      -1.494   1.158   2.819  0.00  0.00     0.015 A 
ATOM      7  C7  IND d   1      -0.223   1.322   2.344  0.00  0.00    -0.016 A 
ATOM      8  C8  IND d   1       0.069   0.733   1.122  0.00  0.00    -0.047 A 
ATOM      9  C9  IND d   1      -0.879  -0.016   0.413  0.00  0.00    -0.096 A 
ATOM     10  HN1 IND d   1       1.980   1.078   0.623  0.00  0.00     0.298 HD
ENDROOT
TORSDOF 0
ENDMDL
