MODEL 1
REMARK minimizedAffinity -4.24280071
REMARK minimizedRMSD -1
REMARK  0 active torsions:
REMARK  status: ('A' for Active; 'I' for Inactive)
ROOT
ATOM      1  N1  IND d   1       1.116  -0.042  -0.395  0.00  0.00    -0.196 N 
ATOM      2  C2  IND d   1       0.295  -0.416  -1.422  0.00  0.00     0.054 A 
ATOM      3  C3  IND d   1      -1.001  -0.312  -1.050  0.00  0.00    -0.031 A 
ATOM      4  C4  IND d   1      -2.005   0.545   1.159  0.00  0.00     0.051 A 
ATOM      5  C5  IND d   1      -1.653   0.965   2.412  0.00  0.00    -0.031 A 
ATOM      6  C6  IND d   1      -0.333   1.075   2.799  0.00  0.00     0.015 A 
ATOM      7  C7  IND d   1       0.688   0.779   1.942  0.00  0.00    -0.016 A 
ATOM      8  C8  IND d   1       0.334   0.346   0.672  0.00  0.00    -0.047 A 
ATOM      9  C9  IND d   1      -1.003   0.192   0.286  0.00  0.00    -0.096 A 
ATOM     10  HN1 IND d   1       1.975  -0.048  -0.412  0.00  0.00     0.298 HD
ENDROOT
TORSDOF 0
ENDMDL
