MODEL 1
REMARK minimizedAffinity -4.09224987
REMARK minimizedRMSD -1
REMARK  0 active torsions:
REMARK  status: ('A' for Active; 'I' for Inactive)
ROOT
ATOM      1  N1  IND d   1      -1.157  -0.909  -0.808  0.00  0.00    -0.196 N 
ATOM      2  C2  IND d   1       0.109  -1.136  -1.271  0.00  0.00     0.054 A 
ATOM      3  C3  IND d   1       1.021  -0.623  -0.416  0.00  0.00    -0.031 A 
ATOM      4  C4  IND d   1       0.664   0.541   1.853  0.00  0.00     0.051 A 
ATOM      5  C5  IND d   1      -0.317   1.010   2.680  0.00  0.00    -0.031 A 
ATOM      6  C6  IND d   1      -1.656   0.858   2.383  0.00  0.00     0.015 A 
ATOM      7  C7  IND d   1      -2.065   0.218   1.247  0.00  0.00    -0.016 A 
ATOM      8  C8  IND d   1      -1.071  -0.253   0.401  0.00  0.00    -0.047 A 
ATOM      9  C9  IND d   1       0.289  -0.064   0.676  0.00  0.00    -0.096 A 
ATOM     10  HN1 IND d   1      -1.885  -1.137  -1.205  0.00  0.00     0.298 HD
ENDROOT
TORSDOF 0
ENDMDL
