MODEL 1
REMARK minimizedAffinity -2.35448623
REMARK minimizedRMSD -1
REMARK  0 active torsions:
REMARK  status: ('A' for Active; 'I' for Inactive)
ROOT
ATOM      1  N1  IND d   1       0.485  -0.498  -1.111  0.00  0.00    -0.196 N 
ATOM      2  C2  IND d   1      -0.471  -1.267  -1.713  0.00  0.00     0.054 A 
ATOM      3  C3  IND d   1      -1.592  -1.301  -0.959  0.00  0.00    -0.031 A 
ATOM      4  C4  IND d   1      -2.113  -0.086   1.251  0.00  0.00     0.051 A 
ATOM      5  C5  IND d   1      -1.539   0.702   2.208  0.00  0.00    -0.031 A 
ATOM      6  C6  IND d   1      -0.235   1.141   2.105  0.00  0.00     0.015 A 
ATOM      7  C7  IND d   1       0.543   0.817   1.030  0.00  0.00    -0.016 A 
ATOM      8  C8  IND d   1      -0.035   0.011   0.059  0.00  0.00    -0.047 A 
ATOM      9  C9  IND d   1      -1.343  -0.473   0.179  0.00  0.00    -0.096 A 
ATOM     10  HN1 IND d   1       1.278  -0.356  -1.412  0.00  0.00     0.298 HD
ENDROOT
TORSDOF 0
ENDMDL
