MODEL 1
REMARK minimizedAffinity -2.41426134
REMARK minimizedRMSD -1
REMARK  0 active torsions:
REMARK  status: ('A' for Active; 'I' for Inactive)
ROOT
ATOM      1  N1  IND d   1       0.113   1.182   1.186  0.00  0.00    -0.196 N 
ATOM      2  C2  IND d   1       1.122   1.324   2.097  0.00  0.00     0.054 A 
ATOM      3  C3  IND d   1       2.085   0.401   1.880  0.00  0.00    -0.031 A 
ATOM      4  C4  IND d   1       2.261  -1.374   0.023  0.00  0.00     0.051 A 
ATOM      5  C5  IND d   1       1.564  -1.911  -1.023  0.00  0.00    -0.031 A 
ATOM      6  C6  IND d   1       0.324  -1.434  -1.395  0.00  0.00     0.015 A 
ATOM      7  C7  IND d   1      -0.263  -0.389  -0.739  0.00  0.00    -0.016 A 
ATOM      8  C8  IND d   1       0.438   0.155   0.328  0.00  0.00    -0.047 A 
ATOM      9  C9  IND d   1       1.678  -0.353   0.736  0.00  0.00    -0.096 A 
ATOM     10  HN1 IND d   1      -0.605   1.654   1.155  0.00  0.00     0.298 HD
ENDROOT
TORSDOF 0
ENDMDL
