MODEL 1
REMARK minimizedAffinity -4.52980471
REMARK minimizedRMSD -1
REMARK  0 active torsions:
REMARK  status: ('A' for Active; 'I' for Inactive)
ROOT
ATOM      1  N1  IND d   1       0.984  -0.056  -0.399  0.00  0.00    -0.196 N 
ATOM      2  C2  IND d   1       0.506  -0.795  -1.445  0.00  0.00     0.054 A 
ATOM      3  C3  IND d   1      -0.734  -1.257  -1.167  0.00  0.00    -0.031 A 
ATOM      4  C4  IND d   1      -2.210  -0.838   0.900  0.00  0.00     0.051 A 
ATOM      5  C5  IND d   1      -2.192  -0.256   2.136  0.00  0.00    -0.031 A 
ATOM      6  C6  IND d   1      -1.093   0.440   2.599  0.00  0.00     0.015 A 
ATOM      7  C7  IND d   1       0.029   0.589   1.834  0.00  0.00    -0.016 A 
ATOM      8  C8  IND d   1       0.017  -0.008   0.581  0.00  0.00    -0.047 A 
ATOM      9  C9  IND d   1      -1.079  -0.751   0.124  0.00  0.00    -0.096 A 
ATOM     10  HN1 IND d   1       1.758   0.316  -0.360  0.00  0.00     0.298 HD
ENDROOT
TORSDOF 0
ENDMDL
