MODEL 1
REMARK minimizedAffinity -2.7916944
REMARK minimizedRMSD -1
REMARK  0 active torsions:
REMARK  status: ('A' for Active; 'I' for Inactive)
ROOT
ATOM      1  N1  IND d   1      -2.299   0.166   2.111  0.00  0.00    -0.196 N 
ATOM      2  C2  IND d   1      -1.380   0.681   2.982  0.00  0.00     0.054 A 
ATOM      3  C3  IND d   1      -0.179   0.814   2.375  0.00  0.00    -0.031 A 
ATOM      4  C4  IND d   1       0.478   0.345  -0.070  0.00  0.00     0.051 A 
ATOM      5  C5  IND d   1      -0.012  -0.170  -1.237  0.00  0.00    -0.031 A 
ATOM      6  C6  IND d   1      -1.316  -0.607  -1.351  0.00  0.00     0.015 A 
ATOM      7  C7  IND d   1      -2.186  -0.533  -0.300  0.00  0.00    -0.016 A 
ATOM      8  C8  IND d   1      -1.690  -0.016   0.889  0.00  0.00    -0.047 A 
ATOM      9  C9  IND d   1      -0.356   0.389   1.022  0.00  0.00    -0.096 A 
ATOM     10  HN1 IND d   1      -3.119  -0.015   2.296  0.00  0.00     0.298 HD
ENDROOT
TORSDOF 0
ENDMDL
