MODEL 1
REMARK minimizedAffinity -2.49060082
REMARK minimizedRMSD -1
REMARK  0 active torsions:
REMARK  status: ('A' for Active; 'I' for Inactive)
ROOT
ATOM      1  N1  IND d   1       0.174  -0.629   2.115  0.00  0.00    -0.196 N 
ATOM      2  C2  IND d   1      -0.130   0.523   2.785  0.00  0.00     0.054 A 
ATOM      3  C3  IND d   1      -0.104   1.579   1.941  0.00  0.00    -0.031 A 
ATOM      4  C4  IND d   1       0.315   1.634  -0.598  0.00  0.00     0.051 A 
ATOM      5  C5  IND d   1       0.672   0.835  -1.648  0.00  0.00    -0.031 A 
ATOM      6  C6  IND d   1       0.883  -0.520  -1.496  0.00  0.00     0.015 A 
ATOM      7  C7  IND d   1       0.733  -1.132  -0.283  0.00  0.00    -0.016 A 
ATOM      8  C8  IND d   1       0.377  -0.323   0.787  0.00  0.00    -0.047 A 
ATOM      9  C9  IND d   1       0.204   1.060   0.646  0.00  0.00    -0.096 A 
ATOM     10  HN1 IND d   1       0.230  -1.413   2.464  0.00  0.00     0.298 HD
ENDROOT
TORSDOF 0
ENDMDL
