MODEL 1
REMARK minimizedAffinity -2.01517177
REMARK minimizedRMSD -1
REMARK  0 active torsions:
REMARK  status: ('A' for Active; 'I' for Inactive)
ROOT
ATOM      1  C   UNL d   1       1.158   1.108  -0.427  0.00  0.00     0.172 C 
ATOM      2  N   UNL d   1       0.081   0.225  -0.044  0.00  0.00    -0.070 N 
ATOM      3  C1  UNL d   1      -1.238   0.576   0.065  0.00  0.00    -0.004 A 
ATOM      4  C2  UNL d   1      -1.942  -0.544   0.451  0.00  0.00    -0.047 A 
ATOM      5  C3  UNL d   1      -1.014  -1.605   0.580  0.00  0.00    -0.047 A 
ATOM      6  C4  UNL d   1       0.231  -1.100   0.267  0.00  0.00    -0.004 A 
ENDROOT
TORSDOF 0
ENDMDL
