MODEL 1
REMARK minimizedAffinity 1.10269034
REMARK minimizedRMSD -1
REMARK  0 active torsions:
REMARK  status: ('A' for Active; 'I' for Inactive)
ROOT
ATOM      1  C   UNL d   1       0.210  -0.684   1.111  0.00  0.00     0.172 C 
ATOM      2  N   UNL d   1       0.641   0.652   0.773  0.00  0.00    -0.070 N 
ATOM      3  C1  UNL d   1       1.936   1.098   0.774  0.00  0.00    -0.004 A 
ATOM      4  C2  UNL d   1       1.926   2.423   0.395  0.00  0.00    -0.047 A 
ATOM      5  C3  UNL d   1       0.579   2.786   0.159  0.00  0.00    -0.047 A 
ATOM      6  C4  UNL d   1      -0.196   1.671   0.400  0.00  0.00    -0.004 A 
ENDROOT
TORSDOF 0
ENDMDL
