MODEL 1
REMARK minimizedAffinity 1.55704582
REMARK minimizedRMSD -1
REMARK  0 active torsions:
REMARK  status: ('A' for Active; 'I' for Inactive)
ROOT
ATOM      1  C   UNL d   1      -0.234  -1.931   0.716  0.00  0.00     0.172 C 
ATOM      2  N   UNL d   1      -0.393  -1.992  -0.718  0.00  0.00    -0.070 N 
ATOM      3  C1  UNL d   1       0.578  -2.353  -1.614  0.00  0.00    -0.004 A 
ATOM      4  C2  UNL d   1       0.032  -2.285  -2.878  0.00  0.00    -0.047 A 
ATOM      5  C3  UNL d   1      -1.313  -1.866  -2.736  0.00  0.00    -0.047 A 
ATOM      6  C4  UNL d   1      -1.549  -1.692  -1.389  0.00  0.00    -0.004 A 
ENDROOT
TORSDOF 0
ENDMDL
