MODEL 1
REMARK minimizedAffinity 2.04102516
REMARK minimizedRMSD -1
REMARK  0 active torsions:
REMARK  status: ('A' for Active; 'I' for Inactive)
ROOT
ATOM      1  C   UNL d   1       0.059  -0.205  -0.068  0.00  0.00     0.172 C 
ATOM      2  N   UNL d   1       1.065   0.141   0.908  0.00  0.00    -0.070 N 
ATOM      3  C1  UNL d   1       1.327  -0.546   2.063  0.00  0.00    -0.004 A 
ATOM      4  C2  UNL d   1       2.354   0.101   2.716  0.00  0.00    -0.047 A 
ATOM      5  C3  UNL d   1       2.721   1.217   1.927  0.00  0.00    -0.047 A 
ATOM      6  C4  UNL d   1       1.907   1.218   0.814  0.00  0.00    -0.004 A 
ENDROOT
TORSDOF 0
ENDMDL
