MODEL 1
REMARK minimizedAffinity 1.15620267
REMARK minimizedRMSD -1
REMARK  0 active torsions:
REMARK  status: ('A' for Active; 'I' for Inactive)
ROOT
ATOM      1  C   UNL d   1       0.059   4.528   0.617  0.00  0.00     0.172 C 
ATOM      2  N   UNL d   1       0.362   3.123   0.473  0.00  0.00    -0.070 N 
ATOM      3  C1  UNL d   1      -0.311   2.240  -0.328  0.00  0.00    -0.004 A 
ATOM      4  C2  UNL d   1       0.283   1.005  -0.186  0.00  0.00    -0.047 A 
ATOM      5  C3  UNL d   1       1.350   1.150   0.733  0.00  0.00    -0.047 A 
ATOM      6  C4  UNL d   1       1.376   2.472   1.125  0.00  0.00    -0.004 A 
ENDROOT
TORSDOF 0
ENDMDL
