MODEL 1
REMARK minimizedAffinity -2.66678596
REMARK minimizedRMSD -1
REMARK  0 active torsions:
REMARK  status: ('A' for Active; 'I' for Inactive)
ROOT
ATOM      1  C   UNL d   1      -5.012  -0.565  -2.069  0.00  0.00     0.020 A 
ATOM      2  C1  UNL d   1      -6.000  -1.013  -1.193  0.00  0.00     0.020 A 
ATOM      3  C2  UNL d   1      -5.865  -0.800   0.180  0.00  0.00     0.034 A 
ATOM      4  C3  UNL d   1      -4.740  -0.136   0.682  0.00  0.00     0.017 A 
ATOM      5  C4  UNL d   1      -3.749   0.314  -0.197  0.00  0.00     0.017 A 
ATOM      6  C5  UNL d   1      -3.889   0.097  -1.571  0.00  0.00     0.034 A 
ATOM      7 Cl   UNL d   1      -2.332   1.141   0.348  0.00  0.00    -0.070 Cl
ATOM      8 Cl1  UNL d   1      -4.639   0.094   2.392  0.00  0.00    -0.070 Cl
ENDROOT
TORSDOF 0
ENDMDL
