MODEL 1
REMARK minimizedAffinity -4.39676046
REMARK minimizedRMSD -1
REMARK  0 active torsions:
REMARK  status: ('A' for Active; 'I' for Inactive)
ROOT
ATOM      1  C   UNL d   1       2.337  -1.651   1.028  0.00  0.00     0.020 A 
ATOM      2  C1  UNL d   1       3.401  -0.751   1.083  0.00  0.00     0.020 A 
ATOM      3  C2  UNL d   1       3.180   0.607   0.840  0.00  0.00     0.034 A 
ATOM      4  C3  UNL d   1       1.893   1.068   0.541  0.00  0.00     0.017 A 
ATOM      5  C4  UNL d   1       0.826   0.164   0.486  0.00  0.00     0.017 A 
ATOM      6  C5  UNL d   1       1.053  -1.194   0.730  0.00  0.00     0.034 A 
ATOM      7 Cl   UNL d   1      -0.790   0.659   0.124  0.00  0.00    -0.070 Cl
ATOM      8 Cl1  UNL d   1       1.693   2.760   0.253  0.00  0.00    -0.070 Cl
ENDROOT
TORSDOF 0
ENDMDL
