MODEL 1
REMARK minimizedAffinity -2.27530909
REMARK minimizedRMSD -1
REMARK  0 active torsions:
REMARK  status: ('A' for Active; 'I' for Inactive)
ROOT
ATOM      1  C   UNL d   1       3.855   0.587  -0.124  0.00  0.00     0.020 A 
ATOM      2  C1  UNL d   1       3.005   1.692  -0.093  0.00  0.00     0.020 A 
ATOM      3  C2  UNL d   1       1.621   1.509  -0.140  0.00  0.00     0.034 A 
ATOM      4  C3  UNL d   1       1.084   0.219  -0.219  0.00  0.00     0.017 A 
ATOM      5  C4  UNL d   1       1.938  -0.889  -0.250  0.00  0.00     0.017 A 
ATOM      6  C5  UNL d   1       3.323  -0.700  -0.202  0.00  0.00     0.034 A 
ATOM      7 Cl   UNL d   1       1.349  -2.511  -0.347  0.00  0.00    -0.070 Cl
ATOM      8 Cl1  UNL d   1      -0.636   0.068  -0.274  0.00  0.00    -0.070 Cl
ENDROOT
TORSDOF 0
ENDMDL
