MODEL 1
REMARK minimizedAffinity -1.38342524
REMARK minimizedRMSD -1
REMARK  0 active torsions:
REMARK  status: ('A' for Active; 'I' for Inactive)
ROOT
ATOM      1  C   UNL d   1       1.027  -1.130   1.344  0.00  0.00     0.020 A 
ATOM      2  C1  UNL d   1       1.849  -0.235   0.661  0.00  0.00     0.020 A 
ATOM      3  C2  UNL d   1       1.284   0.799  -0.089  0.00  0.00     0.034 A 
ATOM      4  C3  UNL d   1      -0.106   0.940  -0.158  0.00  0.00     0.017 A 
ATOM      5  C4  UNL d   1      -0.931   0.041   0.528  0.00  0.00     0.017 A 
ATOM      6  C5  UNL d   1      -0.360  -0.993   1.278  0.00  0.00     0.034 A 
ATOM      7 Cl   UNL d   1      -2.655   0.150   0.490  0.00  0.00    -0.070 Cl
ATOM      8 Cl1  UNL d   1      -0.736   2.241  -1.104  0.00  0.00    -0.070 Cl
ENDROOT
TORSDOF 0
ENDMDL
