MODEL 1
REMARK minimizedAffinity -3.17987275
REMARK minimizedRMSD -1
REMARK  0 active torsions:
REMARK  status: ('A' for Active; 'I' for Inactive)
ROOT
ATOM      1  C   UNL d   1      -0.704  -0.751  -0.612  0.00  0.00     0.020 A 
ATOM      2  C1  UNL d   1      -0.916   0.614  -0.424  0.00  0.00     0.020 A 
ATOM      3  C2  UNL d   1       0.063   1.394   0.197  0.00  0.00     0.034 A 
ATOM      4  C3  UNL d   1       1.258   0.809   0.631  0.00  0.00     0.017 A 
ATOM      5  C4  UNL d   1       1.470  -0.562   0.441  0.00  0.00     0.017 A 
ATOM      6  C5  UNL d   1       0.487  -1.338  -0.181  0.00  0.00     0.034 A 
ATOM      7 Cl   UNL d   1       2.919  -1.354   0.950  0.00  0.00    -0.070 Cl
ATOM      8 Cl1  UNL d   1       2.424   1.833   1.390  0.00  0.00    -0.070 Cl
ENDROOT
TORSDOF 0
ENDMDL
