MODEL 1
REMARK minimizedAffinity -2.76904106
REMARK minimizedRMSD -1
REMARK  0 active torsions:
REMARK  status: ('A' for Active; 'I' for Inactive)
ROOT
ATOM      1  C   UNL d   1      -5.253  -0.335   1.403  0.00  0.00     0.020 A 
ATOM      2  C1  UNL d   1      -4.743  -1.024   0.303  0.00  0.00     0.020 A 
ATOM      3  C2  UNL d   1      -3.566  -0.589  -0.309  0.00  0.00     0.034 A 
ATOM      4  C3  UNL d   1      -2.895   0.539   0.178  0.00  0.00     0.017 A 
ATOM      5  C4  UNL d   1      -3.407   1.229   1.282  0.00  0.00     0.017 A 
ATOM      6  C5  UNL d   1      -4.586   0.789   1.891  0.00  0.00     0.034 A 
ATOM      7 Cl   UNL d   1      -2.635   2.628   1.940  0.00  0.00    -0.070 Cl
ATOM      8 Cl1  UNL d   1      -1.444   1.020  -0.628  0.00  0.00    -0.070 Cl
ENDROOT
TORSDOF 0
ENDMDL
