MODEL 1
REMARK minimizedAffinity -3.42931366
REMARK minimizedRMSD -1
REMARK  0 active torsions:
REMARK  status: ('A' for Active; 'I' for Inactive)
ROOT
ATOM      1  C   UNL d   1       2.575  -1.468   0.198  0.00  0.00     0.020 A 
ATOM      2  C1  UNL d   1       1.336  -2.082   0.011  0.00  0.00     0.020 A 
ATOM      3  C2  UNL d   1       0.185  -1.303  -0.120  0.00  0.00     0.034 A 
ATOM      4  C3  UNL d   1       0.268   0.093  -0.064  0.00  0.00     0.017 A 
ATOM      5  C4  UNL d   1       1.512   0.707   0.123  0.00  0.00     0.017 A 
ATOM      6  C5  UNL d   1       2.662  -0.077   0.254  0.00  0.00     0.034 A 
ATOM      7 Cl   UNL d   1       1.695   2.424   0.203  0.00  0.00    -0.070 Cl
ATOM      8 Cl1  UNL d   1      -1.197   0.993  -0.234  0.00  0.00    -0.070 Cl
ENDROOT
TORSDOF 0
ENDMDL
