MODEL 1
REMARK minimizedAffinity -2.80203605
REMARK minimizedRMSD -1
REMARK  0 active torsions:
REMARK  status: ('A' for Active; 'I' for Inactive)
ROOT
ATOM      1  C   UNL d   1      -0.362  -0.696  -0.800  0.00  0.00     0.020 A 
ATOM      2  C1  UNL d   1      -0.527   0.686  -0.708  0.00  0.00     0.020 A 
ATOM      3  C2  UNL d   1       0.390   1.453   0.014  0.00  0.00     0.034 A 
ATOM      4  C3  UNL d   1       1.477   0.839   0.646  0.00  0.00     0.017 A 
ATOM      5  C4  UNL d   1       1.643  -0.548   0.553  0.00  0.00     0.017 A 
ATOM      6  C5  UNL d   1       0.721  -1.311  -0.171  0.00  0.00     0.034 A 
ATOM      7 Cl   UNL d   1       2.959  -1.377   1.306  0.00  0.00    -0.070 Cl
ATOM      8 Cl1  UNL d   1       2.573   1.849   1.521  0.00  0.00    -0.070 Cl
ENDROOT
TORSDOF 0
ENDMDL
