MODEL 1
REMARK minimizedAffinity -2.39463377
REMARK minimizedRMSD -1
REMARK  0 active torsions:
REMARK  status: ('A' for Active; 'I' for Inactive)
ROOT
ATOM      1  C   UNL d   1       1.039  -1.768  -0.294  0.00  0.00     0.020 A 
ATOM      2  C1  UNL d   1       2.380  -1.475  -0.051  0.00  0.00     0.020 A 
ATOM      3  C2  UNL d   1       2.831  -0.155  -0.126  0.00  0.00     0.034 A 
ATOM      4  C3  UNL d   1       1.941   0.876  -0.444  0.00  0.00     0.017 A 
ATOM      5  C4  UNL d   1       0.594   0.581  -0.688  0.00  0.00     0.017 A 
ATOM      6  C5  UNL d   1       0.148  -0.742  -0.612  0.00  0.00     0.034 A 
ATOM      7 Cl   UNL d   1      -0.564   1.800  -1.086  0.00  0.00    -0.070 Cl
ATOM      8 Cl1  UNL d   1       2.567   2.485  -0.518  0.00  0.00    -0.070 Cl
ENDROOT
TORSDOF 0
ENDMDL
