MODEL 1
REMARK minimizedAffinity -4.72780561
REMARK minimizedRMSD -1
REMARK  0 active torsions:
REMARK  status: ('A' for Active; 'I' for Inactive)
ROOT
ATOM      1  C   UNL d   1      -0.310   0.909  -1.139  0.00  0.00     0.020 A 
ATOM      2  C1  UNL d   1       0.659   1.542  -0.361  0.00  0.00     0.020 A 
ATOM      3  C2  UNL d   1       1.656   0.789   0.262  0.00  0.00     0.034 A 
ATOM      4  C3  UNL d   1       1.687  -0.602   0.109  0.00  0.00     0.017 A 
ATOM      5  C4  UNL d   1       0.714  -1.236  -0.672  0.00  0.00     0.017 A 
ATOM      6  C5  UNL d   1      -0.282  -0.477  -1.294  0.00  0.00     0.034 A 
ATOM      7 Cl   UNL d   1       0.687  -2.948  -0.908  0.00  0.00    -0.070 Cl
ATOM      8 Cl1  UNL d   1       2.949  -1.470   0.908  0.00  0.00    -0.070 Cl
ENDROOT
TORSDOF 0
ENDMDL
