MODEL 1
REMARK minimizedAffinity -4.93608141
REMARK minimizedRMSD -1
REMARK  0 active torsions:
REMARK  status: ('A' for Active; 'I' for Inactive)
ROOT
ATOM      1  C   UNL d   1       2.017  -2.483   0.876  0.00  0.00     0.020 A 
ATOM      2  C1  UNL d   1       3.183  -1.718   0.877  0.00  0.00     0.020 A 
ATOM      3  C2  UNL d   1       3.112  -0.338   0.680  0.00  0.00     0.034 A 
ATOM      4  C3  UNL d   1       1.873   0.283   0.481  0.00  0.00     0.017 A 
ATOM      5  C4  UNL d   1       0.703  -0.486   0.481  0.00  0.00     0.017 A 
ATOM      6  C5  UNL d   1       0.780  -1.868   0.679  0.00  0.00     0.034 A 
ATOM      7 Cl   UNL d   1      -0.862   0.208   0.243  0.00  0.00    -0.070 Cl
ATOM      8 Cl1  UNL d   1       1.860   1.994   0.244  0.00  0.00    -0.070 Cl
ENDROOT
TORSDOF 0
ENDMDL
