MODEL 1
REMARK minimizedAffinity -2.78753829
REMARK minimizedRMSD -1
REMARK  3 active torsions:
REMARK  status: ('A' for Active; 'I' for Inactive)
REMARK    1  A    between atoms: C3'_2  and  C2'_3 
REMARK    2  A    between atoms: C2'_3  and  C1'_4 
REMARK    3  A    between atoms: C1'_4  and  C1_5 
ROOT
ATOM      1  C1  N4B d   1       0.181  -0.377  -0.744  0.00  0.00    -0.075 A 
ATOM      2  C2  N4B d   1       0.151  -1.252  -1.852  0.00  0.00     0.002 A 
ATOM      3  C3  N4B d   1       0.756  -2.482  -1.773  0.00  0.00     0.002 A 
ATOM      4  C4  N4B d   1       1.412  -2.850  -0.607  0.00  0.00    -0.004 A 
ATOM      5  C5  N4B d   1       1.415  -2.009   0.467  0.00  0.00     0.002 A 
ATOM      6  C6  N4B d   1       0.807  -0.772   0.403  0.00  0.00     0.002 A 
ENDROOT
BRANCH   1   7
ATOM      7  C1' N4B d   1      -0.392   1.012  -0.813  0.00  0.00     0.057 C 
BRANCH   7   8
ATOM      8  C2' N4B d   1      -1.495   1.151   0.233  0.00  0.00     0.009 C 
BRANCH   8   9
ATOM      9  C3' N4B d   1      -2.868   0.857  -0.346  0.00  0.00     0.004 C 
ATOM     10  C4' N4B d   1      -3.931   0.751   0.706  0.00  0.00     0.003 C 
ENDBRANCH   8   9
ENDBRANCH   7   8
ENDBRANCH   1   7
TORSDOF 3
ENDMDL
