MODEL 1
REMARK minimizedAffinity -6.16119003
REMARK minimizedRMSD -1
REMARK  3 active torsions:
REMARK  status: ('A' for Active; 'I' for Inactive)
REMARK    1  A    between atoms: C3'_2  and  C2'_3 
REMARK    2  A    between atoms: C2'_3  and  C1'_4 
REMARK    3  A    between atoms: C1'_4  and  C1_5 
ROOT
ATOM      1  C1  N4B d   1       0.198   0.092  -0.007  0.00  0.00    -0.075 A 
ATOM      2  C2  N4B d   1       0.206  -1.148  -0.682  0.00  0.00     0.002 A 
ATOM      3  C3  N4B d   1       1.225  -2.043  -0.462  0.00  0.00     0.002 A 
ATOM      4  C4  N4B d   1       2.251  -1.713   0.410  0.00  0.00    -0.004 A 
ATOM      5  C5  N4B d   1       2.222  -0.524   1.078  0.00  0.00     0.002 A 
ATOM      6  C6  N4B d   1       1.203   0.384   0.870  0.00  0.00     0.002 A 
ENDROOT
BRANCH   1   7
ATOM      7  C1' N4B d   1      -0.849   1.138  -0.280  0.00  0.00     0.057 C 
BRANCH   7   8
ATOM      8  C2' N4B d   1      -2.228   0.486  -0.248  0.00  0.00     0.009 C 
BRANCH   8   9
ATOM      9  C3' N4B d   1      -3.171   1.197   0.707  0.00  0.00     0.004 C 
ATOM     10  C4' N4B d   1      -4.465   0.464   0.899  0.00  0.00     0.003 C 
ENDBRANCH   8   9
ENDBRANCH   7   8
ENDBRANCH   1   7
TORSDOF 3
ENDMDL
