MODEL 1
REMARK minimizedAffinity -2.53856635
REMARK minimizedRMSD -1
REMARK  3 active torsions:
REMARK  status: ('A' for Active; 'I' for Inactive)
REMARK    1  A    between atoms: C3'_2  and  C2'_3 
REMARK    2  A    between atoms: C2'_3  and  C1'_4 
REMARK    3  A    between atoms: C1'_4  and  C1_5 
ROOT
ATOM      1  C1  N4B d   1      -1.711   0.350  -0.151  0.00  0.00    -0.075 A 
ATOM      2  C2  N4B d   1      -2.692  -0.548   0.324  0.00  0.00     0.002 A 
ATOM      3  C3  N4B d   1      -3.894  -0.070   0.786  0.00  0.00     0.002 A 
ATOM      4  C4  N4B d   1      -4.128   1.297   0.800  0.00  0.00    -0.004 A 
ATOM      5  C5  N4B d   1      -3.185   2.155   0.316  0.00  0.00     0.002 A 
ATOM      6  C6  N4B d   1      -1.975   1.689  -0.155  0.00  0.00     0.002 A 
ENDROOT
BRANCH   1   7
ATOM      7  C1' N4B d   1      -0.349  -0.120  -0.586  0.00  0.00     0.057 C 
BRANCH   7   8
ATOM      8  C2' N4B d   1      -0.477  -1.496  -1.231  0.00  0.00     0.009 C 
BRANCH   8   9
ATOM      9  C3' N4B d   1       0.344  -2.545  -0.500  0.00  0.00     0.004 C 
ATOM     10  C4' N4B d   1       1.714  -2.057  -0.133  0.00  0.00     0.003 C 
ENDBRANCH   8   9
ENDBRANCH   7   8
ENDBRANCH   1   7
TORSDOF 3
ENDMDL
