MODEL 1
REMARK minimizedAffinity -5.11220837
REMARK minimizedRMSD -1
REMARK  3 active torsions:
REMARK  status: ('A' for Active; 'I' for Inactive)
REMARK    1  A    between atoms: C3'_2  and  C2'_3 
REMARK    2  A    between atoms: C2'_3  and  C1'_4 
REMARK    3  A    between atoms: C1'_4  and  C1_5 
ROOT
ATOM      1  C1  N4B d   1       0.707  -0.656  -0.415  0.00  0.00    -0.075 A 
ATOM      2  C2  N4B d   1       1.552  -1.463  -1.208  0.00  0.00     0.002 A 
ATOM      3  C3  N4B d   1       2.876  -1.608  -0.872  0.00  0.00     0.002 A 
ATOM      4  C4  N4B d   1       3.378  -0.944   0.238  0.00  0.00    -0.004 A 
ATOM      5  C5  N4B d   1       2.549  -0.188   1.013  0.00  0.00     0.002 A 
ATOM      6  C6  N4B d   1       1.216  -0.036   0.689  0.00  0.00     0.002 A 
ENDROOT
BRANCH   1   7
ATOM      7  C1' N4B d   1      -0.727  -0.398  -0.792  0.00  0.00     0.057 C 
BRANCH   7   8
ATOM      8  C2' N4B d   1      -1.236   0.817  -0.023  0.00  0.00     0.009 C 
BRANCH   8   9
ATOM      9  C3' N4B d   1      -2.752   0.907  -0.041  0.00  0.00     0.004 C 
ATOM     10  C4' N4B d   1      -3.314   1.490   1.221  0.00  0.00     0.003 C 
ENDBRANCH   8   9
ENDBRANCH   7   8
ENDBRANCH   1   7
TORSDOF 3
ENDMDL
