MODEL 1
REMARK minimizedAffinity -2.25571656
REMARK minimizedRMSD -1
REMARK  3 active torsions:
REMARK  status: ('A' for Active; 'I' for Inactive)
REMARK    1  A    between atoms: C3'_2  and  C2'_3 
REMARK    2  A    between atoms: C2'_3  and  C1'_4 
REMARK    3  A    between atoms: C1'_4  and  C1_5 
ROOT
ATOM      1  C1  N4B d   1       1.172  -0.274   0.287  0.00  0.00    -0.075 A 
ATOM      2  C2  N4B d   1       1.595  -1.251  -0.641  0.00  0.00     0.002 A 
ATOM      3  C3  N4B d   1       0.667  -2.027  -1.291  0.00  0.00     0.002 A 
ATOM      4  C4  N4B d   1      -0.682  -1.858  -1.016  0.00  0.00    -0.004 A 
ATOM      5  C5  N4B d   1      -1.083  -0.895  -0.138  0.00  0.00     0.002 A 
ATOM      6  C6  N4B d   1      -0.162  -0.105   0.520  0.00  0.00     0.002 A 
ENDROOT
BRANCH   1   7
ATOM      7  C1' N4B d   1       2.154   0.539   1.086  0.00  0.00     0.057 C 
BRANCH   7   8
ATOM      8  C2' N4B d   1       3.571   0.206   0.628  0.00  0.00     0.009 C 
BRANCH   8   9
ATOM      9  C3' N4B d   1       4.257   1.401  -0.010  0.00  0.00     0.004 C 
ATOM     10  C4' N4B d   1       3.641   2.708   0.391  0.00  0.00     0.003 C 
ENDBRANCH   8   9
ENDBRANCH   7   8
ENDBRANCH   1   7
TORSDOF 3
ENDMDL
