MODEL 1
REMARK minimizedAffinity -5.4343605
REMARK minimizedRMSD -1
REMARK  3 active torsions:
REMARK  status: ('A' for Active; 'I' for Inactive)
REMARK    1  A    between atoms: C3'_2  and  C2'_3 
REMARK    2  A    between atoms: C2'_3  and  C1'_4 
REMARK    3  A    between atoms: C1'_4  and  C1_5 
ROOT
ATOM      1  C1  N4B d   1      -0.790   0.075  -0.177  0.00  0.00    -0.075 A 
ATOM      2  C2  N4B d   1      -1.055  -0.985  -1.072  0.00  0.00     0.002 A 
ATOM      3  C3  N4B d   1      -0.159  -2.018  -1.196  0.00  0.00     0.002 A 
ATOM      4  C4  N4B d   1       1.012  -2.004  -0.454  0.00  0.00    -0.004 A 
ATOM      5  C5  N4B d   1       1.249  -0.989   0.426  0.00  0.00     0.002 A 
ATOM      6  C6  N4B d   1       0.355   0.054   0.565  0.00  0.00     0.002 A 
ENDROOT
BRANCH   1   7
ATOM      7  C1' N4B d   1      -1.698   1.269  -0.069  0.00  0.00     0.057 C 
BRANCH   7   8
ATOM      8  C2' N4B d   1      -3.145   0.815  -0.234  0.00  0.00     0.009 C 
BRANCH   8   9
ATOM      9  C3' N4B d   1      -4.039   1.353   0.870  0.00  0.00     0.004 C 
ATOM     10  C4' N4B d   1      -4.911   0.295   1.478  0.00  0.00     0.003 C 
ENDBRANCH   8   9
ENDBRANCH   7   8
ENDBRANCH   1   7
TORSDOF 3
ENDMDL
