MODEL 1
REMARK minimizedAffinity 8.13856316
REMARK minimizedRMSD -1
REMARK  1 active torsions:
REMARK  status: ('A' for Active; 'I' for Inactive)
REMARK    1  A    between atoms: C1_2  and  C2_3 
ROOT
ATOM      1  C2  UNL d   1       2.266  -0.015   0.313  0.00  0.00    -0.076 A 
ATOM      2  C3  UNL d   1       2.949   1.191   0.550  0.00  0.00     0.004 A 
ATOM      3  C4  UNL d   1       3.072   2.154  -0.450  0.00  0.00    -0.003 A 
ATOM      4  C5  UNL d   1       2.513   1.928  -1.703  0.00  0.00     0.000 A 
ATOM      5  C6  UNL d   1       1.817   0.745  -1.950  0.00  0.00     0.000 A 
ATOM      6  C7  UNL d   1       1.670  -0.229  -0.948  0.00  0.00    -0.073 A 
ATOM      7  C8  UNL d   1       0.914  -1.489  -1.271  0.00  0.00     0.078 C 
ENDROOT
BRANCH   1   8
ATOM      8  C1  UNL d   1       2.188  -1.034   1.427  0.00  0.00     0.053 C 
ATOM      9  C   UNL d   1       2.038  -0.390   2.797  0.00  0.00     0.018 C 
ENDBRANCH   1   8
TORSDOF 1
ENDMDL
