MODEL 1
REMARK minimizedAffinity 1.21474326
REMARK minimizedRMSD -1
REMARK  1 active torsions:
REMARK  status: ('A' for Active; 'I' for Inactive)
REMARK    1  A    between atoms: C1_2  and  C2_3 
ROOT
ATOM      1  C2  UNL d   1       2.558  -0.206   0.066  0.00  0.00    -0.076 A 
ATOM      2  C3  UNL d   1       2.420   1.149   0.412  0.00  0.00     0.004 A 
ATOM      3  C4  UNL d   1       2.164   2.115  -0.561  0.00  0.00    -0.003 A 
ATOM      4  C5  UNL d   1       2.042   1.740  -1.894  0.00  0.00     0.000 A 
ATOM      5  C6  UNL d   1       2.159   0.398  -2.252  0.00  0.00     0.000 A 
ATOM      6  C7  UNL d   1       2.401  -0.590  -1.282  0.00  0.00    -0.073 A 
ATOM      7  C8  UNL d   1       2.524  -2.022  -1.726  0.00  0.00     0.078 C 
ENDROOT
BRANCH   1   8
ATOM      8  C1  UNL d   1       2.862  -1.205   1.160  0.00  0.00     0.053 C 
ATOM      9  C   UNL d   1       1.633  -1.561   1.982  0.00  0.00     0.018 C 
ENDBRANCH   1   8
TORSDOF 1
ENDMDL
