MODEL 1
REMARK minimizedAffinity 7.87591076
REMARK minimizedRMSD -1
REMARK  1 active torsions:
REMARK  status: ('A' for Active; 'I' for Inactive)
REMARK    1  A    between atoms: C1_2  and  C2_3 
ROOT
ATOM      1  C2  UNL d   1      -0.208  -0.960   1.307  0.00  0.00    -0.076 A 
ATOM      2  C3  UNL d   1      -0.407  -0.902  -0.084  0.00  0.00     0.004 A 
ATOM      3  C4  UNL d   1       0.675  -0.907  -0.963  0.00  0.00    -0.003 A 
ATOM      4  C5  UNL d   1       1.972  -0.970  -0.467  0.00  0.00     0.000 A 
ATOM      5  C6  UNL d   1       2.186  -1.046   0.909  0.00  0.00     0.000 A 
ATOM      6  C7  UNL d   1       1.107  -1.059   1.809  0.00  0.00    -0.073 A 
ATOM      7  C8  UNL d   1       1.397  -1.136   3.283  0.00  0.00     0.078 C 
ENDROOT
BRANCH   1   8
ATOM      8  C1  UNL d   1      -1.418  -0.925   2.213  0.00  0.00     0.053 C 
ATOM      9  C   UNL d   1      -1.674   0.459   2.790  0.00  0.00     0.018 C 
ENDBRANCH   1   8
TORSDOF 1
ENDMDL
