MODEL 1
REMARK minimizedAffinity 4.11182642
REMARK minimizedRMSD -1
REMARK  1 active torsions:
REMARK  status: ('A' for Active; 'I' for Inactive)
REMARK    1  A    between atoms: C1_2  and  C2_3 
ROOT
ATOM      1  C2  UNL d   1       0.500  -1.167   2.028  0.00  0.00    -0.076 A 
ATOM      2  C3  UNL d   1      -0.148  -1.137   0.781  0.00  0.00     0.004 A 
ATOM      3  C4  UNL d   1       0.582  -1.109  -0.406  0.00  0.00    -0.003 A 
ATOM      4  C5  UNL d   1       1.972  -1.110  -0.365  0.00  0.00     0.000 A 
ATOM      5  C6  UNL d   1       2.631  -1.157   0.863  0.00  0.00     0.000 A 
ATOM      6  C7  UNL d   1       1.910  -1.203   2.069  0.00  0.00    -0.073 A 
ATOM      7  C8  UNL d   1       2.672  -1.247   3.365  0.00  0.00     0.078 C 
ENDROOT
BRANCH   1   8
ATOM      8  C1  UNL d   1      -0.345  -1.170   3.283  0.00  0.00     0.053 C 
ATOM      9  C   UNL d   1      -1.337  -0.018   3.319  0.00  0.00     0.018 C 
ENDBRANCH   1   8
TORSDOF 1
ENDMDL
