MODEL 1
REMARK minimizedAffinity 1.74719036
REMARK minimizedRMSD -1
REMARK  1 active torsions:
REMARK  status: ('A' for Active; 'I' for Inactive)
REMARK    1  A    between atoms: C1_2  and  C2_3 
ROOT
ATOM      1  C2  UNL d   1       1.769  -2.007   1.618  0.00  0.00    -0.076 A 
ATOM      2  C3  UNL d   1       1.160  -0.821   2.063  0.00  0.00     0.004 A 
ATOM      3  C4  UNL d   1      -0.001  -0.855   2.833  0.00  0.00    -0.003 A 
ATOM      4  C5  UNL d   1      -0.572  -2.077   3.171  0.00  0.00     0.000 A 
ATOM      5  C6  UNL d   1       0.027  -3.265   2.752  0.00  0.00     0.000 A 
ATOM      6  C7  UNL d   1       1.207  -3.248   1.989  0.00  0.00    -0.073 A 
ATOM      7  C8  UNL d   1       1.808  -4.558   1.560  0.00  0.00     0.078 C 
ENDROOT
BRANCH   1   8
ATOM      8  C1  UNL d   1       3.011  -1.907   0.762  0.00  0.00     0.053 C 
ATOM      9  C   UNL d   1       2.699  -1.942  -0.726  0.00  0.00     0.018 C 
ENDBRANCH   1   8
TORSDOF 1
ENDMDL
