MODEL 1
REMARK minimizedAffinity 8.10717583
REMARK minimizedRMSD -1
REMARK  1 active torsions:
REMARK  status: ('A' for Active; 'I' for Inactive)
REMARK    1  A    between atoms: C1_2  and  C2_3 
ROOT
ATOM      1  C2  UNL d   1       0.644  -1.094   0.830  0.00  0.00    -0.076 A 
ATOM      2  C3  UNL d   1       1.909  -1.706   0.799  0.00  0.00     0.004 A 
ATOM      3  C4  UNL d   1       2.594  -1.998   1.978  0.00  0.00    -0.003 A 
ATOM      4  C5  UNL d   1       2.025  -1.683   3.207  0.00  0.00     0.000 A 
ATOM      5  C6  UNL d   1       0.763  -1.092   3.257  0.00  0.00     0.000 A 
ATOM      6  C7  UNL d   1       0.052  -0.806   2.078  0.00  0.00    -0.073 A 
ATOM      7  C8  UNL d   1      -1.303  -0.162   2.191  0.00  0.00     0.078 C 
ENDROOT
BRANCH   1   8
ATOM      8  C1  UNL d   1      -0.039  -0.777  -0.481  0.00  0.00     0.053 C 
ATOM      9  C   UNL d   1       0.939  -0.323  -1.553  0.00  0.00     0.018 C 
ENDBRANCH   1   8
TORSDOF 1
ENDMDL
