MODEL 1
REMARK minimizedAffinity 8.71531391
REMARK minimizedRMSD -1
REMARK  1 active torsions:
REMARK  status: ('A' for Active; 'I' for Inactive)
REMARK    1  A    between atoms: C1_2  and  C2_3 
ROOT
ATOM      1  C2  UNL d   1       0.903  -0.997  -0.490  0.00  0.00    -0.076 A 
ATOM      2  C3  UNL d   1      -0.342  -0.622   0.044  0.00  0.00     0.004 A 
ATOM      3  C4  UNL d   1      -0.672  -0.911   1.367  0.00  0.00    -0.003 A 
ATOM      4  C5  UNL d   1       0.239  -1.578   2.178  0.00  0.00     0.000 A 
ATOM      5  C6  UNL d   1       1.486  -1.941   1.671  0.00  0.00     0.000 A 
ATOM      6  C7  UNL d   1       1.841  -1.643   0.344  0.00  0.00    -0.073 A 
ATOM      7  C8  UNL d   1       3.197  -2.064  -0.153  0.00  0.00     0.078 C 
ENDROOT
BRANCH   1   8
ATOM      8  C1  UNL d   1       1.195  -0.681  -1.940  0.00  0.00     0.053 C 
ATOM      9  C   UNL d   1       1.496   0.792  -2.166  0.00  0.00     0.018 C 
ENDBRANCH   1   8
TORSDOF 1
ENDMDL
