MODEL 1
REMARK minimizedAffinity 3.06942701
REMARK minimizedRMSD -1
REMARK  1 active torsions:
REMARK  status: ('A' for Active; 'I' for Inactive)
REMARK    1  A    between atoms: C1_2  and  C2_3 
ROOT
ATOM      1  C2  UNL d   1       2.323  -1.857   0.837  0.00  0.00    -0.076 A 
ATOM      2  C3  UNL d   1       2.586  -2.326   2.136  0.00  0.00     0.004 A 
ATOM      3  C4  UNL d   1       1.744  -2.005   3.199  0.00  0.00    -0.003 A 
ATOM      4  C5  UNL d   1       0.624  -1.210   2.980  0.00  0.00     0.000 A 
ATOM      5  C6  UNL d   1       0.338  -0.751   1.695  0.00  0.00     0.000 A 
ATOM      6  C7  UNL d   1       1.168  -1.079   0.609  0.00  0.00    -0.073 A 
ATOM      7  C8  UNL d   1       0.815  -0.552  -0.755  0.00  0.00     0.078 C 
ENDROOT
BRANCH   1   8
ATOM      8  C1  UNL d   1       3.287  -2.216  -0.271  0.00  0.00     0.053 C 
ATOM      9  C   UNL d   1       4.728  -1.875   0.077  0.00  0.00     0.018 C 
ENDBRANCH   1   8
TORSDOF 1
ENDMDL
