MODEL 1
REMARK minimizedAffinity -5.48969173
REMARK minimizedRMSD -1
REMARK  0 active torsions:
REMARK  status: ('A' for Active; 'I' for Inactive)
ROOT
ATOM      1  C   UNL d   1       0.720  -0.934  -0.726  0.00  0.00     0.078 C 
ATOM      2  C1  UNL d   1      -0.130   0.067  -0.002  0.00  0.00    -0.077 A 
ATOM      3  C2  UNL d   1      -0.075   0.186   1.392  0.00  0.00    -0.001 A 
ATOM      4  C3  UNL d   1      -0.880   1.115   2.053  0.00  0.00     0.003 A 
ATOM      5  C4  UNL d   1      -1.746   1.932   1.328  0.00  0.00    -0.005 A 
ATOM      6  C5  UNL d   1      -1.808   1.819  -0.059  0.00  0.00     0.003 A 
ATOM      7  C6  UNL d   1      -1.005   0.890  -0.722  0.00  0.00    -0.001 A 
ENDROOT
TORSDOF 0
ENDMDL
