MODEL 1
REMARK minimizedAffinity 1.99709725
REMARK minimizedRMSD -1
REMARK  0 active torsions:
REMARK  status: ('A' for Active; 'I' for Inactive)
ROOT
ATOM      1  C   UNL d   1      -2.046   1.593  -0.786  0.00  0.00     0.078 C 
ATOM      2  C1  UNL d   1      -0.837   0.774  -0.443  0.00  0.00    -0.077 A 
ATOM      3  C2  UNL d   1      -0.030   0.226  -1.447  0.00  0.00    -0.001 A 
ATOM      4  C3  UNL d   1       1.087  -0.542  -1.114  0.00  0.00     0.003 A 
ATOM      5  C4  UNL d   1       1.407  -0.769   0.223  0.00  0.00    -0.005 A 
ATOM      6  C5  UNL d   1       0.608  -0.229   1.229  0.00  0.00     0.003 A 
ATOM      7  C6  UNL d   1      -0.510   0.539   0.898  0.00  0.00    -0.001 A 
ENDROOT
TORSDOF 0
ENDMDL
