MODEL 1
REMARK minimizedAffinity -3.31088209
REMARK minimizedRMSD -1
REMARK  0 active torsions:
REMARK  status: ('A' for Active; 'I' for Inactive)
ROOT
ATOM      1  C   UNL d   1       0.336  -3.812  -1.330  0.00  0.00     0.078 C 
ATOM      2  C1  UNL d   1       0.277  -2.388  -0.866  0.00  0.00    -0.077 A 
ATOM      3  C2  UNL d   1      -0.833  -1.904  -0.162  0.00  0.00    -0.001 A 
ATOM      4  C3  UNL d   1      -0.879  -0.573   0.255  0.00  0.00     0.003 A 
ATOM      5  C4  UNL d   1       0.182   0.286  -0.027  0.00  0.00    -0.005 A 
ATOM      6  C5  UNL d   1       1.289  -0.186  -0.729  0.00  0.00     0.003 A 
ATOM      7  C6  UNL d   1       1.337  -1.517  -1.147  0.00  0.00    -0.001 A 
ENDROOT
TORSDOF 0
ENDMDL
