MODEL 1
REMARK minimizedAffinity -5.28098106
REMARK minimizedRMSD -1
REMARK  0 active torsions:
REMARK  status: ('A' for Active; 'I' for Inactive)
ROOT
ATOM      1  C   UNL d   1       2.450  -5.005   0.990  0.00  0.00     0.078 C 
ATOM      2  C1  UNL d   1       1.550  -4.333  -0.004  0.00  0.00    -0.077 A 
ATOM      3  C2  UNL d   1       0.378  -4.955  -0.452  0.00  0.00    -0.001 A 
ATOM      4  C3  UNL d   1      -0.445  -4.322  -1.384  0.00  0.00     0.003 A 
ATOM      5  C4  UNL d   1      -0.105  -3.064  -1.878  0.00  0.00    -0.005 A 
ATOM      6  C5  UNL d   1       1.060  -2.438  -1.440  0.00  0.00     0.003 A 
ATOM      7  C6  UNL d   1       1.884  -3.070  -0.507  0.00  0.00    -0.001 A 
ENDROOT
TORSDOF 0
ENDMDL
