MODEL 1
REMARK minimizedAffinity -2.38716602
REMARK minimizedRMSD -1
REMARK  0 active torsions:
REMARK  status: ('A' for Active; 'I' for Inactive)
ROOT
ATOM      1  C   UNL d   1       2.228  -5.374   0.488  0.00  0.00     0.078 C 
ATOM      2  C1  UNL d   1       1.488  -4.423  -0.405  0.00  0.00    -0.077 A 
ATOM      3  C2  UNL d   1       1.507  -3.044  -0.162  0.00  0.00    -0.001 A 
ATOM      4  C3  UNL d   1       0.806  -2.171  -0.996  0.00  0.00     0.003 A 
ATOM      5  C4  UNL d   1       0.080  -2.667  -2.077  0.00  0.00    -0.005 A 
ATOM      6  C5  UNL d   1       0.054  -4.038  -2.325  0.00  0.00     0.003 A 
ATOM      7  C6  UNL d   1       0.754  -4.913  -1.492  0.00  0.00    -0.001 A 
ENDROOT
TORSDOF 0
ENDMDL
