MODEL 1
REMARK minimizedAffinity -6.13014126
REMARK minimizedRMSD -1
REMARK  0 active torsions:
REMARK  status: ('A' for Active; 'I' for Inactive)
ROOT
ATOM      1  C   UNL d   1       0.835  -0.211  -0.114  0.00  0.00     0.078 C 
ATOM      2  C1  UNL d   1      -0.040   0.913   0.354  0.00  0.00    -0.077 A 
ATOM      3  C2  UNL d   1      -0.201   2.070  -0.417  0.00  0.00    -0.001 A 
ATOM      4  C3  UNL d   1      -1.012   3.113   0.035  0.00  0.00     0.003 A 
ATOM      5  C4  UNL d   1      -1.666   3.009   1.261  0.00  0.00    -0.005 A 
ATOM      6  C5  UNL d   1      -1.511   1.861   2.036  0.00  0.00     0.003 A 
ATOM      7  C6  UNL d   1      -0.701   0.818   1.585  0.00  0.00    -0.001 A 
ENDROOT
TORSDOF 0
ENDMDL
