MODEL 1
REMARK minimizedAffinity -5.42232323
REMARK minimizedRMSD -1
REMARK  0 active torsions:
REMARK  status: ('A' for Active; 'I' for Inactive)
ROOT
ATOM      1  C   UNL d   1       0.761  -0.201  -0.635  0.00  0.00     0.078 C 
ATOM      2  C1  UNL d   1      -0.036   0.914  -0.027  0.00  0.00    -0.077 A 
ATOM      3  C2  UNL d   1      -0.076   2.180  -0.623  0.00  0.00    -0.001 A 
ATOM      4  C3  UNL d   1      -0.815   3.212  -0.041  0.00  0.00     0.003 A 
ATOM      5  C4  UNL d   1      -1.518   2.988   1.141  0.00  0.00    -0.005 A 
ATOM      6  C5  UNL d   1      -1.483   1.732   1.742  0.00  0.00     0.003 A 
ATOM      7  C6  UNL d   1      -0.745   0.699   1.162  0.00  0.00    -0.001 A 
ENDROOT
TORSDOF 0
ENDMDL
