MODEL 1
REMARK minimizedAffinity -3.55865693
REMARK minimizedRMSD -1
REMARK  0 active torsions:
REMARK  status: ('A' for Active; 'I' for Inactive)
ROOT
ATOM      1  C   UNL d   1       0.840  -0.351  -0.302  0.00  0.00     0.078 C 
ATOM      2  C1  UNL d   1      -0.168   0.493   0.420  0.00  0.00    -0.077 A 
ATOM      3  C2  UNL d   1      -1.223   1.103  -0.269  0.00  0.00    -0.001 A 
ATOM      4  C3  UNL d   1      -2.149   1.894   0.414  0.00  0.00     0.003 A 
ATOM      5  C4  UNL d   1      -2.027   2.083   1.789  0.00  0.00    -0.005 A 
ATOM      6  C5  UNL d   1      -0.979   1.482   2.483  0.00  0.00     0.003 A 
ATOM      7  C6  UNL d   1      -0.053   0.691   1.801  0.00  0.00    -0.001 A 
ENDROOT
TORSDOF 0
ENDMDL
