MODEL 1
REMARK minimizedAffinity -4.14716578
REMARK minimizedRMSD -1
REMARK  0 active torsions:
REMARK  status: ('A' for Active; 'I' for Inactive)
ROOT
ATOM      1  C   UNL d   1       0.781  -0.729  -0.473  0.00  0.00     0.078 C 
ATOM      2  C1  UNL d   1      -0.227   0.164   0.187  0.00  0.00    -0.077 A 
ATOM      3  C2  UNL d   1      -1.361   0.607  -0.506  0.00  0.00    -0.001 A 
ATOM      4  C3  UNL d   1      -2.286   1.446   0.118  0.00  0.00     0.003 A 
ATOM      5  C4  UNL d   1      -2.086   1.849   1.437  0.00  0.00    -0.005 A 
ATOM      6  C5  UNL d   1      -0.961   1.415   2.133  0.00  0.00     0.003 A 
ATOM      7  C6  UNL d   1      -0.034   0.576   1.511  0.00  0.00    -0.001 A 
ENDROOT
TORSDOF 0
ENDMDL
