MODEL 1
REMARK minimizedAffinity 0.22697261
REMARK minimizedRMSD -1
REMARK  0 active torsions:
REMARK  status: ('A' for Active; 'I' for Inactive)
ROOT
ATOM      1  C   UNL d   1       0.353   0.612  -0.940  0.00  0.00     0.078 C 
ATOM      2  C1  UNL d   1       0.049   0.197  -2.348  0.00  0.00    -0.077 A 
ATOM      3  C2  UNL d   1      -0.914   0.873  -3.107  0.00  0.00    -0.001 A 
ATOM      4  C3  UNL d   1      -1.195   0.469  -4.413  0.00  0.00     0.003 A 
ATOM      5  C4  UNL d   1      -0.517  -0.612  -4.972  0.00  0.00    -0.005 A 
ATOM      6  C5  UNL d   1       0.442  -1.293  -4.224  0.00  0.00     0.003 A 
ATOM      7  C6  UNL d   1       0.723  -0.891  -2.917  0.00  0.00    -0.001 A 
ENDROOT
TORSDOF 0
ENDMDL
