MODEL 1
REMARK minimizedAffinity 3.51989055
REMARK minimizedRMSD -1
REMARK  0 active torsions:
REMARK  status: ('A' for Active; 'I' for Inactive)
ROOT
ATOM      1  C   UNL d   1       0.664   2.206  -1.366  0.00  0.00     0.078 C 
ATOM      2  C1  UNL d   1       0.209   1.671  -0.041  0.00  0.00    -0.077 A 
ATOM      3  C2  UNL d   1       0.213   0.295   0.221  0.00  0.00    -0.001 A 
ATOM      4  C3  UNL d   1      -0.223  -0.189   1.455  0.00  0.00     0.003 A 
ATOM      5  C4  UNL d   1      -0.666   0.695   2.437  0.00  0.00    -0.005 A 
ATOM      6  C5  UNL d   1      -0.675   2.065   2.185  0.00  0.00     0.003 A 
ATOM      7  C6  UNL d   1      -0.240   2.551   0.951  0.00  0.00    -0.001 A 
ENDROOT
TORSDOF 0
ENDMDL
