MODEL 1
REMARK minimizedAffinity 1.25238502
REMARK minimizedRMSD -1
REMARK  0 active torsions:
REMARK  status: ('A' for Active; 'I' for Inactive)
ROOT
ATOM      1  C   UNL d   1      -1.112   2.168   2.412  0.00  0.00     0.078 C 
ATOM      2  C1  UNL d   1      -0.494   1.268   1.383  0.00  0.00    -0.077 A 
ATOM      3  C2  UNL d   1       0.165   1.795   0.266  0.00  0.00    -0.001 A 
ATOM      4  C3  UNL d   1       0.727   0.945  -0.688  0.00  0.00     0.003 A 
ATOM      5  C4  UNL d   1       0.635  -0.437  -0.535  0.00  0.00    -0.005 A 
ATOM      6  C5  UNL d   1      -0.021  -0.970   0.572  0.00  0.00     0.003 A 
ATOM      7  C6  UNL d   1      -0.584  -0.122   1.527  0.00  0.00    -0.001 A 
ENDROOT
TORSDOF 0
ENDMDL
