MODEL 1
REMARK minimizedAffinity -2.61313081
REMARK minimizedRMSD -1
REMARK  0 active torsions:
REMARK  status: ('A' for Active; 'I' for Inactive)
ROOT
ATOM      1  C   UNL d   1      -1.106   1.373  -1.716  0.00  0.00     0.078 C 
ATOM      2  C1  UNL d   1      -1.233   1.425  -0.223  0.00  0.00    -0.077 A 
ATOM      3  C2  UNL d   1      -2.366   1.979   0.386  0.00  0.00    -0.001 A 
ATOM      4  C3  UNL d   1      -2.467   2.029   1.777  0.00  0.00     0.003 A 
ATOM      5  C4  UNL d   1      -1.438   1.528   2.572  0.00  0.00    -0.005 A 
ATOM      6  C5  UNL d   1      -0.306   0.977   1.975  0.00  0.00     0.003 A 
ATOM      7  C6  UNL d   1      -0.203   0.926   0.584  0.00  0.00    -0.001 A 
ENDROOT
TORSDOF 0
ENDMDL
