MODEL 1
REMARK minimizedAffinity 5.24422693
REMARK minimizedRMSD -1
REMARK  0 active torsions:
REMARK  status: ('A' for Active; 'I' for Inactive)
ROOT
ATOM      1  C   UNL d   1      -2.226   3.504   2.901  0.00  0.00     0.078 C 
ATOM      2  C1  UNL d   1      -1.512   2.194   2.754  0.00  0.00    -0.077 A 
ATOM      3  C2  UNL d   1      -1.816   1.110   3.586  0.00  0.00    -0.001 A 
ATOM      4  C3  UNL d   1      -1.136  -0.101   3.444  0.00  0.00     0.003 A 
ATOM      5  C4  UNL d   1      -0.147  -0.238   2.472  0.00  0.00    -0.005 A 
ATOM      6  C5  UNL d   1       0.164   0.836   1.641  0.00  0.00     0.003 A 
ATOM      7  C6  UNL d   1      -0.515   2.047   1.781  0.00  0.00    -0.001 A 
ENDROOT
TORSDOF 0
ENDMDL
