MODEL 1
REMARK minimizedAffinity -4.29151201
REMARK minimizedRMSD -1
REMARK  0 active torsions:
REMARK  status: ('A' for Active; 'I' for Inactive)
ROOT
ATOM      1  C   UNL d   1      -2.189   2.250   0.640  0.00  0.00     0.078 C 
ATOM      2  C1  UNL d   1      -1.061   1.450   0.059  0.00  0.00    -0.077 A 
ATOM      3  C2  UNL d   1      -0.723   1.559  -1.296  0.00  0.00    -0.001 A 
ATOM      4  C3  UNL d   1       0.322   0.801  -1.826  0.00  0.00     0.003 A 
ATOM      5  C4  UNL d   1       1.038  -0.072  -1.008  0.00  0.00    -0.005 A 
ATOM      6  C5  UNL d   1       0.707  -0.188   0.340  0.00  0.00     0.003 A 
ATOM      7  C6  UNL d   1      -0.338   0.569   0.872  0.00  0.00    -0.001 A 
ENDROOT
TORSDOF 0
ENDMDL
