MODEL 1
REMARK minimizedAffinity -2.00173235
REMARK minimizedRMSD -1
REMARK  0 active torsions:
REMARK  status: ('A' for Active; 'I' for Inactive)
ROOT
ATOM      1  C   UNL d   1       0.791   1.875  -1.246  0.00  0.00     0.078 C 
ATOM      2  C1  UNL d   1       0.336   1.426   0.111  0.00  0.00    -0.077 A 
ATOM      3  C2  UNL d   1       0.157   0.068   0.398  0.00  0.00    -0.001 A 
ATOM      4  C3  UNL d   1      -0.277  -0.335   1.662  0.00  0.00     0.003 A 
ATOM      5  C4  UNL d   1      -0.536   0.614   2.649  0.00  0.00    -0.005 A 
ATOM      6  C5  UNL d   1      -0.363   1.969   2.371  0.00  0.00     0.003 A 
ATOM      7  C6  UNL d   1       0.071   2.373   1.108  0.00  0.00    -0.001 A 
ENDROOT
TORSDOF 0
ENDMDL
