MODEL 1
REMARK minimizedAffinity -1.57517755
REMARK minimizedRMSD -1
REMARK  0 active torsions:
REMARK  status: ('A' for Active; 'I' for Inactive)
ROOT
ATOM      1  C   UNL d   1       1.205  -0.651  -0.418  0.00  0.00     0.078 C 
ATOM      2  C1  UNL d   1       0.182   0.211   0.259  0.00  0.00    -0.077 A 
ATOM      3  C2  UNL d   1      -0.026   0.132   1.642  0.00  0.00    -0.001 A 
ATOM      4  C3  UNL d   1      -0.988   0.934   2.258  0.00  0.00     0.003 A 
ATOM      5  C4  UNL d   1      -1.751   1.819   1.499  0.00  0.00    -0.005 A 
ATOM      6  C5  UNL d   1      -1.553   1.903   0.122  0.00  0.00     0.003 A 
ATOM      7  C6  UNL d   1      -0.591   1.103  -0.495  0.00  0.00    -0.001 A 
ENDROOT
TORSDOF 0
ENDMDL
