MODEL 1
REMARK minimizedAffinity 0.733203232
REMARK minimizedRMSD -1
REMARK  0 active torsions:
REMARK  status: ('A' for Active; 'I' for Inactive)
ROOT
ATOM      1  C   UNL d   1       0.739  -1.833   0.656  0.00  0.00     0.023 A 
ATOM      2  C1  UNL d   1       2.055  -1.417   0.451  0.00  0.00     0.003 A 
ATOM      3  C2  UNL d   1       3.046  -2.354   0.151  0.00  0.00     0.048 A 
ATOM      4  C3  UNL d   1       2.714  -3.705   0.057  0.00  0.00     0.023 A 
ATOM      5  C4  UNL d   1       1.399  -4.126   0.259  0.00  0.00     0.048 A 
ATOM      6  C5  UNL d   1       0.411  -3.186   0.560  0.00  0.00     0.003 A 
ATOM      7  I   UNL d   1       4.187  -5.102  -0.390  0.00  0.00    -0.146 I 
ENDROOT
TORSDOF 0
ENDMDL
