MODEL 1
REMARK minimizedAffinity 8.39966106
REMARK minimizedRMSD -1
REMARK  0 active torsions:
REMARK  status: ('A' for Active; 'I' for Inactive)
ROOT
ATOM      1  C   UNL d   1      -1.204  -1.842   0.337  0.00  0.00     0.023 A 
ATOM      2  C1  UNL d   1      -0.033  -2.537   0.035  0.00  0.00     0.003 A 
ATOM      3  C2  UNL d   1       1.205  -2.034   0.441  0.00  0.00     0.048 A 
ATOM      4  C3  UNL d   1       1.264  -0.834   1.149  0.00  0.00     0.023 A 
ATOM      5  C4  UNL d   1       0.095  -0.135   1.454  0.00  0.00     0.048 A 
ATOM      6  C5  UNL d   1      -1.140  -0.642   1.046  0.00  0.00     0.003 A 
ATOM      7  I   UNL d   1       3.105  -0.082   1.754  0.00  0.00    -0.146 I 
ENDROOT
TORSDOF 0
ENDMDL
