MODEL 1
REMARK minimizedAffinity -2.41549969
REMARK minimizedRMSD -1
REMARK  0 active torsions:
REMARK  status: ('A' for Active; 'I' for Inactive)
ROOT
ATOM      1  C   UNL d   1      -0.560  -0.918   0.696  0.00  0.00     0.023 A 
ATOM      2  C1  UNL d   1      -0.677  -2.297   0.873  0.00  0.00     0.003 A 
ATOM      3  C2  UNL d   1       0.433  -3.123   0.685  0.00  0.00     0.048 A 
ATOM      4  C3  UNL d   1       1.657  -2.564   0.319  0.00  0.00     0.023 A 
ATOM      5  C4  UNL d   1       1.779  -1.185   0.141  0.00  0.00     0.048 A 
ATOM      6  C5  UNL d   1       0.667  -0.363   0.330  0.00  0.00     0.003 A 
ATOM      7  I   UNL d   1       3.310  -3.792   0.038  0.00  0.00    -0.146 I 
ENDROOT
TORSDOF 0
ENDMDL
