MODEL 1
REMARK minimizedAffinity 1.96339512
REMARK minimizedRMSD -1
REMARK  0 active torsions:
REMARK  status: ('A' for Active; 'I' for Inactive)
ROOT
ATOM      1  C   UNL d   1       1.473  -1.528   0.342  0.00  0.00     0.023 A 
ATOM      2  C1  UNL d   1       2.848  -1.350   0.191  0.00  0.00     0.003 A 
ATOM      3  C2  UNL d   1       3.683  -2.456   0.027  0.00  0.00     0.048 A 
ATOM      4  C3  UNL d   1       3.137  -3.739   0.014  0.00  0.00     0.023 A 
ATOM      5  C4  UNL d   1       1.761  -3.923   0.164  0.00  0.00     0.048 A 
ATOM      6  C5  UNL d   1       0.930  -2.813   0.329  0.00  0.00     0.003 A 
ATOM      7  I   UNL d   1       4.378  -5.388  -0.231  0.00  0.00    -0.146 I 
ENDROOT
TORSDOF 0
ENDMDL
