MODEL 1
REMARK minimizedAffinity -2.65448046
REMARK minimizedRMSD -1
REMARK  0 active torsions:
REMARK  status: ('A' for Active; 'I' for Inactive)
ROOT
ATOM      1  C   UNL d   1      -0.681  -0.095   1.178  0.00  0.00     0.023 A 
ATOM      2  C1  UNL d   1      -1.084  -1.181   0.402  0.00  0.00     0.003 A 
ATOM      3  C2  UNL d   1      -0.187  -2.215   0.125  0.00  0.00     0.048 A 
ATOM      4  C3  UNL d   1       1.112  -2.157   0.630  0.00  0.00     0.023 A 
ATOM      5  C4  UNL d   1       1.519  -1.072   1.409  0.00  0.00     0.048 A 
ATOM      6  C5  UNL d   1       0.619  -0.041   1.681  0.00  0.00     0.003 A 
ATOM      7  I   UNL d   1       2.449  -3.694   0.220  0.00  0.00    -0.146 I 
ENDROOT
TORSDOF 0
ENDMDL
