MODEL 1
REMARK minimizedAffinity 0.956576407
REMARK minimizedRMSD -1
REMARK  0 active torsions:
REMARK  status: ('A' for Active; 'I' for Inactive)
ROOT
ATOM      1  C   UNL d   1      -0.010  -0.124   0.943  0.00  0.00     0.023 A 
ATOM      2  C1  UNL d   1       1.382  -0.190   0.991  0.00  0.00     0.003 A 
ATOM      3  C2  UNL d   1       2.030  -1.420   0.855  0.00  0.00     0.048 A 
ATOM      4  C3  UNL d   1       1.279  -2.580   0.670  0.00  0.00     0.023 A 
ATOM      5  C4  UNL d   1      -0.115  -2.519   0.620  0.00  0.00     0.048 A 
ATOM      6  C5  UNL d   1      -0.758  -1.287   0.758  0.00  0.00     0.003 A 
ATOM      7  I   UNL d   1       2.240  -4.411   0.466  0.00  0.00    -0.146 I 
ENDROOT
TORSDOF 0
ENDMDL
