MODEL 1
REMARK minimizedAffinity -2.09125209
REMARK minimizedRMSD -1
REMARK  0 active torsions:
REMARK  status: ('A' for Active; 'I' for Inactive)
ROOT
ATOM      1  C   UNL d   1       2.345  -3.121  -0.426  0.00  0.00     0.023 A 
ATOM      2  C1  UNL d   1       1.105  -3.696  -0.144  0.00  0.00     0.003 A 
ATOM      3  C2  UNL d   1       0.060  -2.904   0.336  0.00  0.00     0.048 A 
ATOM      4  C3  UNL d   1       0.261  -1.537   0.531  0.00  0.00     0.023 A 
ATOM      5  C4  UNL d   1       1.500  -0.958   0.249  0.00  0.00     0.048 A 
ATOM      6  C5  UNL d   1       2.542  -1.754  -0.230  0.00  0.00     0.003 A 
ATOM      7  I   UNL d   1      -1.293  -0.357   1.245  0.00  0.00    -0.146 I 
ENDROOT
TORSDOF 0
ENDMDL
