MODEL 1
REMARK minimizedAffinity -0.474249989
REMARK minimizedRMSD -1
REMARK  0 active torsions:
REMARK  status: ('A' for Active; 'I' for Inactive)
ROOT
ATOM      1  C   UNL d   1       1.280  -1.788   0.343  0.00  0.00     0.023 A 
ATOM      2  C1  UNL d   1       0.784  -3.084   0.484  0.00  0.00     0.003 A 
ATOM      3  C2  UNL d   1       1.646  -4.178   0.379  0.00  0.00     0.048 A 
ATOM      4  C3  UNL d   1       3.002  -3.968   0.133  0.00  0.00     0.023 A 
ATOM      5  C4  UNL d   1       3.503  -2.673  -0.007  0.00  0.00     0.048 A 
ATOM      6  C5  UNL d   1       2.638  -1.583   0.098  0.00  0.00     0.003 A 
ATOM      7  I   UNL d   1       4.286  -5.595  -0.023  0.00  0.00    -0.146 I 
ENDROOT
TORSDOF 0
ENDMDL
