MODEL 1
REMARK minimizedAffinity 3.66457462
REMARK minimizedRMSD -1
REMARK  0 active torsions:
REMARK  status: ('A' for Active; 'I' for Inactive)
ROOT
ATOM      1  C   UNL d   1      -2.704   1.319   1.940  0.00  0.00     0.023 A 
ATOM      2  C1  UNL d   1      -1.499   0.996   2.563  0.00  0.00     0.003 A 
ATOM      3  C2  UNL d   1      -0.774  -0.123   2.148  0.00  0.00     0.048 A 
ATOM      4  C3  UNL d   1      -1.261  -0.915   1.108  0.00  0.00     0.023 A 
ATOM      5  C4  UNL d   1      -2.467  -0.595   0.481  0.00  0.00     0.048 A 
ATOM      6  C5  UNL d   1      -3.187   0.524   0.900  0.00  0.00     0.003 A 
ATOM      7  I   UNL d   1      -0.185  -2.582   0.489  0.00  0.00    -0.146 I 
ENDROOT
TORSDOF 0
ENDMDL
