MODEL 1
REMARK minimizedAffinity -2.07255244
REMARK minimizedRMSD -1
REMARK  0 active torsions:
REMARK  status: ('A' for Active; 'I' for Inactive)
ROOT
ATOM      1  C   UNL d   1      -0.012  -0.711   1.056  0.00  0.00     0.023 A 
ATOM      2  C1  UNL d   1      -0.401  -1.988   0.649  0.00  0.00     0.003 A 
ATOM      3  C2  UNL d   1       0.563  -2.924   0.270  0.00  0.00     0.048 A 
ATOM      4  C3  UNL d   1       1.913  -2.578   0.301  0.00  0.00     0.023 A 
ATOM      5  C4  UNL d   1       2.307  -1.303   0.709  0.00  0.00     0.048 A 
ATOM      6  C5  UNL d   1       1.340  -0.369   1.086  0.00  0.00     0.003 A 
ATOM      7  I   UNL d   1       3.350  -3.971  -0.262  0.00  0.00    -0.146 I 
ENDROOT
TORSDOF 0
ENDMDL
