MODEL 1
REMARK minimizedAffinity 2.86060357
REMARK minimizedRMSD -1
REMARK  0 active torsions:
REMARK  status: ('A' for Active; 'I' for Inactive)
ROOT
ATOM      1  C   UNL d   1       1.147  -1.092  -0.616  0.00  0.00     0.023 A 
ATOM      2  C1  UNL d   1       2.030  -0.657   0.372  0.00  0.00     0.003 A 
ATOM      3  C2  UNL d   1       1.552  -0.335   1.644  0.00  0.00     0.048 A 
ATOM      4  C3  UNL d   1       0.191  -0.451   1.922  0.00  0.00     0.023 A 
ATOM      5  C4  UNL d   1      -0.697  -0.887   0.936  0.00  0.00     0.048 A 
ATOM      6  C5  UNL d   1      -0.215  -1.207  -0.334  0.00  0.00     0.003 A 
ATOM      7  I   UNL d   1      -0.522   0.028   3.814  0.00  0.00    -0.146 I 
ENDROOT
TORSDOF 0
ENDMDL
