MODEL 1
REMARK minimizedAffinity -2.10835242
REMARK minimizedRMSD -1
REMARK  0 active torsions:
REMARK  status: ('A' for Active; 'I' for Inactive)
ROOT
ATOM      1  C   UNL d   1       2.469  -2.984   0.163  0.00  0.00     0.023 A 
ATOM      2  C1  UNL d   1       1.232  -3.586   0.396  0.00  0.00     0.003 A 
ATOM      3  C2  UNL d   1       0.118  -2.801   0.699  0.00  0.00     0.048 A 
ATOM      4  C3  UNL d   1       0.246  -1.414   0.767  0.00  0.00     0.023 A 
ATOM      5  C4  UNL d   1       1.481  -0.807   0.534  0.00  0.00     0.048 A 
ATOM      6  C5  UNL d   1       2.593  -1.596   0.232  0.00  0.00     0.003 A 
ATOM      7  I   UNL d   1      -1.411  -0.244   1.217  0.00  0.00    -0.146 I 
ENDROOT
TORSDOF 0
ENDMDL
