MODEL 1
REMARK minimizedAffinity 1.06527162
REMARK minimizedRMSD -1
REMARK  0 active torsions:
REMARK  status: ('A' for Active; 'I' for Inactive)
ROOT
ATOM      1  C   UNL d   1       1.103  -1.946  -0.685  0.00  0.00     0.023 A 
ATOM      2  C1  UNL d   1      -0.112  -2.356  -0.136  0.00  0.00     0.003 A 
ATOM      3  C2  UNL d   1      -0.484  -1.927   1.140  0.00  0.00     0.048 A 
ATOM      4  C3  UNL d   1       0.365  -1.087   1.861  0.00  0.00     0.023 A 
ATOM      5  C4  UNL d   1       1.581  -0.674   1.316  0.00  0.00     0.048 A 
ATOM      6  C5  UNL d   1       1.949  -1.106   0.040  0.00  0.00     0.003 A 
ATOM      7  I   UNL d   1      -0.186  -0.447   3.760  0.00  0.00    -0.146 I 
ENDROOT
TORSDOF 0
ENDMDL
