MODEL 1
REMARK minimizedAffinity -3.78549147
REMARK minimizedRMSD -1
REMARK  0 active torsions:
REMARK  status: ('A' for Active; 'I' for Inactive)
ROOT
ATOM      1  C1  BNZ d   1       0.471  -0.038  -4.963  0.00  0.00     0.000 A 
ATOM      2  C2  BNZ d   1       1.516   0.735  -4.532  0.00  0.00     0.000 A 
ATOM      3  C3  BNZ d   1       1.872   0.757  -3.212  0.00  0.00     0.000 A 
ATOM      4  C4  BNZ d   1       1.159   0.039  -2.321  0.00  0.00     0.000 A 
ATOM      5  C5  BNZ d   1       0.097  -0.738  -2.739  0.00  0.00     0.000 A 
ATOM      6  C6  BNZ d   1      -0.234  -0.788  -4.074  0.00  0.00     0.000 A 
ENDROOT
TORSDOF 0
ENDMDL
