MODEL 1
REMARK minimizedAffinity -1.61175334
REMARK minimizedRMSD -1
REMARK  0 active torsions:
REMARK  status: ('A' for Active; 'I' for Inactive)
ROOT
ATOM      1  C1  BNZ d   1      -2.478   0.925   1.348  0.00  0.00     0.000 A 
ATOM      2  C2  BNZ d   1      -2.348   0.200   0.193  0.00  0.00     0.000 A 
ATOM      3  C3  BNZ d   1      -1.156  -0.380  -0.139  0.00  0.00     0.000 A 
ATOM      4  C4  BNZ d   1      -0.086  -0.201   0.662  0.00  0.00     0.000 A 
ATOM      5  C5  BNZ d   1      -0.198   0.535   1.825  0.00  0.00     0.000 A 
ATOM      6  C6  BNZ d   1      -1.410   1.085   2.176  0.00  0.00     0.000 A 
ENDROOT
TORSDOF 0
ENDMDL
