MODEL 1
REMARK minimizedAffinity -4.10214329
REMARK minimizedRMSD -1
REMARK  0 active torsions:
REMARK  status: ('A' for Active; 'I' for Inactive)
ROOT
ATOM      1  C1  BNZ d   1       0.793   1.344   1.918  0.00  0.00     0.000 A 
ATOM      2  C2  BNZ d   1       1.070   0.642   0.776  0.00  0.00     0.000 A 
ATOM      3  C3  BNZ d   1       0.073   0.019   0.078  0.00  0.00     0.000 A 
ATOM      4  C4  BNZ d   1      -1.191   0.066   0.543  0.00  0.00     0.000 A 
ATOM      5  C5  BNZ d   1      -1.486   0.762   1.699  0.00  0.00     0.000 A 
ATOM      6  C6  BNZ d   1      -0.486   1.420   2.378  0.00  0.00     0.000 A 
ENDROOT
TORSDOF 0
ENDMDL
