MODEL 1
REMARK minimizedAffinity -3.75844383
REMARK minimizedRMSD -1
REMARK  0 active torsions:
REMARK  status: ('A' for Active; 'I' for Inactive)
ROOT
ATOM      1  C1  BNZ d   1      -0.605   0.498   2.401  0.00  0.00     0.000 A 
ATOM      2  C2  BNZ d   1       0.600   0.030   1.949  0.00  0.00     0.000 A 
ATOM      3  C3  BNZ d   1       0.713  -0.526   0.706  0.00  0.00     0.000 A 
ATOM      4  C4  BNZ d   1      -0.385  -0.650  -0.068  0.00  0.00     0.000 A 
ATOM      5  C5  BNZ d   1      -1.609  -0.191   0.377  0.00  0.00     0.000 A 
ATOM      6  C6  BNZ d   1      -1.711   0.403   1.614  0.00  0.00     0.000 A 
ENDROOT
TORSDOF 0
ENDMDL
