MODEL 1
REMARK minimizedAffinity -3.00563884
REMARK minimizedRMSD -1
REMARK  0 active torsions:
REMARK  status: ('A' for Active; 'I' for Inactive)
ROOT
ATOM      1  C1  BNZ d   1      -0.030  -0.242  -5.447  0.00  0.00     0.000 A 
ATOM      2  C2  BNZ d   1       0.651   0.939  -5.580  0.00  0.00     0.000 A 
ATOM      3  C3  BNZ d   1       1.434   1.413  -4.564  0.00  0.00     0.000 A 
ATOM      4  C4  BNZ d   1       1.502   0.728  -3.404  0.00  0.00     0.000 A 
ATOM      5  C5  BNZ d   1       0.813  -0.459  -3.252  0.00  0.00     0.000 A 
ATOM      6  C6  BNZ d   1       0.058  -0.953  -4.291  0.00  0.00     0.000 A 
ENDROOT
TORSDOF 0
ENDMDL
