MODEL 1
REMARK minimizedAffinity -4.06681871
REMARK minimizedRMSD -1
REMARK  0 active torsions:
REMARK  status: ('A' for Active; 'I' for Inactive)
ROOT
ATOM      1  C1  BNZ d   1      -1.742  -0.007   1.934  0.00  0.00     0.000 A 
ATOM      2  C2  BNZ d   1      -0.956   0.863   2.641  0.00  0.00     0.000 A 
ATOM      3  C3  BNZ d   1       0.149   1.430   2.070  0.00  0.00     0.000 A 
ATOM      4  C4  BNZ d   1       0.489   1.096   0.809  0.00  0.00     0.000 A 
ATOM      5  C5  BNZ d   1      -0.288   0.213   0.086  0.00  0.00     0.000 A 
ATOM      6  C6  BNZ d   1      -1.422  -0.326   0.650  0.00  0.00     0.000 A 
ENDROOT
TORSDOF 0
ENDMDL
