MODEL 1
REMARK minimizedAffinity 0.552805603
REMARK minimizedRMSD -1
REMARK  0 active torsions:
REMARK  status: ('A' for Active; 'I' for Inactive)
ROOT
ATOM      1  C1  BNZ d   1       0.448   0.892   1.174  0.00  0.00     0.000 A 
ATOM      2  C2  BNZ d   1      -0.286   0.972   0.020  0.00  0.00     0.000 A 
ATOM      3  C3  BNZ d   1      -0.024   0.143  -1.035  0.00  0.00     0.000 A 
ATOM      4  C4  BNZ d   1       0.996  -0.735  -0.950  0.00  0.00     0.000 A 
ATOM      5  C5  BNZ d   1       1.751  -0.821   0.202  0.00  0.00     0.000 A 
ATOM      6  C6  BNZ d   1       1.460  -0.012   1.277  0.00  0.00     0.000 A 
ENDROOT
TORSDOF 0
ENDMDL
