MODEL 1
REMARK minimizedAffinity 0.667823017
REMARK minimizedRMSD -1
REMARK  0 active torsions:
REMARK  status: ('A' for Active; 'I' for Inactive)
ROOT
ATOM      1  C1  BNZ d   1       0.342   0.608   1.867  0.00  0.00     0.000 A 
ATOM      2  C2  BNZ d   1      -0.640   0.589   2.822  0.00  0.00     0.000 A 
ATOM      3  C3  BNZ d   1      -1.924   0.248   2.499  0.00  0.00     0.000 A 
ATOM      4  C4  BNZ d   1      -2.233  -0.034   1.217  0.00  0.00     0.000 A 
ATOM      5  C5  BNZ d   1      -1.256  -0.011   0.241  0.00  0.00     0.000 A 
ATOM      6  C6  BNZ d   1       0.043   0.295   0.577  0.00  0.00     0.000 A 
ENDROOT
TORSDOF 0
ENDMDL
