MODEL 1
REMARK minimizedAffinity -4.65035295
REMARK minimizedRMSD -1
REMARK  0 active torsions:
REMARK  status: ('A' for Active; 'I' for Inactive)
ROOT
ATOM      1  C1  BNZ d   1       1.311  -0.928   0.171  0.00  0.00     0.000 A 
ATOM      2  C2  BNZ d   1       1.752  -0.397   1.354  0.00  0.00     0.000 A 
ATOM      3  C3  BNZ d   1       1.311   0.824   1.780  0.00  0.00     0.000 A 
ATOM      4  C4  BNZ d   1       0.462   1.530   1.006  0.00  0.00     0.000 A 
ATOM      5  C5  BNZ d   1       0.015   1.012  -0.193  0.00  0.00     0.000 A 
ATOM      6  C6  BNZ d   1       0.431  -0.234  -0.601  0.00  0.00     0.000 A 
ENDROOT
TORSDOF 0
ENDMDL
