MODEL 1
REMARK minimizedAffinity -3.25290775
REMARK minimizedRMSD -1
REMARK  0 active torsions:
REMARK  status: ('A' for Active; 'I' for Inactive)
ROOT
ATOM      1  C1  BNZ d   1       0.096   0.335  -5.999  0.00  0.00     0.000 A 
ATOM      2  C2  BNZ d   1       1.157   1.151  -5.707  0.00  0.00     0.000 A 
ATOM      3  C3  BNZ d   1       1.768   1.093  -4.486  0.00  0.00     0.000 A 
ATOM      4  C4  BNZ d   1       1.294   0.250  -3.546  0.00  0.00     0.000 A 
ATOM      5  C5  BNZ d   1       0.220  -0.572  -3.822  0.00  0.00     0.000 A 
ATOM      6  C6  BNZ d   1      -0.368  -0.539  -5.065  0.00  0.00     0.000 A 
ENDROOT
TORSDOF 0
ENDMDL
