MODEL 1
REMARK minimizedAffinity -2.28935289
REMARK minimizedRMSD -1
REMARK  0 active torsions:
REMARK  status: ('A' for Active; 'I' for Inactive)
ROOT
ATOM      1  C1  BNZ d   1       1.998   0.080   1.500  0.00  0.00     0.000 A 
ATOM      2  C2  BNZ d   1       1.568  -0.812   0.554  0.00  0.00     0.000 A 
ATOM      3  C3  BNZ d   1       0.336  -0.680  -0.023  0.00  0.00     0.000 A 
ATOM      4  C4  BNZ d   1      -0.479   0.319   0.374  0.00  0.00     0.000 A 
ATOM      5  C5  BNZ d   1      -0.063   1.220   1.334  0.00  0.00     0.000 A 
ATOM      6  C6  BNZ d   1       1.192   1.107   1.885  0.00  0.00     0.000 A 
ENDROOT
TORSDOF 0
ENDMDL
