MODEL 1
REMARK minimizedAffinity 3.42832375
REMARK minimizedRMSD -1
REMARK  0 active torsions:
REMARK  status: ('A' for Active; 'I' for Inactive)
ROOT
ATOM      1  C1  BNZ d   1      -0.463   3.455  -0.160  0.00  0.00     0.000 A 
ATOM      2  C2  BNZ d   1       0.096   4.564  -0.737  0.00  0.00     0.000 A 
ATOM      3  C3  BNZ d   1       1.439   4.803  -0.638  0.00  0.00     0.000 A 
ATOM      4  C4  BNZ d   1       2.213   3.954   0.070  0.00  0.00     0.000 A 
ATOM      5  C5  BNZ d   1       1.662   2.837   0.664  0.00  0.00     0.000 A 
ATOM      6  C6  BNZ d   1       0.317   2.579   0.530  0.00  0.00     0.000 A 
ENDROOT
TORSDOF 0
ENDMDL
