MODEL 1
REMARK minimizedAffinity 7.10702229
REMARK minimizedRMSD -1
REMARK  0 active torsions:
REMARK  status: ('A' for Active; 'I' for Inactive)
ROOT
ATOM      1  C1  BNZ d   1      -3.019   0.107  -3.758  0.00  0.00     0.000 A 
ATOM      2  C2  BNZ d   1      -4.093   0.376  -2.952  0.00  0.00     0.000 A 
ATOM      3  C3  BNZ d   1      -4.302   1.635  -2.463  0.00  0.00     0.000 A 
ATOM      4  C4  BNZ d   1      -3.417   2.612  -2.747  0.00  0.00     0.000 A 
ATOM      5  C5  BNZ d   1      -2.325   2.354  -3.550  0.00  0.00     0.000 A 
ATOM      6  C6  BNZ d   1      -2.138   1.095  -4.073  0.00  0.00     0.000 A 
ENDROOT
TORSDOF 0
ENDMDL
