MODEL 1
REMARK minimizedAffinity -0.0380334184
REMARK minimizedRMSD -1
REMARK  0 active torsions:
REMARK  status: ('A' for Active; 'I' for Inactive)
ROOT
ATOM      1  C1  BNZ d   1      -3.382   3.814   1.101  0.00  0.00     0.000 A 
ATOM      2  C2  BNZ d   1      -4.580   3.831   1.764  0.00  0.00     0.000 A 
ATOM      3  C3  BNZ d   1      -5.408   4.916   1.688  0.00  0.00     0.000 A 
ATOM      4  C4  BNZ d   1      -5.019   5.998   0.982  0.00  0.00     0.000 A 
ATOM      5  C5  BNZ d   1      -3.809   6.000   0.316  0.00  0.00     0.000 A 
ATOM      6  C6  BNZ d   1      -2.997   4.890   0.363  0.00  0.00     0.000 A 
ENDROOT
TORSDOF 0
ENDMDL
