MODEL 1
REMARK minimizedAffinity 4.33145475
REMARK minimizedRMSD -1
REMARK  0 active torsions:
REMARK  status: ('A' for Active; 'I' for Inactive)
ROOT
ATOM      1  C1  BNZ d   1      -0.984   5.247  -1.865  0.00  0.00     0.000 A 
ATOM      2  C2  BNZ d   1       0.153   6.000  -1.991  0.00  0.00     0.000 A 
ATOM      3  C3  BNZ d   1       1.385   5.446  -1.782  0.00  0.00     0.000 A 
ATOM      4  C4  BNZ d   1       1.477   4.153  -1.410  0.00  0.00     0.000 A 
ATOM      5  C5  BNZ d   1       0.339   3.384  -1.270  0.00  0.00     0.000 A 
ATOM      6  C6  BNZ d   1      -0.897   3.934  -1.518  0.00  0.00     0.000 A 
ENDROOT
TORSDOF 0
ENDMDL
