MODEL 1
REMARK minimizedAffinity 1.09487998
REMARK minimizedRMSD -1
REMARK  0 active torsions:
REMARK  status: ('A' for Active; 'I' for Inactive)
ROOT
ATOM      1  C1  BNZ d   1       3.944  -2.441   3.245  0.00  0.00     0.000 A 
ATOM      2  C2  BNZ d   1       4.846  -3.109   2.459  0.00  0.00     0.000 A 
ATOM      3  C3  BNZ d   1       4.909  -2.877   1.114  0.00  0.00     0.000 A 
ATOM      4  C4  BNZ d   1       4.045  -2.009   0.550  0.00  0.00     0.000 A 
ATOM      5  C5  BNZ d   1       3.123  -1.335   1.326  0.00  0.00     0.000 A 
ATOM      6  C6  BNZ d   1       3.089  -1.542   2.686  0.00  0.00     0.000 A 
ENDROOT
TORSDOF 0
ENDMDL
