MODEL 1
REMARK minimizedAffinity -1.42509556
REMARK minimizedRMSD -1
REMARK  0 active torsions:
REMARK  status: ('A' for Active; 'I' for Inactive)
ROOT
ATOM      1  C1  BNZ d   1      -3.333   4.122   2.243  0.00  0.00     0.000 A 
ATOM      2  C2  BNZ d   1      -2.595   3.043   1.837  0.00  0.00     0.000 A 
ATOM      3  C3  BNZ d   1      -1.854   3.093   0.689  0.00  0.00     0.000 A 
ATOM      4  C4  BNZ d   1      -1.883   4.206  -0.071  0.00  0.00     0.000 A 
ATOM      5  C5  BNZ d   1      -2.630   5.300   0.320  0.00  0.00     0.000 A 
ATOM      6  C6  BNZ d   1      -3.343   5.260   1.496  0.00  0.00     0.000 A 
ENDROOT
TORSDOF 0
ENDMDL
