MODEL 1
REMARK minimizedAffinity 1.17631805
REMARK minimizedRMSD -1
REMARK  0 active torsions:
REMARK  status: ('A' for Active; 'I' for Inactive)
ROOT
ATOM      1  C   UNL d   1       0.695   0.269   1.507  0.00  0.00    -0.002 A 
ATOM      2  C1  UNL d   1      -0.620  -0.017   1.168  0.00  0.00     0.010 A 
ATOM      3  C2  UNL d   1      -0.958  -1.254   0.616  0.00  0.00     0.041 A 
ATOM      4  C3  UNL d   1       0.057  -2.209   0.409  0.00  0.00    -0.075 A 
ATOM      5  S   UNL d   1      -0.122  -3.790  -0.254  0.00  0.00     0.015 SA
ATOM      6  C4  UNL d   1       1.542  -4.124  -0.102  0.00  0.00     0.022 A 
ATOM      7  C5  UNL d   1       2.233  -3.065   0.439  0.00  0.00     0.026 A 
ATOM      8  C6  UNL d   1       1.389  -1.944   0.742  0.00  0.00    -0.082 A 
ATOM      9  C7  UNL d   1       1.699  -0.680   1.300  0.00  0.00     0.045 A 
ENDROOT
TORSDOF 0
ENDMDL
