MODEL 1
REMARK minimizedAffinity -0.74015367
REMARK minimizedRMSD -1
REMARK  0 active torsions:
REMARK  status: ('A' for Active; 'I' for Inactive)
ROOT
ATOM      1  C   UNL d   1      -0.756  -1.582   1.032  0.00  0.00    -0.002 A 
ATOM      2  C1  UNL d   1      -0.042  -0.392   1.056  0.00  0.00     0.010 A 
ATOM      3  C2  UNL d   1       1.315  -0.371   0.726  0.00  0.00     0.041 A 
ATOM      4  C3  UNL d   1       1.947  -1.577   0.366  0.00  0.00    -0.075 A 
ATOM      5  S   UNL d   1       3.599  -1.793  -0.078  0.00  0.00     0.015 SA
ATOM      6  C4  UNL d   1       3.396  -3.469  -0.311  0.00  0.00     0.022 A 
ATOM      7  C5  UNL d   1       2.105  -3.871  -0.061  0.00  0.00     0.026 A 
ATOM      8  C6  UNL d   1       1.249  -2.788   0.333  0.00  0.00    -0.082 A 
ATOM      9  C7  UNL d   1      -0.125  -2.776   0.674  0.00  0.00     0.045 A 
ENDROOT
TORSDOF 0
ENDMDL
