MODEL 1
REMARK minimizedAffinity 13.114089
REMARK minimizedRMSD -1
REMARK  0 active torsions:
REMARK  status: ('A' for Active; 'I' for Inactive)
ROOT
ATOM      1  C   UNL d   1      -0.207  -1.623   0.339  0.00  0.00    -0.002 A 
ATOM      2  C1  UNL d   1       0.705  -0.849   1.043  0.00  0.00     0.010 A 
ATOM      3  C2  UNL d   1       1.717  -0.158   0.374  0.00  0.00     0.041 A 
ATOM      4  C3  UNL d   1       1.797  -0.258  -1.029  0.00  0.00    -0.075 A 
ATOM      5  S   UNL d   1       2.951   0.501  -2.061  0.00  0.00     0.015 SA
ATOM      6  C4  UNL d   1       2.261  -0.184  -3.461  0.00  0.00     0.022 A 
ATOM      7  C5  UNL d   1       1.176  -0.975  -3.167  0.00  0.00     0.026 A 
ATOM      8  C6  UNL d   1       0.890  -1.030  -1.761  0.00  0.00    -0.082 A 
ATOM      9  C7  UNL d   1      -0.124  -1.719  -1.053  0.00  0.00     0.045 A 
ENDROOT
TORSDOF 0
ENDMDL
