MODEL 1
REMARK minimizedAffinity 3.19629145
REMARK minimizedRMSD -1
REMARK  0 active torsions:
REMARK  status: ('A' for Active; 'I' for Inactive)
ROOT
ATOM      1  C   UNL d   1       2.600  -3.116  -0.240  0.00  0.00    -0.002 A 
ATOM      2  C1  UNL d   1       1.548  -3.992  -0.011  0.00  0.00     0.010 A 
ATOM      3  C2  UNL d   1       0.336  -3.528   0.504  0.00  0.00     0.041 A 
ATOM      4  C3  UNL d   1       0.197  -2.154   0.786  0.00  0.00    -0.075 A 
ATOM      5  S   UNL d   1      -1.195  -1.359   1.420  0.00  0.00     0.015 SA
ATOM      6  C4  UNL d   1      -0.427   0.162   1.402  0.00  0.00     0.022 A 
ATOM      7  C5  UNL d   1       0.861   0.084   0.926  0.00  0.00     0.026 A 
ATOM      8  C6  UNL d   1       1.241  -1.252   0.563  0.00  0.00    -0.082 A 
ATOM      9  C7  UNL d   1       2.458  -1.754   0.041  0.00  0.00     0.045 A 
ENDROOT
TORSDOF 0
ENDMDL
