MODEL 1
REMARK minimizedAffinity 1.67825079
REMARK minimizedRMSD -1
REMARK  0 active torsions:
REMARK  status: ('A' for Active; 'I' for Inactive)
ROOT
ATOM      1  C   UNL d   1      -0.412  -0.708   0.990  0.00  0.00    -0.002 A 
ATOM      2  C1  UNL d   1       0.752   0.018   0.784  0.00  0.00     0.010 A 
ATOM      3  C2  UNL d   1       1.924  -0.620   0.373  0.00  0.00     0.041 A 
ATOM      4  C3  UNL d   1       1.906  -2.014   0.170  0.00  0.00    -0.075 A 
ATOM      5  S   UNL d   1       3.221  -3.009  -0.334  0.00  0.00     0.015 SA
ATOM      6  C4  UNL d   1       2.268  -4.421  -0.288  0.00  0.00     0.022 A 
ATOM      7  C5  UNL d   1       0.976  -4.159   0.101  0.00  0.00     0.026 A 
ATOM      8  C6  UNL d   1       0.745  -2.767   0.370  0.00  0.00    -0.082 A 
ATOM      9  C7  UNL d   1      -0.426  -2.091   0.787  0.00  0.00     0.045 A 
ENDROOT
TORSDOF 0
ENDMDL
