MODEL 1
REMARK minimizedAffinity -4.31236935
REMARK minimizedRMSD -1
REMARK  0 active torsions:
REMARK  status: ('A' for Active; 'I' for Inactive)
ROOT
ATOM      1  C   UNL d   1      -0.696  -1.821   0.919  0.00  0.00    -0.002 A 
ATOM      2  C1  UNL d   1      -0.047  -0.595   0.900  0.00  0.00     0.010 A 
ATOM      3  C2  UNL d   1       1.316  -0.517   0.609  0.00  0.00     0.041 A 
ATOM      4  C3  UNL d   1       2.023  -1.704   0.334  0.00  0.00    -0.075 A 
ATOM      5  S   UNL d   1       3.697  -1.852  -0.049  0.00  0.00     0.015 SA
ATOM      6  C4  UNL d   1       3.591  -3.546  -0.197  0.00  0.00     0.022 A 
ATOM      7  C5  UNL d   1       2.316  -4.005   0.036  0.00  0.00     0.026 A 
ATOM      8  C6  UNL d   1       1.391  -2.951   0.346  0.00  0.00    -0.082 A 
ATOM      9  C7  UNL d   1       0.008  -2.996   0.644  0.00  0.00     0.045 A 
ENDROOT
TORSDOF 0
ENDMDL
