MODEL 1
REMARK minimizedAffinity -2.54611135
REMARK minimizedRMSD -1
REMARK  0 active torsions:
REMARK  status: ('A' for Active; 'I' for Inactive)
ROOT
ATOM      1  C   UNL d   1       3.643  -3.590  -0.224  0.00  0.00    -0.002 A 
ATOM      2  C1  UNL d   1       2.572  -4.473  -0.207  0.00  0.00     0.010 A 
ATOM      3  C2  UNL d   1       1.288  -4.026   0.112  0.00  0.00     0.041 A 
ATOM      4  C3  UNL d   1       1.097  -2.663   0.416  0.00  0.00    -0.075 A 
ATOM      5  S   UNL d   1      -0.386  -1.890   0.835  0.00  0.00     0.015 SA
ATOM      6  C4  UNL d   1       0.367  -0.370   1.001  0.00  0.00     0.022 A 
ATOM      7  C5  UNL d   1       1.716  -0.433   0.746  0.00  0.00     0.026 A 
ATOM      8  C6  UNL d   1       2.159  -1.755   0.405  0.00  0.00    -0.082 A 
ATOM      9  C7  UNL d   1       3.449  -2.240   0.078  0.00  0.00     0.045 A 
ENDROOT
TORSDOF 0
ENDMDL
