MODEL 1
REMARK minimizedAffinity 4.36744118
REMARK minimizedRMSD -1
REMARK  0 active torsions:
REMARK  status: ('A' for Active; 'I' for Inactive)
ROOT
ATOM      1  C   UNL d   1       2.723   0.901  -3.262  0.00  0.00    -0.002 A 
ATOM      2  C1  UNL d   1       2.238   1.865  -4.134  0.00  0.00     0.010 A 
ATOM      3  C2  UNL d   1       2.564   3.211  -3.959  0.00  0.00     0.041 A 
ATOM      4  C3  UNL d   1       3.396   3.576  -2.882  0.00  0.00    -0.075 A 
ATOM      5  S   UNL d   1       3.928   5.163  -2.471  0.00  0.00     0.015 SA
ATOM      6  C4  UNL d   1       4.813   4.600  -1.128  0.00  0.00     0.022 A 
ATOM      7  C5  UNL d   1       4.715   3.236  -0.981  0.00  0.00     0.026 A 
ATOM      8  C6  UNL d   1       3.897   2.623  -1.990  0.00  0.00    -0.082 A 
ATOM      9  C7  UNL d   1       3.547   1.267  -2.194  0.00  0.00     0.045 A 
ENDROOT
TORSDOF 0
ENDMDL
