MODEL 1
REMARK minimizedAffinity 1.41031742
REMARK minimizedRMSD -1
REMARK  0 active torsions:
REMARK  status: ('A' for Active; 'I' for Inactive)
ROOT
ATOM      1  C   UNL d   1       0.211  -0.064   0.849  0.00  0.00    -0.002 A 
ATOM      2  C1  UNL d   1       1.544   0.311   0.938  0.00  0.00     0.010 A 
ATOM      3  C2  UNL d   1       2.560  -0.615   0.693  0.00  0.00     0.041 A 
ATOM      4  C3  UNL d   1       2.210  -1.937   0.352  0.00  0.00    -0.075 A 
ATOM      5  S   UNL d   1       3.284  -3.241   0.008  0.00  0.00     0.015 SA
ATOM      6  C4  UNL d   1       1.999  -4.325  -0.266  0.00  0.00     0.022 A 
ATOM      7  C5  UNL d   1       0.773  -3.724  -0.103  0.00  0.00     0.026 A 
ATOM      8  C6  UNL d   1       0.875  -2.338   0.255  0.00  0.00    -0.082 A 
ATOM      9  C7  UNL d   1      -0.132  -1.375   0.511  0.00  0.00     0.045 A 
ENDROOT
TORSDOF 0
ENDMDL
