MODEL 1
REMARK minimizedAffinity 6.34372044
REMARK minimizedRMSD -1
REMARK  0 active torsions:
REMARK  status: ('A' for Active; 'I' for Inactive)
ROOT
ATOM      1  C   UNL d   1       0.040  -0.076   1.184  0.00  0.00    -0.002 A 
ATOM      2  C1  UNL d   1      -1.043  -0.575   0.475  0.00  0.00     0.010 A 
ATOM      3  C2  UNL d   1      -1.005  -1.861  -0.068  0.00  0.00     0.041 A 
ATOM      4  C3  UNL d   1       0.150  -2.645   0.118  0.00  0.00    -0.075 A 
ATOM      5  S   UNL d   1       0.421  -4.249  -0.455  0.00  0.00     0.015 SA
ATOM      6  C4  UNL d   1       1.981  -4.309   0.230  0.00  0.00     0.022 A 
ATOM      7  C5  UNL d   1       2.303  -3.143   0.883  0.00  0.00     0.026 A 
ATOM      8  C6  UNL d   1       1.253  -2.165   0.830  0.00  0.00    -0.082 A 
ATOM      9  C7  UNL d   1       1.184  -0.857   1.367  0.00  0.00     0.045 A 
ENDROOT
TORSDOF 0
ENDMDL
