MODEL 1
REMARK minimizedAffinity -0.097900629
REMARK minimizedRMSD -1
REMARK  0 active torsions:
REMARK  status: ('A' for Active; 'I' for Inactive)
ROOT
ATOM      1  C   UNL d   1      -2.013  -1.075   1.129  0.00  0.00    -0.002 A 
ATOM      2  C1  UNL d   1      -1.238   0.024   1.473  0.00  0.00     0.010 A 
ATOM      3  C2  UNL d   1       0.146   0.002   1.292  0.00  0.00     0.041 A 
ATOM      4  C3  UNL d   1       0.745  -1.153   0.751  0.00  0.00    -0.075 A 
ATOM      5  S   UNL d   1       2.421  -1.406   0.439  0.00  0.00     0.015 SA
ATOM      6  C4  UNL d   1       2.149  -2.978  -0.160  0.00  0.00     0.022 A 
ATOM      7  C5  UNL d   1       0.817  -3.318  -0.129  0.00  0.00     0.026 A 
ATOM      8  C6  UNL d   1      -0.014  -2.272   0.396  0.00  0.00    -0.082 A 
ATOM      9  C7  UNL d   1      -1.415  -2.219   0.593  0.00  0.00     0.045 A 
ENDROOT
TORSDOF 0
ENDMDL
