MODEL 1
REMARK minimizedAffinity -3.00493479
REMARK minimizedRMSD -1
REMARK  0 active torsions:
REMARK  status: ('A' for Active; 'I' for Inactive)
ROOT
ATOM      1  C   UNL d   1      -0.670  -1.558   0.686  0.00  0.00    -0.002 A 
ATOM      2  C1  UNL d   1       0.087  -0.424   0.946  0.00  0.00     0.010 A 
ATOM      3  C2  UNL d   1       1.482  -0.480   0.920  0.00  0.00     0.041 A 
ATOM      4  C3  UNL d   1       2.110  -1.705   0.622  0.00  0.00    -0.075 A 
ATOM      5  S   UNL d   1       3.804  -2.010   0.532  0.00  0.00     0.015 SA
ATOM      6  C4  UNL d   1       3.564  -3.652   0.144  0.00  0.00     0.022 A 
ATOM      7  C5  UNL d   1       2.230  -3.977   0.081  0.00  0.00     0.026 A 
ATOM      8  C6  UNL d   1       1.369  -2.860   0.355  0.00  0.00    -0.082 A 
ATOM      9  C7  UNL d   1      -0.043  -2.772   0.391  0.00  0.00     0.045 A 
ENDROOT
TORSDOF 0
ENDMDL
