MODEL 1
REMARK minimizedAffinity -5.15375996
REMARK minimizedRMSD -1
REMARK  0 active torsions:
REMARK  status: ('A' for Active; 'I' for Inactive)
ROOT
ATOM      1  C   UNL d   1      -0.700  -1.343   0.712  0.00  0.00    -0.002 A 
ATOM      2  C1  UNL d   1       0.128  -0.240   0.865  0.00  0.00     0.010 A 
ATOM      3  C2  UNL d   1       1.515  -0.376   0.785  0.00  0.00     0.041 A 
ATOM      4  C3  UNL d   1       2.062  -1.652   0.545  0.00  0.00    -0.075 A 
ATOM      5  S   UNL d   1       3.732  -2.058   0.407  0.00  0.00     0.015 SA
ATOM      6  C4  UNL d   1       3.386  -3.706   0.141  0.00  0.00     0.022 A 
ATOM      7  C5  UNL d   1       2.034  -3.958   0.154  0.00  0.00     0.026 A 
ATOM      8  C6  UNL d   1       1.249  -2.778   0.387  0.00  0.00    -0.082 A 
ATOM      9  C7  UNL d   1      -0.154  -2.607   0.474  0.00  0.00     0.045 A 
ENDROOT
TORSDOF 0
ENDMDL
