MODEL 1
REMARK minimizedAffinity 13.2031097
REMARK minimizedRMSD -1
REMARK  0 active torsions:
REMARK  status: ('A' for Active; 'I' for Inactive)
ROOT
ATOM      1  C   UNL d   1      -4.728  -4.738   1.283  0.00  0.00    -0.002 A 
ATOM      2  C1  UNL d   1      -4.848  -3.386   1.574  0.00  0.00     0.010 A 
ATOM      3  C2  UNL d   1      -4.804  -2.938   2.896  0.00  0.00     0.041 A 
ATOM      4  C3  UNL d   1      -4.633  -3.879   3.930  0.00  0.00    -0.075 A 
ATOM      5  S   UNL d   1      -4.549  -3.560   5.622  0.00  0.00     0.015 SA
ATOM      6  C4  UNL d   1      -4.351  -5.211   5.999  0.00  0.00     0.022 A 
ATOM      7  C5  UNL d   1      -4.347  -6.000   4.873  0.00  0.00     0.026 A 
ATOM      8  C6  UNL d   1      -4.509  -5.245   3.662  0.00  0.00    -0.082 A 
ATOM      9  C7  UNL d   1      -4.559  -5.669   2.312  0.00  0.00     0.045 A 
ENDROOT
TORSDOF 0
ENDMDL
