MODEL 1
REMARK minimizedAffinity 9.23389435
REMARK minimizedRMSD -1
REMARK  1 active torsions:
REMARK  status: ('A' for Active; 'I' for Inactive)
REMARK    1  A    between atoms: C1_2  and  C2_3 
ROOT
ATOM      1  C2  UNL d   1       4.171  -1.952   3.444  0.00  0.00    -0.077 A 
ATOM      2  C3  UNL d   1       3.968  -1.090   2.357  0.00  0.00     0.002 A 
ATOM      3  C4  UNL d   1       2.728  -0.477   2.164  0.00  0.00     0.002 A 
ATOM      4  C5  UNL d   1       1.684  -0.717   3.055  0.00  0.00    -0.004 A 
ATOM      5  C6  UNL d   1       1.876  -1.574   4.138  0.00  0.00     0.002 A 
ATOM      6  C7  UNL d   1       3.114  -2.188   4.332  0.00  0.00     0.002 A 
ENDROOT
BRANCH   1   7
ATOM      7  C1  UNL d   1       5.522  -2.575   3.682  0.00  0.00     0.055 C 
ATOM      8  C   UNL d   1       6.000  -2.333   5.106  0.00  0.00     0.019 C 
ENDBRANCH   1   7
TORSDOF 1
ENDMDL
