MODEL 1
REMARK minimizedAffinity 2.6500268
REMARK minimizedRMSD -1
REMARK  1 active torsions:
REMARK  status: ('A' for Active; 'I' for Inactive)
REMARK    1  A    between atoms: C1_2  and  C2_3 
ROOT
ATOM      1  C2  UNL d   1       2.877  -1.737   3.650  0.00  0.00    -0.077 A 
ATOM      2  C3  UNL d   1       4.264  -1.941   3.636  0.00  0.00     0.002 A 
ATOM      3  C4  UNL d   1       4.931  -2.344   4.795  0.00  0.00     0.002 A 
ATOM      4  C5  UNL d   1       4.219  -2.550   5.974  0.00  0.00    -0.004 A 
ATOM      5  C6  UNL d   1       2.839  -2.347   6.000  0.00  0.00     0.002 A 
ATOM      6  C7  UNL d   1       2.171  -1.943   4.843  0.00  0.00     0.002 A 
ENDROOT
BRANCH   1   7
ATOM      7  C1  UNL d   1       2.149  -1.350   2.390  0.00  0.00     0.055 C 
ATOM      8  C   UNL d   1       2.523   0.056   1.943  0.00  0.00     0.019 C 
ENDBRANCH   1   7
TORSDOF 1
ENDMDL
