MODEL 1
REMARK minimizedAffinity -0.326840013
REMARK minimizedRMSD -1
REMARK  1 active torsions:
REMARK  status: ('A' for Active; 'I' for Inactive)
REMARK    1  A    between atoms: C1_2  and  C2_3 
ROOT
ATOM      1  C2  UNL d   1       3.354  -2.190   4.447  0.00  0.00    -0.077 A 
ATOM      2  C3  UNL d   1       4.407  -1.870   3.578  0.00  0.00     0.002 A 
ATOM      3  C4  UNL d   1       5.724  -2.182   3.920  0.00  0.00     0.002 A 
ATOM      4  C5  UNL d   1       6.000  -2.819   5.128  0.00  0.00    -0.004 A 
ATOM      5  C6  UNL d   1       4.960  -3.139   6.000  0.00  0.00     0.002 A 
ATOM      6  C7  UNL d   1       3.643  -2.827   5.660  0.00  0.00     0.002 A 
ENDROOT
BRANCH   1   7
ATOM      7  C1  UNL d   1       1.928  -1.899   4.057  0.00  0.00     0.055 C 
ATOM      8  C   UNL d   1       1.859  -1.106   2.760  0.00  0.00     0.019 C 
ENDBRANCH   1   7
TORSDOF 1
ENDMDL
