MODEL 1
REMARK minimizedAffinity 2.59949398
REMARK minimizedRMSD -1
REMARK  1 active torsions:
REMARK  status: ('A' for Active; 'I' for Inactive)
REMARK    1  A    between atoms: C1_2  and  C2_3 
ROOT
ATOM      1  C2  UNL d   1       3.273  -2.720   4.741  0.00  0.00    -0.077 A 
ATOM      2  C3  UNL d   1       3.986  -2.248   5.852  0.00  0.00     0.002 A 
ATOM      3  C4  UNL d   1       5.342  -2.544   5.999  0.00  0.00     0.002 A 
ATOM      4  C5  UNL d   1       5.998  -3.309   5.037  0.00  0.00    -0.004 A 
ATOM      5  C6  UNL d   1       5.298  -3.785   3.930  0.00  0.00     0.002 A 
ATOM      6  C7  UNL d   1       3.942  -3.491   3.782  0.00  0.00     0.002 A 
ENDROOT
BRANCH   1   7
ATOM      7  C1  UNL d   1       1.822  -2.360   4.556  0.00  0.00     0.055 C 
ATOM      8  C   UNL d   1       1.622  -1.484   3.327  0.00  0.00     0.019 C 
ENDBRANCH   1   7
TORSDOF 1
ENDMDL
