MODEL 1
REMARK minimizedAffinity 11.6846285
REMARK minimizedRMSD -1
REMARK  1 active torsions:
REMARK  status: ('A' for Active; 'I' for Inactive)
REMARK    1  A    between atoms: C1_2  and  C2_3 
ROOT
ATOM      1  C2  UNL d   1       2.470  -3.220   4.165  0.00  0.00    -0.077 A 
ATOM      2  C3  UNL d   1       1.766  -2.172   4.775  0.00  0.00     0.002 A 
ATOM      3  C4  UNL d   1       1.784  -0.891   4.218  0.00  0.00     0.002 A 
ATOM      4  C5  UNL d   1       2.499  -0.648   3.048  0.00  0.00    -0.004 A 
ATOM      5  C6  UNL d   1       3.204  -1.684   2.435  0.00  0.00     0.002 A 
ATOM      6  C7  UNL d   1       3.188  -2.964   2.990  0.00  0.00     0.002 A 
ENDROOT
BRANCH   1   7
ATOM      7  C1  UNL d   1       2.411  -4.613   4.736  0.00  0.00     0.055 C 
ATOM      8  C   UNL d   1       1.049  -4.903   5.349  0.00  0.00     0.019 C 
ENDBRANCH   1   7
TORSDOF 1
ENDMDL
