MODEL 1
REMARK minimizedAffinity 3.0995717
REMARK minimizedRMSD -1
REMARK  0 active torsions:
REMARK  status: ('A' for Active; 'I' for Inactive)
ROOT
ATOM      1  C1  BNZ d   1       3.524   0.919   0.325  0.00  0.00     0.000 A 
ATOM      2  C2  BNZ d   1       4.788   0.937   0.852  0.00  0.00     0.000 A 
ATOM      3  C3  BNZ d   1       5.299  -0.163   1.482  0.00  0.00     0.000 A 
ATOM      4  C4  BNZ d   1       4.534  -1.265   1.619  0.00  0.00     0.000 A 
ATOM      5  C5  BNZ d   1       3.254  -1.296   1.100  0.00  0.00     0.000 A 
ATOM      6  C6  BNZ d   1       2.757  -0.200   0.432  0.00  0.00     0.000 A 
ENDROOT
TORSDOF 0
ENDMDL
