MODEL 1
REMARK minimizedAffinity 2.99372625
REMARK minimizedRMSD -1
REMARK  0 active torsions:
REMARK  status: ('A' for Active; 'I' for Inactive)
ROOT
ATOM      1  C1  BNZ d   1       2.550  -0.170  -0.438  0.00  0.00     0.000 A 
ATOM      2  C2  BNZ d   1       2.516   0.740  -1.460  0.00  0.00     0.000 A 
ATOM      3  C3  BNZ d   1       3.376   1.803  -1.481  0.00  0.00     0.000 A 
ATOM      4  C4  BNZ d   1       4.240   1.976  -0.460  0.00  0.00     0.000 A 
ATOM      5  C5  BNZ d   1       4.281   1.072   0.583  0.00  0.00     0.000 A 
ATOM      6  C6  BNZ d   1       3.440  -0.018   0.581  0.00  0.00     0.000 A 
ENDROOT
TORSDOF 0
ENDMDL
