MODEL 1
REMARK minimizedAffinity -2.64596224
REMARK minimizedRMSD -1
REMARK  0 active torsions:
REMARK  status: ('A' for Active; 'I' for Inactive)
ROOT
ATOM      1  C1  BNZ d   1      -1.906  -5.254   3.696  0.00  0.00     0.000 A 
ATOM      2  C2  BNZ d   1      -1.294  -4.029   3.714  0.00  0.00     0.000 A 
ATOM      3  C3  BNZ d   1      -0.735  -3.542   4.863  0.00  0.00     0.000 A 
ATOM      4  C4  BNZ d   1      -0.824  -4.263   6.000  0.00  0.00     0.000 A 
ATOM      5  C5  BNZ d   1      -1.446  -5.495   6.000  0.00  0.00     0.000 A 
ATOM      6  C6  BNZ d   1      -1.973  -5.999   4.833  0.00  0.00     0.000 A 
ENDROOT
TORSDOF 0
ENDMDL
