MODEL 1
REMARK minimizedAffinity 9.13125801
REMARK minimizedRMSD -1
REMARK  0 active torsions:
REMARK  status: ('A' for Active; 'I' for Inactive)
ROOT
ATOM      1  C1  BNZ d   1      -4.559   0.656   0.228  0.00  0.00     0.000 A 
ATOM      2  C2  BNZ d   1      -3.374  -0.006   0.051  0.00  0.00     0.000 A 
ATOM      3  C3  BNZ d   1      -2.949  -0.359  -1.199  0.00  0.00     0.000 A 
ATOM      4  C4  BNZ d   1      -3.728  -0.085  -2.266  0.00  0.00     0.000 A 
ATOM      5  C5  BNZ d   1      -4.930   0.574  -2.103  0.00  0.00     0.000 A 
ATOM      6  C6  BNZ d   1      -5.336   0.962  -0.847  0.00  0.00     0.000 A 
ENDROOT
TORSDOF 0
ENDMDL
