MODEL 1
REMARK minimizedAffinity -2.97049761
REMARK minimizedRMSD -1
REMARK  2 active torsions:
REMARK  status: ('A' for Active; 'I' for Inactive)
REMARK    1  A    between atoms: C1_2  and  C2_3 
REMARK    2  A    between atoms: C2_3  and  C3_4 
ROOT
ATOM      1  C3  UNL d   1       0.608   0.100   0.031  0.00  0.00    -0.075 A 
ATOM      2  C4  UNL d   1      -0.025   0.570   1.191  0.00  0.00     0.002 A 
ATOM      3  C5  UNL d   1       0.169   1.883   1.621  0.00  0.00     0.002 A 
ATOM      4  C6  UNL d   1       1.005   2.738   0.905  0.00  0.00    -0.004 A 
ATOM      5  C7  UNL d   1       1.652   2.277  -0.239  0.00  0.00     0.002 A 
ATOM      6  C8  UNL d   1       1.456   0.965  -0.674  0.00  0.00     0.002 A 
ENDROOT
BRANCH   1   7
ATOM      7  C2  UNL d   1       0.380  -1.310  -0.457  0.00  0.00     0.056 C 
BRANCH   7   8
ATOM      8  C1  UNL d   1      -1.074  -1.610  -0.839  0.00  0.00     0.007 C 
ATOM      9  C   UNL d   1      -1.430  -1.156  -2.248  0.00  0.00     0.009 C 
ENDBRANCH   7   8
ENDBRANCH   1   7
TORSDOF 2
ENDMDL
