MODEL 1
REMARK minimizedAffinity -0.80960238
REMARK minimizedRMSD -1
REMARK  2 active torsions:
REMARK  status: ('A' for Active; 'I' for Inactive)
REMARK    1  A    between atoms: C1_2  and  C2_3 
REMARK    2  A    between atoms: C2_3  and  C3_4 
ROOT
ATOM      1  C3  UNL d   1       0.238   0.604   0.386  0.00  0.00    -0.075 A 
ATOM      2  C4  UNL d   1       1.037   1.456   1.162  0.00  0.00     0.002 A 
ATOM      3  C5  UNL d   1       0.970   2.839   0.993  0.00  0.00     0.002 A 
ATOM      4  C6  UNL d   1       0.112   3.387   0.042  0.00  0.00    -0.004 A 
ATOM      5  C7  UNL d   1      -0.674   2.549  -0.746  0.00  0.00     0.002 A 
ATOM      6  C8  UNL d   1      -0.612   1.165  -0.577  0.00  0.00     0.002 A 
ENDROOT
BRANCH   1   7
ATOM      7  C2  UNL d   1       0.285  -0.892   0.583  0.00  0.00     0.056 C 
BRANCH   7   8
ATOM      8  C1  UNL d   1      -0.884  -1.450   1.402  0.00  0.00     0.007 C 
ATOM      9  C   UNL d   1      -1.278  -0.559   2.572  0.00  0.00     0.009 C 
ENDBRANCH   7   8
ENDBRANCH   1   7
TORSDOF 2
ENDMDL
