MODEL 1
REMARK minimizedAffinity -5.62923479
REMARK minimizedRMSD -1
REMARK  2 active torsions:
REMARK  status: ('A' for Active; 'I' for Inactive)
REMARK    1  A    between atoms: C1_2  and  C2_3 
REMARK    2  A    between atoms: C2_3  and  C3_4 
ROOT
ATOM      1  C3  UNL d   1       0.522   0.208   0.371  0.00  0.00    -0.075 A 
ATOM      2  C4  UNL d   1       1.784   0.723   0.041  0.00  0.00     0.002 A 
ATOM      3  C5  UNL d   1       2.224   1.927   0.593  0.00  0.00     0.002 A 
ATOM      4  C6  UNL d   1       1.407   2.634   1.471  0.00  0.00    -0.004 A 
ATOM      5  C7  UNL d   1       0.145   2.140   1.793  0.00  0.00     0.002 A 
ATOM      6  C8  UNL d   1      -0.297   0.934   1.247  0.00  0.00     0.002 A 
ENDROOT
BRANCH   1   7
ATOM      7  C2  UNL d   1       0.052  -1.109  -0.199  0.00  0.00     0.056 C 
BRANCH   7   8
ATOM      8  C1  UNL d   1      -0.936  -0.968  -1.361  0.00  0.00     0.007 C 
ATOM      9  C   UNL d   1      -1.995  -2.062  -1.385  0.00  0.00     0.009 C 
ENDBRANCH   7   8
ENDBRANCH   1   7
TORSDOF 2
ENDMDL
