MODEL 1
REMARK minimizedAffinity -3.48063803
REMARK minimizedRMSD -1
REMARK  2 active torsions:
REMARK  status: ('A' for Active; 'I' for Inactive)
REMARK    1  A    between atoms: C1_2  and  C2_3 
REMARK    2  A    between atoms: C2_3  and  C3_4 
ROOT
ATOM      1  C3  UNL d   1       0.405   0.326   0.157  0.00  0.00    -0.075 A 
ATOM      2  C4  UNL d   1       1.076   1.353  -0.522  0.00  0.00     0.002 A 
ATOM      3  C5  UNL d   1       1.588   2.447   0.177  0.00  0.00     0.002 A 
ATOM      4  C6  UNL d   1       1.428   2.532   1.558  0.00  0.00    -0.004 A 
ATOM      5  C7  UNL d   1       0.748   1.526   2.240  0.00  0.00     0.002 A 
ATOM      6  C8  UNL d   1       0.238   0.428   1.544  0.00  0.00     0.002 A 
ENDROOT
BRANCH   1   7
ATOM      7  C2  UNL d   1      -0.126  -0.875  -0.589  0.00  0.00     0.056 C 
BRANCH   7   8
ATOM      8  C1  UNL d   1      -1.063  -0.524  -1.750  0.00  0.00     0.007 C 
ATOM      9  C   UNL d   1      -2.106  -1.599  -2.026  0.00  0.00     0.009 C 
ENDBRANCH   7   8
ENDBRANCH   1   7
TORSDOF 2
ENDMDL
