MODEL 1
REMARK minimizedAffinity -5.65466452
REMARK minimizedRMSD -1
REMARK  2 active torsions:
REMARK  status: ('A' for Active; 'I' for Inactive)
REMARK    1  A    between atoms: C1_2  and  C2_3 
REMARK    2  A    between atoms: C2_3  and  C3_4 
ROOT
ATOM      1  C3  UNL d   1      -0.027  -0.769  -0.210  0.00  0.00    -0.075 A 
ATOM      2  C4  UNL d   1      -0.994  -0.415   0.743  0.00  0.00     0.002 A 
ATOM      3  C5  UNL d   1      -0.843   0.741   1.509  0.00  0.00     0.002 A 
ATOM      4  C6  UNL d   1       0.277   1.552   1.339  0.00  0.00    -0.004 A 
ATOM      5  C7  UNL d   1       1.251   1.201   0.407  0.00  0.00     0.002 A 
ATOM      6  C8  UNL d   1       1.101   0.047  -0.363  0.00  0.00     0.002 A 
ENDROOT
BRANCH   1   7
ATOM      7  C2  UNL d   1      -0.199  -2.003  -1.063  0.00  0.00     0.056 C 
BRANCH   7   8
ATOM      8  C1  UNL d   1      -1.646  -2.272  -1.488  0.00  0.00     0.007 C 
ATOM      9  C   UNL d   1      -2.010  -1.629  -2.819  0.00  0.00     0.009 C 
ENDBRANCH   7   8
ENDBRANCH   1   7
TORSDOF 2
ENDMDL
