MODEL 1
REMARK minimizedAffinity -3.39360571
REMARK minimizedRMSD -1
REMARK  2 active torsions:
REMARK  status: ('A' for Active; 'I' for Inactive)
REMARK    1  A    between atoms: C1_2  and  C2_3 
REMARK    2  A    between atoms: C2_3  and  C3_4 
ROOT
ATOM      1  C3  UNL d   1       1.151   0.980  -0.226  0.00  0.00    -0.075 A 
ATOM      2  C4  UNL d   1      -0.195   0.661  -0.453  0.00  0.00     0.002 A 
ATOM      3  C5  UNL d   1      -0.615  -0.669  -0.472  0.00  0.00     0.002 A 
ATOM      4  C6  UNL d   1       0.306  -1.696  -0.274  0.00  0.00    -0.004 A 
ATOM      5  C7  UNL d   1       1.649  -1.391  -0.063  0.00  0.00     0.002 A 
ATOM      6  C8  UNL d   1       2.071  -0.061  -0.040  0.00  0.00     0.002 A 
ENDROOT
BRANCH   1   7
ATOM      7  C2  UNL d   1       1.606   2.419  -0.175  0.00  0.00     0.056 C 
BRANCH   7   8
ATOM      8  C1  UNL d   1       1.886   2.935   1.240  0.00  0.00     0.007 C 
ATOM      9  C   UNL d   1       1.699   1.873   2.315  0.00  0.00     0.009 C 
ENDBRANCH   7   8
ENDBRANCH   1   7
TORSDOF 2
ENDMDL
