MODEL 1
REMARK minimizedAffinity -0.0539613329
REMARK minimizedRMSD -1
REMARK  2 active torsions:
REMARK  status: ('A' for Active; 'I' for Inactive)
REMARK    1  A    between atoms: C1_2  and  C2_3 
REMARK    2  A    between atoms: C2_3  and  C3_4 
ROOT
ATOM      1  C3  UNL d   1      -0.076   0.733   1.361  0.00  0.00    -0.075 A 
ATOM      2  C4  UNL d   1       0.331   2.068   1.489  0.00  0.00     0.002 A 
ATOM      3  C5  UNL d   1       1.369   2.571   0.704  0.00  0.00     0.002 A 
ATOM      4  C6  UNL d   1       2.018   1.744  -0.210  0.00  0.00    -0.004 A 
ATOM      5  C7  UNL d   1       1.632   0.411  -0.335  0.00  0.00     0.002 A 
ATOM      6  C8  UNL d   1       0.591  -0.093   0.447  0.00  0.00     0.002 A 
ENDROOT
BRANCH   1   7
ATOM      7  C2  UNL d   1      -1.219   0.191   2.187  0.00  0.00     0.056 C 
BRANCH   7   8
ATOM      8  C1  UNL d   1      -1.242  -1.338   2.293  0.00  0.00     0.007 C 
ATOM      9  C   UNL d   1      -1.967  -1.843   3.532  0.00  0.00     0.009 C 
ENDBRANCH   7   8
ENDBRANCH   1   7
TORSDOF 2
ENDMDL
