MODEL 1
REMARK minimizedAffinity -4.28173256
REMARK minimizedRMSD -1
REMARK  2 active torsions:
REMARK  status: ('A' for Active; 'I' for Inactive)
REMARK    1  A    between atoms: C1_2  and  C2_3 
REMARK    2  A    between atoms: C2_3  and  C3_4 
ROOT
ATOM      1  C3  UNL d   1      -0.103   0.188   0.132  0.00  0.00    -0.075 A 
ATOM      2  C4  UNL d   1      -0.812   0.645   1.252  0.00  0.00     0.002 A 
ATOM      3  C5  UNL d   1      -0.409   1.799   1.924  0.00  0.00     0.002 A 
ATOM      4  C6  UNL d   1       0.712   2.505   1.491  0.00  0.00    -0.004 A 
ATOM      5  C7  UNL d   1       1.434   2.051   0.390  0.00  0.00     0.002 A 
ATOM      6  C8  UNL d   1       1.030   0.898  -0.287  0.00  0.00     0.002 A 
ENDROOT
BRANCH   1   7
ATOM      7  C2  UNL d   1      -0.552  -1.044  -0.617  0.00  0.00     0.056 C 
BRANCH   7   8
ATOM      8  C1  UNL d   1      -1.209  -0.747  -1.969  0.00  0.00     0.007 C 
ATOM      9  C   UNL d   1      -2.503  -1.519  -2.190  0.00  0.00     0.009 C 
ENDBRANCH   7   8
ENDBRANCH   1   7
TORSDOF 2
ENDMDL
