MODEL 1
REMARK minimizedAffinity -3.55635357
REMARK minimizedRMSD -1
REMARK  2 active torsions:
REMARK  status: ('A' for Active; 'I' for Inactive)
REMARK    1  A    between atoms: C1_2  and  C2_3 
REMARK    2  A    between atoms: C2_3  and  C3_4 
ROOT
ATOM      1  C3  UNL d   1      -0.780  -0.543  -1.124  0.00  0.00    -0.075 A 
ATOM      2  C4  UNL d   1      -1.224   0.123  -2.276  0.00  0.00     0.002 A 
ATOM      3  C5  UNL d   1      -2.082  -0.512  -3.174  0.00  0.00     0.002 A 
ATOM      4  C6  UNL d   1      -2.497  -1.821  -2.939  0.00  0.00    -0.004 A 
ATOM      5  C7  UNL d   1      -2.049  -2.498  -1.807  0.00  0.00     0.002 A 
ATOM      6  C8  UNL d   1      -1.194  -1.863  -0.904  0.00  0.00     0.002 A 
ENDROOT
BRANCH   1   7
ATOM      7  C2  UNL d   1       0.125   0.149  -0.132  0.00  0.00     0.056 C 
BRANCH   7   8
ATOM      8  C1  UNL d   1      -0.614   1.047   0.865  0.00  0.00     0.007 C 
ATOM      9  C   UNL d   1       0.322   1.848   1.760  0.00  0.00     0.009 C 
ENDBRANCH   7   8
ENDBRANCH   1   7
TORSDOF 2
ENDMDL
