MODEL 1
REMARK minimizedAffinity -4.34654379
REMARK minimizedRMSD -1
REMARK  2 active torsions:
REMARK  status: ('A' for Active; 'I' for Inactive)
REMARK    1  A    between atoms: C1_2  and  C2_3 
REMARK    2  A    between atoms: C2_3  and  C3_4 
ROOT
ATOM      1  C3  UNL d   1      -0.460  -0.618  -0.553  0.00  0.00    -0.075 A 
ATOM      2  C4  UNL d   1      -0.918   0.701  -0.420  0.00  0.00     0.002 A 
ATOM      3  C5  UNL d   1      -0.159   1.649   0.266  0.00  0.00     0.002 A 
ATOM      4  C6  UNL d   1       1.061   1.290   0.835  0.00  0.00    -0.004 A 
ATOM      5  C7  UNL d   1       1.518  -0.021   0.723  0.00  0.00     0.002 A 
ATOM      6  C8  UNL d   1       0.763  -0.971   0.034  0.00  0.00     0.002 A 
ENDROOT
BRANCH   1   7
ATOM      7  C2  UNL d   1      -1.263  -1.642  -1.320  0.00  0.00     0.056 C 
BRANCH   7   8
ATOM      8  C1  UNL d   1      -1.603  -1.221  -2.754  0.00  0.00     0.007 C 
ATOM      9  C   UNL d   1      -3.100  -1.101  -3.004  0.00  0.00     0.009 C 
ENDBRANCH   7   8
ENDBRANCH   1   7
TORSDOF 2
ENDMDL
