MODEL 1
REMARK minimizedAffinity -3.43568063
REMARK minimizedRMSD -1
REMARK  2 active torsions:
REMARK  status: ('A' for Active; 'I' for Inactive)
REMARK    1  A    between atoms: C1_2  and  C2_3 
REMARK    2  A    between atoms: C2_3  and  C3_4 
ROOT
ATOM      1  C3  UNL d   1       0.303   0.838   0.414  0.00  0.00    -0.075 A 
ATOM      2  C4  UNL d   1       0.572   1.894  -0.470  0.00  0.00     0.002 A 
ATOM      3  C5  UNL d   1       1.107   3.093   0.001  0.00  0.00     0.002 A 
ATOM      4  C6  UNL d   1       1.370   3.256   1.359  0.00  0.00    -0.004 A 
ATOM      5  C7  UNL d   1       1.091   2.220   2.248  0.00  0.00     0.002 A 
ATOM      6  C8  UNL d   1       0.560   1.018   1.779  0.00  0.00     0.002 A 
ENDROOT
BRANCH   1   7
ATOM      7  C2  UNL d   1      -0.248  -0.473  -0.094  0.00  0.00     0.056 C 
BRANCH   7   8
ATOM      8  C1  UNL d   1       0.811  -1.564  -0.282  0.00  0.00     0.007 C 
ATOM      9  C   UNL d   1       2.192  -1.011  -0.608  0.00  0.00     0.009 C 
ENDBRANCH   7   8
ENDBRANCH   1   7
TORSDOF 2
ENDMDL
