MODEL 1
REMARK minimizedAffinity -4.15962791
REMARK minimizedRMSD -1
REMARK  2 active torsions:
REMARK  status: ('A' for Active; 'I' for Inactive)
REMARK    1  A    between atoms: C1_2  and  C2_3 
REMARK    2  A    between atoms: C2_3  and  C3_4 
ROOT
ATOM      1  C3  UNL d   1      -0.515  -1.047  -0.277  0.00  0.00    -0.075 A 
ATOM      2  C4  UNL d   1      -0.682   0.258   0.211  0.00  0.00     0.002 A 
ATOM      3  C5  UNL d   1       0.415   1.109   0.346  0.00  0.00     0.002 A 
ATOM      4  C6  UNL d   1       1.691   0.665   0.006  0.00  0.00    -0.004 A 
ATOM      5  C7  UNL d   1       1.871  -0.634  -0.464  0.00  0.00     0.002 A 
ATOM      6  C8  UNL d   1       0.774  -1.487  -0.604  0.00  0.00     0.002 A 
ENDROOT
BRANCH   1   7
ATOM      7  C2  UNL d   1      -1.702  -1.963  -0.453  0.00  0.00     0.056 C 
BRANCH   7   8
ATOM      8  C1  UNL d   1      -2.373  -1.858  -1.826  0.00  0.00     0.007 C 
ATOM      9  C   UNL d   1      -3.880  -1.661  -1.745  0.00  0.00     0.009 C 
ENDBRANCH   7   8
ENDBRANCH   1   7
TORSDOF 2
ENDMDL
