MODEL 1
REMARK minimizedAffinity -4.08768177
REMARK minimizedRMSD -1
REMARK  2 active torsions:
REMARK  status: ('A' for Active; 'I' for Inactive)
REMARK    1  A    between atoms: C1_2  and  C2_3 
REMARK    2  A    between atoms: C2_3  and  C3_4 
ROOT
ATOM      1  C3  UNL d   1      -0.362   0.014  -0.048  0.00  0.00    -0.075 A 
ATOM      2  C4  UNL d   1      -0.647   0.410   1.267  0.00  0.00     0.002 A 
ATOM      3  C5  UNL d   1       0.136   1.375   1.901  0.00  0.00     0.002 A 
ATOM      4  C6  UNL d   1       1.216   1.949   1.234  0.00  0.00    -0.004 A 
ATOM      5  C7  UNL d   1       1.518   1.552  -0.067  0.00  0.00     0.002 A 
ATOM      6  C8  UNL d   1       0.734   0.589  -0.705  0.00  0.00     0.002 A 
ENDROOT
BRANCH   1   7
ATOM      7  C2  UNL d   1      -1.223  -1.008  -0.751  0.00  0.00     0.056 C 
BRANCH   7   8
ATOM      8  C1  UNL d   1      -1.677  -0.585  -2.152  0.00  0.00     0.007 C 
ATOM      9  C   UNL d   1      -3.033  -1.158  -2.543  0.00  0.00     0.009 C 
ENDBRANCH   7   8
ENDBRANCH   1   7
TORSDOF 2
ENDMDL
