MODEL 1
REMARK minimizedAffinity -5.59062004
REMARK minimizedRMSD -1
REMARK  0 active torsions:
REMARK  status: ('A' for Active; 'I' for Inactive)
ROOT
ATOM      1  C1  DEN d   1       0.983  -0.711  -0.081  0.00  0.00     0.130 A 
ATOM      2  C2  DEN d   1      -0.137  -1.343   0.611  0.00  0.00    -0.031 A 
ATOM      3  C3  DEN d   1      -1.133  -0.297   0.918  0.00  0.00     0.027 A 
ATOM      4  C4  DEN d   1      -1.053   2.226   0.386  0.00  0.00     0.027 A 
ATOM      5  C5  DEN d   1      -0.299   3.230  -0.179  0.00  0.00    -0.003 A 
ATOM      6  C6  DEN d   1       0.939   3.000  -0.717  0.00  0.00     0.001 A 
ATOM      7  C7  DEN d   1       1.442   1.725  -0.741  0.00  0.00     0.017 A 
ATOM      8  C8  DEN d   1       0.691   0.709  -0.166  0.00  0.00    -0.094 A 
ATOM      9  C9  DEN d   1      -0.564   0.960   0.361  0.00  0.00    -0.072 A 
ENDROOT
TORSDOF 0
ENDMDL
