MODEL 1
REMARK minimizedAffinity -3.08105254
REMARK minimizedRMSD -1
REMARK  0 active torsions:
REMARK  status: ('A' for Active; 'I' for Inactive)
ROOT
ATOM      1  C1  DEN d   1       0.958   2.443  -0.824  0.00  0.00     0.130 A 
ATOM      2  C2  DEN d   1       0.612   3.380   0.242  0.00  0.00    -0.031 A 
ATOM      3  C3  DEN d   1      -0.168   2.647   1.259  0.00  0.00     0.027 A 
ATOM      4  C4  DEN d   1      -0.865   0.164   1.291  0.00  0.00     0.027 A 
ATOM      5  C5  DEN d   1      -0.813  -1.025   0.598  0.00  0.00    -0.003 A 
ATOM      6  C6  DEN d   1      -0.202  -1.133  -0.623  0.00  0.00     0.001 A 
ATOM      7  C7  DEN d   1       0.422  -0.043  -1.168  0.00  0.00     0.017 A 
ATOM      8  C8  DEN d   1       0.367   1.162  -0.479  0.00  0.00    -0.094 A 
ATOM      9  C9  DEN d   1      -0.245   1.248   0.760  0.00  0.00    -0.072 A 
ENDROOT
TORSDOF 0
ENDMDL
