MODEL 1
REMARK minimizedAffinity -5.75574684
REMARK minimizedRMSD -1
REMARK  0 active torsions:
REMARK  status: ('A' for Active; 'I' for Inactive)
ROOT
ATOM      1  C1  DEN d   1      -1.350  -0.084   0.683  0.00  0.00     0.130 A 
ATOM      2  C2  DEN d   1      -0.614  -1.258   0.221  0.00  0.00    -0.031 A 
ATOM      3  C3  DEN d   1       0.609  -0.789  -0.461  0.00  0.00     0.027 A 
ATOM      4  C4  DEN d   1       1.432   1.626  -0.841  0.00  0.00     0.027 A 
ATOM      5  C5  DEN d   1       1.138   2.956  -0.640  0.00  0.00    -0.003 A 
ATOM      6  C6  DEN d   1      -0.012   3.364  -0.018  0.00  0.00     0.001 A 
ATOM      7  C7  DEN d   1      -0.891   2.431   0.464  0.00  0.00     0.017 A 
ATOM      8  C8  DEN d   1      -0.605   1.087   0.258  0.00  0.00    -0.094 A 
ATOM      9  C9  DEN d   1       0.569   0.695  -0.361  0.00  0.00    -0.072 A 
ENDROOT
TORSDOF 0
ENDMDL
