MODEL 1
REMARK minimizedAffinity -6.27144003
REMARK minimizedRMSD -1
REMARK  0 active torsions:
REMARK  status: ('A' for Active; 'I' for Inactive)
ROOT
ATOM      1  C1  DEN d   1       2.294  -0.294   1.004  0.00  0.00     0.130 A 
ATOM      2  C2  DEN d   1       1.178  -1.237   1.023  0.00  0.00    -0.031 A 
ATOM      3  C3  DEN d   1      -0.029  -0.524   0.559  0.00  0.00     0.027 A 
ATOM      4  C4  DEN d   1      -0.277   1.932  -0.188  0.00  0.00     0.027 A 
ATOM      5  C5  DEN d   1       0.389   3.125  -0.363  0.00  0.00    -0.003 A 
ATOM      6  C6  DEN d   1       1.718   3.269  -0.065  0.00  0.00     0.001 A 
ATOM      7  C7  DEN d   1       2.435   2.191   0.382  0.00  0.00     0.017 A 
ATOM      8  C8  DEN d   1       1.768   0.987   0.568  0.00  0.00    -0.094 A 
ATOM      9  C9  DEN d   1       0.427   0.858   0.249  0.00  0.00    -0.072 A 
ENDROOT
TORSDOF 0
ENDMDL
