MODEL 1
REMARK minimizedAffinity -5.66100264
REMARK minimizedRMSD -1
REMARK  0 active torsions:
REMARK  status: ('A' for Active; 'I' for Inactive)
ROOT
ATOM      1  C1  DEN d   1      -1.214  -0.279   0.741  0.00  0.00     0.130 A 
ATOM      2  C2  DEN d   1      -0.355  -1.433   0.492  0.00  0.00    -0.031 A 
ATOM      3  C3  DEN d   1       0.929  -0.939  -0.046  0.00  0.00     0.027 A 
ATOM      4  C4  DEN d   1       1.666   1.489  -0.510  0.00  0.00     0.027 A 
ATOM      5  C5  DEN d   1       1.274   2.809  -0.467  0.00  0.00    -0.003 A 
ATOM      6  C6  DEN d   1       0.024   3.186  -0.054  0.00  0.00     0.001 A 
ATOM      7  C7  DEN d   1      -0.864   2.236   0.376  0.00  0.00     0.017 A 
ATOM      8  C8  DEN d   1      -0.479   0.903   0.329  0.00  0.00    -0.094 A 
ATOM      9  C9  DEN d   1       0.794   0.542  -0.080  0.00  0.00    -0.072 A 
ENDROOT
TORSDOF 0
ENDMDL
