MODEL 1
REMARK minimizedAffinity -7.11455917
REMARK minimizedRMSD -1
REMARK  0 active torsions:
REMARK  status: ('A' for Active; 'I' for Inactive)
ROOT
ATOM      1  C1  DEN d   1       2.641   2.334   0.245  0.00  0.00     0.130 A 
ATOM      2  C2  DEN d   1       3.303   1.044   0.422  0.00  0.00    -0.031 A 
ATOM      3  C3  DEN d   1       2.262  -0.002   0.466  0.00  0.00     0.027 A 
ATOM      4  C4  DEN d   1      -0.298   0.248   0.272  0.00  0.00     0.027 A 
ATOM      5  C5  DEN d   1      -1.330   1.148   0.123  0.00  0.00    -0.003 A 
ATOM      6  C6  DEN d   1      -1.115   2.498   0.039  0.00  0.00     0.001 A 
ATOM      7  C7  DEN d   1       0.166   2.984   0.058  0.00  0.00     0.017 A 
ATOM      8  C8  DEN d   1       1.211   2.083   0.216  0.00  0.00    -0.094 A 
ATOM      9  C9  DEN d   1       0.974   0.721   0.286  0.00  0.00    -0.072 A 
ENDROOT
TORSDOF 0
ENDMDL
