MODEL 1
REMARK minimizedAffinity -1.04530346
REMARK minimizedRMSD -1
REMARK  0 active torsions:
REMARK  status: ('A' for Active; 'I' for Inactive)
ROOT
ATOM      1  C1  DEN d   1      -1.262  -1.003  -0.470  0.00  0.00     0.130 A 
ATOM      2  C2  DEN d   1      -0.051  -1.699  -0.043  0.00  0.00    -0.031 A 
ATOM      3  C3  DEN d   1       0.820  -0.721   0.639  0.00  0.00     0.027 A 
ATOM      4  C4  DEN d   1       0.412   1.787   1.079  0.00  0.00     0.027 A 
ATOM      5  C5  DEN d   1      -0.468   2.830   0.893  0.00  0.00    -0.003 A 
ATOM      6  C6  DEN d   1      -1.648   2.678   0.216  0.00  0.00     0.001 A 
ATOM      7  C7  DEN d   1      -2.003   1.444  -0.261  0.00  0.00     0.017 A 
ATOM      8  C8  DEN d   1      -1.118   0.389  -0.084  0.00  0.00    -0.094 A 
ATOM      9  C9  DEN d   1       0.065   0.560   0.614  0.00  0.00    -0.072 A 
ENDROOT
TORSDOF 0
ENDMDL
