MODEL 1
REMARK minimizedAffinity -4.80528355
REMARK minimizedRMSD -1
REMARK  0 active torsions:
REMARK  status: ('A' for Active; 'I' for Inactive)
ROOT
ATOM      1  C1  DEN d   1       0.999  -0.432   0.073  0.00  0.00     0.130 A 
ATOM      2  C2  DEN d   1      -0.406  -0.631  -0.275  0.00  0.00    -0.031 A 
ATOM      3  C3  DEN d   1      -1.082   0.680  -0.210  0.00  0.00     0.027 A 
ATOM      4  C4  DEN d   1      -0.096   2.987   0.388  0.00  0.00     0.027 A 
ATOM      5  C5  DEN d   1       1.048   3.655   0.766  0.00  0.00    -0.003 A 
ATOM      6  C6  DEN d   1       2.237   3.008   0.972  0.00  0.00     0.001 A 
ATOM      7  C7  DEN d   1       2.322   1.658   0.756  0.00  0.00     0.017 A 
ATOM      8  C8  DEN d   1       1.171   0.976   0.381  0.00  0.00    -0.094 A 
ATOM      9  C9  DEN d   1      -0.019   1.651   0.166  0.00  0.00    -0.072 A 
ENDROOT
TORSDOF 0
ENDMDL
