MODEL 1
REMARK minimizedAffinity -3.48393941
REMARK minimizedRMSD -1
REMARK  0 active torsions:
REMARK  status: ('A' for Active; 'I' for Inactive)
ROOT
ATOM      1  C1  DEN d   1       1.658   2.562  -0.022  0.00  0.00     0.130 A 
ATOM      2  C2  DEN d   1       0.815   3.752  -0.101  0.00  0.00    -0.031 A 
ATOM      3  C3  DEN d   1      -0.593   3.321   0.013  0.00  0.00     0.027 A 
ATOM      4  C4  DEN d   1      -1.544   0.942   0.306  0.00  0.00     0.027 A 
ATOM      5  C5  DEN d   1      -1.218  -0.392   0.414  0.00  0.00    -0.003 A 
ATOM      6  C6  DEN d   1       0.077  -0.835   0.350  0.00  0.00     0.001 A 
ATOM      7  C7  DEN d   1       1.097   0.070   0.219  0.00  0.00     0.017 A 
ATOM      8  C8  DEN d   1       0.776   1.416   0.102  0.00  0.00    -0.094 A 
ATOM      9  C9  DEN d   1      -0.538   1.844   0.181  0.00  0.00    -0.072 A 
ENDROOT
TORSDOF 0
ENDMDL
