MODEL 1
REMARK minimizedAffinity -5.22670794
REMARK minimizedRMSD -1
REMARK  0 active torsions:
REMARK  status: ('A' for Active; 'I' for Inactive)
ROOT
ATOM      1  C1  DEN d   1       2.355   0.857   0.409  0.00  0.00     0.130 A 
ATOM      2  C2  DEN d   1       2.087  -0.550   0.693  0.00  0.00    -0.031 A 
ATOM      3  C3  DEN d   1       0.624  -0.727   0.781  0.00  0.00     0.027 A 
ATOM      4  C4  DEN d   1      -1.244   1.030   0.502  0.00  0.00     0.027 A 
ATOM      5  C5  DEN d   1      -1.506   2.360   0.263  0.00  0.00    -0.003 A 
ATOM      6  C6  DEN d   1      -0.508   3.282   0.091  0.00  0.00     0.001 A 
ATOM      7  C7  DEN d   1       0.801   2.877   0.111  0.00  0.00     0.017 A 
ATOM      8  C8  DEN d   1       1.074   1.538   0.359  0.00  0.00    -0.094 A 
ATOM      9  C9  DEN d   1       0.050   0.620   0.517  0.00  0.00    -0.072 A 
ENDROOT
TORSDOF 0
ENDMDL
