MODEL 1
REMARK minimizedAffinity -1.25610447
REMARK minimizedRMSD -1
REMARK  0 active torsions:
REMARK  status: ('A' for Active; 'I' for Inactive)
ROOT
ATOM      1  C1  DEN d   1      -0.570  -0.983  -0.257  0.00  0.00     0.130 A 
ATOM      2  C2  DEN d   1       0.176  -1.230  -1.488  0.00  0.00    -0.031 A 
ATOM      3  C3  DEN d   1       0.722   0.059  -1.958  0.00  0.00     0.027 A 
ATOM      4  C4  DEN d   1       0.490   2.401  -0.902  0.00  0.00     0.027 A 
ATOM      5  C5  DEN d   1      -0.060   3.112   0.141  0.00  0.00    -0.003 A 
ATOM      6  C6  DEN d   1      -0.841   2.519   1.098  0.00  0.00     0.001 A 
ATOM      7  C7  DEN d   1      -1.056   1.167   1.056  0.00  0.00     0.017 A 
ATOM      8  C8  DEN d   1      -0.510   0.444   0.004  0.00  0.00    -0.094 A 
ATOM      9  C9  DEN d   1       0.286   1.060  -0.947  0.00  0.00    -0.072 A 
ENDROOT
TORSDOF 0
ENDMDL
