MODEL 1
REMARK minimizedAffinity -2.34243441
REMARK minimizedRMSD -1
REMARK  0 active torsions:
REMARK  status: ('A' for Active; 'I' for Inactive)
ROOT
ATOM      1  C1  DEN d   1       0.653  -1.036   0.087  0.00  0.00     0.130 A 
ATOM      2  C2  DEN d   1      -0.773  -1.242  -0.155  0.00  0.00    -0.031 A 
ATOM      3  C3  DEN d   1      -1.463   0.045   0.062  0.00  0.00     0.027 A 
ATOM      4  C4  DEN d   1      -0.469   2.326   0.740  0.00  0.00     0.027 A 
ATOM      5  C5  DEN d   1       0.692   2.992   1.068  0.00  0.00    -0.003 A 
ATOM      6  C6  DEN d   1       1.905   2.359   1.125  0.00  0.00     0.001 A 
ATOM      7  C7  DEN d   1       1.994   1.030   0.805  0.00  0.00     0.017 A 
ATOM      8  C8  DEN d   1       0.827   0.351   0.481  0.00  0.00    -0.094 A 
ATOM      9  C9  DEN d   1      -0.389   1.011   0.417  0.00  0.00    -0.072 A 
ENDROOT
TORSDOF 0
ENDMDL
