MODEL 1
REMARK minimizedAffinity -4.0192728
REMARK minimizedRMSD -1
REMARK  0 active torsions:
REMARK  status: ('A' for Active; 'I' for Inactive)
ROOT
ATOM      1  C1  DEN d   1       1.940   0.591  -0.411  0.00  0.00     0.130 A 
ATOM      2  C2  DEN d   1       1.553  -0.816  -0.367  0.00  0.00    -0.031 A 
ATOM      3  C3  DEN d   1       0.124  -0.886  -0.002  0.00  0.00     0.027 A 
ATOM      4  C4  DEN d   1      -1.520   1.039   0.493  0.00  0.00     0.027 A 
ATOM      5  C5  DEN d   1      -1.650   2.407   0.593  0.00  0.00    -0.003 A 
ATOM      6  C6  DEN d   1      -0.593   3.256   0.399  0.00  0.00     0.001 A 
ATOM      7  C7  DEN d   1       0.631   2.749   0.052  0.00  0.00     0.017 A 
ATOM      8  C8  DEN d   1       0.772   1.371  -0.043  0.00  0.00    -0.094 A 
ATOM      9  C9  DEN d   1      -0.312   0.529   0.145  0.00  0.00    -0.072 A 
ENDROOT
TORSDOF 0
ENDMDL
