MODEL 1
REMARK minimizedAffinity -1.49535942
REMARK minimizedRMSD -1
REMARK  0 active torsions:
REMARK  status: ('A' for Active; 'I' for Inactive)
ROOT
ATOM      1  C1  DEN d   1       0.750  -0.370  -0.428  0.00  0.00     0.130 A 
ATOM      2  C2  DEN d   1      -0.186  -1.440  -0.093  0.00  0.00    -0.031 A 
ATOM      3  C3  DEN d   1      -1.307  -0.846   0.662  0.00  0.00     0.027 A 
ATOM      4  C4  DEN d   1      -1.684   1.614   1.339  0.00  0.00     0.027 A 
ATOM      5  C5  DEN d   1      -1.156   2.886   1.290  0.00  0.00    -0.003 A 
ATOM      6  C6  DEN d   1       0.050   3.153   0.699  0.00  0.00     0.001 A 
ATOM      7  C7  DEN d   1       0.749   2.142   0.094  0.00  0.00     0.017 A 
ATOM      8  C8  DEN d   1       0.226   0.856   0.146  0.00  0.00    -0.094 A 
ATOM      9  C9  DEN d   1      -1.001   0.608   0.737  0.00  0.00    -0.072 A 
ENDROOT
TORSDOF 0
ENDMDL
