MODEL 1
REMARK minimizedAffinity 9.24520493
REMARK minimizedRMSD -1
REMARK  2 active torsions:
REMARK  status: ('A' for Active; 'I' for Inactive)
REMARK    1  A    between atoms: C2'_3  and  C1'_4 
REMARK    2  A    between atoms: C1'_4  and  C1_5 
ROOT
ATOM      1  C1  I4B d   1       0.699  -1.877   2.299  0.00  0.00    -0.075 A 
ATOM      2  C2  I4B d   1       0.937  -0.924   3.257  0.00  0.00     0.003 A 
ATOM      3  C3  I4B d   1      -0.139  -0.355   3.979  0.00  0.00     0.002 A 
ATOM      4  C4  I4B d   1      -1.433  -0.727   3.677  0.00  0.00    -0.004 A 
ATOM      5  C5  I4B d   1      -1.671  -1.710   2.721  0.00  0.00     0.002 A 
ATOM      6  C6  I4B d   1      -0.598  -2.298   2.035  0.00  0.00     0.003 A 
ENDROOT
BRANCH   1   7
ATOM      7  C1' I4B d   1       1.857  -2.434   1.532  0.00  0.00     0.060 C 
BRANCH   7   8
ATOM      8  C2' I4B d   1       2.380  -3.639   2.288  0.00  0.00    -0.013 C 
ATOM      9  C4' I4B d   1       2.858  -4.709   1.342  0.00  0.00     0.013 C 
ATOM     10  C3' I4B d   1       3.488  -3.176   3.186  0.00  0.00     0.013 C 
ENDBRANCH   7   8
ENDBRANCH   1   7
TORSDOF 2
ENDMDL
