MODEL 1
REMARK minimizedAffinity 15.1829281
REMARK minimizedRMSD -1
REMARK  2 active torsions:
REMARK  status: ('A' for Active; 'I' for Inactive)
REMARK    1  A    between atoms: C2'_3  and  C1'_4 
REMARK    2  A    between atoms: C1'_4  and  C1_5 
ROOT
ATOM      1  C1  I4B d   1       3.103  -4.045   1.544  0.00  0.00    -0.075 A 
ATOM      2  C2  I4B d   1       3.342  -4.727   0.377  0.00  0.00     0.003 A 
ATOM      3  C3  I4B d   1       4.665  -4.879  -0.102  0.00  0.00     0.002 A 
ATOM      4  C4  I4B d   1       5.708  -4.292   0.585  0.00  0.00    -0.004 A 
ATOM      5  C5  I4B d   1       5.467  -3.620   1.780  0.00  0.00     0.002 A 
ATOM      6  C6  I4B d   1       4.158  -3.506   2.269  0.00  0.00     0.003 A 
ENDROOT
BRANCH   1   7
ATOM      7  C1' I4B d   1       1.690  -3.876   2.004  0.00  0.00     0.060 C 
BRANCH   7   8
ATOM      8  C2' I4B d   1       1.419  -2.391   2.144  0.00  0.00    -0.013 C 
ATOM      9  C4' I4B d   1       1.251  -1.738   0.798  0.00  0.00     0.013 C 
ATOM     10  C3' I4B d   1       0.189  -2.223   2.986  0.00  0.00     0.013 C 
ENDBRANCH   7   8
ENDBRANCH   1   7
TORSDOF 2
ENDMDL
