MODEL 1
REMARK minimizedAffinity 0.482889533
REMARK minimizedRMSD -1
REMARK  2 active torsions:
REMARK  status: ('A' for Active; 'I' for Inactive)
REMARK    1  A    between atoms: C2'_3  and  C1'_4 
REMARK    2  A    between atoms: C1'_4  and  C1_5 
ROOT
ATOM      1  C1  I4B d   1       3.272  -4.558   3.440  0.00  0.00    -0.075 A 
ATOM      2  C2  I4B d   1       3.290  -3.522   4.341  0.00  0.00     0.003 A 
ATOM      3  C3  I4B d   1       3.834  -3.711   5.634  0.00  0.00     0.002 A 
ATOM      4  C4  I4B d   1       4.301  -4.957   6.000  0.00  0.00    -0.004 A 
ATOM      5  C5  I4B d   1       4.303  -6.000   5.078  0.00  0.00     0.002 A 
ATOM      6  C6  I4B d   1       3.797  -5.796   3.786  0.00  0.00     0.003 A 
ENDROOT
BRANCH   1   7
ATOM      7  C1' I4B d   1       2.660  -4.332   2.094  0.00  0.00     0.060 C 
BRANCH   7   8
ATOM      8  C2' I4B d   1       1.607  -3.252   2.235  0.00  0.00    -0.013 C 
ATOM      9  C4' I4B d   1       1.617  -2.323   1.050  0.00  0.00     0.013 C 
ATOM     10  C3' I4B d   1       0.274  -3.921   2.387  0.00  0.00     0.013 C 
ENDBRANCH   7   8
ENDBRANCH   1   7
TORSDOF 2
ENDMDL
