MODEL 1
REMARK minimizedAffinity 13.5752239
REMARK minimizedRMSD -1
REMARK  2 active torsions:
REMARK  status: ('A' for Active; 'I' for Inactive)
REMARK    1  A    between atoms: C2'_3  and  C1'_4 
REMARK    2  A    between atoms: C1'_4  and  C1_5 
ROOT
ATOM      1  C1  I4B d   1      -4.435  -1.814  -3.554  0.00  0.00    -0.075 A 
ATOM      2  C2  I4B d   1      -5.234  -0.698  -3.566  0.00  0.00     0.003 A 
ATOM      3  C3  I4B d   1      -5.086   0.296  -2.569  0.00  0.00     0.002 A 
ATOM      4  C4  I4B d   1      -4.166   0.112  -1.557  0.00  0.00    -0.004 A 
ATOM      5  C5  I4B d   1      -3.340  -1.009  -1.560  0.00  0.00     0.002 A 
ATOM      6  C6  I4B d   1      -3.466  -1.972  -2.571  0.00  0.00     0.003 A 
ENDROOT
BRANCH   1   7
ATOM      7  C1' I4B d   1      -4.641  -2.859  -4.604  0.00  0.00     0.060 C 
BRANCH   7   8
ATOM      8  C2' I4B d   1      -5.918  -3.606  -4.274  0.00  0.00    -0.013 C 
ATOM      9  C4' I4B d   1      -6.000  -4.906  -5.029  0.00  0.00     0.013 C 
ATOM     10  C3' I4B d   1      -5.949  -3.838  -2.792  0.00  0.00     0.013 C 
ENDBRANCH   7   8
ENDBRANCH   1   7
TORSDOF 2
ENDMDL
