MODEL 1
REMARK minimizedAffinity -4.63860559
REMARK minimizedRMSD -1
REMARK  2 active torsions:
REMARK  status: ('A' for Active; 'I' for Inactive)
REMARK    1  A    between atoms: C2'_3  and  C1'_4 
REMARK    2  A    between atoms: C1'_4  and  C1_5 
ROOT
ATOM      1  C1  I4B d   1       3.592  -3.152   4.027  0.00  0.00    -0.075 A 
ATOM      2  C2  I4B d   1       2.288  -3.361   3.651  0.00  0.00     0.003 A 
ATOM      3  C3  I4B d   1       1.953  -3.491   2.282  0.00  0.00     0.002 A 
ATOM      4  C4  I4B d   1       2.938  -3.356   1.325  0.00  0.00    -0.004 A 
ATOM      5  C5  I4B d   1       4.263  -3.167   1.709  0.00  0.00     0.002 A 
ATOM      6  C6  I4B d   1       4.594  -3.077   3.068  0.00  0.00     0.003 A 
ENDROOT
BRANCH   1   7
ATOM      7  C1' I4B d   1       3.906  -2.987   5.480  0.00  0.00     0.060 C 
BRANCH   7   8
ATOM      8  C2' I4B d   1       4.465  -4.300   5.989  0.00  0.00    -0.013 C 
ATOM      9  C4' I4B d   1       4.005  -5.454   5.138  0.00  0.00     0.013 C 
ATOM     10  C3' I4B d   1       5.961  -4.194   5.997  0.00  0.00     0.013 C 
ENDBRANCH   7   8
ENDBRANCH   1   7
TORSDOF 2
ENDMDL
