MODEL 1
REMARK minimizedAffinity 20.4221153
REMARK minimizedRMSD -1
REMARK  2 active torsions:
REMARK  status: ('A' for Active; 'I' for Inactive)
REMARK    1  A    between atoms: C2'_3  and  C1'_4 
REMARK    2  A    between atoms: C1'_4  and  C1_5 
ROOT
ATOM      1  C1  I4B d   1      -3.562  -1.469  -1.600  0.00  0.00    -0.075 A 
ATOM      2  C2  I4B d   1      -4.269  -0.335  -1.916  0.00  0.00     0.003 A 
ATOM      3  C3  I4B d   1      -5.194  -0.348  -2.988  0.00  0.00     0.002 A 
ATOM      4  C4  I4B d   1      -5.343  -1.493  -3.744  0.00  0.00    -0.004 A 
ATOM      5  C5  I4B d   1      -4.641  -2.647  -3.409  0.00  0.00     0.002 A 
ATOM      6  C6  I4B d   1      -3.754  -2.639  -2.322  0.00  0.00     0.003 A 
ENDROOT
BRANCH   1   7
ATOM      7  C1' I4B d   1      -2.569  -1.410  -0.483  0.00  0.00     0.060 C 
BRANCH   7   8
ATOM      8  C2' I4B d   1      -1.181  -1.393  -1.092  0.00  0.00    -0.013 C 
ATOM      9  C4' I4B d   1      -0.763   0.008  -1.455  0.00  0.00     0.013 C 
ATOM     10  C3' I4B d   1      -0.233  -2.002  -0.103  0.00  0.00     0.013 C 
ENDBRANCH   7   8
ENDBRANCH   1   7
TORSDOF 2
ENDMDL
