MODEL 1
REMARK minimizedAffinity 12.1817799
REMARK minimizedRMSD -1
REMARK  2 active torsions:
REMARK  status: ('A' for Active; 'I' for Inactive)
REMARK    1  A    between atoms: C2'_3  and  C1'_4 
REMARK    2  A    between atoms: C1'_4  and  C1_5 
ROOT
ATOM      1  C1  I4B d   1       3.561  -3.438   1.348  0.00  0.00    -0.075 A 
ATOM      2  C2  I4B d   1       3.201  -2.236   1.903  0.00  0.00     0.003 A 
ATOM      3  C3  I4B d   1       1.835  -1.878   2.005  0.00  0.00     0.002 A 
ATOM      4  C4  I4B d   1       0.871  -2.724   1.496  0.00  0.00    -0.004 A 
ATOM      5  C5  I4B d   1       1.236  -3.953   0.954  0.00  0.00     0.002 A 
ATOM      6  C6  I4B d   1       2.589  -4.318   0.891  0.00  0.00     0.003 A 
ENDROOT
BRANCH   1   7
ATOM      7  C1' I4B d   1       5.014  -3.770   1.227  0.00  0.00     0.060 C 
BRANCH   7   8
ATOM      8  C2' I4B d   1       5.132  -5.093   0.498  0.00  0.00    -0.013 C 
ATOM      9  C4' I4B d   1       5.697  -4.906  -0.885  0.00  0.00     0.013 C 
ATOM     10  C3' I4B d   1       6.000  -5.999   1.320  0.00  0.00     0.013 C 
ENDBRANCH   7   8
ENDBRANCH   1   7
TORSDOF 2
ENDMDL
