MODEL 1
REMARK minimizedAffinity -5.95363522
REMARK minimizedRMSD -1
REMARK  0 active torsions:
REMARK  status: ('A' for Active; 'I' for Inactive)
ROOT
ATOM      1  C1  DEN d   1       1.102  -0.358  -3.290  0.00  0.00     0.130 A 
ATOM      2  C2  DEN d   1       1.524   0.966  -3.741  0.00  0.00    -0.031 A 
ATOM      3  C3  DEN d   1       0.595   1.404  -4.802  0.00  0.00     0.027 A 
ATOM      4  C4  DEN d   1      -1.448   0.171  -5.782  0.00  0.00     0.027 A 
ATOM      5  C5  DEN d   1      -2.194  -0.985  -5.725  0.00  0.00    -0.003 A 
ATOM      6  C6  DEN d   1      -1.877  -2.019  -4.885  0.00  0.00     0.001 A 
ATOM      7  C7  DEN d   1      -0.811  -1.898  -4.033  0.00  0.00     0.017 A 
ATOM      8  C8  DEN d   1      -0.049  -0.738  -4.089  0.00  0.00    -0.094 A 
ATOM      9  C9  DEN d   1      -0.394   0.300  -4.937  0.00  0.00    -0.072 A 
ENDROOT
TORSDOF 0
ENDMDL
