MODEL 1
REMARK minimizedAffinity -4.64655304
REMARK minimizedRMSD -1
REMARK  0 active torsions:
REMARK  status: ('A' for Active; 'I' for Inactive)
ROOT
ATOM      1  C1  DEN d   1      -0.820   0.106  -6.000  0.00  0.00     0.130 A 
ATOM      2  C2  DEN d   1      -1.885  -0.869  -5.781  0.00  0.00    -0.031 A 
ATOM      3  C3  DEN d   1      -1.688  -1.469  -4.446  0.00  0.00     0.027 A 
ATOM      4  C4  DEN d   1       0.151  -0.982  -2.704  0.00  0.00     0.027 A 
ATOM      5  C5  DEN d   1       1.282  -0.241  -2.444  0.00  0.00    -0.003 A 
ATOM      6  C6  DEN d   1       1.807   0.635  -3.356  0.00  0.00     0.001 A 
ATOM      7  C7  DEN d   1       1.174   0.827  -4.556  0.00  0.00     0.017 A 
ATOM      8  C8  DEN d   1       0.037   0.078  -4.829  0.00  0.00    -0.094 A 
ATOM      9  C9  DEN d   1      -0.485  -0.794  -3.888  0.00  0.00    -0.072 A 
ENDROOT
TORSDOF 0
ENDMDL
