MODEL 1
REMARK minimizedAffinity -5.6901145
REMARK minimizedRMSD -1
REMARK  0 active torsions:
REMARK  status: ('A' for Active; 'I' for Inactive)
ROOT
ATOM      1  C1  DEN d   1       0.262   0.372   0.345  0.00  0.00     0.130 A 
ATOM      2  C2  DEN d   1      -1.043  -0.099   0.803  0.00  0.00    -0.031 A 
ATOM      3  C3  DEN d   1      -1.783  -0.605  -0.370  0.00  0.00     0.027 A 
ATOM      4  C4  DEN d   1      -1.039  -0.709  -2.838  0.00  0.00     0.027 A 
ATOM      5  C5  DEN d   1      -0.019  -0.415  -3.716  0.00  0.00    -0.003 A 
ATOM      6  C6  DEN d   1       1.143   0.188  -3.311  0.00  0.00     0.001 A 
ATOM      7  C7  DEN d   1       1.332   0.475  -1.985  0.00  0.00     0.017 A 
ATOM      8  C8  DEN d   1       0.305   0.189  -1.094  0.00  0.00    -0.094 A 
ATOM      9  C9  DEN d   1      -0.857  -0.432  -1.521  0.00  0.00    -0.072 A 
ENDROOT
TORSDOF 0
ENDMDL
