MODEL 1
REMARK minimizedAffinity -3.48822165
REMARK minimizedRMSD -1
REMARK  0 active torsions:
REMARK  status: ('A' for Active; 'I' for Inactive)
ROOT
ATOM      1  C1  DEN d   1       1.228   0.617  -0.377  0.00  0.00     0.130 A 
ATOM      2  C2  DEN d   1       0.413  -0.396   0.288  0.00  0.00    -0.031 A 
ATOM      3  C3  DEN d   1      -0.166  -1.271  -0.751  0.00  0.00     0.027 A 
ATOM      4  C4  DEN d   1       0.122  -1.160  -3.311  0.00  0.00     0.027 A 
ATOM      5  C5  DEN d   1       0.711  -0.466  -4.346  0.00  0.00    -0.003 A 
ATOM      6  C6  DEN d   1       1.479   0.648  -4.134  0.00  0.00     0.001 A 
ATOM      7  C7  DEN d   1       1.716   1.076  -2.854  0.00  0.00     0.017 A 
ATOM      8  C8  DEN d   1       1.120   0.386  -1.807  0.00  0.00    -0.094 A 
ATOM      9  C9  DEN d   1       0.357  -0.746  -2.041  0.00  0.00    -0.072 A 
ENDROOT
TORSDOF 0
ENDMDL
