MODEL 1
REMARK minimizedAffinity -4.18655157
REMARK minimizedRMSD -1
REMARK  0 active torsions:
REMARK  status: ('A' for Active; 'I' for Inactive)
ROOT
ATOM      1  C1  DEN d   1      -0.338   1.339   3.146  0.00  0.00     0.130 A 
ATOM      2  C2  DEN d   1       1.088   1.280   3.456  0.00  0.00    -0.031 A 
ATOM      3  C3  DEN d   1       1.746   0.456   2.422  0.00  0.00     0.027 A 
ATOM      4  C4  DEN d   1       0.701  -0.724   0.380  0.00  0.00     0.027 A 
ATOM      5  C5  DEN d   1      -0.474  -0.972  -0.293  0.00  0.00    -0.003 A 
ATOM      6  C6  DEN d   1      -1.682  -0.499   0.148  0.00  0.00     0.001 A 
ATOM      7  C7  DEN d   1      -1.735   0.285   1.270  0.00  0.00     0.017 A 
ATOM      8  C8  DEN d   1      -0.555   0.533   1.958  0.00  0.00    -0.094 A 
ATOM      9  C9  DEN d   1       0.658   0.056   1.490  0.00  0.00    -0.072 A 
ENDROOT
TORSDOF 0
ENDMDL
