MODEL 1
REMARK minimizedAffinity -2.04501081
REMARK minimizedRMSD -1
REMARK  0 active torsions:
REMARK  status: ('A' for Active; 'I' for Inactive)
ROOT
ATOM      1  C1  DEN d   1      -0.751  -1.229   0.069  0.00  0.00     0.130 A 
ATOM      2  C2  DEN d   1       0.054  -0.898  -1.104  0.00  0.00    -0.031 A 
ATOM      3  C3  DEN d   1       0.678   0.420  -0.872  0.00  0.00     0.027 A 
ATOM      4  C4  DEN d   1       0.481   1.970   1.180  0.00  0.00     0.027 A 
ATOM      5  C5  DEN d   1      -0.100   2.123   2.420  0.00  0.00    -0.003 A 
ATOM      6  C6  DEN d   1      -0.957   1.192   2.944  0.00  0.00     0.001 A 
ATOM      7  C7  DEN d   1      -1.224   0.045   2.245  0.00  0.00     0.017 A 
ATOM      8  C8  DEN d   1      -0.649  -0.113   0.991  0.00  0.00    -0.094 A 
ATOM      9  C9  DEN d   1       0.226   0.834   0.483  0.00  0.00    -0.072 A 
ENDROOT
TORSDOF 0
ENDMDL
