MODEL 1
REMARK minimizedAffinity -2.57293344
REMARK minimizedRMSD -1
REMARK  0 active torsions:
REMARK  status: ('A' for Active; 'I' for Inactive)
ROOT
ATOM      1  C1  DEN d   1       0.326   1.995   2.146  0.00  0.00     0.130 A 
ATOM      2  C2  DEN d   1      -0.744   1.581   3.049  0.00  0.00    -0.031 A 
ATOM      3  C3  DEN d   1      -1.342   0.343   2.511  0.00  0.00     0.027 A 
ATOM      4  C4  DEN d   1      -0.715  -0.970   0.381  0.00  0.00     0.027 A 
ATOM      5  C5  DEN d   1       0.122  -1.000  -0.713  0.00  0.00    -0.003 A 
ATOM      6  C6  DEN d   1       1.054  -0.025  -0.947  0.00  0.00     0.001 A 
ATOM      7  C7  DEN d   1       1.204   1.000  -0.050  0.00  0.00     0.017 A 
ATOM      8  C8  DEN d   1       0.359   1.042   1.051  0.00  0.00    -0.094 A 
ATOM      9  C9  DEN d   1      -0.569   0.040   1.276  0.00  0.00    -0.072 A 
ENDROOT
TORSDOF 0
ENDMDL
