MODEL 1
REMARK minimizedAffinity 2.78979802
REMARK minimizedRMSD -1
REMARK  0 active torsions:
REMARK  status: ('A' for Active; 'I' for Inactive)
ROOT
ATOM      1  C1  DEN d   1       0.962   0.233  -0.433  0.00  0.00     0.130 A 
ATOM      2  C2  DEN d   1       2.103  -0.090   0.418  0.00  0.00    -0.031 A 
ATOM      3  C3  DEN d   1       1.598  -0.340   1.783  0.00  0.00     0.027 A 
ATOM      4  C4  DEN d   1      -0.828  -0.263   2.655  0.00  0.00     0.027 A 
ATOM      5  C5  DEN d   1      -2.139  -0.023   2.307  0.00  0.00    -0.003 A 
ATOM      6  C6  DEN d   1      -2.501   0.350   1.040  0.00  0.00     0.001 A 
ATOM      7  C7  DEN d   1      -1.547   0.449   0.062  0.00  0.00     0.017 A 
ATOM      8  C8  DEN d   1      -0.222   0.215   0.407  0.00  0.00    -0.094 A 
ATOM      9  C9  DEN d   1       0.123  -0.172   1.691  0.00  0.00    -0.072 A 
ENDROOT
TORSDOF 0
ENDMDL
