MODEL 1
REMARK minimizedAffinity -4.33504725
REMARK minimizedRMSD -1
REMARK  1 active torsions:
REMARK  status: ('A' for Active; 'I' for Inactive)
REMARK    1  A    between atoms: C3_4  and  O_7 
ROOT
ATOM      1  C   UNL d   1       0.789   0.047  -0.357  0.00  0.00    -0.033 A 
ATOM      2  C1  UNL d   1      -0.589   0.263  -0.293  0.00  0.00     0.039 A 
ATOM      3  C2  UNL d   1      -1.154   0.841   0.846  0.00  0.00    -0.080 A 
ATOM      4  C3  UNL d   1      -0.332   1.198   1.911  0.00  0.00     0.150 A 
ATOM      5  C4  UNL d   1       1.042   0.989   1.851  0.00  0.00    -0.007 A 
ATOM      6  C5  UNL d   1       1.604   0.411   0.714  0.00  0.00     0.039 A 
ENDROOT
BRANCH   4   7
ATOM      7  O   UNL d   1      -0.839   1.761   3.044  0.00  0.00    -0.526 OA
ATOM      8  H5  UNL d   1      -1.805   1.818   2.955  0.00  0.00     0.418 HD
ENDBRANCH   4   7
TORSDOF 1
ENDMDL
