MODEL 1
REMARK minimizedAffinity -2.11851954
REMARK minimizedRMSD -1
REMARK  1 active torsions:
REMARK  status: ('A' for Active; 'I' for Inactive)
REMARK    1  A    between atoms: C3_4  and  O_7 
ROOT
ATOM      1  C   UNL d   1       1.781   1.095  -4.172  0.00  0.00    -0.033 A 
ATOM      2  C1  UNL d   1       2.608   0.781  -3.092  0.00  0.00     0.039 A 
ATOM      3  C2  UNL d   1       2.151  -0.071  -2.085  0.00  0.00    -0.080 A 
ATOM      4  C3  UNL d   1       0.868  -0.604  -2.171  0.00  0.00     0.150 A 
ATOM      5  C4  UNL d   1       0.040  -0.299  -3.246  0.00  0.00    -0.007 A 
ATOM      6  C5  UNL d   1       0.498   0.553  -4.250  0.00  0.00     0.039 A 
ENDROOT
BRANCH   4   7
ATOM      7  O   UNL d   1       0.377  -1.437  -1.210  0.00  0.00    -0.526 OA
ATOM      8  H5  UNL d   1       1.048  -1.534  -0.514  0.00  0.00     0.418 HD
ENDBRANCH   4   7
TORSDOF 1
ENDMDL
