MODEL 1
REMARK minimizedAffinity -3.61681914
REMARK minimizedRMSD -1
REMARK  1 active torsions:
REMARK  status: ('A' for Active; 'I' for Inactive)
REMARK    1  A    between atoms: C3_4  and  O_7 
ROOT
ATOM      1  C   UNL d   1      -0.077  -0.476  -0.413  0.00  0.00    -0.033 A 
ATOM      2  C1  UNL d   1       0.982  -0.007   0.367  0.00  0.00     0.039 A 
ATOM      3  C2  UNL d   1       0.729   0.803   1.477  0.00  0.00    -0.080 A 
ATOM      4  C3  UNL d   1      -0.586   1.133   1.796  0.00  0.00     0.150 A 
ATOM      5  C4  UNL d   1      -1.645   0.665   1.025  0.00  0.00    -0.007 A 
ATOM      6  C5  UNL d   1      -1.390  -0.142  -0.083  0.00  0.00     0.039 A 
ENDROOT
BRANCH   4   7
ATOM      7  O   UNL d   1      -0.882   1.924   2.866  0.00  0.00    -0.526 OA
ATOM      8  H5  UNL d   1      -0.050   2.196   3.287  0.00  0.00     0.418 HD
ENDBRANCH   4   7
TORSDOF 1
ENDMDL
