MODEL 1
REMARK minimizedAffinity -0.632285714
REMARK minimizedRMSD -1
REMARK  1 active torsions:
REMARK  status: ('A' for Active; 'I' for Inactive)
REMARK    1  A    between atoms: C3_4  and  O_7 
ROOT
ATOM      1  C   UNL d   1       0.304  -0.266  -0.573  0.00  0.00    -0.033 A 
ATOM      2  C1  UNL d   1      -1.062  -0.048  -0.763  0.00  0.00     0.039 A 
ATOM      3  C2  UNL d   1      -1.904   0.117   0.339  0.00  0.00    -0.080 A 
ATOM      4  C3  UNL d   1      -1.368   0.063   1.623  0.00  0.00     0.150 A 
ATOM      5  C4  UNL d   1      -0.007  -0.150   1.819  0.00  0.00    -0.007 A 
ATOM      6  C5  UNL d   1       0.832  -0.316   0.718  0.00  0.00     0.039 A 
ENDROOT
BRANCH   4   7
ATOM      7  O   UNL d   1      -2.151   0.214   2.728  0.00  0.00    -0.526 OA
ATOM      8  H5  UNL d   1      -3.072   0.326   2.440  0.00  0.00     0.418 HD
ENDBRANCH   4   7
TORSDOF 1
ENDMDL
