MODEL 1
REMARK minimizedAffinity -3.88958097
REMARK minimizedRMSD -1
REMARK  1 active torsions:
REMARK  status: ('A' for Active; 'I' for Inactive)
REMARK    1  A    between atoms: C3_4  and  O_7 
ROOT
ATOM      1  C   UNL d   1      -0.169  -0.038  -0.476  0.00  0.00    -0.033 A 
ATOM      2  C1  UNL d   1       0.864   0.389   0.361  0.00  0.00     0.039 A 
ATOM      3  C2  UNL d   1       0.569   1.051   1.554  0.00  0.00    -0.080 A 
ATOM      4  C3  UNL d   1      -0.761   1.279   1.898  0.00  0.00     0.150 A 
ATOM      5  C4  UNL d   1      -1.794   0.853   1.071  0.00  0.00    -0.007 A 
ATOM      6  C5  UNL d   1      -1.498   0.193  -0.121  0.00  0.00     0.039 A 
ENDROOT
BRANCH   4   7
ATOM      7  O   UNL d   1      -1.098   1.926   3.050  0.00  0.00    -0.526 OA
ATOM      8  H5  UNL d   1      -0.281   2.187   3.507  0.00  0.00     0.418 HD
ENDBRANCH   4   7
TORSDOF 1
ENDMDL
