MODEL 1
REMARK minimizedAffinity -5.12897635
REMARK minimizedRMSD -1
REMARK  1 active torsions:
REMARK  status: ('A' for Active; 'I' for Inactive)
REMARK    1  A    between atoms: C3_4  and  O_7 
ROOT
ATOM      1  C   UNL d   1      -1.033   0.764   2.522  0.00  0.00    -0.033 A 
ATOM      2  C1  UNL d   1      -2.058   0.264   1.716  0.00  0.00     0.039 A 
ATOM      3  C2  UNL d   1      -1.798  -0.082   0.388  0.00  0.00    -0.080 A 
ATOM      4  C3  UNL d   1      -0.512   0.077  -0.120  0.00  0.00     0.150 A 
ATOM      5  C4  UNL d   1       0.514   0.571   0.678  0.00  0.00    -0.007 A 
ATOM      6  C5  UNL d   1       0.253   0.916   2.003  0.00  0.00     0.039 A 
ENDROOT
BRANCH   4   7
ATOM      7  O   UNL d   1      -0.212  -0.242  -1.411  0.00  0.00    -0.526 OA
ATOM      8  H5  UNL d   1      -1.025  -0.544  -1.851  0.00  0.00     0.418 HD
ENDBRANCH   4   7
TORSDOF 1
ENDMDL
