MODEL 1
REMARK minimizedAffinity -3.66045499
REMARK minimizedRMSD -1
REMARK  1 active torsions:
REMARK  status: ('A' for Active; 'I' for Inactive)
REMARK    1  A    between atoms: C3_4  and  O_7 
ROOT
ATOM      1  C   UNL d   1      -0.666  -0.744  -0.571  0.00  0.00    -0.033 A 
ATOM      2  C1  UNL d   1       0.493  -0.094  -0.144  0.00  0.00     0.039 A 
ATOM      3  C2  UNL d   1       0.458   0.737   0.977  0.00  0.00    -0.080 A 
ATOM      4  C3  UNL d   1      -0.742   0.910   1.662  0.00  0.00     0.150 A 
ATOM      5  C4  UNL d   1      -1.900   0.262   1.245  0.00  0.00    -0.007 A 
ATOM      6  C5  UNL d   1      -1.863  -0.567   0.124  0.00  0.00     0.039 A 
ENDROOT
BRANCH   4   7
ATOM      7  O   UNL d   1      -0.827   1.715   2.758  0.00  0.00    -0.526 OA
ATOM      8  H5  UNL d   1       0.044   2.118   2.912  0.00  0.00     0.418 HD
ENDBRANCH   4   7
TORSDOF 1
ENDMDL
