MODEL 1
REMARK minimizedAffinity -1.71855402
REMARK minimizedRMSD -1
REMARK  1 active torsions:
REMARK  status: ('A' for Active; 'I' for Inactive)
REMARK    1  A    between atoms: C3_4  and  O_7 
ROOT
ATOM      1  C   UNL d   1       2.117   0.317   0.219  0.00  0.00    -0.033 A 
ATOM      2  C1  UNL d   1       1.123   1.032  -0.452  0.00  0.00     0.039 A 
ATOM      3  C2  UNL d   1      -0.222   0.721  -0.249  0.00  0.00    -0.080 A 
ATOM      4  C3  UNL d   1      -0.561  -0.306   0.629  0.00  0.00     0.150 A 
ATOM      5  C4  UNL d   1       0.424  -1.020   1.304  0.00  0.00    -0.007 A 
ATOM      6  C5  UNL d   1       1.767  -0.708   1.098  0.00  0.00     0.039 A 
ENDROOT
BRANCH   4   7
ATOM      7  O   UNL d   1      -1.860  -0.650   0.856  0.00  0.00    -0.526 OA
ATOM      8  H5  UNL d   1      -2.428  -0.091   0.300  0.00  0.00     0.418 HD
ENDBRANCH   4   7
TORSDOF 1
ENDMDL
