MODEL 1
REMARK minimizedAffinity -2.63477039
REMARK minimizedRMSD -1
REMARK  1 active torsions:
REMARK  status: ('A' for Active; 'I' for Inactive)
REMARK    1  A    between atoms: C3_4  and  O_7 
ROOT
ATOM      1  C   UNL d   1       1.226  -0.762  -0.122  0.00  0.00    -0.033 A 
ATOM      2  C1  UNL d   1       1.802  -0.792   1.150  0.00  0.00     0.039 A 
ATOM      3  C2  UNL d   1       1.152  -0.187   2.228  0.00  0.00    -0.080 A 
ATOM      4  C3  UNL d   1      -0.072   0.442   2.021  0.00  0.00     0.150 A 
ATOM      5  C4  UNL d   1      -0.654   0.472   0.758  0.00  0.00    -0.007 A 
ATOM      6  C5  UNL d   1      -0.003  -0.131  -0.317  0.00  0.00     0.039 A 
ENDROOT
BRANCH   4   7
ATOM      7  O   UNL d   1      -0.742   1.050   3.041  0.00  0.00    -0.526 OA
ATOM      8  H5  UNL d   1      -0.207   0.974   3.849  0.00  0.00     0.418 HD
ENDBRANCH   4   7
TORSDOF 1
ENDMDL
