MODEL 1
REMARK minimizedAffinity 31.269331
REMARK minimizedRMSD -1
REMARK  0 active torsions:
REMARK  status: ('A' for Active; 'I' for Inactive)
ROOT
ATOM      1  C   UNL d   1       0.296   2.380   2.687  0.00  0.00     0.124 A 
ATOM      2  C1  UNL d   1      -0.895   2.369   1.975  0.00  0.00     0.062 A 
ATOM      3  C2  UNL d   1      -0.897   2.636   0.609  0.00  0.00     0.162 A 
ATOM      4  C3  UNL d   1       0.298   2.917  -0.055  0.00  0.00    -0.034 A 
ATOM      5  C4  UNL d   1       1.492   2.927   0.669  0.00  0.00     0.162 A 
ATOM      6  C5  UNL d   1       1.488   2.659   2.034  0.00  0.00     0.062 A 
ATOM      7  F   UNL d   1       2.640   2.670   2.720  0.00  0.00    -0.097 F 
ATOM      8  F1  UNL d   1       2.658   3.193   0.062  0.00  0.00    -0.096 F 
ATOM      9  I   UNL d   1       0.299   3.318  -2.097  0.00  0.00    -0.060 I 
ATOM     10  F2  UNL d   1      -2.063   2.619  -0.054  0.00  0.00    -0.096 F 
ATOM     11  F3  UNL d   1      -2.049   2.100   2.604  0.00  0.00    -0.097 F 
ATOM     12  F4  UNL d   1       0.294   2.123   4.001  0.00  0.00    -0.092 F 
ENDROOT
TORSDOF 0
ENDMDL
