MODEL 1
REMARK minimizedAffinity 1.26325762
REMARK minimizedRMSD -1
REMARK  0 active torsions:
REMARK  status: ('A' for Active; 'I' for Inactive)
ROOT
ATOM      1  C   UNL d   1      -0.032   0.430   1.313  0.00  0.00     0.124 A 
ATOM      2  C1  UNL d   1       0.589   0.506   0.074  0.00  0.00     0.062 A 
ATOM      3  C2  UNL d   1       0.643   1.718  -0.609  0.00  0.00     0.162 A 
ATOM      4  C3  UNL d   1       0.074   2.864  -0.054  0.00  0.00    -0.034 A 
ATOM      5  C4  UNL d   1      -0.550   2.780   1.191  0.00  0.00     0.162 A 
ATOM      6  C5  UNL d   1      -0.601   1.566   1.870  0.00  0.00     0.062 A 
ATOM      7  F   UNL d   1      -1.201   1.495   3.067  0.00  0.00    -0.097 F 
ATOM      8  F1  UNL d   1      -1.107   3.862   1.754  0.00  0.00    -0.096 F 
ATOM      9  I   UNL d   1       0.153   4.678  -1.072  0.00  0.00    -0.060 I 
ATOM     10  F2  UNL d   1       1.250   1.762  -1.805  0.00  0.00    -0.096 F 
ATOM     11  F3  UNL d   1       1.139  -0.591  -0.468  0.00  0.00    -0.097 F 
ATOM     12  F4  UNL d   1      -0.083  -0.737   1.967  0.00  0.00    -0.092 F 
ENDROOT
TORSDOF 0
ENDMDL
