MODEL 1
REMARK minimizedAffinity 7.745193
REMARK minimizedRMSD -1
REMARK  0 active torsions:
REMARK  status: ('A' for Active; 'I' for Inactive)
ROOT
ATOM      1  C   UNL d   1       0.644  -0.244   1.987  0.00  0.00     0.124 A 
ATOM      2  C1  UNL d   1       0.271   0.955   2.579  0.00  0.00     0.062 A 
ATOM      3  C2  UNL d   1       0.180   2.115   1.815  0.00  0.00     0.162 A 
ATOM      4  C3  UNL d   1       0.462   2.082   0.450  0.00  0.00    -0.034 A 
ATOM      5  C4  UNL d   1       0.837   0.873  -0.139  0.00  0.00     0.162 A 
ATOM      6  C5  UNL d   1       0.926  -0.284   0.629  0.00  0.00     0.062 A 
ATOM      7  F   UNL d   1       1.287  -1.441   0.055  0.00  0.00    -0.097 F 
ATOM      8  F1  UNL d   1       1.115   0.805  -1.449  0.00  0.00    -0.096 F 
ATOM      9  I   UNL d   1       0.327   3.814  -0.696  0.00  0.00    -0.060 I 
ATOM     10  F2  UNL d   1      -0.183   3.259   2.414  0.00  0.00    -0.096 F 
ATOM     11  F3  UNL d   1      -0.002   0.997   3.892  0.00  0.00    -0.097 F 
ATOM     12  F4  UNL d   1       0.731  -1.358   2.725  0.00  0.00    -0.092 F 
ENDROOT
TORSDOF 0
ENDMDL
