MODEL 1
REMARK minimizedAffinity 19.3453026
REMARK minimizedRMSD -1
REMARK  0 active torsions:
REMARK  status: ('A' for Active; 'I' for Inactive)
ROOT
ATOM      1  C   UNL d   1       0.638  -3.461  -2.016  0.00  0.00     0.124 A 
ATOM      2  C1  UNL d   1       0.933  -3.798  -0.702  0.00  0.00     0.062 A 
ATOM      3  C2  UNL d   1       1.654  -2.919   0.101  0.00  0.00     0.162 A 
ATOM      4  C3  UNL d   1       2.084  -1.693  -0.407  0.00  0.00    -0.034 A 
ATOM      5  C4  UNL d   1       1.784  -1.361  -1.729  0.00  0.00     0.162 A 
ATOM      6  C5  UNL d   1       1.063  -2.243  -2.528  0.00  0.00     0.062 A 
ATOM      7  F   UNL d   1       0.779  -1.916  -3.797  0.00  0.00    -0.097 F 
ATOM      8  F1  UNL d   1       2.181  -0.191  -2.249  0.00  0.00    -0.096 F 
ATOM      9  I   UNL d   1       3.161  -0.376   0.791  0.00  0.00    -0.060 I 
ATOM     10  F2  UNL d   1       1.925  -3.271   1.367  0.00  0.00    -0.096 F 
ATOM     11  F3  UNL d   1       0.524  -4.975  -0.205  0.00  0.00    -0.097 F 
ATOM     12  F4  UNL d   1      -0.054  -4.309  -2.787  0.00  0.00    -0.092 F 
ENDROOT
TORSDOF 0
ENDMDL
