MODEL 1
REMARK minimizedAffinity 21.4227505
REMARK minimizedRMSD -1
REMARK  0 active torsions:
REMARK  status: ('A' for Active; 'I' for Inactive)
ROOT
ATOM      1  C   UNL d   1      -1.124   2.988  -0.388  0.00  0.00     0.124 A 
ATOM      2  C1  UNL d   1       0.242   3.094  -0.161  0.00  0.00     0.062 A 
ATOM      3  C2  UNL d   1       1.015   3.952  -0.937  0.00  0.00     0.162 A 
ATOM      4  C3  UNL d   1       0.425   4.713  -1.946  0.00  0.00    -0.034 A 
ATOM      5  C4  UNL d   1      -0.948   4.600  -2.169  0.00  0.00     0.162 A 
ATOM      6  C5  UNL d   1      -1.717   3.741  -1.391  0.00  0.00     0.062 A 
ATOM      7  F   UNL d   1      -3.036   3.640  -1.611  0.00  0.00    -0.097 F 
ATOM      8  F1  UNL d   1      -1.548   5.317  -3.131  0.00  0.00    -0.096 F 
ATOM      9  I   UNL d   1       1.579   5.998  -3.109  0.00  0.00    -0.060 I 
ATOM     10  F2  UNL d   1       2.332   4.035  -0.696  0.00  0.00    -0.096 F 
ATOM     11  F3  UNL d   1       0.818   2.367   0.807  0.00  0.00    -0.097 F 
ATOM     12  F4  UNL d   1      -1.865   2.160   0.359  0.00  0.00    -0.092 F 
ENDROOT
TORSDOF 0
ENDMDL
