MODEL 1
REMARK minimizedAffinity -1.960711
REMARK minimizedRMSD -1
REMARK  0 active torsions:
REMARK  status: ('A' for Active; 'I' for Inactive)
ROOT
ATOM      1  C1  DEN d   1       3.243   3.324   5.996  0.00  0.00     0.130 A 
ATOM      2  C2  DEN d   1       4.307   3.186   5.006  0.00  0.00    -0.031 A 
ATOM      3  C3  DEN d   1       3.969   4.042   3.851  0.00  0.00     0.027 A 
ATOM      4  C4  DEN d   1       1.915   5.562   3.503  0.00  0.00     0.027 A 
ATOM      5  C5  DEN d   1       0.734   5.999   4.062  0.00  0.00    -0.003 A 
ATOM      6  C6  DEN d   1       0.294   5.553   5.280  0.00  0.00     0.001 A 
ATOM      7  C7  DEN d   1       1.062   4.676   6.000  0.00  0.00     0.017 A 
ATOM      8  C8  DEN d   1       2.250   4.225   5.439  0.00  0.00    -0.094 A 
ATOM      9  C9  DEN d   1       2.684   4.698   4.212  0.00  0.00    -0.072 A 
ENDROOT
TORSDOF 0
ENDMDL
