MODEL 1
REMARK minimizedAffinity -2.21554351
REMARK minimizedRMSD -1
REMARK  0 active torsions:
REMARK  status: ('A' for Active; 'I' for Inactive)
ROOT
ATOM      1  C1  DEN d   1       4.382   5.323   6.000  0.00  0.00     0.130 A 
ATOM      2  C2  DEN d   1       5.370   5.310   4.924  0.00  0.00    -0.031 A 
ATOM      3  C3  DEN d   1       4.660   5.539   3.650  0.00  0.00     0.027 A 
ATOM      4  C4  DEN d   1       2.142   5.915   3.240  0.00  0.00     0.027 A 
ATOM      5  C5  DEN d   1       0.906   5.999   3.844  0.00  0.00    -0.003 A 
ATOM      6  C6  DEN d   1       0.740   5.832   5.193  0.00  0.00     0.001 A 
ATOM      7  C7  DEN d   1       1.833   5.616   5.990  0.00  0.00     0.017 A 
ATOM      8  C8  DEN d   1       3.081   5.522   5.388  0.00  0.00    -0.094 A 
ATOM      9  C9  DEN d   1       3.230   5.706   4.024  0.00  0.00    -0.072 A 
ENDROOT
TORSDOF 0
ENDMDL
