MODEL 1
REMARK minimizedAffinity 4.87329769
REMARK minimizedRMSD -1
REMARK  0 active torsions:
REMARK  status: ('A' for Active; 'I' for Inactive)
ROOT
ATOM      1  C1  DEN d   1      -2.057   1.115  -1.911  0.00  0.00     0.130 A 
ATOM      2  C2  DEN d   1      -0.725   1.165  -1.313  0.00  0.00    -0.031 A 
ATOM      3  C3  DEN d   1      -0.886   1.252   0.153  0.00  0.00     0.027 A 
ATOM      4  C4  DEN d   1      -3.055   1.308   1.546  0.00  0.00     0.027 A 
ATOM      5  C5  DEN d   1      -4.431   1.300   1.482  0.00  0.00    -0.003 A 
ATOM      6  C6  DEN d   1      -5.107   1.265   0.291  0.00  0.00     0.001 A 
ATOM      7  C7  DEN d   1      -4.407   1.190  -0.884  0.00  0.00     0.017 A 
ATOM      8  C8  DEN d   1      -3.019   1.205  -0.828  0.00  0.00    -0.094 A 
ATOM      9  C9  DEN d   1      -2.355   1.229   0.387  0.00  0.00    -0.072 A 
ENDROOT
TORSDOF 0
ENDMDL
