MODEL 1
REMARK minimizedAffinity 10.9462776
REMARK minimizedRMSD -1
REMARK  0 active torsions:
REMARK  status: ('A' for Active; 'I' for Inactive)
ROOT
ATOM      1  C1  DEN d   1       4.346   0.371  -0.181  0.00  0.00     0.130 A 
ATOM      2  C2  DEN d   1       4.637   1.123  -1.398  0.00  0.00    -0.031 A 
ATOM      3  C3  DEN d   1       4.129   0.347  -2.547  0.00  0.00     0.027 A 
ATOM      4  C4  DEN d   1       2.921  -1.931  -2.559  0.00  0.00     0.027 A 
ATOM      5  C5  DEN d   1       2.458  -2.961  -1.769  0.00  0.00    -0.003 A 
ATOM      6  C6  DEN d   1       2.621  -2.968  -0.409  0.00  0.00     0.001 A 
ATOM      7  C7  DEN d   1       3.223  -1.903   0.207  0.00  0.00     0.017 A 
ATOM      8  C8  DEN d   1       3.699  -0.865  -0.583  0.00  0.00    -0.094 A 
ATOM      9  C9  DEN d   1       3.513  -0.871  -1.955  0.00  0.00    -0.072 A 
ENDROOT
TORSDOF 0
ENDMDL
