MODEL 1
REMARK minimizedAffinity 6.90846586
REMARK minimizedRMSD -1
REMARK  0 active torsions:
REMARK  status: ('A' for Active; 'I' for Inactive)
ROOT
ATOM      1  C1  DEN d   1      -0.401   3.669   5.999  0.00  0.00     0.130 A 
ATOM      2  C2  DEN d   1      -1.401   4.733   5.986  0.00  0.00    -0.031 A 
ATOM      3  C3  DEN d   1      -1.824   4.944   4.587  0.00  0.00     0.027 A 
ATOM      4  C4  DEN d   1      -1.036   3.730   2.452  0.00  0.00     0.027 A 
ATOM      5  C5  DEN d   1      -0.190   2.761   1.960  0.00  0.00    -0.003 A 
ATOM      6  C6  DEN d   1       0.662   2.055   2.768  0.00  0.00     0.001 A 
ATOM      7  C7  DEN d   1       0.655   2.278   4.119  0.00  0.00     0.017 A 
ATOM      8  C8  DEN d   1      -0.189   3.259   4.623  0.00  0.00    -0.094 A 
ATOM      9  C9  DEN d   1      -1.052   3.952   3.791  0.00  0.00    -0.072 A 
ENDROOT
TORSDOF 0
ENDMDL
