MODEL 1
REMARK minimizedAffinity 12.6331205
REMARK minimizedRMSD -1
REMARK  0 active torsions:
REMARK  status: ('A' for Active; 'I' for Inactive)
ROOT
ATOM      1  N1  IND d   1       1.831  -5.998  -2.916  0.00  0.00    -0.196 N 
ATOM      2  C2  IND d   1       0.764  -5.905  -3.766  0.00  0.00     0.054 A 
ATOM      3  C3  IND d   1       0.275  -4.645  -3.769  0.00  0.00    -0.031 A 
ATOM      4  C4  IND d   1       1.131  -2.554  -2.535  0.00  0.00     0.051 A 
ATOM      5  C5  IND d   1       2.057  -2.150  -1.615  0.00  0.00    -0.031 A 
ATOM      6  C6  IND d   1       2.976  -3.026  -1.072  0.00  0.00     0.015 A 
ATOM      7  C7  IND d   1       3.009  -4.341  -1.440  0.00  0.00    -0.016 A 
ATOM      8  C8  IND d   1       2.066  -4.756  -2.369  0.00  0.00    -0.047 A 
ATOM      9  C9  IND d   1       1.105  -3.882  -2.892  0.00  0.00    -0.096 A 
ATOM     10  HN1 IND d   1       2.280  -6.713  -2.751  0.00  0.00     0.298 HD
ENDROOT
TORSDOF 0
ENDMDL
