MODEL 1
REMARK minimizedAffinity 16.8714752
REMARK minimizedRMSD -1
REMARK  0 active torsions:
REMARK  status: ('A' for Active; 'I' for Inactive)
ROOT
ATOM      1  N1  IND d   1       2.536  -4.915  -0.698  0.00  0.00    -0.196 N 
ATOM      2  C2  IND d   1       3.689  -4.523  -0.078  0.00  0.00     0.054 A 
ATOM      3  C3  IND d   1       3.858  -3.187  -0.201  0.00  0.00    -0.031 A 
ATOM      4  C4  IND d   1       2.315  -1.437  -1.289  0.00  0.00     0.051 A 
ATOM      5  C5  IND d   1       1.165  -1.319  -2.017  0.00  0.00    -0.031 A 
ATOM      6  C6  IND d   1       0.396  -2.416  -2.348  0.00  0.00     0.015 A 
ATOM      7  C7  IND d   1       0.744  -3.676  -1.950  0.00  0.00    -0.016 A 
ATOM      8  C8  IND d   1       1.915  -3.800  -1.216  0.00  0.00    -0.047 A 
ATOM      9  C9  IND d   1       2.722  -2.695  -0.914  0.00  0.00    -0.096 A 
ATOM     10  HN1 IND d   1       2.247  -5.723  -0.754  0.00  0.00     0.298 HD
ENDROOT
TORSDOF 0
ENDMDL
