MODEL 1
REMARK minimizedAffinity 7.71165228
REMARK minimizedRMSD -1
REMARK  0 active torsions:
REMARK  status: ('A' for Active; 'I' for Inactive)
ROOT
ATOM      1  N1  IND d   1      -5.068  -2.286  -6.000  0.00  0.00    -0.196 N 
ATOM      2  C2  IND d   1      -4.763  -1.136  -5.326  0.00  0.00     0.054 A 
ATOM      3  C3  IND d   1      -3.715  -1.342  -4.496  0.00  0.00    -0.031 A 
ATOM      4  C4  IND d   1      -2.285  -3.456  -4.160  0.00  0.00     0.051 A 
ATOM      5  C5  IND d   1      -2.201  -4.769  -4.528  0.00  0.00    -0.031 A 
ATOM      6  C6  IND d   1      -3.085  -5.333  -5.426  0.00  0.00     0.015 A 
ATOM      7  C7  IND d   1      -4.083  -4.598  -6.000  0.00  0.00    -0.016 A 
ATOM      8  C8  IND d   1      -4.176  -3.265  -5.623  0.00  0.00    -0.047 A 
ATOM      9  C9  IND d   1      -3.308  -2.699  -4.681  0.00  0.00    -0.096 A 
ATOM     10  HN1 IND d   1      -5.710  -2.381  -6.564  0.00  0.00     0.298 HD
ENDROOT
TORSDOF 0
ENDMDL
