MODEL 1
REMARK minimizedAffinity 15.4225159
REMARK minimizedRMSD -1
REMARK  0 active torsions:
REMARK  status: ('A' for Active; 'I' for Inactive)
ROOT
ATOM      1  N1  IND d   1      -4.584  -3.994  -4.944  0.00  0.00    -0.196 N 
ATOM      2  C2  IND d   1      -4.373  -3.068  -5.928  0.00  0.00     0.054 A 
ATOM      3  C3  IND d   1      -3.112  -2.585  -5.856  0.00  0.00    -0.031 A 
ATOM      4  C4  IND d   1      -1.196  -3.245  -4.269  0.00  0.00     0.051 A 
ATOM      5  C5  IND d   1      -0.919  -4.020  -3.178  0.00  0.00    -0.031 A 
ATOM      6  C6  IND d   1      -1.868  -4.845  -2.610  0.00  0.00     0.015 A 
ATOM      7  C7  IND d   1      -3.132  -4.934  -3.121  0.00  0.00    -0.016 A 
ATOM      8  C8  IND d   1      -3.419  -4.143  -4.225  0.00  0.00    -0.047 A 
ATOM      9  C9  IND d   1      -2.472  -3.272  -4.780  0.00  0.00    -0.096 A 
ATOM     10  HN1 IND d   1      -5.321  -4.412  -4.799  0.00  0.00     0.298 HD
ENDROOT
TORSDOF 0
ENDMDL
