MODEL 1
REMARK minimizedAffinity 10.3368483
REMARK minimizedRMSD -1
REMARK  0 active torsions:
REMARK  status: ('A' for Active; 'I' for Inactive)
ROOT
ATOM      1  N1  IND d   1       2.908  -2.398  -0.092  0.00  0.00    -0.196 N 
ATOM      2  C2  IND d   1       2.215  -3.299  -0.851  0.00  0.00     0.054 A 
ATOM      3  C3  IND d   1       1.579  -2.670  -1.864  0.00  0.00    -0.031 A 
ATOM      4  C4  IND d   1       1.616  -0.182  -2.526  0.00  0.00     0.051 A 
ATOM      5  C5  IND d   1       2.079   1.035  -2.113  0.00  0.00    -0.031 A 
ATOM      6  C6  IND d   1       2.860   1.173  -0.983  0.00  0.00     0.015 A 
ATOM      7  C7  IND d   1       3.218   0.092  -0.228  0.00  0.00    -0.016 A 
ATOM      8  C8  IND d   1       2.744  -1.145  -0.641  0.00  0.00    -0.047 A 
ATOM      9  C9  IND d   1       1.916  -1.286  -1.762  0.00  0.00    -0.096 A 
ATOM     10  HN1 IND d   1       3.368  -2.582   0.611  0.00  0.00     0.298 HD
ENDROOT
TORSDOF 0
ENDMDL
