MODEL 1
REMARK minimizedAffinity 10.1750774
REMARK minimizedRMSD -1
REMARK  0 active torsions:
REMARK  status: ('A' for Active; 'I' for Inactive)
ROOT
ATOM      1  N1  IND d   1       3.093  -3.031  -0.103  0.00  0.00    -0.196 N 
ATOM      2  C2  IND d   1       3.230  -4.385  -0.230  0.00  0.00     0.054 A 
ATOM      3  C3  IND d   1       2.563  -4.825  -1.320  0.00  0.00    -0.031 A 
ATOM      4  C4  IND d   1       1.264  -3.486  -3.094  0.00  0.00     0.051 A 
ATOM      5  C5  IND d   1       0.831  -2.223  -3.387  0.00  0.00    -0.031 A 
ATOM      6  C6  IND d   1       1.138  -1.143  -2.586  0.00  0.00     0.015 A 
ATOM      7  C7  IND d   1       1.903  -1.284  -1.462  0.00  0.00    -0.016 A 
ATOM      8  C8  IND d   1       2.339  -2.566  -1.158  0.00  0.00    -0.047 A 
ATOM      9  C9  IND d   1       1.995  -3.673  -1.945  0.00  0.00    -0.096 A 
ATOM     10  HN1 IND d   1       3.422  -2.550   0.529  0.00  0.00     0.298 HD
ENDROOT
TORSDOF 0
ENDMDL
