MODEL 1
REMARK minimizedAffinity 13.77279
REMARK minimizedRMSD -1
REMARK  0 active torsions:
REMARK  status: ('A' for Active; 'I' for Inactive)
ROOT
ATOM      1  N1  IND d   1       4.686  -2.329   0.558  0.00  0.00    -0.196 N 
ATOM      2  C2  IND d   1       3.943  -3.472   0.459  0.00  0.00     0.054 A 
ATOM      3  C3  IND d   1       2.742  -3.205  -0.101  0.00  0.00    -0.031 A 
ATOM      4  C4  IND d   1       1.825  -0.983  -1.025  0.00  0.00     0.051 A 
ATOM      5  C5  IND d   1       2.125   0.346  -1.126  0.00  0.00    -0.031 A 
ATOM      6  C6  IND d   1       3.318   0.862  -0.664  0.00  0.00     0.015 A 
ATOM      7  C7  IND d   1       4.266   0.062  -0.092  0.00  0.00    -0.016 A 
ATOM      8  C8  IND d   1       3.963  -1.287   0.019  0.00  0.00    -0.047 A 
ATOM      9  C9  IND d   1       2.736  -1.810  -0.409  0.00  0.00    -0.096 A 
ATOM     10  HN1 IND d   1       5.473  -2.270   0.899  0.00  0.00     0.298 HD
ENDROOT
TORSDOF 0
ENDMDL
