MODEL 1
REMARK minimizedAffinity 1.15647352
REMARK minimizedRMSD -1
REMARK  0 active torsions:
REMARK  status: ('A' for Active; 'I' for Inactive)
ROOT
ATOM      1  N1  IND d   1       4.072  -1.645   0.360  0.00  0.00    -0.196 N 
ATOM      2  C2  IND d   1       4.186  -2.978   0.076  0.00  0.00     0.054 A 
ATOM      3  C3  IND d   1       3.436  -3.294  -1.004  0.00  0.00    -0.031 A 
ATOM      4  C4  IND d   1       2.025  -1.765  -2.520  0.00  0.00     0.051 A 
ATOM      5  C5  IND d   1       1.584  -0.477  -2.640  0.00  0.00    -0.031 A 
ATOM      6  C6  IND d   1       1.960   0.508  -1.749  0.00  0.00     0.015 A 
ATOM      7  C7  IND d   1       2.803   0.243  -0.708  0.00  0.00    -0.016 A 
ATOM      8  C8  IND d   1       3.247  -1.066  -0.579  0.00  0.00    -0.047 A 
ATOM      9  C9  IND d   1       2.836  -2.079  -1.455  0.00  0.00    -0.096 A 
ATOM     10  HN1 IND d   1       4.452  -1.238   1.015  0.00  0.00     0.298 HD
ENDROOT
TORSDOF 0
ENDMDL
