MODEL 1
REMARK minimizedAffinity 19.2427731
REMARK minimizedRMSD -1
REMARK  0 active torsions:
REMARK  status: ('A' for Active; 'I' for Inactive)
ROOT
ATOM      1  N1  IND d   1      -3.009   1.956   2.672  0.00  0.00    -0.196 N 
ATOM      2  C2  IND d   1      -3.582   0.715   2.694  0.00  0.00     0.054 A 
ATOM      3  C3  IND d   1      -2.648  -0.239   2.480  0.00  0.00    -0.031 A 
ATOM      4  C4  IND d   1      -0.104   0.004   2.171  0.00  0.00     0.051 A 
ATOM      5  C5  IND d   1       0.880   0.943   2.039  0.00  0.00    -0.031 A 
ATOM      6  C6  IND d   1       0.614   2.294   2.115  0.00  0.00     0.015 A 
ATOM      7  C7  IND d   1      -0.651   2.759   2.339  0.00  0.00    -0.016 A 
ATOM      8  C8  IND d   1      -1.654   1.809   2.466  0.00  0.00    -0.047 A 
ATOM      9  C9  IND d   1      -1.397   0.437   2.347  0.00  0.00    -0.096 A 
ATOM     10  HN1 IND d   1      -3.424   2.702   2.769  0.00  0.00     0.298 HD
ENDROOT
TORSDOF 0
ENDMDL
