MODEL 1
REMARK minimizedAffinity 11.2220945
REMARK minimizedRMSD -1
REMARK  0 active torsions:
REMARK  status: ('A' for Active; 'I' for Inactive)
ROOT
ATOM      1  N1  IND d   1      -4.927  -1.989  -5.901  0.00  0.00    -0.196 N 
ATOM      2  C2  IND d   1      -3.644  -1.521  -5.844  0.00  0.00     0.054 A 
ATOM      3  C3  IND d   1      -2.768  -2.551  -5.819  0.00  0.00    -0.031 A 
ATOM      4  C4  IND d   1      -3.215  -5.082  -5.965  0.00  0.00     0.051 A 
ATOM      5  C5  IND d   1      -4.231  -5.997  -5.993  0.00  0.00    -0.031 A 
ATOM      6  C6  IND d   1      -5.557  -5.614  -5.994  0.00  0.00     0.015 A 
ATOM      7  C7  IND d   1      -5.918  -4.297  -5.979  0.00  0.00    -0.016 A 
ATOM      8  C8  IND d   1      -4.890  -3.366  -5.944  0.00  0.00    -0.047 A 
ATOM      9  C9  IND d   1      -3.543  -3.748  -5.899  0.00  0.00    -0.096 A 
ATOM     10  HN1 IND d   1      -5.638  -1.505  -5.908  0.00  0.00     0.298 HD
ENDROOT
TORSDOF 0
ENDMDL
