MODEL 1
REMARK minimizedAffinity 19.874052
REMARK minimizedRMSD -1
REMARK  0 active torsions:
REMARK  status: ('A' for Active; 'I' for Inactive)
ROOT
ATOM      1  N1  IND d   1       1.065   5.690  -0.968  0.00  0.00    -0.196 N 
ATOM      2  C2  IND d   1       0.777   6.000   0.332  0.00  0.00     0.054 A 
ATOM      3  C3  IND d   1       1.028   4.940   1.134  0.00  0.00    -0.031 A 
ATOM      4  C4  IND d   1       2.009   2.636   0.540  0.00  0.00     0.051 A 
ATOM      5  C5  IND d   1       2.396   1.871  -0.525  0.00  0.00    -0.031 A 
ATOM      6  C6  IND d   1       2.361   2.352  -1.818  0.00  0.00     0.015 A 
ATOM      7  C7  IND d   1       1.946   3.624  -2.094  0.00  0.00    -0.016 A 
ATOM      8  C8  IND d   1       1.546   4.400  -1.016  0.00  0.00    -0.047 A 
ATOM      9  C9  IND d   1       1.539   3.904   0.294  0.00  0.00    -0.096 A 
ATOM     10  HN1 IND d   1       0.962   6.213  -1.643  0.00  0.00     0.298 HD
ENDROOT
TORSDOF 0
ENDMDL
