MODEL 1
REMARK minimizedAffinity 17.6986504
REMARK minimizedRMSD -1
REMARK  0 active torsions:
REMARK  status: ('A' for Active; 'I' for Inactive)
ROOT
ATOM      1  N1  IND d   1       2.320  -5.996  -2.163  0.00  0.00    -0.196 N 
ATOM      2  C2  IND d   1       1.050  -5.854  -2.650  0.00  0.00     0.054 A 
ATOM      3  C3  IND d   1       0.172  -5.692  -1.635  0.00  0.00    -0.031 A 
ATOM      4  C4  IND d   1       0.611  -5.526   0.897  0.00  0.00     0.051 A 
ATOM      5  C5  IND d   1       1.607  -5.634   1.826  0.00  0.00    -0.031 A 
ATOM      6  C6  IND d   1       2.918  -5.870   1.467  0.00  0.00     0.015 A 
ATOM      7  C7  IND d   1       3.286  -5.996   0.157  0.00  0.00    -0.016 A 
ATOM      8  C8  IND d   1       2.276  -5.895  -0.790  0.00  0.00    -0.047 A 
ATOM      9  C9  IND d   1       0.937  -5.697  -0.428  0.00  0.00    -0.096 A 
ATOM     10  HN1 IND d   1       3.026  -6.127  -2.635  0.00  0.00     0.298 HD
ENDROOT
TORSDOF 0
ENDMDL
