MODEL 1
REMARK minimizedAffinity 9.550107
REMARK minimizedRMSD -1
REMARK  0 active torsions:
REMARK  status: ('A' for Active; 'I' for Inactive)
ROOT
ATOM      1  N1  IND d   1      -1.873   4.109  -4.269  0.00  0.00    -0.196 N 
ATOM      2  C2  IND d   1      -2.169   3.240  -5.281  0.00  0.00     0.054 A 
ATOM      3  C3  IND d   1      -1.162   2.354  -5.450  0.00  0.00    -0.031 A 
ATOM      4  C4  IND d   1       1.021   2.084  -4.112  0.00  0.00     0.051 A 
ATOM      5  C5  IND d   1       1.753   2.667  -3.116  0.00  0.00    -0.031 A 
ATOM      6  C6  IND d   1       1.304   3.782  -2.438  0.00  0.00     0.015 A 
ATOM      7  C7  IND d   1       0.095   4.351  -2.724  0.00  0.00    -0.016 A 
ATOM      8  C8  IND d   1      -0.648   3.765  -3.740  0.00  0.00    -0.047 A 
ATOM      9  C9  IND d   1      -0.178   2.660  -4.460  0.00  0.00    -0.096 A 
ATOM     10  HN1 IND d   1      -2.368   4.762  -4.007  0.00  0.00     0.298 HD
ENDROOT
TORSDOF 0
ENDMDL
