MODEL 1
REMARK minimizedAffinity 3.6661346
REMARK minimizedRMSD -1
REMARK  0 active torsions:
REMARK  status: ('A' for Active; 'I' for Inactive)
ROOT
ATOM      1  N1  IND d   1      -4.050  -1.917  -5.889  0.00  0.00    -0.196 N 
ATOM      2  C2  IND d   1      -5.411  -1.784  -5.922  0.00  0.00     0.054 A 
ATOM      3  C3  IND d   1      -6.000  -2.999  -6.000  0.00  0.00    -0.031 A 
ATOM      4  C4  IND d   1      -4.929  -5.340  -5.982  0.00  0.00     0.051 A 
ATOM      5  C5  IND d   1      -3.717  -5.970  -6.000  0.00  0.00    -0.031 A 
ATOM      6  C6  IND d   1      -2.529  -5.267  -5.979  0.00  0.00     0.015 A 
ATOM      7  C7  IND d   1      -2.510  -3.902  -5.927  0.00  0.00    -0.016 A 
ATOM      8  C8  IND d   1      -3.740  -3.259  -5.916  0.00  0.00    -0.047 A 
ATOM      9  C9  IND d   1      -4.948  -3.965  -5.980  0.00  0.00    -0.096 A 
ATOM     10  HN1 IND d   1      -3.484  -1.271  -5.857  0.00  0.00     0.298 HD
ENDROOT
TORSDOF 0
ENDMDL
