MODEL 1
REMARK minimizedAffinity 5.46380377
REMARK minimizedRMSD -1
REMARK  0 active torsions:
REMARK  status: ('A' for Active; 'I' for Inactive)
ROOT
ATOM      1  N1  IND d   1       2.775  -2.586  -0.531  0.00  0.00    -0.196 N 
ATOM      2  C2  IND d   1       1.855  -1.790  -1.153  0.00  0.00     0.054 A 
ATOM      3  C3  IND d   1       1.307  -2.438  -2.205  0.00  0.00    -0.031 A 
ATOM      4  C4  IND d   1       1.697  -4.846  -3.027  0.00  0.00     0.051 A 
ATOM      5  C5  IND d   1       2.473  -5.948  -2.802  0.00  0.00    -0.031 A 
ATOM      6  C6  IND d   1       3.406  -5.988  -1.786  0.00  0.00     0.015 A 
ATOM      7  C7  IND d   1       3.591  -4.926  -0.947  0.00  0.00    -0.016 A 
ATOM      8  C8  IND d   1       2.810  -3.803  -1.177  0.00  0.00    -0.047 A 
ATOM      9  C9  IND d   1       1.891  -3.741  -2.233  0.00  0.00    -0.096 A 
ATOM     10  HN1 IND d   1       3.252  -2.365   0.149  0.00  0.00     0.298 HD
ENDROOT
TORSDOF 0
ENDMDL
