MODEL 1
REMARK minimizedAffinity 7.86623907
REMARK minimizedRMSD -1
REMARK  0 active torsions:
REMARK  status: ('A' for Active; 'I' for Inactive)
ROOT
ATOM      1  N1  IND d   1       1.809   4.858  -0.663  0.00  0.00    -0.196 N 
ATOM      2  C2  IND d   1       0.829   4.831   0.289  0.00  0.00     0.054 A 
ATOM      3  C3  IND d   1       1.141   3.944   1.261  0.00  0.00    -0.031 A 
ATOM      4  C4  IND d   1       3.256   2.504   1.544  0.00  0.00     0.051 A 
ATOM      5  C5  IND d   1       4.417   2.159   0.910  0.00  0.00    -0.031 A 
ATOM      6  C6  IND d   1       4.776   2.709  -0.303  0.00  0.00     0.015 A 
ATOM      7  C7  IND d   1       3.990   3.638  -0.925  0.00  0.00    -0.016 A 
ATOM      8  C8  IND d   1       2.807   3.985  -0.288  0.00  0.00    -0.047 A 
ATOM      9  C9  IND d   1       2.417   3.399   0.922  0.00  0.00    -0.096 A 
ATOM     10  HN1 IND d   1       1.804   5.339  -1.375  0.00  0.00     0.298 HD
ENDROOT
TORSDOF 0
ENDMDL
