MODEL 1
REMARK minimizedAffinity 17.0303116
REMARK minimizedRMSD -1
REMARK  0 active torsions:
REMARK  status: ('A' for Active; 'I' for Inactive)
ROOT
ATOM      1  N1  IND d   1       4.061   2.988   2.002  0.00  0.00    -0.196 N 
ATOM      2  C2  IND d   1       2.774   2.576   2.213  0.00  0.00     0.054 A 
ATOM      3  C3  IND d   1       2.298   1.943   1.118  0.00  0.00    -0.031 A 
ATOM      4  C4  IND d   1       3.490   1.380  -1.094  0.00  0.00     0.051 A 
ATOM      5  C5  IND d   1       4.662   1.583  -1.768  0.00  0.00    -0.031 A 
ATOM      6  C6  IND d   1       5.715   2.277  -1.208  0.00  0.00     0.015 A 
ATOM      7  C7  IND d   1       5.640   2.785   0.058  0.00  0.00    -0.016 A 
ATOM      8  C8  IND d   1       4.449   2.587   0.743  0.00  0.00    -0.047 A 
ATOM      9  C9  IND d   1       3.362   1.921   0.164  0.00  0.00    -0.096 A 
ATOM     10  HN1 IND d   1       4.546   3.425   2.563  0.00  0.00     0.298 HD
ENDROOT
TORSDOF 0
ENDMDL
