MODEL 1
REMARK minimizedAffinity 20.9927044
REMARK minimizedRMSD -1
REMARK  0 active torsions:
REMARK  status: ('A' for Active; 'I' for Inactive)
ROOT
ATOM      1  N1  IND d   1      -5.277  -1.672   1.121  0.00  0.00    -0.196 N 
ATOM      2  C2  IND d   1      -5.995  -2.316   2.089  0.00  0.00     0.054 A 
ATOM      3  C3  IND d   1      -5.567  -1.946   3.317  0.00  0.00    -0.031 A 
ATOM      4  C4  IND d   1      -3.770  -0.223   3.972  0.00  0.00     0.051 A 
ATOM      5  C5  IND d   1      -2.817   0.597   3.435  0.00  0.00    -0.031 A 
ATOM      6  C6  IND d   1      -2.633   0.706   2.072  0.00  0.00     0.015 A 
ATOM      7  C7  IND d   1      -3.407   0.006   1.191  0.00  0.00    -0.016 A 
ATOM      8  C8  IND d   1      -4.371  -0.833   1.732  0.00  0.00    -0.047 A 
ATOM      9  C9  IND d   1      -4.534  -0.980   3.116  0.00  0.00    -0.096 A 
ATOM     10  HN1 IND d   1      -5.374  -1.773   0.273  0.00  0.00     0.298 HD
ENDROOT
TORSDOF 0
ENDMDL
