MODEL 1
REMARK minimizedAffinity -1.77813828
REMARK minimizedRMSD -1
REMARK  1 active torsions:
REMARK  status: ('A' for Active; 'I' for Inactive)
REMARK    1  A    between atoms: C3_4  and  O_7 
ROOT
ATOM      1  C   UNL d   1      -0.001  -1.234  -1.710  0.00  0.00    -0.033 A 
ATOM      2  C1  UNL d   1       0.556  -2.499  -1.905  0.00  0.00     0.039 A 
ATOM      3  C2  UNL d   1       1.479  -3.006  -0.988  0.00  0.00    -0.080 A 
ATOM      4  C3  UNL d   1       1.835  -2.239   0.118  0.00  0.00     0.150 A 
ATOM      5  C4  UNL d   1       1.281  -0.979   0.320  0.00  0.00    -0.007 A 
ATOM      6  C5  UNL d   1       0.360  -0.474  -0.597  0.00  0.00     0.039 A 
ENDROOT
BRANCH   4   7
ATOM      7  O   UNL d   1       2.735  -2.689   1.038  0.00  0.00    -0.526 OA
ATOM      8  H5  UNL d   1       3.055  -3.561   0.753  0.00  0.00     0.418 HD
ENDBRANCH   4   7
TORSDOF 1
ENDMDL
