MODEL 1
REMARK minimizedAffinity -5.19690943
REMARK minimizedRMSD -1
REMARK  1 active torsions:
REMARK  status: ('A' for Active; 'I' for Inactive)
REMARK    1  A    between atoms: C3_4  and  O_7 
ROOT
ATOM      1  C   UNL d   1       2.517  -1.773   0.055  0.00  0.00    -0.033 A 
ATOM      2  C1  UNL d   1       1.520  -2.115  -0.861  0.00  0.00     0.039 A 
ATOM      3  C2  UNL d   1       0.304  -1.429  -0.860  0.00  0.00    -0.080 A 
ATOM      4  C3  UNL d   1       0.098  -0.404   0.059  0.00  0.00     0.150 A 
ATOM      5  C4  UNL d   1       1.089  -0.055   0.971  0.00  0.00    -0.007 A 
ATOM      6  C5  UNL d   1       2.302  -0.742   0.970  0.00  0.00     0.039 A 
ENDROOT
BRANCH   4   7
ATOM      7  O   UNL d   1      -1.074   0.291   0.101  0.00  0.00    -0.526 OA
ATOM      8  H5  UNL d   1      -1.675  -0.078  -0.567  0.00  0.00     0.418 HD
ENDBRANCH   4   7
TORSDOF 1
ENDMDL
