MODEL 1
REMARK minimizedAffinity -4.42347336
REMARK minimizedRMSD -1
REMARK  1 active torsions:
REMARK  status: ('A' for Active; 'I' for Inactive)
REMARK    1  A    between atoms: C3_4  and  O_7 
ROOT
ATOM      1  C   UNL d   1      -0.267  -0.415  -0.466  0.00  0.00    -0.033 A 
ATOM      2  C1  UNL d   1       0.478   0.402   0.387  0.00  0.00     0.039 A 
ATOM      3  C2  UNL d   1       1.609  -0.105   1.030  0.00  0.00    -0.080 A 
ATOM      4  C3  UNL d   1       1.984  -1.428   0.811  0.00  0.00     0.150 A 
ATOM      5  C4  UNL d   1       1.249  -2.246  -0.041  0.00  0.00    -0.007 A 
ATOM      6  C5  UNL d   1       0.119  -1.738  -0.681  0.00  0.00     0.039 A 
ENDROOT
BRANCH   4   7
ATOM      7  O   UNL d   1       3.078  -1.969   1.419  0.00  0.00    -0.526 OA
ATOM      8  H5  UNL d   1       3.471  -1.296   2.000  0.00  0.00     0.418 HD
ENDBRANCH   4   7
TORSDOF 1
ENDMDL
