MODEL 1
REMARK minimizedAffinity -3.24435806
REMARK minimizedRMSD -1
REMARK  1 active torsions:
REMARK  status: ('A' for Active; 'I' for Inactive)
REMARK    1  A    between atoms: C3_4  and  O_7 
ROOT
ATOM      1  C   UNL d   1       0.832  -1.780  -0.051  0.00  0.00    -0.033 A 
ATOM      2  C1  UNL d   1       1.023  -0.653   0.750  0.00  0.00     0.039 A 
ATOM      3  C2  UNL d   1       0.315   0.521   0.486  0.00  0.00    -0.080 A 
ATOM      4  C3  UNL d   1      -0.579   0.555  -0.580  0.00  0.00     0.150 A 
ATOM      5  C4  UNL d   1      -0.777  -0.565  -1.380  0.00  0.00    -0.007 A 
ATOM      6  C5  UNL d   1      -0.069  -1.737  -1.116  0.00  0.00     0.039 A 
ENDROOT
BRANCH   4   7
ATOM      7  O   UNL d   1      -1.289   1.680  -0.879  0.00  0.00    -0.526 OA
ATOM      8  H5  UNL d   1      -1.028   2.382  -0.260  0.00  0.00     0.418 HD
ENDBRANCH   4   7
TORSDOF 1
ENDMDL
