MODEL 1
REMARK minimizedAffinity -1.65082312
REMARK minimizedRMSD -1
REMARK  1 active torsions:
REMARK  status: ('A' for Active; 'I' for Inactive)
REMARK    1  A    between atoms: C3_4  and  O_7 
ROOT
ATOM      1  C   UNL d   1      -2.588   1.857   1.019  0.00  0.00    -0.033 A 
ATOM      2  C1  UNL d   1      -3.091   0.922   1.925  0.00  0.00     0.039 A 
ATOM      3  C2  UNL d   1      -4.065   0.007   1.519  0.00  0.00    -0.080 A 
ATOM      4  C3  UNL d   1      -4.527   0.039   0.207  0.00  0.00     0.150 A 
ATOM      5  C4  UNL d   1      -4.028   0.966  -0.703  0.00  0.00    -0.007 A 
ATOM      6  C5  UNL d   1      -3.056   1.879  -0.295  0.00  0.00     0.039 A 
ENDROOT
BRANCH   4   7
ATOM      7  O   UNL d   1      -5.480  -0.830  -0.234  0.00  0.00    -0.526 OA
ATOM      8  H5  UNL d   1      -5.752  -1.393   0.510  0.00  0.00     0.418 HD
ENDBRANCH   4   7
TORSDOF 1
ENDMDL
