MODEL 1
REMARK minimizedAffinity -2.28625083
REMARK minimizedRMSD -1
REMARK  1 active torsions:
REMARK  status: ('A' for Active; 'I' for Inactive)
REMARK    1  A    between atoms: C3_4  and  O_7 
ROOT
ATOM      1  C   UNL d   1      -4.097   0.768   0.293  0.00  0.00    -0.033 A 
ATOM      2  C1  UNL d   1      -3.608   0.530  -0.993  0.00  0.00     0.039 A 
ATOM      3  C2  UNL d   1      -2.243   0.312  -1.194  0.00  0.00    -0.080 A 
ATOM      4  C3  UNL d   1      -1.380   0.333  -0.102  0.00  0.00     0.150 A 
ATOM      5  C4  UNL d   1      -1.861   0.565   1.183  0.00  0.00    -0.007 A 
ATOM      6  C5  UNL d   1      -3.224   0.784   1.381  0.00  0.00     0.039 A 
ENDROOT
BRANCH   4   7
ATOM      7  O   UNL d   1      -0.040   0.130  -0.249  0.00  0.00    -0.526 OA
ATOM      8  H5  UNL d   1       0.151   0.012  -1.194  0.00  0.00     0.418 HD
ENDBRANCH   4   7
TORSDOF 1
ENDMDL
