MODEL 1
REMARK minimizedAffinity -2.3354032
REMARK minimizedRMSD -1
REMARK  1 active torsions:
REMARK  status: ('A' for Active; 'I' for Inactive)
REMARK    1  A    between atoms: C3_4  and  O_7 
ROOT
ATOM      1  C   UNL d   1       1.806  -3.203  -0.630  0.00  0.00    -0.033 A 
ATOM      2  C1  UNL d   1       2.433  -1.957  -0.697  0.00  0.00     0.039 A 
ATOM      3  C2  UNL d   1       1.706  -0.827  -1.076  0.00  0.00    -0.080 A 
ATOM      4  C3  UNL d   1       0.355  -0.956  -1.386  0.00  0.00     0.150 A 
ATOM      5  C4  UNL d   1      -0.277  -2.193  -1.318  0.00  0.00    -0.007 A 
ATOM      6  C5  UNL d   1       0.450  -3.321  -0.940  0.00  0.00     0.039 A 
ENDROOT
BRANCH   4   7
ATOM      7  O   UNL d   1      -0.395   0.118  -1.766  0.00  0.00    -0.526 OA
ATOM      8  H5  UNL d   1       0.181   0.900  -1.796  0.00  0.00     0.418 HD
ENDBRANCH   4   7
TORSDOF 1
ENDMDL
