MODEL 1
REMARK minimizedAffinity 20.5672932
REMARK minimizedRMSD -1
REMARK  0 active torsions:
REMARK  status: ('A' for Active; 'I' for Inactive)
ROOT
ATOM      1  C4' PXY d   1       0.376  -4.517  -1.327  0.00  0.00     0.077 C 
ATOM      2  C1' PXY d   1       4.987  -1.432   0.297  0.00  0.00     0.077 C 
ATOM      3  C1  PXY d   1       3.770  -2.232  -0.124  0.00  0.00    -0.082 A 
ATOM      4  C2  PXY d   1       3.874  -3.540  -0.294  0.00  0.00     0.003 A 
ATOM      5  C3  PXY d   1       2.791  -4.274  -0.706  0.00  0.00     0.003 A 
ATOM      6  C4  PXY d   1       1.577  -3.671  -0.894  0.00  0.00    -0.082 A 
ATOM      7  C5  PXY d   1       1.460  -2.338  -0.712  0.00  0.00     0.003 A 
ATOM      8  C6  PXY d   1       2.581  -1.605  -0.334  0.00  0.00     0.003 A 
ENDROOT
TORSDOF 0
ENDMDL
