MODEL 1
REMARK minimizedAffinity 2.67505527
REMARK minimizedRMSD -1
REMARK  0 active torsions:
REMARK  status: ('A' for Active; 'I' for Inactive)
ROOT
ATOM      1  C4' PXY d   1      -3.530  -3.225   5.992  0.00  0.00     0.077 C 
ATOM      2  C1' PXY d   1       1.804  -1.054   5.494  0.00  0.00     0.077 C 
ATOM      3  C1  PXY d   1       0.402  -1.613   5.631  0.00  0.00    -0.082 A 
ATOM      4  C2  PXY d   1       0.203  -2.916   5.516  0.00  0.00     0.003 A 
ATOM      5  C3  PXY d   1      -1.063  -3.435   5.606  0.00  0.00     0.003 A 
ATOM      6  C4  PXY d   1      -2.130  -2.618   5.869  0.00  0.00    -0.082 A 
ATOM      7  C5  PXY d   1      -1.934  -1.288   5.999  0.00  0.00     0.003 A 
ATOM      8  C6  PXY d   1      -0.646  -0.777   5.864  0.00  0.00     0.003 A 
ENDROOT
TORSDOF 0
ENDMDL
