MODEL 1
REMARK minimizedAffinity 5.61659288
REMARK minimizedRMSD -1
REMARK  0 active torsions:
REMARK  status: ('A' for Active; 'I' for Inactive)
ROOT
ATOM      1  C4' PXY d   1      -3.798  -5.485  -6.000  0.00  0.00     0.077 C 
ATOM      2  C1' PXY d   1       1.129  -4.812  -3.053  0.00  0.00     0.077 C 
ATOM      3  C1  PXY d   1      -0.162  -4.976  -3.831  0.00  0.00    -0.082 A 
ATOM      4  C2  PXY d   1      -1.088  -5.814  -3.393  0.00  0.00     0.003 A 
ATOM      5  C3  PXY d   1      -2.247  -6.000  -4.101  0.00  0.00     0.003 A 
ATOM      6  C4  PXY d   1      -2.484  -5.280  -5.242  0.00  0.00    -0.082 A 
ATOM      7  C5  PXY d   1      -1.549  -4.415  -5.689  0.00  0.00     0.003 A 
ATOM      8  C6  PXY d   1      -0.362  -4.272  -4.978  0.00  0.00     0.003 A 
ENDROOT
TORSDOF 0
ENDMDL
