MODEL 1
REMARK minimizedAffinity -3.35868764
REMARK minimizedRMSD -1
REMARK  0 active torsions:
REMARK  status: ('A' for Active; 'I' for Inactive)
ROOT
ATOM      1  C4' PXY d   1      -5.413  -5.901  -5.986  0.00  0.00     0.077 C 
ATOM      2  C1' PXY d   1      -0.188  -3.430  -5.990  0.00  0.00     0.077 C 
ATOM      3  C1  PXY d   1      -1.563  -4.067  -5.983  0.00  0.00    -0.082 A 
ATOM      4  C2  PXY d   1      -1.673  -5.386  -5.971  0.00  0.00     0.003 A 
ATOM      5  C3  PXY d   1      -2.909  -5.979  -5.997  0.00  0.00     0.003 A 
ATOM      6  C4  PXY d   1      -4.045  -5.214  -5.983  0.00  0.00    -0.082 A 
ATOM      7  C5  PXY d   1      -3.941  -3.868  -5.985  0.00  0.00     0.003 A 
ATOM      8  C6  PXY d   1      -2.677  -3.286  -6.000  0.00  0.00     0.003 A 
ENDROOT
TORSDOF 0
ENDMDL
