MODEL 1
REMARK minimizedAffinity 7.13481236
REMARK minimizedRMSD -1
REMARK  0 active torsions:
REMARK  status: ('A' for Active; 'I' for Inactive)
ROOT
ATOM      1  C4' PXY d   1      -0.382   6.000  -2.899  0.00  0.00     0.077 C 
ATOM      2  C1' PXY d   1       0.575   1.922   1.084  0.00  0.00     0.077 C 
ATOM      3  C1  PXY d   1       0.327   3.001   0.049  0.00  0.00    -0.082 A 
ATOM      4  C2  PXY d   1      -0.417   2.730  -1.012  0.00  0.00     0.003 A 
ATOM      5  C3  PXY d   1      -0.626   3.684  -1.974  0.00  0.00     0.003 A 
ATOM      6  C4  PXY d   1      -0.112   4.944  -1.823  0.00  0.00    -0.082 A 
ATOM      7  C5  PXY d   1       0.639   5.231  -0.739  0.00  0.00     0.003 A 
ATOM      8  C6  PXY d   1       0.873   4.237   0.206  0.00  0.00     0.003 A 
ENDROOT
TORSDOF 0
ENDMDL
