MODEL 1
REMARK minimizedAffinity 17.4251652
REMARK minimizedRMSD -1
REMARK  0 active torsions:
REMARK  status: ('A' for Active; 'I' for Inactive)
ROOT
ATOM      1  C4' PXY d   1       1.578   1.494   1.939  0.00  0.00     0.077 C 
ATOM      2  C1' PXY d   1      -1.607   3.488  -2.453  0.00  0.00     0.077 C 
ATOM      3  C1  PXY d   1      -0.783   2.964  -1.294  0.00  0.00    -0.082 A 
ATOM      4  C2  PXY d   1       0.487   3.318  -1.181  0.00  0.00     0.003 A 
ATOM      5  C3  PXY d   1       1.256   2.827  -0.158  0.00  0.00     0.003 A 
ATOM      6  C4  PXY d   1       0.705   2.007   0.791  0.00  0.00    -0.082 A 
ATOM      7  C5  PXY d   1      -0.592   1.650   0.688  0.00  0.00     0.003 A 
ATOM      8  C6  PXY d   1      -1.345   2.126  -0.381  0.00  0.00     0.003 A 
ENDROOT
TORSDOF 0
ENDMDL
