MODEL 1
REMARK minimizedAffinity 15.5458298
REMARK minimizedRMSD -1
REMARK  0 active torsions:
REMARK  status: ('A' for Active; 'I' for Inactive)
ROOT
ATOM      1  C4' PXY d   1      -0.688   4.963  -4.719  0.00  0.00     0.077 C 
ATOM      2  C1' PXY d   1      -0.522   2.287   0.402  0.00  0.00     0.077 C 
ATOM      3  C1  PXY d   1      -0.574   2.997  -0.936  0.00  0.00    -0.082 A 
ATOM      4  C2  PXY d   1      -0.288   2.330  -2.042  0.00  0.00     0.003 A 
ATOM      5  C3  PXY d   1      -0.298   2.965  -3.257  0.00  0.00     0.003 A 
ATOM      6  C4  PXY d   1      -0.658   4.284  -3.347  0.00  0.00    -0.082 A 
ATOM      7  C5  PXY d   1      -0.962   4.968  -2.224  0.00  0.00     0.003 A 
ATOM      8  C6  PXY d   1      -0.905   4.316  -0.996  0.00  0.00     0.003 A 
ENDROOT
TORSDOF 0
ENDMDL
