MODEL 1
REMARK minimizedAffinity 5.53255749
REMARK minimizedRMSD -1
REMARK  0 active torsions:
REMARK  status: ('A' for Active; 'I' for Inactive)
ROOT
ATOM      1  C4' PXY d   1      -6.000  -1.401   5.425  0.00  0.00     0.077 C 
ATOM      2  C1' PXY d   1      -4.190   0.141   0.156  0.00  0.00     0.077 C 
ATOM      3  C1  PXY d   1      -4.661  -0.276   1.536  0.00  0.00    -0.082 A 
ATOM      4  C2  PXY d   1      -5.585   0.440   2.155  0.00  0.00     0.003 A 
ATOM      5  C3  PXY d   1      -6.000   0.096   3.416  0.00  0.00     0.003 A 
ATOM      6  C4  PXY d   1      -5.501  -1.023   4.028  0.00  0.00    -0.082 A 
ATOM      7  C5  PXY d   1      -4.565  -1.764   3.398  0.00  0.00     0.003 A 
ATOM      8  C6  PXY d   1      -4.128  -1.375   2.135  0.00  0.00     0.003 A 
ENDROOT
TORSDOF 0
ENDMDL
