MODEL 1
REMARK minimizedAffinity 6.35502529
REMARK minimizedRMSD -1
REMARK  3 active torsions:
REMARK  status: ('A' for Active; 'I' for Inactive)
REMARK    1  A    between atoms: C3'_2  and  C2'_3 
REMARK    2  A    between atoms: C2'_3  and  C1'_4 
REMARK    3  A    between atoms: C1'_4  and  C1_5 
ROOT
ATOM      1  C1  N4B d   1      -1.883   1.945  -1.586  0.00  0.00    -0.075 A 
ATOM      2  C2  N4B d   1      -2.467   0.704  -1.251  0.00  0.00     0.002 A 
ATOM      3  C3  N4B d   1      -3.833   0.560  -1.271  0.00  0.00     0.002 A 
ATOM      4  C4  N4B d   1      -4.632   1.645  -1.602  0.00  0.00    -0.004 A 
ATOM      5  C5  N4B d   1      -4.059   2.833  -1.949  0.00  0.00     0.002 A 
ATOM      6  C6  N4B d   1      -2.687   2.990  -1.938  0.00  0.00     0.002 A 
ENDROOT
BRANCH   1   7
ATOM      7  C1' N4B d   1      -0.399   2.174  -1.496  0.00  0.00     0.057 C 
BRANCH   7   8
ATOM      8  C2' N4B d   1       0.114   1.620  -0.170  0.00  0.00     0.009 C 
BRANCH   8   9
ATOM      9  C3' N4B d   1       0.055   2.655   0.939  0.00  0.00     0.004 C 
ATOM     10  C4' N4B d   1       0.038   2.041   2.307  0.00  0.00     0.003 C 
ENDBRANCH   8   9
ENDBRANCH   7   8
ENDBRANCH   1   7
TORSDOF 3
ENDMDL
