MODEL 1
REMARK minimizedAffinity 8.41870213
REMARK minimizedRMSD -1
REMARK  3 active torsions:
REMARK  status: ('A' for Active; 'I' for Inactive)
REMARK    1  A    between atoms: C3'_2  and  C2'_3 
REMARK    2  A    between atoms: C2'_3  and  C1'_4 
REMARK    3  A    between atoms: C1'_4  and  C1_5 
ROOT
ATOM      1  C1  N4B d   1       0.675   2.540   1.001  0.00  0.00    -0.075 A 
ATOM      2  C2  N4B d   1       0.423   3.897   0.699  0.00  0.00     0.002 A 
ATOM      3  C3  N4B d   1       0.043   4.259  -0.570  0.00  0.00     0.002 A 
ATOM      4  C4  N4B d   1      -0.073   3.289  -1.554  0.00  0.00    -0.004 A 
ATOM      5  C5  N4B d   1       0.147   1.978  -1.248  0.00  0.00     0.002 A 
ATOM      6  C6  N4B d   1       0.526   1.599   0.024  0.00  0.00     0.002 A 
ENDROOT
BRANCH   1   7
ATOM      7  C1' N4B d   1       1.176   2.106   2.351  0.00  0.00     0.057 C 
BRANCH   7   8
ATOM      8  C2' N4B d   1       0.128   1.215   3.011  0.00  0.00     0.009 C 
BRANCH   8   9
ATOM      9  C3' N4B d   1       0.629  -0.207   3.200  0.00  0.00     0.004 C 
ATOM     10  C4' N4B d   1       0.878  -0.549   4.638  0.00  0.00     0.003 C 
ENDBRANCH   8   9
ENDBRANCH   7   8
ENDBRANCH   1   7
TORSDOF 3
ENDMDL
