MODEL 1
REMARK minimizedAffinity 0.806584477
REMARK minimizedRMSD -1
REMARK  1 active torsions:
REMARK  status: ('A' for Active; 'I' for Inactive)
REMARK    1  A    between atoms: C1_2  and  C2_3 
ROOT
ATOM      1  C2  UNL d   1       0.260  -1.803   3.296  0.00  0.00    -0.077 A 
ATOM      2  C3  UNL d   1      -0.996  -1.445   2.786  0.00  0.00     0.002 A 
ATOM      3  C4  UNL d   1      -1.106  -0.439   1.824  0.00  0.00     0.002 A 
ATOM      4  C5  UNL d   1       0.035   0.213   1.361  0.00  0.00    -0.004 A 
ATOM      5  C6  UNL d   1       1.288  -0.135   1.864  0.00  0.00     0.002 A 
ATOM      6  C7  UNL d   1       1.400  -1.139   2.827  0.00  0.00     0.002 A 
ENDROOT
BRANCH   1   7
ATOM      7  C1  UNL d   1       0.386  -2.921   4.298  0.00  0.00     0.055 C 
ATOM      8  C   UNL d   1       1.633  -2.759   5.154  0.00  0.00     0.019 C 
ENDBRANCH   1   7
TORSDOF 1
ENDMDL
