MODEL 1
REMARK minimizedAffinity -2.60281396
REMARK minimizedRMSD -1
REMARK  1 active torsions:
REMARK  status: ('A' for Active; 'I' for Inactive)
REMARK    1  A    between atoms: C1_2  and  C2_3 
ROOT
ATOM      1  C2  UNL d   1      -0.417  -0.427   2.646  0.00  0.00    -0.077 A 
ATOM      2  C3  UNL d   1       0.874  -0.858   2.979  0.00  0.00     0.002 A 
ATOM      3  C4  UNL d   1       1.058  -1.994   3.769  0.00  0.00     0.002 A 
ATOM      4  C5  UNL d   1      -0.045  -2.710   4.229  0.00  0.00    -0.004 A 
ATOM      5  C6  UNL d   1      -1.334  -2.289   3.905  0.00  0.00     0.002 A 
ATOM      6  C7  UNL d   1      -1.519  -1.153   3.116  0.00  0.00     0.002 A 
ENDROOT
BRANCH   1   7
ATOM      7  C1  UNL d   1      -0.616   0.770   1.753  0.00  0.00     0.055 C 
ATOM      8  C   UNL d   1      -1.347   0.390   0.473  0.00  0.00     0.019 C 
ENDBRANCH   1   7
TORSDOF 1
ENDMDL
