MODEL 1
REMARK minimizedAffinity 2.19666171
REMARK minimizedRMSD -1
REMARK  1 active torsions:
REMARK  status: ('A' for Active; 'I' for Inactive)
REMARK    1  A    between atoms: C1_2  and  C2_3 
ROOT
ATOM      1  C2  UNL d   1      -0.025  -1.147   2.860  0.00  0.00    -0.077 A 
ATOM      2  C3  UNL d   1      -1.049  -2.105   2.853  0.00  0.00     0.002 A 
ATOM      3  C4  UNL d   1      -2.327  -1.771   2.400  0.00  0.00     0.002 A 
ATOM      4  C5  UNL d   1      -2.591  -0.481   1.947  0.00  0.00    -0.004 A 
ATOM      5  C6  UNL d   1      -1.581   0.480   1.951  0.00  0.00     0.002 A 
ATOM      6  C7  UNL d   1      -0.304   0.148   2.404  0.00  0.00     0.002 A 
ENDROOT
BRANCH   1   7
ATOM      7  C1  UNL d   1       1.366  -1.519   3.301  0.00  0.00     0.055 C 
ATOM      8  C   UNL d   1       1.334  -2.477   4.483  0.00  0.00     0.019 C 
ENDBRANCH   1   7
TORSDOF 1
ENDMDL
