MODEL 1
REMARK minimizedAffinity -2.1314528
REMARK minimizedRMSD -1
REMARK  1 active torsions:
REMARK  status: ('A' for Active; 'I' for Inactive)
REMARK    1  A    between atoms: C1_2  and  C2_3 
ROOT
ATOM      1  C2  UNL d   1      -0.022  -1.069   2.706  0.00  0.00    -0.077 A 
ATOM      2  C3  UNL d   1      -1.051  -1.958   3.044  0.00  0.00     0.002 A 
ATOM      3  C4  UNL d   1      -2.314  -1.831   2.462  0.00  0.00     0.002 A 
ATOM      4  C5  UNL d   1      -2.557  -0.818   1.536  0.00  0.00    -0.004 A 
ATOM      5  C6  UNL d   1      -1.540   0.072   1.195  0.00  0.00     0.002 A 
ATOM      6  C7  UNL d   1      -0.278  -0.053   1.776  0.00  0.00     0.002 A 
ENDROOT
BRANCH   1   7
ATOM      7  C1  UNL d   1       1.355  -1.235   3.295  0.00  0.00     0.055 C 
ATOM      8  C   UNL d   1       1.368  -2.304   4.379  0.00  0.00     0.019 C 
ENDBRANCH   1   7
TORSDOF 1
ENDMDL
