MODEL 1
REMARK minimizedAffinity -1.46960211
REMARK minimizedRMSD -1
REMARK  1 active torsions:
REMARK  status: ('A' for Active; 'I' for Inactive)
REMARK    1  A    between atoms: C1_2  and  C2_3 
ROOT
ATOM      1  C2  UNL d   1       0.680  -1.177   3.275  0.00  0.00    -0.077 A 
ATOM      2  C3  UNL d   1       1.274  -0.551   2.171  0.00  0.00     0.002 A 
ATOM      3  C4  UNL d   1       0.501   0.207   1.289  0.00  0.00     0.002 A 
ATOM      4  C5  UNL d   1      -0.868   0.350   1.505  0.00  0.00    -0.004 A 
ATOM      5  C6  UNL d   1      -1.468  -0.271   2.599  0.00  0.00     0.002 A 
ATOM      6  C7  UNL d   1      -0.698  -1.030   3.481  0.00  0.00     0.002 A 
ENDROOT
BRANCH   1   7
ATOM      7  C1  UNL d   1       1.519  -1.955   4.255  0.00  0.00     0.055 C 
ATOM      8  C   UNL d   1       1.290  -1.478   5.682  0.00  0.00     0.019 C 
ENDBRANCH   1   7
TORSDOF 1
ENDMDL
