MODEL 1
REMARK minimizedAffinity 2.87612557
REMARK minimizedRMSD -1
REMARK  1 active torsions:
REMARK  status: ('A' for Active; 'I' for Inactive)
REMARK    1  A    between atoms: C1_2  and  C2_3 
ROOT
ATOM      1  C2  UNL d   1       0.784  -1.083   3.001  0.00  0.00    -0.077 A 
ATOM      2  C3  UNL d   1       1.979  -0.362   3.128  0.00  0.00     0.002 A 
ATOM      3  C4  UNL d   1       2.843  -0.610   4.196  0.00  0.00     0.002 A 
ATOM      4  C5  UNL d   1       2.524  -1.581   5.142  0.00  0.00    -0.004 A 
ATOM      5  C6  UNL d   1       1.336  -2.303   5.025  0.00  0.00     0.002 A 
ATOM      6  C7  UNL d   1       0.471  -2.056   3.959  0.00  0.00     0.002 A 
ENDROOT
BRANCH   1   7
ATOM      7  C1  UNL d   1      -0.125  -0.852   1.822  0.00  0.00     0.055 C 
ATOM      8  C   UNL d   1      -1.239   0.127   2.166  0.00  0.00     0.019 C 
ENDBRANCH   1   7
TORSDOF 1
ENDMDL
