MODEL 1
REMARK minimizedAffinity 0.227572799
REMARK minimizedRMSD -1
REMARK  1 active torsions:
REMARK  status: ('A' for Active; 'I' for Inactive)
REMARK    1  A    between atoms: C1_2  and  C2_3 
ROOT
ATOM      1  C2  UNL d   1       0.308  -1.449   3.372  0.00  0.00    -0.077 A 
ATOM      2  C3  UNL d   1       0.976  -0.782   2.335  0.00  0.00     0.002 A 
ATOM      3  C4  UNL d   1       0.255  -0.075   1.370  0.00  0.00     0.002 A 
ATOM      4  C5  UNL d   1      -1.136  -0.025   1.435  0.00  0.00    -0.004 A 
ATOM      5  C6  UNL d   1      -1.809  -0.687   2.461  0.00  0.00     0.002 A 
ATOM      6  C7  UNL d   1      -1.091  -1.394   3.426  0.00  0.00     0.002 A 
ENDROOT
BRANCH   1   7
ATOM      7  C1  UNL d   1       1.086  -2.170   4.441  0.00  0.00     0.055 C 
ATOM      8  C   UNL d   1       2.381  -1.442   4.770  0.00  0.00     0.019 C 
ENDBRANCH   1   7
TORSDOF 1
ENDMDL
