MODEL 1
REMARK minimizedAffinity -3.26087022
REMARK minimizedRMSD -1
REMARK  1 active torsions:
REMARK  status: ('A' for Active; 'I' for Inactive)
REMARK    1  A    between atoms: C1_2  and  C2_3 
ROOT
ATOM      1  C2  UNL d   1       0.033  -1.563   3.480  0.00  0.00    -0.077 A 
ATOM      2  C3  UNL d   1      -1.193  -1.107   2.976  0.00  0.00     0.002 A 
ATOM      3  C4  UNL d   1      -1.226  -0.193   1.921  0.00  0.00     0.002 A 
ATOM      4  C5  UNL d   1      -0.038   0.270   1.359  0.00  0.00    -0.004 A 
ATOM      5  C6  UNL d   1       1.186  -0.177   1.855  0.00  0.00     0.002 A 
ATOM      6  C7  UNL d   1       1.222  -1.090   2.910  0.00  0.00     0.002 A 
ENDROOT
BRANCH   1   7
ATOM      7  C1  UNL d   1       0.071  -2.587   4.584  0.00  0.00     0.055 C 
ATOM      8  C   UNL d   1       1.483  -2.769   5.122  0.00  0.00     0.019 C 
ENDBRANCH   1   7
TORSDOF 1
ENDMDL
