MODEL 1
REMARK minimizedAffinity 4.33854866
REMARK minimizedRMSD -1
REMARK  1 active torsions:
REMARK  status: ('A' for Active; 'I' for Inactive)
REMARK    1  A    between atoms: C1_2  and  C2_3 
ROOT
ATOM      1  C2  UNL d   1      -0.191   0.072   2.344  0.00  0.00    -0.077 A 
ATOM      2  C3  UNL d   1      -0.341  -0.158   3.719  0.00  0.00     0.002 A 
ATOM      3  C4  UNL d   1       0.591  -0.934   4.411  0.00  0.00     0.002 A 
ATOM      4  C5  UNL d   1       1.681  -1.483   3.737  0.00  0.00    -0.004 A 
ATOM      5  C6  UNL d   1       1.837  -1.262   2.370  0.00  0.00     0.002 A 
ATOM      6  C7  UNL d   1       0.906  -0.488   1.676  0.00  0.00     0.002 A 
ENDROOT
BRANCH   1   7
ATOM      7  C1  UNL d   1      -1.168   0.949   1.606  0.00  0.00     0.055 C 
ATOM      8  C   UNL d   1      -2.145   0.120   0.784  0.00  0.00     0.019 C 
ENDBRANCH   1   7
TORSDOF 1
ENDMDL
