MODEL 1
REMARK minimizedAffinity 2.42938018
REMARK minimizedRMSD -1
REMARK  1 active torsions:
REMARK  status: ('A' for Active; 'I' for Inactive)
REMARK    1  A    between atoms: C1_2  and  C2_3 
ROOT
ATOM      1  C2  UNL d   1       1.188  -0.735   3.124  0.00  0.00    -0.077 A 
ATOM      2  C3  UNL d   1       2.453  -0.294   3.538  0.00  0.00     0.002 A 
ATOM      3  C4  UNL d   1       3.228  -1.077   4.395  0.00  0.00     0.002 A 
ATOM      4  C5  UNL d   1       2.749  -2.306   4.842  0.00  0.00    -0.004 A 
ATOM      5  C6  UNL d   1       1.492  -2.753   4.438  0.00  0.00     0.002 A 
ATOM      6  C7  UNL d   1       0.715  -1.971   3.582  0.00  0.00     0.002 A 
ENDROOT
BRANCH   1   7
ATOM      7  C1  UNL d   1       0.371   0.086   2.160  0.00  0.00     0.055 C 
ATOM      8  C   UNL d   1      -1.104  -0.280   2.233  0.00  0.00     0.019 C 
ENDBRANCH   1   7
TORSDOF 1
ENDMDL
