MODEL 1
REMARK minimizedAffinity 6.85804605
REMARK minimizedRMSD -1
REMARK  0 active torsions:
REMARK  status: ('A' for Active; 'I' for Inactive)
ROOT
ATOM      1  C   UNL d   1       1.103  -1.133   4.460  0.00  0.00     0.023 A 
ATOM      2  C1  UNL d   1       1.189  -0.231   3.400  0.00  0.00     0.003 A 
ATOM      3  C2  UNL d   1       2.153  -0.409   2.406  0.00  0.00     0.048 A 
ATOM      4  C3  UNL d   1       3.028  -1.493   2.478  0.00  0.00     0.023 A 
ATOM      5  C4  UNL d   1       2.946  -2.399   3.537  0.00  0.00     0.048 A 
ATOM      6  C5  UNL d   1       1.981  -2.216   4.529  0.00  0.00     0.003 A 
ATOM      7  I   UNL d   1       4.465  -1.760   1.000  0.00  0.00    -0.146 I 
ENDROOT
TORSDOF 0
ENDMDL
