MODEL 1
REMARK minimizedAffinity 7.7616787
REMARK minimizedRMSD -1
REMARK  0 active torsions:
REMARK  status: ('A' for Active; 'I' for Inactive)
ROOT
ATOM      1  C   UNL d   1       1.181  -0.319   3.920  0.00  0.00     0.023 A 
ATOM      2  C1  UNL d   1       1.089   0.180   2.621  0.00  0.00     0.003 A 
ATOM      3  C2  UNL d   1       1.744  -0.471   1.573  0.00  0.00     0.048 A 
ATOM      4  C3  UNL d   1       2.489  -1.621   1.832  0.00  0.00     0.023 A 
ATOM      5  C4  UNL d   1       2.583  -2.124   3.131  0.00  0.00     0.048 A 
ATOM      6  C5  UNL d   1       1.928  -1.470   4.175  0.00  0.00     0.003 A 
ATOM      7  I   UNL d   1       3.464  -2.592   0.275  0.00  0.00    -0.146 I 
ENDROOT
TORSDOF 0
ENDMDL
