MODEL 1
REMARK minimizedAffinity 9.91835213
REMARK minimizedRMSD -1
REMARK  0 active torsions:
REMARK  status: ('A' for Active; 'I' for Inactive)
ROOT
ATOM      1  C   UNL d   1      -3.440  -3.324  -0.650  0.00  0.00     0.023 A 
ATOM      2  C1  UNL d   1      -3.464  -1.953  -0.394  0.00  0.00     0.003 A 
ATOM      3  C2  UNL d   1      -2.415  -1.354   0.307  0.00  0.00     0.048 A 
ATOM      4  C3  UNL d   1      -1.346  -2.132   0.750  0.00  0.00     0.023 A 
ATOM      5  C4  UNL d   1      -1.318  -3.504   0.496  0.00  0.00     0.048 A 
ATOM      6  C5  UNL d   1      -2.369  -4.099  -0.205  0.00  0.00     0.003 A 
ATOM      7  I   UNL d   1       0.215  -1.243   1.794  0.00  0.00    -0.146 I 
ENDROOT
TORSDOF 0
ENDMDL
