MODEL 1
REMARK minimizedAffinity 2.17826986
REMARK minimizedRMSD -1
REMARK  0 active torsions:
REMARK  status: ('A' for Active; 'I' for Inactive)
ROOT
ATOM      1  C   UNL d   1      -4.092  -3.875  -1.617  0.00  0.00     0.023 A 
ATOM      2  C1  UNL d   1      -2.750  -3.879  -1.237  0.00  0.00     0.003 A 
ATOM      3  C2  UNL d   1      -2.158  -2.713  -0.747  0.00  0.00     0.048 A 
ATOM      4  C3  UNL d   1      -2.915  -1.546  -0.638  0.00  0.00     0.023 A 
ATOM      5  C4  UNL d   1      -4.259  -1.538  -1.016  0.00  0.00     0.048 A 
ATOM      6  C5  UNL d   1      -4.846  -2.706  -1.506  0.00  0.00     0.003 A 
ATOM      7  I   UNL d   1      -2.037   0.190   0.092  0.00  0.00    -0.146 I 
ENDROOT
TORSDOF 0
ENDMDL
