MODEL 1
REMARK minimizedAffinity 13.0763283
REMARK minimizedRMSD -1
REMARK  0 active torsions:
REMARK  status: ('A' for Active; 'I' for Inactive)
ROOT
ATOM      1  C   UNL d   1       1.133   0.384   2.309  0.00  0.00     0.023 A 
ATOM      2  C1  UNL d   1       1.131   0.848   3.624  0.00  0.00     0.003 A 
ATOM      3  C2  UNL d   1       1.236  -0.054   4.685  0.00  0.00     0.048 A 
ATOM      4  C3  UNL d   1       1.344  -1.419   4.423  0.00  0.00     0.023 A 
ATOM      5  C4  UNL d   1       1.347  -1.889   3.108  0.00  0.00     0.048 A 
ATOM      6  C5  UNL d   1       1.241  -0.983   2.051  0.00  0.00     0.003 A 
ATOM      7  I   UNL d   1       1.500  -2.764   6.000  0.00  0.00    -0.146 I 
ENDROOT
TORSDOF 0
ENDMDL
