MODEL 1
REMARK minimizedAffinity 2.05193543
REMARK minimizedRMSD -1
REMARK  0 active torsions:
REMARK  status: ('A' for Active; 'I' for Inactive)
ROOT
ATOM      1  C   UNL d   1       5.229  -0.785  -4.833  0.00  0.00     0.023 A 
ATOM      2  C1  UNL d   1       5.797  -1.419  -5.939  0.00  0.00     0.003 A 
ATOM      3  C2  UNL d   1       5.903  -2.811  -5.969  0.00  0.00     0.048 A 
ATOM      4  C3  UNL d   1       5.439  -3.563  -4.891  0.00  0.00     0.023 A 
ATOM      5  C4  UNL d   1       4.870  -2.934  -3.783  0.00  0.00     0.048 A 
ATOM      6  C5  UNL d   1       4.767  -1.542  -3.756  0.00  0.00     0.003 A 
ATOM      7  I   UNL d   1       5.595  -5.635  -4.934  0.00  0.00    -0.146 I 
ENDROOT
TORSDOF 0
ENDMDL
