MODEL 1
REMARK minimizedAffinity -0.918164134
REMARK minimizedRMSD -1
REMARK  0 active torsions:
REMARK  status: ('A' for Active; 'I' for Inactive)
ROOT
ATOM      1  C1  BNZ d   1      -0.721   4.729  -2.697  0.00  0.00     0.000 A 
ATOM      2  C2  BNZ d   1      -2.035   4.996  -2.417  0.00  0.00     0.000 A 
ATOM      3  C3  BNZ d   1      -3.019   4.117  -2.772  0.00  0.00     0.000 A 
ATOM      4  C4  BNZ d   1      -2.693   2.992  -3.440  0.00  0.00     0.000 A 
ATOM      5  C5  BNZ d   1      -1.374   2.712  -3.738  0.00  0.00     0.000 A 
ATOM      6  C6  BNZ d   1      -0.382   3.581  -3.345  0.00  0.00     0.000 A 
ENDROOT
TORSDOF 0
ENDMDL
