MODEL 1
REMARK minimizedAffinity 4.39989471
REMARK minimizedRMSD -1
REMARK  0 active torsions:
REMARK  status: ('A' for Active; 'I' for Inactive)
ROOT
ATOM      1  C1  BNZ d   1      -3.074   2.161   1.895  0.00  0.00     0.000 A 
ATOM      2  C2  BNZ d   1      -2.435   0.984   2.183  0.00  0.00     0.000 A 
ATOM      3  C3  BNZ d   1      -3.111  -0.204   2.153  0.00  0.00     0.000 A 
ATOM      4  C4  BNZ d   1      -4.430  -0.210   1.874  0.00  0.00     0.000 A 
ATOM      5  C5  BNZ d   1      -5.090   0.970   1.590  0.00  0.00     0.000 A 
ATOM      6  C6  BNZ d   1      -4.398   2.159   1.584  0.00  0.00     0.000 A 
ENDROOT
TORSDOF 0
ENDMDL
