MODEL 1
REMARK minimizedAffinity 1.8822788
REMARK minimizedRMSD -1
REMARK  0 active torsions:
REMARK  status: ('A' for Active; 'I' for Inactive)
ROOT
ATOM      1  C1  BNZ d   1       5.302  -0.339  -2.482  0.00  0.00     0.000 A 
ATOM      2  C2  BNZ d   1       5.010  -1.597  -2.027  0.00  0.00     0.000 A 
ATOM      3  C3  BNZ d   1       3.877  -1.832  -1.300  0.00  0.00     0.000 A 
ATOM      4  C4  BNZ d   1       3.058  -0.804  -0.996  0.00  0.00     0.000 A 
ATOM      5  C5  BNZ d   1       3.344   0.471  -1.441  0.00  0.00     0.000 A 
ATOM      6  C6  BNZ d   1       4.466   0.698  -2.205  0.00  0.00     0.000 A 
ENDROOT
TORSDOF 0
ENDMDL
