MODEL 1
REMARK minimizedAffinity 3.6374104
REMARK minimizedRMSD -1
REMARK  0 active torsions:
REMARK  status: ('A' for Active; 'I' for Inactive)
ROOT
ATOM      1  C1  BNZ d   1      -4.762   2.965   0.497  0.00  0.00     0.000 A 
ATOM      2  C2  BNZ d   1      -3.691   2.273   0.995  0.00  0.00     0.000 A 
ATOM      3  C3  BNZ d   1      -3.774   1.623   2.195  0.00  0.00     0.000 A 
ATOM      4  C4  BNZ d   1      -4.913   1.700   2.913  0.00  0.00     0.000 A 
ATOM      5  C5  BNZ d   1      -5.998   2.402   2.429  0.00  0.00     0.000 A 
ATOM      6  C6  BNZ d   1      -5.924   3.022   1.203  0.00  0.00     0.000 A 
ENDROOT
TORSDOF 0
ENDMDL
