MODEL 1
REMARK minimizedAffinity 0.927398086
REMARK minimizedRMSD -1
REMARK  0 active torsions:
REMARK  status: ('A' for Active; 'I' for Inactive)
ROOT
ATOM      1  C1  BNZ d   1      -2.398   3.671   1.128  0.00  0.00     0.000 A 
ATOM      2  C2  BNZ d   1      -1.088   3.690   0.730  0.00  0.00     0.000 A 
ATOM      3  C3  BNZ d   1      -0.369   4.852   0.743  0.00  0.00     0.000 A 
ATOM      4  C4  BNZ d   1      -0.971   6.000   1.115  0.00  0.00     0.000 A 
ATOM      5  C5  BNZ d   1      -2.294   5.999   1.511  0.00  0.00     0.000 A 
ATOM      6  C6  BNZ d   1      -3.004   4.820   1.534  0.00  0.00     0.000 A 
ENDROOT
TORSDOF 0
ENDMDL
