MODEL 1
REMARK minimizedAffinity 1.43751407
REMARK minimizedRMSD -1
REMARK  0 active torsions:
REMARK  status: ('A' for Active; 'I' for Inactive)
ROOT
ATOM      1  C1  BNZ d   1      -1.669   4.159  -3.334  0.00  0.00     0.000 A 
ATOM      2  C2  BNZ d   1      -2.271   3.029  -3.821  0.00  0.00     0.000 A 
ATOM      3  C3  BNZ d   1      -1.525   1.957  -4.225  0.00  0.00     0.000 A 
ATOM      4  C4  BNZ d   1      -0.179   2.031  -4.180  0.00  0.00     0.000 A 
ATOM      5  C5  BNZ d   1       0.443   3.167  -3.700  0.00  0.00     0.000 A 
ATOM      6  C6  BNZ d   1      -0.312   4.229  -3.258  0.00  0.00     0.000 A 
ENDROOT
TORSDOF 0
ENDMDL
