MODEL 1
REMARK minimizedAffinity -0.0393442176
REMARK minimizedRMSD -1
REMARK  0 active torsions:
REMARK  status: ('A' for Active; 'I' for Inactive)
ROOT
ATOM      1  C1  BNZ d   1      -1.096   5.990  -0.938  0.00  0.00     0.000 A 
ATOM      2  C2  BNZ d   1      -0.333   6.000   0.199  0.00  0.00     0.000 A 
ATOM      3  C3  BNZ d   1      -0.918   5.983   1.435  0.00  0.00     0.000 A 
ATOM      4  C4  BNZ d   1      -2.263   5.997   1.532  0.00  0.00     0.000 A 
ATOM      5  C5  BNZ d   1      -3.046   5.997   0.394  0.00  0.00     0.000 A 
ATOM      6  C6  BNZ d   1      -2.453   5.975  -0.848  0.00  0.00     0.000 A 
ENDROOT
TORSDOF 0
ENDMDL
