MODEL 1
REMARK minimizedAffinity 2.95357943
REMARK minimizedRMSD -1
REMARK  0 active torsions:
REMARK  status: ('A' for Active; 'I' for Inactive)
ROOT
ATOM      1  C1  BNZ d   1      -2.347   5.425  -2.102  0.00  0.00     0.000 A 
ATOM      2  C2  BNZ d   1      -2.586   4.243  -2.750  0.00  0.00     0.000 A 
ATOM      3  C3  BNZ d   1      -1.597   3.619  -3.457  0.00  0.00     0.000 A 
ATOM      4  C4  BNZ d   1      -0.382   4.198  -3.549  0.00  0.00     0.000 A 
ATOM      5  C5  BNZ d   1      -0.127   5.394  -2.909  0.00  0.00     0.000 A 
ATOM      6  C6  BNZ d   1      -1.115   5.999  -2.166  0.00  0.00     0.000 A 
ENDROOT
TORSDOF 0
ENDMDL
