MODEL 1
REMARK minimizedAffinity 7.87571573
REMARK minimizedRMSD -1
REMARK  0 active torsions:
REMARK  status: ('A' for Active; 'I' for Inactive)
ROOT
ATOM      1  C1  BNZ d   1       0.156   3.702  -3.169  0.00  0.00     0.000 A 
ATOM      2  C2  BNZ d   1       0.879   2.687  -3.737  0.00  0.00     0.000 A 
ATOM      3  C3  BNZ d   1       0.304   1.472  -3.987  0.00  0.00     0.000 A 
ATOM      4  C4  BNZ d   1      -0.980   1.261  -3.632  0.00  0.00     0.000 A 
ATOM      5  C5  BNZ d   1      -1.719   2.271  -3.050  0.00  0.00     0.000 A 
ATOM      6  C6  BNZ d   1      -1.149   3.505  -2.836  0.00  0.00     0.000 A 
ENDROOT
TORSDOF 0
ENDMDL
