MODEL 1
REMARK minimizedAffinity -1.02599025
REMARK minimizedRMSD -1
REMARK  0 active torsions:
REMARK  status: ('A' for Active; 'I' for Inactive)
ROOT
ATOM      1  C1  BNZ d   1       4.732   0.157  -2.328  0.00  0.00     0.000 A 
ATOM      2  C2  BNZ d   1       4.786  -1.146  -1.908  0.00  0.00     0.000 A 
ATOM      3  C3  BNZ d   1       3.797  -1.670  -1.124  0.00  0.00     0.000 A 
ATOM      4  C4  BNZ d   1       2.777  -0.882  -0.728  0.00  0.00     0.000 A 
ATOM      5  C5  BNZ d   1       2.713   0.436  -1.135  0.00  0.00     0.000 A 
ATOM      6  C6  BNZ d   1       3.690   0.949  -1.956  0.00  0.00     0.000 A 
ENDROOT
TORSDOF 0
ENDMDL
