MODEL 1
REMARK minimizedAffinity 1.46698618
REMARK minimizedRMSD -1
REMARK  0 active torsions:
REMARK  status: ('A' for Active; 'I' for Inactive)
ROOT
ATOM      1  C1  BNZ d   1       4.198  -0.178  -0.796  0.00  0.00     0.000 A 
ATOM      2  C2  BNZ d   1       3.844  -1.039   0.208  0.00  0.00     0.000 A 
ATOM      3  C3  BNZ d   1       3.151  -2.185  -0.064  0.00  0.00     0.000 A 
ATOM      4  C4  BNZ d   1       2.778  -2.449  -1.333  0.00  0.00     0.000 A 
ATOM      5  C5  BNZ d   1       3.120  -1.587  -2.356  0.00  0.00     0.000 A 
ATOM      6  C6  BNZ d   1       3.851  -0.453  -2.083  0.00  0.00     0.000 A 
ENDROOT
TORSDOF 0
ENDMDL
