MODEL 1
REMARK minimizedAffinity 6.46227598
REMARK minimizedRMSD -1
REMARK  0 active torsions:
REMARK  status: ('A' for Active; 'I' for Inactive)
ROOT
ATOM      1  C1  BNZ d   1      -4.263  -4.081   1.764  0.00  0.00     0.000 A 
ATOM      2  C2  BNZ d   1      -4.637  -5.335   1.361  0.00  0.00     0.000 A 
ATOM      3  C3  BNZ d   1      -4.701  -5.654   0.033  0.00  0.00     0.000 A 
ATOM      4  C4  BNZ d   1      -4.432  -4.708  -0.889  0.00  0.00     0.000 A 
ATOM      5  C5  BNZ d   1      -4.063  -3.436  -0.499  0.00  0.00     0.000 A 
ATOM      6  C6  BNZ d   1      -3.961  -3.130   0.839  0.00  0.00     0.000 A 
ENDROOT
TORSDOF 0
ENDMDL
