MODEL 1
REMARK minimizedAffinity 4.10006285
REMARK minimizedRMSD -1
REMARK  0 active torsions:
REMARK  status: ('A' for Active; 'I' for Inactive)
ROOT
ATOM      1  C1  BNZ d   1      -0.986   1.254  -3.615  0.00  0.00     0.000 A 
ATOM      2  C2  BNZ d   1      -1.788   2.180  -3.002  0.00  0.00     0.000 A 
ATOM      3  C3  BNZ d   1      -1.280   3.377  -2.582  0.00  0.00     0.000 A 
ATOM      4  C4  BNZ d   1       0.035   3.631  -2.738  0.00  0.00     0.000 A 
ATOM      5  C5  BNZ d   1       0.859   2.705  -3.346  0.00  0.00     0.000 A 
ATOM      6  C6  BNZ d   1       0.336   1.517  -3.803  0.00  0.00     0.000 A 
ENDROOT
TORSDOF 0
ENDMDL
