MODEL 1
REMARK minimizedAffinity 1.11322963
REMARK minimizedRMSD -1
REMARK  0 active torsions:
REMARK  status: ('A' for Active; 'I' for Inactive)
ROOT
ATOM      1  C1  BNZ d   1       4.049  -0.538  -1.007  0.00  0.00     0.000 A 
ATOM      2  C2  BNZ d   1       2.938  -1.266  -0.674  0.00  0.00     0.000 A 
ATOM      3  C3  BNZ d   1       2.500  -2.281  -1.478  0.00  0.00     0.000 A 
ATOM      4  C4  BNZ d   1       3.148  -2.540  -2.632  0.00  0.00     0.000 A 
ATOM      5  C5  BNZ d   1       4.264  -1.808  -2.986  0.00  0.00     0.000 A 
ATOM      6  C6  BNZ d   1       4.725  -0.813  -2.155  0.00  0.00     0.000 A 
ENDROOT
TORSDOF 0
ENDMDL
