MODEL 1
REMARK minimizedAffinity 1.05019605
REMARK minimizedRMSD -1
REMARK  0 active torsions:
REMARK  status: ('A' for Active; 'I' for Inactive)
ROOT
ATOM      1  C1  BNZ d   1       3.727  -1.949  -1.762  0.00  0.00     0.000 A 
ATOM      2  C2  BNZ d   1       4.837  -1.733  -2.534  0.00  0.00     0.000 A 
ATOM      3  C3  BNZ d   1       5.396  -0.488  -2.622  0.00  0.00     0.000 A 
ATOM      4  C4  BNZ d   1       4.822   0.544  -1.972  0.00  0.00     0.000 A 
ATOM      5  C5  BNZ d   1       3.697   0.344  -1.197  0.00  0.00     0.000 A 
ATOM      6  C6  BNZ d   1       3.160  -0.918  -1.079  0.00  0.00     0.000 A 
ENDROOT
TORSDOF 0
ENDMDL
