MODEL 1
REMARK minimizedAffinity 2.29693699
REMARK minimizedRMSD -1
REMARK  0 active torsions:
REMARK  status: ('A' for Active; 'I' for Inactive)
ROOT
ATOM      1  C1  BNZ d   1       0.561   3.654  -2.272  0.00  0.00     0.000 A 
ATOM      2  C2  BNZ d   1       1.130   2.947  -3.298  0.00  0.00     0.000 A 
ATOM      3  C3  BNZ d   1       0.382   2.092  -4.058  0.00  0.00     0.000 A 
ATOM      4  C4  BNZ d   1      -0.923   1.914  -3.766  0.00  0.00     0.000 A 
ATOM      5  C5  BNZ d   1      -1.509   2.611  -2.729  0.00  0.00     0.000 A 
ATOM      6  C6  BNZ d   1      -0.762   3.501  -1.991  0.00  0.00     0.000 A 
ENDROOT
TORSDOF 0
ENDMDL
