MODEL 1
REMARK minimizedAffinity 3.98677397
REMARK minimizedRMSD -1
REMARK  0 active torsions:
REMARK  status: ('A' for Active; 'I' for Inactive)
ROOT
ATOM      1  C1  BNZ d   1      -1.115   1.442  -4.127  0.00  0.00     0.000 A 
ATOM      2  C2  BNZ d   1      -1.764   2.232  -3.216  0.00  0.00     0.000 A 
ATOM      3  C3  BNZ d   1      -1.135   3.302  -2.644  0.00  0.00     0.000 A 
ATOM      4  C4  BNZ d   1       0.153   3.557  -2.953  0.00  0.00     0.000 A 
ATOM      5  C5  BNZ d   1       0.824   2.764  -3.863  0.00  0.00     0.000 A 
ATOM      6  C6  BNZ d   1       0.175   1.711  -4.466  0.00  0.00     0.000 A 
ENDROOT
TORSDOF 0
ENDMDL
