MODEL 1
REMARK minimizedAffinity 11.5806017
REMARK minimizedRMSD -1
REMARK  0 active torsions:
REMARK  status: ('A' for Active; 'I' for Inactive)
ROOT
ATOM      1  C2' OXE d   1       3.036  -2.544  -0.112  0.00  0.00     0.078 C 
ATOM      2  C1' OXE d   1       3.080   0.261   0.008  0.00  0.00     0.078 C 
ATOM      3  C1  OXE d   1       2.468  -0.382  -1.212  0.00  0.00    -0.078 A 
ATOM      4  C2  OXE d   1       2.493  -1.754  -1.283  0.00  0.00    -0.078 A 
ATOM      5  C3  OXE d   1       1.893  -2.399  -2.361  0.00  0.00     0.003 A 
ATOM      6  C4  OXE d   1       1.401  -1.662  -3.444  0.00  0.00    -0.002 A 
ATOM      7  C5  OXE d   1       1.402  -0.263  -3.410  0.00  0.00    -0.002 A 
ATOM      8  C6  OXE d   1       1.892   0.391  -2.285  0.00  0.00     0.003 A 
ENDROOT
TORSDOF 0
ENDMDL
