MODEL 1
REMARK minimizedAffinity 7.77108383
REMARK minimizedRMSD -1
REMARK  0 active torsions:
REMARK  status: ('A' for Active; 'I' for Inactive)
ROOT
ATOM      1  C2' OXE d   1       2.504  -4.865  -0.748  0.00  0.00     0.078 C 
ATOM      2  C1' OXE d   1       0.315  -4.117  -2.339  0.00  0.00     0.078 C 
ATOM      3  C1  OXE d   1       1.164  -3.018  -1.749  0.00  0.00    -0.078 A 
ATOM      4  C2  OXE d   1       2.205  -3.393  -0.934  0.00  0.00    -0.078 A 
ATOM      5  C3  OXE d   1       3.052  -2.421  -0.408  0.00  0.00     0.003 A 
ATOM      6  C4  OXE d   1       2.763  -1.062  -0.576  0.00  0.00    -0.002 A 
ATOM      7  C5  OXE d   1       1.684  -0.659  -1.370  0.00  0.00    -0.002 A 
ATOM      8  C6  OXE d   1       0.902  -1.622  -1.997  0.00  0.00     0.003 A 
ENDROOT
TORSDOF 0
ENDMDL
