MODEL 1
REMARK minimizedAffinity 6.36325407
REMARK minimizedRMSD -1
REMARK  0 active torsions:
REMARK  status: ('A' for Active; 'I' for Inactive)
ROOT
ATOM      1  C2' OXE d   1       1.244  -4.252  -3.391  0.00  0.00     0.078 C 
ATOM      2  C1' OXE d   1       3.641  -4.361  -1.935  0.00  0.00     0.078 C 
ATOM      3  C1  OXE d   1       2.775  -3.136  -1.773  0.00  0.00    -0.078 A 
ATOM      4  C2  OXE d   1       1.627  -3.071  -2.525  0.00  0.00    -0.078 A 
ATOM      5  C3  OXE d   1       0.764  -1.989  -2.374  0.00  0.00     0.003 A 
ATOM      6  C4  OXE d   1       1.131  -0.896  -1.579  0.00  0.00    -0.002 A 
ATOM      7  C5  OXE d   1       2.315  -0.925  -0.835  0.00  0.00    -0.002 A 
ATOM      8  C6  OXE d   1       3.126  -2.053  -0.888  0.00  0.00     0.003 A 
ENDROOT
TORSDOF 0
ENDMDL
