MODEL 1
REMARK minimizedAffinity 12.1721172
REMARK minimizedRMSD -1
REMARK  0 active torsions:
REMARK  status: ('A' for Active; 'I' for Inactive)
ROOT
ATOM      1  C2' OXE d   1       1.872  -4.781  -0.748  0.00  0.00     0.078 C 
ATOM      2  C1' OXE d   1      -0.317  -3.448  -1.893  0.00  0.00     0.078 C 
ATOM      3  C1  OXE d   1       0.899  -2.629  -1.540  0.00  0.00    -0.078 A 
ATOM      4  C2  OXE d   1       1.948  -3.282  -0.938  0.00  0.00    -0.078 A 
ATOM      5  C3  OXE d   1       3.115  -2.584  -0.641  0.00  0.00     0.003 A 
ATOM      6  C4  OXE d   1       3.173  -1.195  -0.811  0.00  0.00    -0.002 A 
ATOM      7  C5  OXE d   1       2.102  -0.505  -1.386  0.00  0.00    -0.002 A 
ATOM      8  C6  OXE d   1       0.976  -1.212  -1.795  0.00  0.00     0.003 A 
ENDROOT
TORSDOF 0
ENDMDL
