MODEL 1
REMARK minimizedAffinity 5.50751972
REMARK minimizedRMSD -1
REMARK  0 active torsions:
REMARK  status: ('A' for Active; 'I' for Inactive)
ROOT
ATOM      1  C2' OXE d   1       2.934  -4.144  -0.261  0.00  0.00     0.078 C 
ATOM      2  C1' OXE d   1       4.926  -2.239   0.270  0.00  0.00     0.078 C 
ATOM      3  C1  OXE d   1       3.664  -1.767  -0.407  0.00  0.00    -0.078 A 
ATOM      4  C2  OXE d   1       2.714  -2.714  -0.705  0.00  0.00    -0.078 A 
ATOM      5  C3  OXE d   1       1.508  -2.324  -1.280  0.00  0.00     0.003 A 
ATOM      6  C4  OXE d   1       1.316  -1.001  -1.697  0.00  0.00    -0.002 A 
ATOM      7  C5  OXE d   1       2.287  -0.028  -1.439  0.00  0.00    -0.002 A 
ATOM      8  C6  OXE d   1       3.446  -0.385  -0.758  0.00  0.00     0.003 A 
ENDROOT
TORSDOF 0
ENDMDL
