MODEL 1
REMARK minimizedAffinity 6.53690958
REMARK minimizedRMSD -1
REMARK  0 active torsions:
REMARK  status: ('A' for Active; 'I' for Inactive)
ROOT
ATOM      1  C2' OXE d   1       0.999  -2.676  -1.370  0.00  0.00     0.078 C 
ATOM      2  C1' OXE d   1       3.693  -3.364  -0.987  0.00  0.00     0.078 C 
ATOM      3  C1  OXE d   1       3.357  -1.904  -1.154  0.00  0.00    -0.078 A 
ATOM      4  C2  OXE d   1       2.042  -1.580  -1.388  0.00  0.00    -0.078 A 
ATOM      5  C3  OXE d   1       1.670  -0.243  -1.495  0.00  0.00     0.003 A 
ATOM      6  C4  OXE d   1       2.643   0.764  -1.520  0.00  0.00    -0.002 A 
ATOM      7  C5  OXE d   1       3.992   0.452  -1.324  0.00  0.00    -0.002 A 
ATOM      8  C6  OXE d   1       4.360  -0.869  -1.097  0.00  0.00     0.003 A 
ENDROOT
TORSDOF 0
ENDMDL
