MODEL 1
REMARK minimizedAffinity 11.1921053
REMARK minimizedRMSD -1
REMARK  0 active torsions:
REMARK  status: ('A' for Active; 'I' for Inactive)
ROOT
ATOM      1  C2' OXE d   1       2.411  -3.319  -1.859  0.00  0.00     0.078 C 
ATOM      2  C1' OXE d   1       1.262  -0.939  -2.805  0.00  0.00     0.078 C 
ATOM      3  C1  OXE d   1       2.048  -1.777  -3.782  0.00  0.00    -0.078 A 
ATOM      4  C2  OXE d   1       2.646  -2.916  -3.299  0.00  0.00    -0.078 A 
ATOM      5  C3  OXE d   1       3.337  -3.754  -4.170  0.00  0.00     0.003 A 
ATOM      6  C4  OXE d   1       3.558  -3.368  -5.498  0.00  0.00    -0.002 A 
ATOM      7  C5  OXE d   1       2.991  -2.192  -6.000  0.00  0.00    -0.002 A 
ATOM      8  C6  OXE d   1       2.199  -1.408  -5.168  0.00  0.00     0.003 A 
ENDROOT
TORSDOF 0
ENDMDL
