MODEL 1
REMARK minimizedAffinity 9.73290348
REMARK minimizedRMSD -1
REMARK  0 active torsions:
REMARK  status: ('A' for Active; 'I' for Inactive)
ROOT
ATOM      1  C2' OXE d   1      -4.143  -0.292   2.320  0.00  0.00     0.078 C 
ATOM      2  C1' OXE d   1      -3.820   2.068   3.805  0.00  0.00     0.078 C 
ATOM      3  C1  OXE d   1      -2.577   1.377   3.303  0.00  0.00    -0.078 A 
ATOM      4  C2  OXE d   1      -2.742   0.198   2.618  0.00  0.00    -0.078 A 
ATOM      5  C3  OXE d   1      -1.632  -0.452   2.086  0.00  0.00     0.003 A 
ATOM      6  C4  OXE d   1      -0.340   0.002   2.375  0.00  0.00    -0.002 A 
ATOM      7  C5  OXE d   1      -0.147   1.180   3.105  0.00  0.00    -0.002 A 
ATOM      8  C6  OXE d   1      -1.254   1.901   3.539  0.00  0.00     0.003 A 
ENDROOT
TORSDOF 0
ENDMDL
