MODEL 1
REMARK minimizedAffinity 10.0453882
REMARK minimizedRMSD -1
REMARK  0 active torsions:
REMARK  status: ('A' for Active; 'I' for Inactive)
ROOT
ATOM      1  C2' OXE d   1       3.474  -2.354  -0.425  0.00  0.00     0.078 C 
ATOM      2  C1' OXE d   1       4.232   0.322  -0.050  0.00  0.00     0.078 C 
ATOM      3  C1  OXE d   1       3.107   0.039  -1.013  0.00  0.00    -0.078 A 
ATOM      4  C2  OXE d   1       2.774  -1.277  -1.226  0.00  0.00    -0.078 A 
ATOM      5  C3  OXE d   1       1.707  -1.591  -2.064  0.00  0.00     0.003 A 
ATOM      6  C4  OXE d   1       1.072  -0.590  -2.808  0.00  0.00    -0.002 A 
ATOM      7  C5  OXE d   1       1.423   0.753  -2.636  0.00  0.00    -0.002 A 
ATOM      8  C6  OXE d   1       2.407   1.087  -1.713  0.00  0.00     0.003 A 
ENDROOT
TORSDOF 0
ENDMDL
