MODEL 1
REMARK minimizedAffinity 9.10277843
REMARK minimizedRMSD -1
REMARK  0 active torsions:
REMARK  status: ('A' for Active; 'I' for Inactive)
ROOT
ATOM      1  C2' OXE d   1      -2.279  -5.633   1.139  0.00  0.00     0.078 C 
ATOM      2  C1' OXE d   1      -2.179  -5.992  -1.643  0.00  0.00     0.078 C 
ATOM      3  C1  OXE d   1      -3.537  -5.916  -0.992  0.00  0.00    -0.078 A 
ATOM      4  C2  OXE d   1      -3.576  -5.788   0.376  0.00  0.00    -0.078 A 
ATOM      5  C3  OXE d   1      -4.803  -5.658   1.021  0.00  0.00     0.003 A 
ATOM      6  C4  OXE d   1      -5.998  -5.812   0.309  0.00  0.00    -0.002 A 
ATOM      7  C5  OXE d   1      -5.981  -5.984  -1.079  0.00  0.00    -0.002 A 
ATOM      8  C6  OXE d   1      -4.762  -5.996  -1.749  0.00  0.00     0.003 A 
ENDROOT
TORSDOF 0
ENDMDL
