MODEL 1
REMARK minimizedAffinity 5.72021961
REMARK minimizedRMSD -1
REMARK  0 active torsions:
REMARK  status: ('A' for Active; 'I' for Inactive)
ROOT
ATOM      1  C2' OXE d   1       2.925  -3.417  -2.523  0.00  0.00     0.078 C 
ATOM      2  C1' OXE d   1       3.055  -4.397   0.104  0.00  0.00     0.078 C 
ATOM      3  C1  OXE d   1       1.905  -3.487  -0.252  0.00  0.00    -0.078 A 
ATOM      4  C2  OXE d   1       1.875  -2.975  -1.526  0.00  0.00    -0.078 A 
ATOM      5  C3  OXE d   1       0.807  -2.175  -1.923  0.00  0.00     0.003 A 
ATOM      6  C4  OXE d   1      -0.154  -1.764  -0.992  0.00  0.00    -0.002 A 
ATOM      7  C5  OXE d   1      -0.120  -2.242   0.322  0.00  0.00    -0.002 A 
ATOM      8  C6  OXE d   1       0.877  -3.136   0.696  0.00  0.00     0.003 A 
ENDROOT
TORSDOF 0
ENDMDL
