MODEL 1
REMARK minimizedAffinity 4.43292046
REMARK minimizedRMSD -1
REMARK  0 active torsions:
REMARK  status: ('A' for Active; 'I' for Inactive)
ROOT
ATOM      1  C2' OXE d   1      -2.634  -2.038  -4.828  0.00  0.00     0.078 C 
ATOM      2  C1' OXE d   1      -5.281  -2.365  -5.703  0.00  0.00     0.078 C 
ATOM      3  C1  OXE d   1      -4.402  -3.590  -5.647  0.00  0.00    -0.078 A 
ATOM      4  C2  OXE d   1      -3.095  -3.413  -5.262  0.00  0.00    -0.078 A 
ATOM      5  C3  OXE d   1      -2.257  -4.517  -5.140  0.00  0.00     0.003 A 
ATOM      6  C4  OXE d   1      -2.688  -5.784  -5.553  0.00  0.00    -0.002 A 
ATOM      7  C5  OXE d   1      -4.004  -5.979  -5.986  0.00  0.00    -0.002 A 
ATOM      8  C6  OXE d   1      -4.884  -4.903  -5.998  0.00  0.00     0.003 A 
ENDROOT
TORSDOF 0
ENDMDL
