MODEL 1
REMARK minimizedAffinity 11.0846949
REMARK minimizedRMSD -1
REMARK  0 active torsions:
REMARK  status: ('A' for Active; 'I' for Inactive)
ROOT
ATOM      1  C2' OXE d   1       2.886   0.795   0.124  0.00  0.00     0.078 C 
ATOM      2  C1' OXE d   1       2.506  -1.857  -0.714  0.00  0.00     0.078 C 
ATOM      3  C1  OXE d   1       2.245  -0.758  -1.714  0.00  0.00    -0.078 A 
ATOM      4  C2  OXE d   1       2.389   0.538  -1.282  0.00  0.00    -0.078 A 
ATOM      5  C3  OXE d   1       2.214   1.588  -2.179  0.00  0.00     0.003 A 
ATOM      6  C4  OXE d   1       1.744   1.341  -3.475  0.00  0.00    -0.002 A 
ATOM      7  C5  OXE d   1       1.553   0.030  -3.924  0.00  0.00    -0.002 A 
ATOM      8  C6  OXE d   1       1.840  -1.030  -3.071  0.00  0.00     0.003 A 
ENDROOT
TORSDOF 0
ENDMDL
