MODEL 1
REMARK minimizedAffinity 5.25984716
REMARK minimizedRMSD -1
REMARK  0 active torsions:
REMARK  status: ('A' for Active; 'I' for Inactive)
ROOT
ATOM      1  C2' OXE d   1       4.294  -3.157  -0.444  0.00  0.00     0.078 C 
ATOM      2  C1' OXE d   1       2.481  -5.299  -0.527  0.00  0.00     0.078 C 
ATOM      3  C1  OXE d   1       1.968  -3.928  -0.892  0.00  0.00    -0.078 A 
ATOM      4  C2  OXE d   1       2.850  -2.878  -0.804  0.00  0.00    -0.078 A 
ATOM      5  C3  OXE d   1       2.443  -1.602  -1.181  0.00  0.00     0.003 A 
ATOM      6  C4  OXE d   1       1.104  -1.351  -1.503  0.00  0.00    -0.002 A 
ATOM      7  C5  OXE d   1       0.179  -2.399  -1.560  0.00  0.00    -0.002 A 
ATOM      8  C6  OXE d   1       0.604  -3.697  -1.300  0.00  0.00     0.003 A 
ENDROOT
TORSDOF 0
ENDMDL
