MODEL 1
REMARK minimizedAffinity 9.20174885
REMARK minimizedRMSD -1
REMARK  0 active torsions:
REMARK  status: ('A' for Active; 'I' for Inactive)
ROOT
ATOM      1  C2' OXE d   1      -0.008  -0.636  -3.089  0.00  0.00     0.078 C 
ATOM      2  C1' OXE d   1       1.918  -2.154  -1.721  0.00  0.00     0.078 C 
ATOM      3  C1  OXE d   1       2.035  -2.056  -3.222  0.00  0.00    -0.078 A 
ATOM      4  C2  OXE d   1       1.062  -1.349  -3.887  0.00  0.00    -0.078 A 
ATOM      5  C3  OXE d   1       1.153  -1.181  -5.266  0.00  0.00     0.003 A 
ATOM      6  C4  OXE d   1       2.140  -1.853  -5.998  0.00  0.00    -0.002 A 
ATOM      7  C5  OXE d   1       3.118  -2.610  -5.344  0.00  0.00    -0.002 A 
ATOM      8  C6  OXE d   1       3.105  -2.686  -3.955  0.00  0.00     0.003 A 
ENDROOT
TORSDOF 0
ENDMDL
