MODEL 1
REMARK minimizedAffinity 9.44063187
REMARK minimizedRMSD -1
REMARK  0 active torsions:
REMARK  status: ('A' for Active; 'I' for Inactive)
ROOT
ATOM      1  C2' OXE d   1       2.390  -5.408  -0.251  0.00  0.00     0.078 C 
ATOM      2  C1' OXE d   1       3.929  -3.061  -0.245  0.00  0.00     0.078 C 
ATOM      3  C1  OXE d   1       2.500  -2.964  -0.716  0.00  0.00    -0.078 A 
ATOM      4  C2  OXE d   1       1.768  -4.126  -0.760  0.00  0.00    -0.078 A 
ATOM      5  C3  OXE d   1       0.428  -4.083  -1.135  0.00  0.00     0.003 A 
ATOM      6  C4  OXE d   1      -0.136  -2.895  -1.614  0.00  0.00    -0.002 A 
ATOM      7  C5  OXE d   1       0.603  -1.708  -1.615  0.00  0.00    -0.002 A 
ATOM      8  C6  OXE d   1       1.907  -1.716  -1.131  0.00  0.00     0.003 A 
ENDROOT
TORSDOF 0
ENDMDL
