MODEL 1
REMARK minimizedAffinity 3.37658238
REMARK minimizedRMSD -1
REMARK  0 active torsions:
REMARK  status: ('A' for Active; 'I' for Inactive)
ROOT
ATOM      1  C2' OXE d   1       1.416  -1.189  -3.734  0.00  0.00     0.078 C 
ATOM      2  C1' OXE d   1      -0.965  -2.122  -2.577  0.00  0.00     0.078 C 
ATOM      3  C1  OXE d   1       0.320  -2.344  -1.819  0.00  0.00    -0.078 A 
ATOM      4  C2  OXE d   1       1.485  -1.925  -2.414  0.00  0.00    -0.078 A 
ATOM      5  C3  OXE d   1       2.692  -2.057  -1.733  0.00  0.00     0.003 A 
ATOM      6  C4  OXE d   1       2.749  -2.748  -0.517  0.00  0.00    -0.002 A 
ATOM      7  C5  OXE d   1       1.578  -3.218   0.088  0.00  0.00    -0.002 A 
ATOM      8  C6  OXE d   1       0.353  -2.986  -0.528  0.00  0.00     0.003 A 
ENDROOT
TORSDOF 0
ENDMDL
