MODEL 1
REMARK minimizedAffinity 8.30546665
REMARK minimizedRMSD -1
REMARK  0 active torsions:
REMARK  status: ('A' for Active; 'I' for Inactive)
ROOT
ATOM      1  C2' OXE d   1       3.617  -2.208  -0.103  0.00  0.00     0.078 C 
ATOM      2  C1' OXE d   1       4.520   0.398   0.418  0.00  0.00     0.078 C 
ATOM      3  C1  OXE d   1       3.588   0.197  -0.751  0.00  0.00    -0.078 A 
ATOM      4  C2  OXE d   1       3.188  -1.088  -1.027  0.00  0.00    -0.078 A 
ATOM      5  C3  OXE d   1       2.285  -1.322  -2.060  0.00  0.00     0.003 A 
ATOM      6  C4  OXE d   1       1.901  -0.282  -2.915  0.00  0.00    -0.002 A 
ATOM      7  C5  OXE d   1       2.329   1.028  -2.676  0.00  0.00    -0.002 A 
ATOM      8  C6  OXE d   1       3.136   1.291  -1.575  0.00  0.00     0.003 A 
ENDROOT
TORSDOF 0
ENDMDL
