MODEL 1
REMARK minimizedAffinity 8.25392246
REMARK minimizedRMSD -1
REMARK  0 active torsions:
REMARK  status: ('A' for Active; 'I' for Inactive)
ROOT
ATOM      1  C   UNL d   1      -1.100  -4.148  -0.009  0.00  0.00     0.023 A 
ATOM      2  C1  UNL d   1      -0.947  -5.475   0.394  0.00  0.00     0.003 A 
ATOM      3  C2  UNL d   1       0.330  -6.000   0.603  0.00  0.00     0.048 A 
ATOM      4  C3  UNL d   1       1.450  -5.193   0.407  0.00  0.00     0.023 A 
ATOM      5  C4  UNL d   1       1.302  -3.864   0.005  0.00  0.00     0.048 A 
ATOM      6  C5  UNL d   1       0.023  -3.344  -0.203  0.00  0.00     0.003 A 
ATOM      7  I   UNL d   1       3.351  -5.972   0.717  0.00  0.00    -0.146 I 
ENDROOT
TORSDOF 0
ENDMDL
