MODEL 1
REMARK minimizedAffinity 10.4373264
REMARK minimizedRMSD -1
REMARK  0 active torsions:
REMARK  status: ('A' for Active; 'I' for Inactive)
ROOT
ATOM      1  C   UNL d   1      -0.589  -3.921   1.353  0.00  0.00     0.023 A 
ATOM      2  C1  UNL d   1      -1.016  -4.266   0.070  0.00  0.00     0.003 A 
ATOM      3  C2  UNL d   1      -2.253  -3.819  -0.399  0.00  0.00     0.048 A 
ATOM      4  C3  UNL d   1      -3.058  -3.027   0.420  0.00  0.00     0.023 A 
ATOM      5  C4  UNL d   1      -2.634  -2.679   1.704  0.00  0.00     0.048 A 
ATOM      6  C5  UNL d   1      -1.397  -3.129   2.169  0.00  0.00     0.003 A 
ATOM      7  I   UNL d   1      -4.899  -2.360  -0.276  0.00  0.00    -0.146 I 
ENDROOT
TORSDOF 0
ENDMDL
