MODEL 1
REMARK minimizedAffinity 12.0770741
REMARK minimizedRMSD -1
REMARK  0 active torsions:
REMARK  status: ('A' for Active; 'I' for Inactive)
ROOT
ATOM      1  C   UNL d   1       0.460  -1.243   5.316  0.00  0.00     0.023 A 
ATOM      2  C1  UNL d   1       1.457  -1.120   4.348  0.00  0.00     0.003 A 
ATOM      3  C2  UNL d   1       1.247  -1.619   3.061  0.00  0.00     0.048 A 
ATOM      4  C3  UNL d   1       0.038  -2.239   2.748  0.00  0.00     0.023 A 
ATOM      5  C4  UNL d   1      -0.963  -2.363   3.713  0.00  0.00     0.048 A 
ATOM      6  C5  UNL d   1      -0.748  -1.863   4.999  0.00  0.00     0.003 A 
ATOM      7  I   UNL d   1      -0.276  -2.983   0.833  0.00  0.00    -0.146 I 
ENDROOT
TORSDOF 0
ENDMDL
