MODEL 1
REMARK minimizedAffinity 0.650175452
REMARK minimizedRMSD -1
REMARK  0 active torsions:
REMARK  status: ('A' for Active; 'I' for Inactive)
ROOT
ATOM      1  C   UNL d   1      -5.993   0.547   1.036  0.00  0.00     0.023 A 
ATOM      2  C1  UNL d   1      -5.988   1.589   1.963  0.00  0.00     0.003 A 
ATOM      3  C2  UNL d   1      -5.990   1.309   3.331  0.00  0.00     0.048 A 
ATOM      4  C3  UNL d   1      -5.996  -0.017   3.765  0.00  0.00     0.023 A 
ATOM      5  C4  UNL d   1      -6.000  -1.063   2.840  0.00  0.00     0.048 A 
ATOM      6  C5  UNL d   1      -5.999  -0.777   1.474  0.00  0.00     0.003 A 
ATOM      7  I   UNL d   1      -5.999  -0.437   5.800  0.00  0.00    -0.146 I 
ENDROOT
TORSDOF 0
ENDMDL
