MODEL 1
REMARK minimizedAffinity 5.11542845
REMARK minimizedRMSD -1
REMARK  0 active torsions:
REMARK  status: ('A' for Active; 'I' for Inactive)
ROOT
ATOM      1  C   UNL d   1      -3.903   0.177  -1.538  0.00  0.00     0.023 A 
ATOM      2  C1  UNL d   1      -4.402  -0.763  -0.636  0.00  0.00     0.003 A 
ATOM      3  C2  UNL d   1      -3.550  -1.720  -0.081  0.00  0.00     0.048 A 
ATOM      4  C3  UNL d   1      -2.200  -1.730  -0.430  0.00  0.00     0.023 A 
ATOM      5  C4  UNL d   1      -1.697  -0.791  -1.332  0.00  0.00     0.048 A 
ATOM      6  C5  UNL d   1      -2.552   0.163  -1.885  0.00  0.00     0.003 A 
ATOM      7  I   UNL d   1      -0.930  -3.153   0.396  0.00  0.00    -0.146 I 
ENDROOT
TORSDOF 0
ENDMDL
