MODEL 1
REMARK minimizedAffinity 4.01979256
REMARK minimizedRMSD -1
REMARK  0 active torsions:
REMARK  status: ('A' for Active; 'I' for Inactive)
ROOT
ATOM      1  C   UNL d   1       3.739  -2.728   2.960  0.00  0.00     0.023 A 
ATOM      2  C1  UNL d   1       3.809  -3.111   4.300  0.00  0.00     0.003 A 
ATOM      3  C2  UNL d   1       2.757  -2.815   5.168  0.00  0.00     0.048 A 
ATOM      4  C3  UNL d   1       1.636  -2.137   4.690  0.00  0.00     0.023 A 
ATOM      5  C4  UNL d   1       1.560  -1.753   3.351  0.00  0.00     0.048 A 
ATOM      6  C5  UNL d   1       2.616  -2.050   2.486  0.00  0.00     0.003 A 
ATOM      7  I   UNL d   1       0.068  -1.696   5.981  0.00  0.00    -0.146 I 
ENDROOT
TORSDOF 0
ENDMDL
