MODEL 1
REMARK minimizedAffinity 5.42043877
REMARK minimizedRMSD -1
REMARK  0 active torsions:
REMARK  status: ('A' for Active; 'I' for Inactive)
ROOT
ATOM      1  C   UNL d   1       1.589  -0.736   3.539  0.00  0.00     0.077 C 
ATOM      2  C1  UNL d   1       1.869  -1.494   2.275  0.00  0.00    -0.074 A 
ATOM      3  C2  UNL d   1       1.215  -1.168   1.082  0.00  0.00    -0.005 A 
ATOM      4  C3  UNL d   1       1.493  -1.875  -0.088  0.00  0.00     0.006 A 
ATOM      5  C4  UNL d   1       2.425  -2.914  -0.076  0.00  0.00    -0.005 A 
ATOM      6  C5  UNL d   1       3.089  -3.253   1.107  0.00  0.00    -0.074 A 
ATOM      7  C6  UNL d   1       4.101  -4.360   1.134  0.00  0.00     0.077 C 
ATOM      8  C7  UNL d   1       2.810  -2.533   2.277  0.00  0.00    -0.001 A 
ENDROOT
TORSDOF 0
ENDMDL
