MODEL 1
REMARK minimizedAffinity 7.09717941
REMARK minimizedRMSD -1
REMARK  0 active torsions:
REMARK  status: ('A' for Active; 'I' for Inactive)
ROOT
ATOM      1  C   UNL d   1      -3.663   3.738  -3.737  0.00  0.00     0.077 C 
ATOM      2  C1  UNL d   1      -3.785   2.312  -3.289  0.00  0.00    -0.074 A 
ATOM      3  C2  UNL d   1      -3.129   1.861  -2.139  0.00  0.00    -0.005 A 
ATOM      4  C3  UNL d   1      -3.260   0.534  -1.729  0.00  0.00     0.006 A 
ATOM      5  C4  UNL d   1      -4.046  -0.354  -2.464  0.00  0.00    -0.005 A 
ATOM      6  C5  UNL d   1      -4.709   0.078  -3.616  0.00  0.00    -0.074 A 
ATOM      7  C6  UNL d   1      -5.566  -0.861  -4.412  0.00  0.00     0.077 C 
ATOM      8  C7  UNL d   1      -4.579   1.415  -4.018  0.00  0.00    -0.001 A 
ENDROOT
TORSDOF 0
ENDMDL
