MODEL 1
REMARK minimizedAffinity 7.09990931
REMARK minimizedRMSD -1
REMARK  0 active torsions:
REMARK  status: ('A' for Active; 'I' for Inactive)
ROOT
ATOM      1  C   UNL d   1       2.729   3.148   2.207  0.00  0.00     0.077 C 
ATOM      2  C1  UNL d   1       1.251   2.898   2.159  0.00  0.00    -0.074 A 
ATOM      3  C2  UNL d   1       0.367   3.896   1.735  0.00  0.00    -0.005 A 
ATOM      4  C3  UNL d   1      -1.004   3.646   1.686  0.00  0.00     0.006 A 
ATOM      5  C4  UNL d   1      -1.505   2.398   2.061  0.00  0.00    -0.005 A 
ATOM      6  C5  UNL d   1      -0.636   1.389   2.487  0.00  0.00    -0.074 A 
ATOM      7  C6  UNL d   1      -1.156   0.039   2.884  0.00  0.00     0.077 C 
ATOM      8  C7  UNL d   1       0.742   1.645   2.526  0.00  0.00    -0.001 A 
ENDROOT
TORSDOF 0
ENDMDL
