MODEL 1
REMARK minimizedAffinity 12.4243279
REMARK minimizedRMSD -1
REMARK  0 active torsions:
REMARK  status: ('A' for Active; 'I' for Inactive)
ROOT
ATOM      1  C   UNL d   1       0.979  -2.031   1.037  0.00  0.00     0.077 C 
ATOM      2  C1  UNL d   1       2.268  -2.798   1.056  0.00  0.00    -0.074 A 
ATOM      3  C2  UNL d   1       3.015  -2.977  -0.112  0.00  0.00    -0.005 A 
ATOM      4  C3  UNL d   1       4.217  -3.684  -0.076  0.00  0.00     0.006 A 
ATOM      5  C4  UNL d   1       4.682  -4.218   1.126  0.00  0.00    -0.005 A 
ATOM      6  C5  UNL d   1       3.949  -4.048   2.305  0.00  0.00    -0.074 A 
ATOM      7  C6  UNL d   1       4.440  -4.607   3.607  0.00  0.00     0.077 C 
ATOM      8  C7  UNL d   1       2.746  -3.330   2.262  0.00  0.00    -0.001 A 
ENDROOT
TORSDOF 0
ENDMDL
