MODEL 1
REMARK minimizedAffinity 9.80499649
REMARK minimizedRMSD -1
REMARK  0 active torsions:
REMARK  status: ('A' for Active; 'I' for Inactive)
ROOT
ATOM      1  C   UNL d   1       2.617  -4.185   0.356  0.00  0.00     0.077 C 
ATOM      2  C1  UNL d   1       2.442  -3.102   1.378  0.00  0.00    -0.074 A 
ATOM      3  C2  UNL d   1       1.386  -2.190   1.286  0.00  0.00    -0.005 A 
ATOM      4  C3  UNL d   1       1.231  -1.193   2.250  0.00  0.00     0.006 A 
ATOM      5  C4  UNL d   1       2.129  -1.100   3.314  0.00  0.00    -0.005 A 
ATOM      6  C5  UNL d   1       3.190  -2.003   3.424  0.00  0.00    -0.074 A 
ATOM      7  C6  UNL d   1       4.158  -1.923   4.566  0.00  0.00     0.077 C 
ATOM      8  C7  UNL d   1       3.335  -3.006   2.455  0.00  0.00    -0.001 A 
ENDROOT
TORSDOF 0
ENDMDL
