MODEL 1
REMARK minimizedAffinity 9.55226803
REMARK minimizedRMSD -1
REMARK  0 active torsions:
REMARK  status: ('A' for Active; 'I' for Inactive)
ROOT
ATOM      1  C   UNL d   1      -0.664  -1.139   3.085  0.00  0.00     0.077 C 
ATOM      2  C1  UNL d   1       0.428  -1.432   2.099  0.00  0.00    -0.074 A 
ATOM      3  C2  UNL d   1       0.377  -0.922   0.798  0.00  0.00    -0.005 A 
ATOM      4  C3  UNL d   1       1.404  -1.195  -0.105  0.00  0.00     0.006 A 
ATOM      5  C4  UNL d   1       2.491  -1.979   0.284  0.00  0.00    -0.005 A 
ATOM      6  C5  UNL d   1       2.560  -2.496   1.581  0.00  0.00    -0.074 A 
ATOM      7  C6  UNL d   1       3.727  -3.331   2.018  0.00  0.00     0.077 C 
ATOM      8  C7  UNL d   1       1.527  -2.211   2.485  0.00  0.00    -0.001 A 
ENDROOT
TORSDOF 0
ENDMDL
