MODEL 1
REMARK minimizedAffinity 4.41108942
REMARK minimizedRMSD -1
REMARK  0 active torsions:
REMARK  status: ('A' for Active; 'I' for Inactive)
ROOT
ATOM      1  C   UNL d   1      -1.857   3.373  -4.213  0.00  0.00     0.077 C 
ATOM      2  C1  UNL d   1      -3.232   3.280  -4.804  0.00  0.00    -0.074 A 
ATOM      3  C2  UNL d   1      -3.981   4.431  -5.068  0.00  0.00    -0.005 A 
ATOM      4  C3  UNL d   1      -5.255   4.329  -5.627  0.00  0.00     0.006 A 
ATOM      5  C4  UNL d   1      -5.792   3.077  -5.928  0.00  0.00    -0.005 A 
ATOM      6  C5  UNL d   1      -5.057   1.914  -5.673  0.00  0.00    -0.074 A 
ATOM      7  C6  UNL d   1      -5.615   0.561  -5.999  0.00  0.00     0.077 C 
ATOM      8  C7  UNL d   1      -3.775   2.026  -5.117  0.00  0.00    -0.001 A 
ENDROOT
TORSDOF 0
ENDMDL
