MODEL 1
REMARK minimizedAffinity 7.18697166
REMARK minimizedRMSD -1
REMARK  0 active torsions:
REMARK  status: ('A' for Active; 'I' for Inactive)
ROOT
ATOM      1  C   UNL d   1       2.781  -5.272  -0.216  0.00  0.00     0.077 C 
ATOM      2  C1  UNL d   1       2.630  -4.006   0.574  0.00  0.00    -0.074 A 
ATOM      3  C2  UNL d   1       1.720  -3.019   0.182  0.00  0.00    -0.005 A 
ATOM      4  C3  UNL d   1       1.583  -1.850   0.931  0.00  0.00     0.006 A 
ATOM      5  C4  UNL d   1       2.354  -1.658   2.079  0.00  0.00    -0.005 A 
ATOM      6  C5  UNL d   1       3.268  -2.634   2.487  0.00  0.00    -0.074 A 
ATOM      7  C6  UNL d   1       4.096  -2.447   3.723  0.00  0.00     0.077 C 
ATOM      8  C7  UNL d   1       3.394  -3.809   1.732  0.00  0.00    -0.001 A 
ENDROOT
TORSDOF 0
ENDMDL
