MODEL 1
REMARK minimizedAffinity 3.97605062
REMARK minimizedRMSD -1
REMARK  0 active torsions:
REMARK  status: ('A' for Active; 'I' for Inactive)
ROOT
ATOM      1  C   UNL d   1       6.000  -3.000   0.367  0.00  0.00     0.077 C 
ATOM      2  C1  UNL d   1       4.573  -3.432   0.532  0.00  0.00    -0.074 A 
ATOM      3  C2  UNL d   1       4.186  -4.750   0.266  0.00  0.00    -0.005 A 
ATOM      4  C3  UNL d   1       2.858  -5.140   0.433  0.00  0.00     0.006 A 
ATOM      5  C4  UNL d   1       1.904  -4.218   0.867  0.00  0.00    -0.005 A 
ATOM      6  C5  UNL d   1       2.272  -2.897   1.139  0.00  0.00    -0.074 A 
ATOM      7  C6  UNL d   1       1.262  -1.896   1.616  0.00  0.00     0.077 C 
ATOM      8  C7  UNL d   1       3.611  -2.514   0.975  0.00  0.00    -0.001 A 
ENDROOT
TORSDOF 0
ENDMDL
