MODEL 1
REMARK minimizedAffinity -1.61675394
REMARK minimizedRMSD -1
REMARK  0 active torsions:
REMARK  status: ('A' for Active; 'I' for Inactive)
ROOT
ATOM      1  C   UNL d   1       1.362   4.303  -5.965  0.00  0.00     0.077 C 
ATOM      2  C1  UNL d   1       2.854   4.455  -5.980  0.00  0.00    -0.074 A 
ATOM      3  C2  UNL d   1       3.448   5.721  -5.996  0.00  0.00    -0.005 A 
ATOM      4  C3  UNL d   1       4.837   5.846  -6.000  0.00  0.00     0.006 A 
ATOM      5  C4  UNL d   1       5.645   4.708  -5.987  0.00  0.00    -0.005 A 
ATOM      6  C5  UNL d   1       5.069   3.434  -5.970  0.00  0.00    -0.074 A 
ATOM      7  C6  UNL d   1       5.923   2.201  -5.946  0.00  0.00     0.077 C 
ATOM      8  C7  UNL d   1       3.673   3.317  -5.959  0.00  0.00    -0.001 A 
ENDROOT
TORSDOF 0
ENDMDL
