MODEL 1
REMARK minimizedAffinity 1.08181655
REMARK minimizedRMSD -1
REMARK  0 active torsions:
REMARK  status: ('A' for Active; 'I' for Inactive)
ROOT
ATOM      1  C   UNL d   1       1.648  -2.750   1.065  0.00  0.00     0.077 C 
ATOM      2  C1  UNL d   1       3.073  -3.068   1.406  0.00  0.00    -0.074 A 
ATOM      3  C2  UNL d   1       4.064  -3.079   0.419  0.00  0.00    -0.005 A 
ATOM      4  C3  UNL d   1       5.387  -3.367   0.752  0.00  0.00     0.006 A 
ATOM      5  C4  UNL d   1       5.733  -3.647   2.075  0.00  0.00    -0.005 A 
ATOM      6  C5  UNL d   1       4.757  -3.640   3.076  0.00  0.00    -0.074 A 
ATOM      7  C6  UNL d   1       5.113  -3.928   4.504  0.00  0.00     0.077 C 
ATOM      8  C7  UNL d   1       3.430  -3.342   2.734  0.00  0.00    -0.001 A 
ENDROOT
TORSDOF 0
ENDMDL
