MODEL 1
REMARK minimizedAffinity -5.37087297
REMARK minimizedRMSD -1
REMARK  1 active torsions:
REMARK  status: ('A' for Active; 'I' for Inactive)
REMARK    1  A    between atoms: C1_2  and  C2_3 
ROOT
ATOM      1  C2  UNL d   1       0.748  -0.561  -0.219  0.00  0.00    -0.076 A 
ATOM      2  C3  UNL d   1       0.878  -1.919  -0.559  0.00  0.00     0.004 A 
ATOM      3  C4  UNL d   1       1.476  -2.304  -1.758  0.00  0.00    -0.003 A 
ATOM      4  C5  UNL d   1       1.954  -1.337  -2.636  0.00  0.00     0.000 A 
ATOM      5  C6  UNL d   1       1.850   0.014  -2.306  0.00  0.00     0.000 A 
ATOM      6  C7  UNL d   1       1.265   0.418  -1.094  0.00  0.00    -0.073 A 
ATOM      7  C8  UNL d   1       1.173   1.889  -0.792  0.00  0.00     0.078 C 
ENDROOT
BRANCH   1   8
ATOM      8  C1  UNL d   1       0.067  -0.203   1.082  0.00  0.00     0.053 C 
ATOM      9  C   UNL d   1      -1.426   0.032   0.913  0.00  0.00     0.018 C 
ENDBRANCH   1   8
TORSDOF 1
ENDMDL
