MODEL 1
REMARK minimizedAffinity -3.33388305
REMARK minimizedRMSD -1
REMARK  1 active torsions:
REMARK  status: ('A' for Active; 'I' for Inactive)
REMARK    1  A    between atoms: C1_2  and  C2_3 
ROOT
ATOM      1  C2  UNL d   1      -0.158  -0.181   0.020  0.00  0.00    -0.076 A 
ATOM      2  C3  UNL d   1       0.171   1.185  -0.009  0.00  0.00     0.004 A 
ATOM      3  C4  UNL d   1       1.073   1.686  -0.947  0.00  0.00    -0.003 A 
ATOM      4  C5  UNL d   1       1.659   0.829  -1.871  0.00  0.00     0.000 A 
ATOM      5  C6  UNL d   1       1.331  -0.527  -1.868  0.00  0.00     0.000 A 
ATOM      6  C7  UNL d   1       0.412  -1.045  -0.940  0.00  0.00    -0.073 A 
ATOM      7  C8  UNL d   1       0.099  -2.516  -0.977  0.00  0.00     0.078 C 
ENDROOT
BRANCH   1   8
ATOM      8  C1  UNL d   1      -1.121  -0.671   1.078  0.00  0.00     0.053 C 
ATOM      9  C   UNL d   1      -2.147   0.383   1.465  0.00  0.00     0.018 C 
ENDBRANCH   1   8
TORSDOF 1
ENDMDL
