MODEL 1
REMARK minimizedAffinity -4.64169121
REMARK minimizedRMSD -1
REMARK  1 active torsions:
REMARK  status: ('A' for Active; 'I' for Inactive)
REMARK    1  A    between atoms: C1_2  and  C2_3 
ROOT
ATOM      1  C2  UNL d   1       0.592  -0.843  -0.689  0.00  0.00    -0.076 A 
ATOM      2  C3  UNL d   1       0.915  -2.045  -1.342  0.00  0.00     0.004 A 
ATOM      3  C4  UNL d   1       1.800  -2.062  -2.418  0.00  0.00    -0.003 A 
ATOM      4  C5  UNL d   1       2.378  -0.877  -2.859  0.00  0.00     0.000 A 
ATOM      5  C6  UNL d   1       2.082   0.323  -2.213  0.00  0.00     0.000 A 
ATOM      6  C7  UNL d   1       1.205   0.355  -1.116  0.00  0.00    -0.073 A 
ATOM      7  C8  UNL d   1       0.917   1.678  -0.459  0.00  0.00     0.078 C 
ENDROOT
BRANCH   1   8
ATOM      8  C1  UNL d   1      -0.396  -0.882   0.455  0.00  0.00     0.053 C 
ATOM      9  C   UNL d   1      -0.164  -2.063   1.384  0.00  0.00     0.018 C 
ENDBRANCH   1   8
TORSDOF 1
ENDMDL
