MODEL 1
REMARK minimizedAffinity -3.81675935
REMARK minimizedRMSD -1
REMARK  1 active torsions:
REMARK  status: ('A' for Active; 'I' for Inactive)
REMARK    1  A    between atoms: C1_2  and  C2_3 
ROOT
ATOM      1  C2  UNL d   1       0.485  -0.424  -0.964  0.00  0.00    -0.076 A 
ATOM      2  C3  UNL d   1       0.234   0.698  -0.155  0.00  0.00     0.004 A 
ATOM      3  C4  UNL d   1      -0.173   0.551   1.170  0.00  0.00    -0.003 A 
ATOM      4  C5  UNL d   1      -0.337  -0.721   1.707  0.00  0.00     0.000 A 
ATOM      5  C6  UNL d   1      -0.075  -1.845   0.925  0.00  0.00     0.000 A 
ATOM      6  C7  UNL d   1       0.353  -1.714  -0.407  0.00  0.00    -0.073 A 
ATOM      7  C8  UNL d   1       0.614  -2.961  -1.207  0.00  0.00     0.078 C 
ENDROOT
BRANCH   1   8
ATOM      8  C1  UNL d   1       0.899  -0.203  -2.401  0.00  0.00     0.053 C 
ATOM      9  C   UNL d   1       2.239   0.507  -2.519  0.00  0.00     0.018 C 
ENDBRANCH   1   8
TORSDOF 1
ENDMDL
