MODEL 1
REMARK minimizedAffinity -2.32716846
REMARK minimizedRMSD -1
REMARK  1 active torsions:
REMARK  status: ('A' for Active; 'I' for Inactive)
REMARK    1  A    between atoms: C1_2  and  C2_3 
ROOT
ATOM      1  C2  UNL d   1       0.797  -0.032  -1.260  0.00  0.00    -0.076 A 
ATOM      2  C3  UNL d   1       0.596   0.966  -0.291  0.00  0.00     0.004 A 
ATOM      3  C4  UNL d   1      -0.215   0.735   0.819  0.00  0.00    -0.003 A 
ATOM      4  C5  UNL d   1      -0.837  -0.498   0.978  0.00  0.00     0.000 A 
ATOM      5  C6  UNL d   1      -0.634  -1.506   0.036  0.00  0.00     0.000 A 
ATOM      6  C7  UNL d   1       0.193  -1.295  -1.081  0.00  0.00    -0.073 A 
ATOM      7  C8  UNL d   1       0.371  -2.414  -2.069  0.00  0.00     0.078 C 
ENDROOT
BRANCH   1   8
ATOM      8  C1  UNL d   1       1.664   0.285  -2.457  0.00  0.00     0.053 C 
ATOM      9  C   UNL d   1       3.048   0.776  -2.060  0.00  0.00     0.018 C 
ENDBRANCH   1   8
TORSDOF 1
ENDMDL
