MODEL 1
REMARK minimizedAffinity -4.48228693
REMARK minimizedRMSD -1
REMARK  1 active torsions:
REMARK  status: ('A' for Active; 'I' for Inactive)
REMARK    1  A    between atoms: C1_2  and  C2_3 
ROOT
ATOM      1  C2  UNL d   1      -0.029   0.500  -0.598  0.00  0.00    -0.076 A 
ATOM      2  C3  UNL d   1      -0.003  -0.823  -1.073  0.00  0.00     0.004 A 
ATOM      3  C4  UNL d   1       1.031  -1.270  -1.895  0.00  0.00    -0.003 A 
ATOM      4  C5  UNL d   1       2.055  -0.402  -2.254  0.00  0.00     0.000 A 
ATOM      5  C6  UNL d   1       2.055   0.909  -1.778  0.00  0.00     0.000 A 
ATOM      6  C7  UNL d   1       1.029   1.371  -0.936  0.00  0.00    -0.073 A 
ATOM      7  C8  UNL d   1       1.075   2.796  -0.457  0.00  0.00     0.078 C 
ENDROOT
BRANCH   1   8
ATOM      8  C1  UNL d   1      -1.189   0.936   0.267  0.00  0.00     0.053 C 
ATOM      9  C   UNL d   1      -1.610  -0.136   1.261  0.00  0.00     0.018 C 
ENDBRANCH   1   8
TORSDOF 1
ENDMDL
