MODEL 1
REMARK minimizedAffinity -6.06490278
REMARK minimizedRMSD -1
REMARK  1 active torsions:
REMARK  status: ('A' for Active; 'I' for Inactive)
REMARK    1  A    between atoms: C1_2  and  C2_3 
ROOT
ATOM      1  C2  UNL d   1       0.945  -0.165  -1.162  0.00  0.00    -0.076 A 
ATOM      2  C3  UNL d   1       0.752   0.957  -0.337  0.00  0.00     0.004 A 
ATOM      3  C4  UNL d   1       0.172   0.829   0.924  0.00  0.00    -0.003 A 
ATOM      4  C5  UNL d   1      -0.223  -0.423   1.381  0.00  0.00     0.000 A 
ATOM      5  C6  UNL d   1      -0.022  -1.549   0.584  0.00  0.00     0.000 A 
ATOM      6  C7  UNL d   1       0.576  -1.440  -0.683  0.00  0.00    -0.073 A 
ATOM      7  C8  UNL d   1       0.763  -2.688  -1.503  0.00  0.00     0.078 C 
ENDROOT
BRANCH   1   8
ATOM      8  C1  UNL d   1       1.554   0.038  -2.531  0.00  0.00     0.053 C 
ATOM      9  C   UNL d   1       3.058  -0.190  -2.539  0.00  0.00     0.018 C 
ENDBRANCH   1   8
TORSDOF 1
ENDMDL
