MODEL 1
REMARK minimizedAffinity -3.92149878
REMARK minimizedRMSD -1
REMARK  1 active torsions:
REMARK  status: ('A' for Active; 'I' for Inactive)
REMARK    1  A    between atoms: C1_2  and  C2_3 
ROOT
ATOM      1  C2  UNL d   1       0.838   0.016  -0.799  0.00  0.00    -0.076 A 
ATOM      2  C3  UNL d   1       0.724   1.221  -0.083  0.00  0.00     0.004 A 
ATOM      3  C4  UNL d   1      -0.063   1.302   1.064  0.00  0.00    -0.003 A 
ATOM      4  C5  UNL d   1      -0.749   0.180   1.515  0.00  0.00     0.000 A 
ATOM      5  C6  UNL d   1      -0.633  -1.028   0.828  0.00  0.00     0.000 A 
ATOM      6  C7  UNL d   1       0.169  -1.132  -0.321  0.00  0.00    -0.073 A 
ATOM      7  C8  UNL d   1       0.253  -2.457  -1.027  0.00  0.00     0.078 C 
ENDROOT
BRANCH   1   8
ATOM      8  C1  UNL d   1       1.685  -0.005  -2.051  0.00  0.00     0.053 C 
ATOM      9  C   UNL d   1       3.063   0.600  -1.833  0.00  0.00     0.018 C 
ENDBRANCH   1   8
TORSDOF 1
ENDMDL
