MODEL 1
REMARK minimizedAffinity -5.31204367
REMARK minimizedRMSD -1
REMARK  1 active torsions:
REMARK  status: ('A' for Active; 'I' for Inactive)
REMARK    1  A    between atoms: C1_2  and  C2_3 
ROOT
ATOM      1  C2  UNL d   1       0.345   0.027  -1.058  0.00  0.00    -0.076 A 
ATOM      2  C3  UNL d   1      -0.277   1.230  -0.683  0.00  0.00     0.004 A 
ATOM      3  C4  UNL d   1      -1.135   1.283   0.414  0.00  0.00    -0.003 A 
ATOM      4  C5  UNL d   1      -1.385   0.132   1.154  0.00  0.00     0.000 A 
ATOM      5  C6  UNL d   1      -0.763  -1.067   0.806  0.00  0.00     0.000 A 
ATOM      6  C7  UNL d   1       0.117  -1.133  -0.287  0.00  0.00    -0.073 A 
ATOM      7  C8  UNL d   1       0.756  -2.453  -0.620  0.00  0.00     0.078 C 
ENDROOT
BRANCH   1   8
ATOM      8  C1  UNL d   1       1.245   0.025  -2.274  0.00  0.00     0.053 C 
ATOM      9  C   UNL d   1       2.623   0.595  -1.979  0.00  0.00     0.018 C 
ENDBRANCH   1   8
TORSDOF 1
ENDMDL
