MODEL 1
REMARK minimizedAffinity -3.56005049
REMARK minimizedRMSD -1
REMARK  1 active torsions:
REMARK  status: ('A' for Active; 'I' for Inactive)
REMARK    1  A    between atoms: C1_2  and  C2_3 
ROOT
ATOM      1  C2  UNL d   1       0.737  -0.115  -1.336  0.00  0.00    -0.076 A 
ATOM      2  C3  UNL d   1       0.812   1.121  -0.671  0.00  0.00     0.004 A 
ATOM      3  C4  UNL d   1       0.391   1.251   0.651  0.00  0.00    -0.003 A 
ATOM      4  C5  UNL d   1      -0.111   0.146   1.331  0.00  0.00     0.000 A 
ATOM      5  C6  UNL d   1      -0.176  -1.092   0.692  0.00  0.00     0.000 A 
ATOM      6  C7  UNL d   1       0.259  -1.243  -0.636  0.00  0.00    -0.073 A 
ATOM      7  C8  UNL d   1       0.161  -2.600  -1.277  0.00  0.00     0.078 C 
ENDROOT
BRANCH   1   8
ATOM      8  C1  UNL d   1       1.183  -0.189  -2.779  0.00  0.00     0.053 C 
ATOM      9  C   UNL d   1       2.613  -0.686  -2.922  0.00  0.00     0.018 C 
ENDBRANCH   1   8
TORSDOF 1
ENDMDL
