MODEL 1
REMARK minimizedAffinity -4.9208951
REMARK minimizedRMSD -1
REMARK  1 active torsions:
REMARK  status: ('A' for Active; 'I' for Inactive)
REMARK    1  A    between atoms: C1_2  and  C2_3 
ROOT
ATOM      1  C2  UNL d   1       0.188   0.260   0.458  0.00  0.00    -0.076 A 
ATOM      2  C3  UNL d   1       0.630   1.595   0.448  0.00  0.00     0.004 A 
ATOM      3  C4  UNL d   1       1.370   2.097  -0.621  0.00  0.00    -0.003 A 
ATOM      4  C5  UNL d   1       1.681   1.273  -1.697  0.00  0.00     0.000 A 
ATOM      5  C6  UNL d   1       1.236  -0.048  -1.712  0.00  0.00     0.000 A 
ATOM      6  C7  UNL d   1       0.474  -0.566  -0.650  0.00  0.00    -0.073 A 
ATOM      7  C8  UNL d   1       0.026  -2.000  -0.715  0.00  0.00     0.078 C 
ENDROOT
BRANCH   1   8
ATOM      8  C1  UNL d   1      -0.588  -0.237   1.657  0.00  0.00     0.053 C 
ATOM      9  C   UNL d   1      -2.044   0.201   1.631  0.00  0.00     0.018 C 
ENDBRANCH   1   8
TORSDOF 1
ENDMDL
