MODEL 1
REMARK minimizedAffinity -4.50712538
REMARK minimizedRMSD -1
REMARK  1 active torsions:
REMARK  status: ('A' for Active; 'I' for Inactive)
REMARK    1  A    between atoms: C1_2  and  C2_3 
ROOT
ATOM      1  C2  UNL d   1      -0.635  -1.208  -0.338  0.00  0.00    -0.077 A 
ATOM      2  C3  UNL d   1      -0.180  -1.047  -1.654  0.00  0.00     0.002 A 
ATOM      3  C4  UNL d   1      -0.364  -2.062  -2.595  0.00  0.00     0.002 A 
ATOM      4  C5  UNL d   1      -1.007  -3.243  -2.231  0.00  0.00    -0.004 A 
ATOM      5  C6  UNL d   1      -1.461  -3.414  -0.924  0.00  0.00     0.002 A 
ATOM      6  C7  UNL d   1      -1.277  -2.401   0.018  0.00  0.00     0.002 A 
ENDROOT
BRANCH   1   7
ATOM      7  C1  UNL d   1      -0.481  -0.095   0.665  0.00  0.00     0.055 C 
ATOM      8  C   UNL d   1       0.249   1.096   0.062  0.00  0.00     0.019 C 
ENDBRANCH   1   7
TORSDOF 1
ENDMDL
