MODEL 1
REMARK minimizedAffinity -3.04555273
REMARK minimizedRMSD -1
REMARK  1 active torsions:
REMARK  status: ('A' for Active; 'I' for Inactive)
REMARK    1  A    between atoms: C1_2  and  C2_3 
ROOT
ATOM      1  C2  UNL d   1       0.323   1.650   0.598  0.00  0.00    -0.077 A 
ATOM      2  C3  UNL d   1       0.123   0.774  -0.478  0.00  0.00     0.002 A 
ATOM      3  C4  UNL d   1      -0.418  -0.496  -0.265  0.00  0.00     0.002 A 
ATOM      4  C5  UNL d   1      -0.768  -0.898   1.023  0.00  0.00    -0.004 A 
ATOM      5  C6  UNL d   1      -0.572  -0.035   2.100  0.00  0.00     0.002 A 
ATOM      6  C7  UNL d   1      -0.030   1.234   1.888  0.00  0.00     0.002 A 
ENDROOT
BRANCH   1   7
ATOM      7  C1  UNL d   1       0.861   3.037   0.363  0.00  0.00     0.055 C 
ATOM      8  C   UNL d   1       2.344   3.006   0.026  0.00  0.00     0.019 C 
ENDBRANCH   1   7
TORSDOF 1
ENDMDL
