MODEL 1
REMARK minimizedAffinity -4.75763464
REMARK minimizedRMSD -1
REMARK  1 active torsions:
REMARK  status: ('A' for Active; 'I' for Inactive)
REMARK    1  A    between atoms: C1_2  and  C2_3 
ROOT
ATOM      1  C2  UNL d   1      -0.253   0.832   0.815  0.00  0.00    -0.077 A 
ATOM      2  C3  UNL d   1      -0.024   0.360   2.116  0.00  0.00     0.002 A 
ATOM      3  C4  UNL d   1      -0.395  -0.938   2.472  0.00  0.00     0.002 A 
ATOM      4  C5  UNL d   1      -0.992  -1.776   1.533  0.00  0.00    -0.004 A 
ATOM      5  C6  UNL d   1      -1.225  -1.316   0.238  0.00  0.00     0.002 A 
ATOM      6  C7  UNL d   1      -0.857  -0.018  -0.120  0.00  0.00     0.002 A 
ENDROOT
BRANCH   1   7
ATOM      7  C1  UNL d   1       0.191   2.214   0.415  0.00  0.00     0.055 C 
ATOM      8  C   UNL d   1       1.582   2.526   0.949  0.00  0.00     0.019 C 
ENDBRANCH   1   7
TORSDOF 1
ENDMDL
