MODEL 1
REMARK minimizedAffinity -2.20387721
REMARK minimizedRMSD -1
REMARK  1 active torsions:
REMARK  status: ('A' for Active; 'I' for Inactive)
REMARK    1  A    between atoms: C1_2  and  C2_3 
ROOT
ATOM      1  C2  UNL d   1       0.036   0.039   0.443  0.00  0.00    -0.077 A 
ATOM      2  C3  UNL d   1       0.418  -0.559  -0.766  0.00  0.00     0.002 A 
ATOM      3  C4  UNL d   1       0.198  -1.921  -0.981  0.00  0.00     0.002 A 
ATOM      4  C5  UNL d   1      -0.408  -2.694   0.007  0.00  0.00    -0.004 A 
ATOM      5  C6  UNL d   1      -0.790  -2.109   1.214  0.00  0.00     0.002 A 
ATOM      6  C7  UNL d   1      -0.569  -0.748   1.430  0.00  0.00     0.002 A 
ENDROOT
BRANCH   1   7
ATOM      7  C1  UNL d   1       0.228   1.518   0.657  0.00  0.00     0.055 C 
ATOM      8  C   UNL d   1       1.701   1.898   0.611  0.00  0.00     0.019 C 
ENDBRANCH   1   7
TORSDOF 1
ENDMDL
