MODEL 1
REMARK minimizedAffinity -3.64841795
REMARK minimizedRMSD -1
REMARK  1 active torsions:
REMARK  status: ('A' for Active; 'I' for Inactive)
REMARK    1  A    between atoms: C1_2  and  C2_3 
ROOT
ATOM      1  C2  UNL d   1      -0.104  -1.429  -1.124  0.00  0.00    -0.077 A 
ATOM      2  C3  UNL d   1      -0.745  -2.321  -0.253  0.00  0.00     0.002 A 
ATOM      3  C4  UNL d   1      -1.121  -1.911   1.027  0.00  0.00     0.002 A 
ATOM      4  C5  UNL d   1      -0.863  -0.607   1.447  0.00  0.00    -0.004 A 
ATOM      5  C6  UNL d   1      -0.224   0.287   0.589  0.00  0.00     0.002 A 
ATOM      6  C7  UNL d   1       0.153  -0.122  -0.691  0.00  0.00     0.002 A 
ENDROOT
BRANCH   1   7
ATOM      7  C1  UNL d   1       0.258  -1.855  -2.523  0.00  0.00     0.055 C 
ATOM      8  C   UNL d   1      -0.565  -3.056  -2.966  0.00  0.00     0.019 C 
ENDBRANCH   1   7
TORSDOF 1
ENDMDL
