MODEL 1
REMARK minimizedAffinity -0.822445393
REMARK minimizedRMSD -1
REMARK  1 active torsions:
REMARK  status: ('A' for Active; 'I' for Inactive)
REMARK    1  A    between atoms: C1_2  and  C2_3 
ROOT
ATOM      1  C2  UNL d   1       0.351   1.627   0.202  0.00  0.00    -0.077 A 
ATOM      2  C3  UNL d   1       1.692   1.534  -0.197  0.00  0.00     0.002 A 
ATOM      3  C4  UNL d   1       2.594   2.552   0.117  0.00  0.00     0.002 A 
ATOM      4  C5  UNL d   1       2.168   3.667   0.835  0.00  0.00    -0.004 A 
ATOM      5  C6  UNL d   1       0.836   3.769   1.236  0.00  0.00     0.002 A 
ATOM      6  C7  UNL d   1      -0.068   2.754   0.921  0.00  0.00     0.002 A 
ENDROOT
BRANCH   1   7
ATOM      7  C1  UNL d   1      -0.613   0.507  -0.093  0.00  0.00     0.055 C 
ATOM      8  C   UNL d   1       0.071  -0.630  -0.838  0.00  0.00     0.019 C 
ENDBRANCH   1   7
TORSDOF 1
ENDMDL
