MODEL 1
REMARK minimizedAffinity -2.59654093
REMARK minimizedRMSD -1
REMARK  1 active torsions:
REMARK  status: ('A' for Active; 'I' for Inactive)
REMARK    1  A    between atoms: C1_2  and  C2_3 
ROOT
ATOM      1  C2  UNL d   1      -0.527  -1.663  -0.050  0.00  0.00    -0.077 A 
ATOM      2  C3  UNL d   1      -1.020  -1.180   1.171  0.00  0.00     0.002 A 
ATOM      3  C4  UNL d   1      -0.994   0.187   1.452  0.00  0.00     0.002 A 
ATOM      4  C5  UNL d   1      -0.480   1.083   0.516  0.00  0.00    -0.004 A 
ATOM      5  C6  UNL d   1       0.014   0.612  -0.700  0.00  0.00     0.002 A 
ATOM      6  C7  UNL d   1      -0.010  -0.754  -0.982  0.00  0.00     0.002 A 
ENDROOT
BRANCH   1   7
ATOM      7  C1  UNL d   1      -0.599  -3.132  -0.375  0.00  0.00     0.055 C 
ATOM      8  C   UNL d   1      -0.721  -3.362  -1.874  0.00  0.00     0.019 C 
ENDBRANCH   1   7
TORSDOF 1
ENDMDL
