MODEL 1
REMARK minimizedAffinity -4.02753305
REMARK minimizedRMSD -1
REMARK  1 active torsions:
REMARK  status: ('A' for Active; 'I' for Inactive)
REMARK    1  A    between atoms: C1_2  and  C2_3 
ROOT
ATOM      1  C2  UNL d   1      -0.536  -1.424   0.116  0.00  0.00    -0.077 A 
ATOM      2  C3  UNL d   1      -1.193  -0.879   1.228  0.00  0.00     0.002 A 
ATOM      3  C4  UNL d   1      -1.095   0.486   1.507  0.00  0.00     0.002 A 
ATOM      4  C5  UNL d   1      -0.346   1.317   0.677  0.00  0.00    -0.004 A 
ATOM      5  C6  UNL d   1       0.312   0.784  -0.431  0.00  0.00     0.002 A 
ATOM      6  C7  UNL d   1       0.217  -0.580  -0.710  0.00  0.00     0.002 A 
ENDROOT
BRANCH   1   7
ATOM      7  C1  UNL d   1      -0.680  -2.886  -0.215  0.00  0.00     0.055 C 
ATOM      8  C   UNL d   1      -0.288  -3.169  -1.658  0.00  0.00     0.019 C 
ENDBRANCH   1   7
TORSDOF 1
ENDMDL
