MODEL 1
REMARK minimizedAffinity -4.33649683
REMARK minimizedRMSD -1
REMARK  1 active torsions:
REMARK  status: ('A' for Active; 'I' for Inactive)
REMARK    1  A    between atoms: C1_2  and  C2_3 
ROOT
ATOM      1  C2  UNL d   1      -0.570  -2.127  -0.804  0.00  0.00    -0.077 A 
ATOM      2  C3  UNL d   1      -1.046  -2.262   0.508  0.00  0.00     0.002 A 
ATOM      3  C4  UNL d   1      -1.105  -1.153   1.355  0.00  0.00     0.002 A 
ATOM      4  C5  UNL d   1      -0.693   0.097   0.898  0.00  0.00    -0.004 A 
ATOM      5  C6  UNL d   1      -0.216   0.241  -0.404  0.00  0.00     0.002 A 
ATOM      6  C7  UNL d   1      -0.155  -0.866  -1.251  0.00  0.00     0.002 A 
ENDROOT
BRANCH   1   7
ATOM      7  C1  UNL d   1      -0.552  -3.312  -1.734  0.00  0.00     0.055 C 
ATOM      8  C   UNL d   1      -0.101  -2.911  -3.132  0.00  0.00     0.019 C 
ENDBRANCH   1   7
TORSDOF 1
ENDMDL
