MODEL 1
REMARK minimizedAffinity -2.88174176
REMARK minimizedRMSD -1
REMARK  1 active torsions:
REMARK  status: ('A' for Active; 'I' for Inactive)
REMARK    1  A    between atoms: C1_2  and  C2_3 
ROOT
ATOM      1  C2  UNL d   1      -0.402  -1.595  -0.078  0.00  0.00    -0.077 A 
ATOM      2  C3  UNL d   1       0.275  -0.886  -1.081  0.00  0.00     0.002 A 
ATOM      3  C4  UNL d   1       0.341  -1.390  -2.381  0.00  0.00     0.002 A 
ATOM      4  C5  UNL d   1      -0.272  -2.603  -2.691  0.00  0.00    -0.004 A 
ATOM      5  C6  UNL d   1      -0.945  -3.316  -1.701  0.00  0.00     0.002 A 
ATOM      6  C7  UNL d   1      -1.011  -2.814  -0.400  0.00  0.00     0.002 A 
ENDROOT
BRANCH   1   7
ATOM      7  C1  UNL d   1      -0.516  -1.028   1.313  0.00  0.00     0.055 C 
ATOM      8  C   UNL d   1      -0.917   0.439   1.282  0.00  0.00     0.019 C 
ENDBRANCH   1   7
TORSDOF 1
ENDMDL
