MODEL 1
REMARK minimizedAffinity -3.36427498
REMARK minimizedRMSD -1
REMARK  1 active torsions:
REMARK  status: ('A' for Active; 'I' for Inactive)
REMARK    1  A    between atoms: C1_2  and  C2_3 
ROOT
ATOM      1  C2  UNL d   1       0.099  -0.857  -0.313  0.00  0.00    -0.077 A 
ATOM      2  C3  UNL d   1      -0.568  -1.880   0.376  0.00  0.00     0.002 A 
ATOM      3  C4  UNL d   1      -0.921  -3.061  -0.281  0.00  0.00     0.002 A 
ATOM      4  C5  UNL d   1      -0.607  -3.232  -1.627  0.00  0.00    -0.004 A 
ATOM      5  C6  UNL d   1       0.055  -2.220  -2.322  0.00  0.00     0.002 A 
ATOM      6  C7  UNL d   1       0.407  -1.038  -1.668  0.00  0.00     0.002 A 
ENDROOT
BRANCH   1   7
ATOM      7  C1  UNL d   1       0.524   0.396   0.406  0.00  0.00     0.055 C 
ATOM      8  C   UNL d   1       0.378   1.622  -0.485  0.00  0.00     0.019 C 
ENDBRANCH   1   7
TORSDOF 1
ENDMDL
