MODEL 1
REMARK minimizedAffinity -4.06408739
REMARK minimizedRMSD -1
REMARK  1 active torsions:
REMARK  status: ('A' for Active; 'I' for Inactive)
REMARK    1  A    between atoms: C1_2  and  C2_3 
ROOT
ATOM      1  C2  UNL d   1      -0.370  -2.196  -0.873  0.00  0.00    -0.077 A 
ATOM      2  C3  UNL d   1      -0.572  -2.714   0.414  0.00  0.00     0.002 A 
ATOM      3  C4  UNL d   1      -0.602  -1.863   1.521  0.00  0.00     0.002 A 
ATOM      4  C5  UNL d   1      -0.436  -0.490   1.351  0.00  0.00    -0.004 A 
ATOM      5  C6  UNL d   1      -0.233   0.034   0.075  0.00  0.00     0.002 A 
ATOM      6  C7  UNL d   1      -0.202  -0.814  -1.032  0.00  0.00     0.002 A 
ENDROOT
BRANCH   1   7
ATOM      7  C1  UNL d   1      -0.387  -3.106  -2.074  0.00  0.00     0.055 C 
ATOM      8  C   UNL d   1       0.124  -2.391  -3.317  0.00  0.00     0.019 C 
ENDBRANCH   1   7
TORSDOF 1
ENDMDL
