MODEL 1
REMARK minimizedAffinity 13.7341614
REMARK minimizedRMSD -1
REMARK  0 active torsions:
REMARK  status: ('A' for Active; 'I' for Inactive)
ROOT
ATOM      1  C   UNL d   1      -1.017   3.869   5.303  0.00  0.00     0.023 A 
ATOM      2  C1  UNL d   1       0.131   3.855   4.510  0.00  0.00     0.003 A 
ATOM      3  C2  UNL d   1       0.190   3.038   3.379  0.00  0.00     0.048 A 
ATOM      4  C3  UNL d   1      -0.903   2.237   3.047  0.00  0.00     0.023 A 
ATOM      5  C4  UNL d   1      -2.053   2.249   3.837  0.00  0.00     0.048 A 
ATOM      6  C5  UNL d   1      -2.107   3.067   4.967  0.00  0.00     0.003 A 
ATOM      7  I   UNL d   1      -0.817   1.020   1.364  0.00  0.00    -0.146 I 
ENDROOT
TORSDOF 0
ENDMDL
