MODEL 1
REMARK minimizedAffinity 3.508394
REMARK minimizedRMSD -1
REMARK  0 active torsions:
REMARK  status: ('A' for Active; 'I' for Inactive)
ROOT
ATOM      1  C   UNL d   1       0.935   3.722   2.765  0.00  0.00     0.023 A 
ATOM      2  C1  UNL d   1       0.882   3.133   1.501  0.00  0.00     0.003 A 
ATOM      3  C2  UNL d   1      -0.161   2.262   1.178  0.00  0.00     0.048 A 
ATOM      4  C3  UNL d   1      -1.148   1.986   2.123  0.00  0.00     0.023 A 
ATOM      5  C4  UNL d   1      -1.100   2.573   3.389  0.00  0.00     0.048 A 
ATOM      6  C5  UNL d   1      -0.055   3.443   3.707  0.00  0.00     0.003 A 
ATOM      7  I   UNL d   1      -2.701   0.690   1.645  0.00  0.00    -0.146 I 
ENDROOT
TORSDOF 0
ENDMDL
