MODEL 1
REMARK minimizedAffinity 13.3880978
REMARK minimizedRMSD -1
REMARK  0 active torsions:
REMARK  status: ('A' for Active; 'I' for Inactive)
ROOT
ATOM      1  C   UNL d   1       0.740  -4.968  -4.497  0.00  0.00     0.023 A 
ATOM      2  C1  UNL d   1       1.781  -4.499  -3.696  0.00  0.00     0.003 A 
ATOM      3  C2  UNL d   1       3.106  -4.774  -4.040  0.00  0.00     0.048 A 
ATOM      4  C3  UNL d   1       3.383  -5.517  -5.187  0.00  0.00     0.023 A 
ATOM      5  C4  UNL d   1       2.344  -5.987  -5.992  0.00  0.00     0.048 A 
ATOM      6  C5  UNL d   1       1.021  -5.711  -5.643  0.00  0.00     0.003 A 
ATOM      7  I   UNL d   1       5.354  -5.928  -5.702  0.00  0.00    -0.146 I 
ENDROOT
TORSDOF 0
ENDMDL
