MODEL 1
REMARK minimizedAffinity 0.144123822
REMARK minimizedRMSD -1
REMARK  0 active torsions:
REMARK  status: ('A' for Active; 'I' for Inactive)
ROOT
ATOM      1  C   UNL d   1       1.607  -5.385  -5.298  0.00  0.00     0.023 A 
ATOM      2  C1  UNL d   1       1.791  -4.890  -4.007  0.00  0.00     0.003 A 
ATOM      3  C2  UNL d   1       3.051  -4.950  -3.408  0.00  0.00     0.048 A 
ATOM      4  C3  UNL d   1       4.123  -5.504  -4.107  0.00  0.00     0.023 A 
ATOM      5  C4  UNL d   1       3.944  -5.999  -5.400  0.00  0.00     0.048 A 
ATOM      6  C5  UNL d   1       2.682  -5.938  -5.994  0.00  0.00     0.003 A 
ATOM      7  I   UNL d   1       6.000  -5.593  -3.218  0.00  0.00    -0.146 I 
ENDROOT
TORSDOF 0
ENDMDL
