MODEL 1
REMARK minimizedAffinity -2.5979445
REMARK minimizedRMSD -1
REMARK  0 active torsions:
REMARK  status: ('A' for Active; 'I' for Inactive)
ROOT
ATOM      1  C   UNL d   1      -5.621  -0.633   3.867  0.00  0.00     0.023 A 
ATOM      2  C1  UNL d   1      -5.877   0.317   2.878  0.00  0.00     0.003 A 
ATOM      3  C2  UNL d   1      -4.858   0.714   2.009  0.00  0.00     0.048 A 
ATOM      4  C3  UNL d   1      -3.587   0.156   2.134  0.00  0.00     0.023 A 
ATOM      5  C4  UNL d   1      -3.326  -0.796   3.121  0.00  0.00     0.048 A 
ATOM      6  C5  UNL d   1      -4.347  -1.189   3.988  0.00  0.00     0.003 A 
ATOM      7  I   UNL d   1      -2.069   0.745   0.841  0.00  0.00    -0.146 I 
ENDROOT
TORSDOF 0
ENDMDL
