MODEL 1
REMARK minimizedAffinity 4.04991674
REMARK minimizedRMSD -1
REMARK  0 active torsions:
REMARK  status: ('A' for Active; 'I' for Inactive)
ROOT
ATOM      1  C   UNL d   1      -0.570   4.336   3.502  0.00  0.00     0.023 A 
ATOM      2  C1  UNL d   1      -1.111   3.067   3.712  0.00  0.00     0.003 A 
ATOM      3  C2  UNL d   1      -0.876   2.045   2.791  0.00  0.00     0.048 A 
ATOM      4  C3  UNL d   1      -0.098   2.297   1.661  0.00  0.00     0.023 A 
ATOM      5  C4  UNL d   1       0.446   3.565   1.447  0.00  0.00     0.048 A 
ATOM      6  C5  UNL d   1       0.207   4.584   2.371  0.00  0.00     0.003 A 
ATOM      7  I   UNL d   1       0.253   0.777   0.288  0.00  0.00    -0.146 I 
ENDROOT
TORSDOF 0
ENDMDL
