MODEL 1
REMARK minimizedAffinity 9.15648174
REMARK minimizedRMSD -1
REMARK  0 active torsions:
REMARK  status: ('A' for Active; 'I' for Inactive)
ROOT
ATOM      1  C   UNL d   1      -2.800  -4.111  -0.391  0.00  0.00     0.023 A 
ATOM      2  C1  UNL d   1      -2.536  -3.337  -1.521  0.00  0.00     0.003 A 
ATOM      3  C2  UNL d   1      -1.807  -2.151  -1.402  0.00  0.00     0.048 A 
ATOM      4  C3  UNL d   1      -1.345  -1.747  -0.150  0.00  0.00     0.023 A 
ATOM      5  C4  UNL d   1      -1.606  -2.519   0.983  0.00  0.00     0.048 A 
ATOM      6  C5  UNL d   1      -2.335  -3.703   0.859  0.00  0.00     0.003 A 
ATOM      7  I   UNL d   1      -0.260   0.017   0.029  0.00  0.00    -0.146 I 
ENDROOT
TORSDOF 0
ENDMDL
