MODEL 1
REMARK minimizedAffinity 8.51181984
REMARK minimizedRMSD -1
REMARK  0 active torsions:
REMARK  status: ('A' for Active; 'I' for Inactive)
ROOT
ATOM      1  C   UNL d   1       2.454   2.028  -2.671  0.00  0.00     0.023 A 
ATOM      2  C1  UNL d   1       3.791   1.940  -2.280  0.00  0.00     0.003 A 
ATOM      3  C2  UNL d   1       4.806   2.036  -3.233  0.00  0.00     0.048 A 
ATOM      4  C3  UNL d   1       4.479   2.221  -4.576  0.00  0.00     0.023 A 
ATOM      5  C4  UNL d   1       3.143   2.311  -4.972  0.00  0.00     0.048 A 
ATOM      6  C5  UNL d   1       2.131   2.213  -4.015  0.00  0.00     0.003 A 
ATOM      7  I   UNL d   1       5.989   2.366  -5.997  0.00  0.00    -0.146 I 
ENDROOT
TORSDOF 0
ENDMDL
