MODEL 1
REMARK minimizedAffinity -1.83965635
REMARK minimizedRMSD -1
REMARK  0 active torsions:
REMARK  status: ('A' for Active; 'I' for Inactive)
ROOT
ATOM      1  C   UNL d   1       5.660   2.630  -4.063  0.00  0.00     0.023 A 
ATOM      2  C1  UNL d   1       4.561   2.871  -3.238  0.00  0.00     0.003 A 
ATOM      3  C2  UNL d   1       3.285   2.996  -3.791  0.00  0.00     0.048 A 
ATOM      4  C3  UNL d   1       3.115   2.877  -5.170  0.00  0.00     0.023 A 
ATOM      5  C4  UNL d   1       4.211   2.634  -5.999  0.00  0.00     0.048 A 
ATOM      6  C5  UNL d   1       5.485   2.511  -5.441  0.00  0.00     0.003 A 
ATOM      7  I   UNL d   1       1.217   3.062  -5.996  0.00  0.00    -0.146 I 
ENDROOT
TORSDOF 0
ENDMDL
