MODEL 1
REMARK minimizedAffinity 0.748128057
REMARK minimizedRMSD -1
REMARK  0 active torsions:
REMARK  status: ('A' for Active; 'I' for Inactive)
ROOT
ATOM      1  C   UNL d   1      -2.921  -1.615   4.680  0.00  0.00     0.023 A 
ATOM      2  C1  UNL d   1      -3.539  -0.435   4.267  0.00  0.00     0.003 A 
ATOM      3  C2  UNL d   1      -3.100   0.218   3.113  0.00  0.00     0.048 A 
ATOM      4  C3  UNL d   1      -2.043  -0.316   2.377  0.00  0.00     0.023 A 
ATOM      5  C4  UNL d   1      -1.422  -1.497   2.786  0.00  0.00     0.048 A 
ATOM      6  C5  UNL d   1      -1.864  -2.145   3.941  0.00  0.00     0.003 A 
ATOM      7  I   UNL d   1      -1.388   0.654   0.659  0.00  0.00    -0.146 I 
ENDROOT
TORSDOF 0
ENDMDL
