MODEL 1
REMARK minimizedAffinity 3.02389789
REMARK minimizedRMSD -1
REMARK  0 active torsions:
REMARK  status: ('A' for Active; 'I' for Inactive)
ROOT
ATOM      1  C   UNL d   1       2.853   2.056  -4.962  0.00  0.00     0.023 A 
ATOM      2  C1  UNL d   1       2.536   1.860  -3.618  0.00  0.00     0.003 A 
ATOM      3  C2  UNL d   1       3.438   2.242  -2.623  0.00  0.00     0.048 A 
ATOM      4  C3  UNL d   1       4.656   2.820  -2.979  0.00  0.00     0.023 A 
ATOM      5  C4  UNL d   1       4.978   3.019  -4.323  0.00  0.00     0.048 A 
ATOM      6  C5  UNL d   1       4.073   2.635  -5.314  0.00  0.00     0.003 A 
ATOM      7  I   UNL d   1       6.000   3.389  -1.500  0.00  0.00    -0.146 I 
ENDROOT
TORSDOF 0
ENDMDL
