MODEL 1
REMARK minimizedAffinity 6.91056824
REMARK minimizedRMSD -1
REMARK  0 active torsions:
REMARK  status: ('A' for Active; 'I' for Inactive)
ROOT
ATOM      1  C   UNL d   1      -1.013  -4.585  -3.261  0.00  0.00     0.023 A 
ATOM      2  C1  UNL d   1       0.336  -4.246  -3.157  0.00  0.00     0.003 A 
ATOM      3  C2  UNL d   1       0.779  -3.462  -2.090  0.00  0.00     0.048 A 
ATOM      4  C3  UNL d   1      -0.132  -3.021  -1.130  0.00  0.00     0.023 A 
ATOM      5  C4  UNL d   1      -1.482  -3.359  -1.230  0.00  0.00     0.048 A 
ATOM      6  C5  UNL d   1      -1.921  -4.142  -2.299  0.00  0.00     0.003 A 
ATOM      7  I   UNL d   1       0.526  -1.854   0.459  0.00  0.00    -0.146 I 
ENDROOT
TORSDOF 0
ENDMDL
