MODEL 1
REMARK minimizedAffinity -4.41798067
REMARK minimizedRMSD -1
REMARK  1 active torsions:
REMARK  status: ('A' for Active; 'I' for Inactive)
REMARK    1  A    between atoms: C1_2  and  C2_3 
ROOT
ATOM      1  C2  UNL d   1      -0.306   0.897   1.304  0.00  0.00    -0.077 A 
ATOM      2  C3  UNL d   1       0.981   0.386   1.092  0.00  0.00     0.002 A 
ATOM      3  C4  UNL d   1       1.236  -0.460   0.011  0.00  0.00     0.002 A 
ATOM      4  C5  UNL d   1       0.210  -0.798  -0.869  0.00  0.00    -0.004 A 
ATOM      5  C6  UNL d   1      -1.075  -0.295  -0.665  0.00  0.00     0.002 A 
ATOM      6  C7  UNL d   1      -1.332   0.549   0.416  0.00  0.00     0.002 A 
ENDROOT
BRANCH   1   7
ATOM      7  C1  UNL d   1      -0.572   1.849   2.441  0.00  0.00     0.055 C 
ATOM      8  C   UNL d   1      -1.527   1.243   3.459  0.00  0.00     0.019 C 
ENDBRANCH   1   7
TORSDOF 1
ENDMDL
