MODEL 1
REMARK minimizedAffinity -1.6103164
REMARK minimizedRMSD -1
REMARK  1 active torsions:
REMARK  status: ('A' for Active; 'I' for Inactive)
REMARK    1  A    between atoms: C1_2  and  C2_3 
ROOT
ATOM      1  C2  UNL d   1      -0.102  -0.167   0.580  0.00  0.00    -0.077 A 
ATOM      2  C3  UNL d   1       0.753   0.841   1.048  0.00  0.00     0.002 A 
ATOM      3  C4  UNL d   1       0.498   1.474   2.267  0.00  0.00     0.002 A 
ATOM      4  C5  UNL d   1      -0.608   1.103   3.029  0.00  0.00    -0.004 A 
ATOM      5  C6  UNL d   1      -1.465   0.103   2.571  0.00  0.00     0.002 A 
ATOM      6  C7  UNL d   1      -1.213  -0.530   1.353  0.00  0.00     0.002 A 
ENDROOT
BRANCH   1   7
ATOM      7  C1  UNL d   1       0.198  -0.884  -0.710  0.00  0.00     0.055 C 
ATOM      8  C   UNL d   1       0.406   0.098  -1.854  0.00  0.00     0.019 C 
ENDBRANCH   1   7
TORSDOF 1
ENDMDL
