MODEL 1
REMARK minimizedAffinity -3.53558874
REMARK minimizedRMSD -1
REMARK  1 active torsions:
REMARK  status: ('A' for Active; 'I' for Inactive)
REMARK    1  A    between atoms: C1_2  and  C2_3 
ROOT
ATOM      1  C2  UNL d   1      -0.320   0.104   0.509  0.00  0.00    -0.077 A 
ATOM      2  C3  UNL d   1       0.272   1.366   0.657  0.00  0.00     0.002 A 
ATOM      3  C4  UNL d   1      -0.124   2.215   1.693  0.00  0.00     0.002 A 
ATOM      4  C5  UNL d   1      -1.110   1.809   2.590  0.00  0.00    -0.004 A 
ATOM      5  C6  UNL d   1      -1.706   0.557   2.450  0.00  0.00     0.002 A 
ATOM      6  C7  UNL d   1      -1.313  -0.293   1.415  0.00  0.00     0.002 A 
ENDROOT
BRANCH   1   7
ATOM      7  C1  UNL d   1       0.140  -0.833  -0.577  0.00  0.00     0.055 C 
ATOM      8  C   UNL d   1       0.187  -0.134  -1.928  0.00  0.00     0.019 C 
ENDBRANCH   1   7
TORSDOF 1
ENDMDL
