MODEL 1
REMARK minimizedAffinity -4.85110283
REMARK minimizedRMSD -1
REMARK  1 active torsions:
REMARK  status: ('A' for Active; 'I' for Inactive)
REMARK    1  A    between atoms: C1_2  and  C2_3 
ROOT
ATOM      1  C2  UNL d   1      -0.748   0.368   0.942  0.00  0.00    -0.077 A 
ATOM      2  C3  UNL d   1       0.626   0.197   1.159  0.00  0.00     0.002 A 
ATOM      3  C4  UNL d   1       1.429  -0.387   0.176  0.00  0.00     0.002 A 
ATOM      4  C5  UNL d   1       0.867  -0.800  -1.030  0.00  0.00    -0.004 A 
ATOM      5  C6  UNL d   1      -0.499  -0.636  -1.254  0.00  0.00     0.002 A 
ATOM      6  C7  UNL d   1      -1.303  -0.054  -0.273  0.00  0.00     0.002 A 
ENDROOT
BRANCH   1   7
ATOM      7  C1  UNL d   1      -1.607   1.042   1.980  0.00  0.00     0.055 C 
ATOM      8  C   UNL d   1      -0.788   1.986   2.848  0.00  0.00     0.019 C 
ENDBRANCH   1   7
TORSDOF 1
ENDMDL
