MODEL 1
REMARK minimizedAffinity -3.47924066
REMARK minimizedRMSD -1
REMARK  1 active torsions:
REMARK  status: ('A' for Active; 'I' for Inactive)
REMARK    1  A    between atoms: C1_2  and  C2_3 
ROOT
ATOM      1  C2  UNL d   1       0.862  -0.211  -0.717  0.00  0.00    -0.077 A 
ATOM      2  C3  UNL d   1       0.111   0.860  -0.214  0.00  0.00     0.002 A 
ATOM      3  C4  UNL d   1       0.367   1.364   1.063  0.00  0.00     0.002 A 
ATOM      4  C5  UNL d   1       1.377   0.807   1.844  0.00  0.00    -0.004 A 
ATOM      5  C6  UNL d   1       2.129  -0.260   1.353  0.00  0.00     0.002 A 
ATOM      6  C7  UNL d   1       1.873  -0.766   0.078  0.00  0.00     0.002 A 
ENDROOT
BRANCH   1   7
ATOM      7  C1  UNL d   1       0.620  -0.724  -2.113  0.00  0.00     0.055 C 
ATOM      8  C   UNL d   1       1.410   0.074  -3.141  0.00  0.00     0.019 C 
ENDBRANCH   1   7
TORSDOF 1
ENDMDL
