MODEL 1
REMARK minimizedAffinity -3.81005335
REMARK minimizedRMSD -1
REMARK  1 active torsions:
REMARK  status: ('A' for Active; 'I' for Inactive)
REMARK    1  A    between atoms: C1_2  and  C2_3 
ROOT
ATOM      1  C2  UNL d   1       0.863  -0.031  -1.660  0.00  0.00    -0.077 A 
ATOM      2  C3  UNL d   1       0.420  -0.668  -2.828  0.00  0.00     0.002 A 
ATOM      3  C4  UNL d   1       0.736  -0.143  -4.082  0.00  0.00     0.002 A 
ATOM      4  C5  UNL d   1       1.501   1.018  -4.181  0.00  0.00    -0.004 A 
ATOM      5  C6  UNL d   1       1.945   1.659  -3.025  0.00  0.00     0.002 A 
ATOM      6  C7  UNL d   1       1.629   1.137  -1.771  0.00  0.00     0.002 A 
ENDROOT
BRANCH   1   7
ATOM      7  C1  UNL d   1       0.564  -0.623  -0.308  0.00  0.00     0.055 C 
ATOM      8  C   UNL d   1      -0.296   0.313   0.528  0.00  0.00     0.019 C 
ENDBRANCH   1   7
TORSDOF 1
ENDMDL
