MODEL 1
REMARK minimizedAffinity -1.24271417
REMARK minimizedRMSD -1
REMARK  0 active torsions:
REMARK  status: ('A' for Active; 'I' for Inactive)
ROOT
ATOM      1  C1  BNZ d   1       1.834  -1.901   4.022  0.00  0.00     0.000 A 
ATOM      2  C2  BNZ d   1       1.222  -1.057   3.134  0.00  0.00     0.000 A 
ATOM      3  C3  BNZ d   1       0.896  -1.482   1.876  0.00  0.00     0.000 A 
ATOM      4  C4  BNZ d   1       1.217  -2.735   1.495  0.00  0.00     0.000 A 
ATOM      5  C5  BNZ d   1       1.843  -3.595   2.375  0.00  0.00     0.000 A 
ATOM      6  C6  BNZ d   1       2.135  -3.176   3.653  0.00  0.00     0.000 A 
ENDROOT
TORSDOF 0
ENDMDL
