MODEL 1
REMARK minimizedAffinity 5.8545661
REMARK minimizedRMSD -1
REMARK  0 active torsions:
REMARK  status: ('A' for Active; 'I' for Inactive)
ROOT
ATOM      1  C1  BNZ d   1      -5.238  -5.976  -5.033  0.00  0.00     0.000 A 
ATOM      2  C2  BNZ d   1      -5.971  -5.297  -5.969  0.00  0.00     0.000 A 
ATOM      3  C3  BNZ d   1      -5.995  -3.931  -5.983  0.00  0.00     0.000 A 
ATOM      4  C4  BNZ d   1      -5.319  -3.246  -5.038  0.00  0.00     0.000 A 
ATOM      5  C5  BNZ d   1      -4.584  -3.916  -4.081  0.00  0.00     0.000 A 
ATOM      6  C6  BNZ d   1      -4.530  -5.291  -4.094  0.00  0.00     0.000 A 
ENDROOT
TORSDOF 0
ENDMDL
