MODEL 1
REMARK minimizedAffinity 3.7790153
REMARK minimizedRMSD -1
REMARK  0 active torsions:
REMARK  status: ('A' for Active; 'I' for Inactive)
ROOT
ATOM      1  C1  BNZ d   1       1.445  -2.866  -2.250  0.00  0.00     0.000 A 
ATOM      2  C2  BNZ d   1       1.700  -2.148  -1.112  0.00  0.00     0.000 A 
ATOM      3  C3  BNZ d   1       1.597  -2.731   0.120  0.00  0.00     0.000 A 
ATOM      4  C4  BNZ d   1       1.203  -4.017   0.215  0.00  0.00     0.000 A 
ATOM      5  C5  BNZ d   1       0.934  -4.751  -0.923  0.00  0.00     0.000 A 
ATOM      6  C6  BNZ d   1       1.076  -4.173  -2.163  0.00  0.00     0.000 A 
ENDROOT
TORSDOF 0
ENDMDL
