MODEL 1
REMARK minimizedAffinity -3.16780424
REMARK minimizedRMSD -1
REMARK  0 active torsions:
REMARK  status: ('A' for Active; 'I' for Inactive)
ROOT
ATOM      1  C1  BNZ d   1       0.083  -1.516   2.024  0.00  0.00     0.000 A 
ATOM      2  C2  BNZ d   1      -0.119  -2.622   2.806  0.00  0.00     0.000 A 
ATOM      3  C3  BNZ d   1       0.856  -3.570   2.942  0.00  0.00     0.000 A 
ATOM      4  C4  BNZ d   1       2.015  -3.431   2.266  0.00  0.00     0.000 A 
ATOM      5  C5  BNZ d   1       2.230  -2.326   1.467  0.00  0.00     0.000 A 
ATOM      6  C6  BNZ d   1       1.261  -1.355   1.363  0.00  0.00     0.000 A 
ENDROOT
TORSDOF 0
ENDMDL
