MODEL 1
REMARK minimizedAffinity 2.09100533
REMARK minimizedRMSD -1
REMARK  0 active torsions:
REMARK  status: ('A' for Active; 'I' for Inactive)
ROOT
ATOM      1  C1  BNZ d   1       2.209  -0.743   1.755  0.00  0.00     0.000 A 
ATOM      2  C2  BNZ d   1       1.904  -2.001   1.307  0.00  0.00     0.000 A 
ATOM      3  C3  BNZ d   1       1.171  -2.860   2.078  0.00  0.00     0.000 A 
ATOM      4  C4  BNZ d   1       0.780  -2.475   3.310  0.00  0.00     0.000 A 
ATOM      5  C5  BNZ d   1       1.088  -1.214   3.780  0.00  0.00     0.000 A 
ATOM      6  C6  BNZ d   1       1.792  -0.338   2.985  0.00  0.00     0.000 A 
ENDROOT
TORSDOF 0
ENDMDL
