MODEL 1
REMARK minimizedAffinity -3.22013927
REMARK minimizedRMSD -1
REMARK  0 active torsions:
REMARK  status: ('A' for Active; 'I' for Inactive)
ROOT
ATOM      1  C1  BNZ d   1      -5.837   1.091  -0.723  0.00  0.00     0.000 A 
ATOM      2  C2  BNZ d   1      -5.654   1.087   0.634  0.00  0.00     0.000 A 
ATOM      3  C3  BNZ d   1      -4.459   1.463   1.180  0.00  0.00     0.000 A 
ATOM      4  C4  BNZ d   1      -3.436   1.802   0.369  0.00  0.00     0.000 A 
ATOM      5  C5  BNZ d   1      -3.602   1.801  -1.002  0.00  0.00     0.000 A 
ATOM      6  C6  BNZ d   1      -4.819   1.460  -1.547  0.00  0.00     0.000 A 
ENDROOT
TORSDOF 0
ENDMDL
