MODEL 1
REMARK minimizedAffinity 4.83670092
REMARK minimizedRMSD -1
REMARK  0 active torsions:
REMARK  status: ('A' for Active; 'I' for Inactive)
ROOT
ATOM      1  C1  BNZ d   1       4.937   2.454  -5.316  0.00  0.00     0.000 A 
ATOM      2  C2  BNZ d   1       5.978   3.112  -5.915  0.00  0.00     0.000 A 
ATOM      3  C3  BNZ d   1       5.988   4.476  -5.999  0.00  0.00     0.000 A 
ATOM      4  C4  BNZ d   1       4.940   5.177  -5.521  0.00  0.00     0.000 A 
ATOM      5  C5  BNZ d   1       3.879   4.528  -4.923  0.00  0.00     0.000 A 
ATOM      6  C6  BNZ d   1       3.890   3.157  -4.805  0.00  0.00     0.000 A 
ENDROOT
TORSDOF 0
ENDMDL
