MODEL 1
REMARK minimizedAffinity 0.637608171
REMARK minimizedRMSD -1
REMARK  0 active torsions:
REMARK  status: ('A' for Active; 'I' for Inactive)
ROOT
ATOM      1  C1  BNZ d   1      -5.237  -5.972  -5.942  0.00  0.00     0.000 A 
ATOM      2  C2  BNZ d   1      -5.999  -4.835  -6.000  0.00  0.00     0.000 A 
ATOM      3  C3  BNZ d   1      -5.605  -3.695  -5.358  0.00  0.00     0.000 A 
ATOM      4  C4  BNZ d   1      -4.472  -3.703  -4.627  0.00  0.00     0.000 A 
ATOM      5  C5  BNZ d   1      -3.697  -4.843  -4.551  0.00  0.00     0.000 A 
ATOM      6  C6  BNZ d   1      -4.077  -5.978  -5.231  0.00  0.00     0.000 A 
ENDROOT
TORSDOF 0
ENDMDL
