MODEL 1
REMARK minimizedAffinity 13.8338432
REMARK minimizedRMSD -1
REMARK  0 active torsions:
REMARK  status: ('A' for Active; 'I' for Inactive)
ROOT
ATOM      1  C4' PXY d   1       2.927  -0.147  -0.418  0.00  0.00     0.077 C 
ATOM      2  C1' PXY d   1      -1.990   2.164   1.554  0.00  0.00     0.077 C 
ATOM      3  C1  PXY d   1      -0.695   1.561   1.048  0.00  0.00    -0.082 A 
ATOM      4  C2  PXY d   1      -0.496   1.436  -0.254  0.00  0.00     0.003 A 
ATOM      5  C3  PXY d   1       0.656   0.864  -0.728  0.00  0.00     0.003 A 
ATOM      6  C4  PXY d   1       1.638   0.464   0.138  0.00  0.00    -0.082 A 
ATOM      7  C5  PXY d   1       1.448   0.599   1.467  0.00  0.00     0.003 A 
ATOM      8  C6  PXY d   1       0.254   1.144   1.930  0.00  0.00     0.003 A 
ENDROOT
TORSDOF 0
ENDMDL
