MODEL 1
REMARK minimizedAffinity 12.6036329
REMARK minimizedRMSD -1
REMARK  0 active torsions:
REMARK  status: ('A' for Active; 'I' for Inactive)
ROOT
ATOM      1  C4' PXY d   1       0.535  -5.988  -1.066  0.00  0.00     0.077 C 
ATOM      2  C1' PXY d   1      -1.871  -1.083  -2.955  0.00  0.00     0.077 C 
ATOM      3  C1  PXY d   1      -1.228  -2.365  -2.464  0.00  0.00    -0.082 A 
ATOM      4  C2  PXY d   1      -1.975  -3.441  -2.277  0.00  0.00     0.003 A 
ATOM      5  C3  PXY d   1      -1.416  -4.600  -1.804  0.00  0.00     0.003 A 
ATOM      6  C4  PXY d   1      -0.069  -4.674  -1.569  0.00  0.00    -0.082 A 
ATOM      7  C5  PXY d   1       0.702  -3.584  -1.768  0.00  0.00     0.003 A 
ATOM      8  C6  PXY d   1       0.108  -2.405  -2.209  0.00  0.00     0.003 A 
ENDROOT
TORSDOF 0
ENDMDL
