MODEL 1
REMARK minimizedAffinity 12.9969711
REMARK minimizedRMSD -1
REMARK  0 active torsions:
REMARK  status: ('A' for Active; 'I' for Inactive)
ROOT
ATOM      1  C4' PXY d   1       4.567   0.368  -0.261  0.00  0.00     0.077 C 
ATOM      2  C1' PXY d   1       5.993   5.952  -0.707  0.00  0.00     0.077 C 
ATOM      3  C1  PXY d   1       5.627   4.486  -0.580  0.00  0.00    -0.082 A 
ATOM      4  C2  PXY d   1       5.189   3.827  -1.640  0.00  0.00     0.003 A 
ATOM      5  C3  PXY d   1       4.823   2.510  -1.535  0.00  0.00     0.003 A 
ATOM      6  C4  PXY d   1       4.957   1.846  -0.345  0.00  0.00    -0.082 A 
ATOM      7  C5  PXY d   1       5.414   2.509   0.738  0.00  0.00     0.003 A 
ATOM      8  C6  PXY d   1       5.741   3.856   0.621  0.00  0.00     0.003 A 
ENDROOT
TORSDOF 0
ENDMDL
