MODEL 1
REMARK minimizedAffinity 12.2987127
REMARK minimizedRMSD -1
REMARK  0 active torsions:
REMARK  status: ('A' for Active; 'I' for Inactive)
ROOT
ATOM      1  C4' PXY d   1       4.949   2.724  -0.981  0.00  0.00     0.077 C 
ATOM      2  C1' PXY d   1       3.187  -2.587   0.468  0.00  0.00     0.077 C 
ATOM      3  C1  PXY d   1       3.658  -1.195   0.097  0.00  0.00    -0.082 A 
ATOM      4  C2  PXY d   1       2.834  -0.370  -0.528  0.00  0.00     0.003 A 
ATOM      5  C3  PXY d   1       3.254   0.881  -0.899  0.00  0.00     0.003 A 
ATOM      6  C4  PXY d   1       4.513   1.313  -0.579  0.00  0.00    -0.082 A 
ATOM      7  C5  PXY d   1       5.357   0.481   0.069  0.00  0.00     0.003 A 
ATOM      8  C6  PXY d   1       4.925  -0.800   0.400  0.00  0.00     0.003 A 
ENDROOT
TORSDOF 0
ENDMDL
