MODEL 1
REMARK minimizedAffinity 17.1495247
REMARK minimizedRMSD -1
REMARK  0 active torsions:
REMARK  status: ('A' for Active; 'I' for Inactive)
ROOT
ATOM      1  C4' PXY d   1       1.697  -1.271  -1.527  0.00  0.00     0.077 C 
ATOM      2  C1' PXY d   1      -1.544  -5.748  -3.219  0.00  0.00     0.077 C 
ATOM      3  C1  PXY d   1      -0.696  -4.577  -2.763  0.00  0.00    -0.082 A 
ATOM      4  C2  PXY d   1      -0.574  -3.515  -3.542  0.00  0.00     0.003 A 
ATOM      5  C3  PXY d   1       0.215  -2.461  -3.159  0.00  0.00     0.003 A 
ATOM      6  C4  PXY d   1       0.843  -2.472  -1.942  0.00  0.00    -0.082 A 
ATOM      7  C5  PXY d   1       0.716  -3.548  -1.137  0.00  0.00     0.003 A 
ATOM      8  C6  PXY d   1      -0.057  -4.625  -1.563  0.00  0.00     0.003 A 
ENDROOT
TORSDOF 0
ENDMDL
