MODEL 1
REMARK minimizedAffinity 9.97093678
REMARK minimizedRMSD -1
REMARK  0 active torsions:
REMARK  status: ('A' for Active; 'I' for Inactive)
ROOT
ATOM      1  C4' PXY d   1      -6.000   4.111  -3.602  0.00  0.00     0.077 C 
ATOM      2  C1' PXY d   1      -2.687   0.026  -6.000  0.00  0.00     0.077 C 
ATOM      3  C1  PXY d   1      -3.566   1.090  -5.374  0.00  0.00    -0.082 A 
ATOM      4  C2  PXY d   1      -3.124   2.334  -5.283  0.00  0.00     0.003 A 
ATOM      5  C3  PXY d   1      -3.893   3.302  -4.691  0.00  0.00     0.003 A 
ATOM      6  C4  PXY d   1      -5.150   3.006  -4.235  0.00  0.00    -0.082 A 
ATOM      7  C5  PXY d   1      -5.613   1.742  -4.334  0.00  0.00     0.003 A 
ATOM      8  C6  PXY d   1      -4.800   0.765  -4.901  0.00  0.00     0.003 A 
ENDROOT
TORSDOF 0
ENDMDL
