MODEL 1
REMARK minimizedAffinity 7.05994701
REMARK minimizedRMSD -1
REMARK  0 active torsions:
REMARK  status: ('A' for Active; 'I' for Inactive)
ROOT
ATOM      1  C4' PXY d   1       2.680  -2.219   0.863  0.00  0.00     0.077 C 
ATOM      2  C1' PXY d   1       5.327   2.356  -1.477  0.00  0.00     0.077 C 
ATOM      3  C1  PXY d   1       4.624   1.157  -0.873  0.00  0.00    -0.082 A 
ATOM      4  C2  PXY d   1       4.807   0.866   0.405  0.00  0.00     0.003 A 
ATOM      5  C3  PXY d   1       4.204  -0.233   0.960  0.00  0.00     0.003 A 
ATOM      6  C4  PXY d   1       3.362  -1.013   0.212  0.00  0.00    -0.082 A 
ATOM      7  C5  PXY d   1       3.162  -0.717  -1.089  0.00  0.00     0.003 A 
ATOM      8  C6  PXY d   1       3.816   0.379  -1.644  0.00  0.00     0.003 A 
ENDROOT
TORSDOF 0
ENDMDL
