MODEL 1
REMARK minimizedAffinity 13.2268534
REMARK minimizedRMSD -1
REMARK  0 active torsions:
REMARK  status: ('A' for Active; 'I' for Inactive)
ROOT
ATOM      1  C4' PXY d   1       1.153  -2.285   3.869  0.00  0.00     0.077 C 
ATOM      2  C1' PXY d   1       0.010   2.021   0.186  0.00  0.00     0.077 C 
ATOM      3  C1  PXY d   1       0.300   0.896   1.160  0.00  0.00    -0.082 A 
ATOM      4  C2  PXY d   1       1.478   0.293   1.130  0.00  0.00     0.003 A 
ATOM      5  C3  PXY d   1       1.746  -0.747   1.982  0.00  0.00     0.003 A 
ATOM      6  C4  PXY d   1       0.819  -1.139   2.911  0.00  0.00    -0.082 A 
ATOM      7  C5  PXY d   1      -0.381  -0.521   2.955  0.00  0.00     0.003 A 
ATOM      8  C6  PXY d   1      -0.648   0.505   2.054  0.00  0.00     0.003 A 
ENDROOT
TORSDOF 0
ENDMDL
