MODEL 1
REMARK minimizedAffinity 9.77646637
REMARK minimizedRMSD -1
REMARK  0 active torsions:
REMARK  status: ('A' for Active; 'I' for Inactive)
ROOT
ATOM      1  C4' PXY d   1       0.602  -6.000   6.000  0.00  0.00     0.077 C 
ATOM      2  C1' PXY d   1       1.196  -0.889   3.364  0.00  0.00     0.077 C 
ATOM      3  C1  PXY d   1       1.053  -2.230   4.058  0.00  0.00    -0.082 A 
ATOM      4  C2  PXY d   1       0.031  -3.015   3.759  0.00  0.00     0.003 A 
ATOM      5  C3  PXY d   1      -0.131  -4.217   4.399  0.00  0.00     0.003 A 
ATOM      6  C4  PXY d   1       0.791  -4.642   5.318  0.00  0.00    -0.082 A 
ATOM      7  C5  PXY d   1       1.842  -3.851   5.621  0.00  0.00     0.003 A 
ATOM      8  C6  PXY d   1       1.967  -2.617   4.989  0.00  0.00     0.003 A 
ENDROOT
TORSDOF 0
ENDMDL
