MODEL 1
REMARK minimizedAffinity 12.8978968
REMARK minimizedRMSD -1
REMARK  0 active torsions:
REMARK  status: ('A' for Active; 'I' for Inactive)
ROOT
ATOM      1  C4' PXY d   1      -5.912   0.802   5.876  0.00  0.00     0.077 C 
ATOM      2  C1' PXY d   1      -5.931   6.000   3.347  0.00  0.00     0.077 C 
ATOM      3  C1  PXY d   1      -5.921   4.642   4.021  0.00  0.00    -0.082 A 
ATOM      4  C2  PXY d   1      -5.851   3.546   3.284  0.00  0.00     0.003 A 
ATOM      5  C3  PXY d   1      -5.873   2.309   3.875  0.00  0.00     0.003 A 
ATOM      6  C4  PXY d   1      -5.915   2.194   5.239  0.00  0.00    -0.082 A 
ATOM      7  C5  PXY d   1      -5.976   3.308   5.999  0.00  0.00     0.003 A 
ATOM      8  C6  PXY d   1      -5.994   4.553   5.377  0.00  0.00     0.003 A 
ENDROOT
TORSDOF 0
ENDMDL
