MODEL 1
REMARK minimizedAffinity 5.48592567
REMARK minimizedRMSD -1
REMARK  0 active torsions:
REMARK  status: ('A' for Active; 'I' for Inactive)
ROOT
ATOM      1  C4' PXY d   1       4.068  -0.275   1.117  0.00  0.00     0.077 C 
ATOM      2  C1' PXY d   1       6.000   4.949  -0.428  0.00  0.00     0.077 C 
ATOM      3  C1  PXY d   1       5.482   3.582  -0.029  0.00  0.00    -0.082 A 
ATOM      4  C2  PXY d   1       5.993   2.971   1.028  0.00  0.00     0.003 A 
ATOM      5  C3  PXY d   1       5.559   1.721   1.384  0.00  0.00     0.003 A 
ATOM      6  C4  PXY d   1       4.553   1.111   0.683  0.00  0.00    -0.082 A 
ATOM      7  C5  PXY d   1       4.019   1.731  -0.390  0.00  0.00     0.003 A 
ATOM      8  C6  PXY d   1       4.503   2.983  -0.760  0.00  0.00     0.003 A 
ENDROOT
TORSDOF 0
ENDMDL
