MODEL 1
REMARK minimizedAffinity 11.9078026
REMARK minimizedRMSD -1
REMARK  0 active torsions:
REMARK  status: ('A' for Active; 'I' for Inactive)
ROOT
ATOM      1  C4' PXY d   1       0.827  -4.392  -1.676  0.00  0.00     0.077 C 
ATOM      2  C1' PXY d   1       3.876   0.321  -0.294  0.00  0.00     0.077 C 
ATOM      3  C1  PXY d   1       3.080  -0.920  -0.645  0.00  0.00    -0.082 A 
ATOM      4  C2  PXY d   1       2.838  -1.205  -1.914  0.00  0.00     0.003 A 
ATOM      5  C3  PXY d   1       2.092  -2.306  -2.248  0.00  0.00     0.003 A 
ATOM      6  C4  PXY d   1       1.635  -3.154  -1.275  0.00  0.00    -0.082 A 
ATOM      7  C5  PXY d   1       1.887  -2.876   0.021  0.00  0.00     0.003 A 
ATOM      8  C6  PXY d   1       2.610  -1.731   0.342  0.00  0.00     0.003 A 
ENDROOT
TORSDOF 0
ENDMDL
