MODEL 1
REMARK minimizedAffinity 5.30581999
REMARK minimizedRMSD -1
REMARK  0 active torsions:
REMARK  status: ('A' for Active; 'I' for Inactive)
ROOT
ATOM      1  C4' PXY d   1       4.109  -5.988   0.223  0.00  0.00     0.077 C 
ATOM      2  C1' PXY d   1      -1.560  -5.983  -0.906  0.00  0.00     0.077 C 
ATOM      3  C1  PXY d   1      -0.076  -5.979  -0.599  0.00  0.00    -0.082 A 
ATOM      4  C2  PXY d   1       0.798  -5.970  -1.592  0.00  0.00     0.003 A 
ATOM      5  C3  PXY d   1       2.144  -5.999  -1.332  0.00  0.00     0.003 A 
ATOM      6  C4  PXY d   1       2.601  -5.983  -0.041  0.00  0.00    -0.082 A 
ATOM      7  C5  PXY d   1       1.715  -5.981   0.978  0.00  0.00     0.003 A 
ATOM      8  C6  PXY d   1       0.353  -5.993   0.693  0.00  0.00     0.003 A 
ENDROOT
TORSDOF 0
ENDMDL
