MODEL 1
REMARK minimizedAffinity 11.2964354
REMARK minimizedRMSD -1
REMARK  0 active torsions:
REMARK  status: ('A' for Active; 'I' for Inactive)
ROOT
ATOM      1  C4' PXY d   1      -1.448   0.055   0.110  0.00  0.00     0.077 C 
ATOM      2  C1' PXY d   1      -5.345   4.268   0.802  0.00  0.00     0.077 C 
ATOM      3  C1  PXY d   1      -4.318   3.169   0.610  0.00  0.00    -0.082 A 
ATOM      4  C2  PXY d   1      -4.534   1.974   1.134  0.00  0.00     0.003 A 
ATOM      5  C3  PXY d   1      -3.602   0.978   0.996  0.00  0.00     0.003 A 
ATOM      6  C4  PXY d   1      -2.461   1.192   0.271  0.00  0.00    -0.082 A 
ATOM      7  C5  PXY d   1      -2.238   2.406  -0.276  0.00  0.00     0.003 A 
ATOM      8  C6  PXY d   1      -3.178   3.416  -0.090  0.00  0.00     0.003 A 
ENDROOT
TORSDOF 0
ENDMDL
