MODEL 1
REMARK minimizedAffinity 4.46903133
REMARK minimizedRMSD -1
REMARK  0 active torsions:
REMARK  status: ('A' for Active; 'I' for Inactive)
ROOT
ATOM      1  C4' PXY d   1       1.506  -5.999  -2.306  0.00  0.00     0.077 C 
ATOM      2  C1' PXY d   1       5.944  -5.716  -6.000  0.00  0.00     0.077 C 
ATOM      3  C1  PXY d   1       4.788  -5.794  -5.022  0.00  0.00    -0.082 A 
ATOM      4  C2  PXY d   1       3.556  -5.959  -5.476  0.00  0.00     0.003 A 
ATOM      5  C3  PXY d   1       2.496  -6.000  -4.608  0.00  0.00     0.003 A 
ATOM      6  C4  PXY d   1       2.704  -5.924  -3.257  0.00  0.00    -0.082 A 
ATOM      7  C5  PXY d   1       3.959  -5.767  -2.784  0.00  0.00     0.003 A 
ATOM      8  C6  PXY d   1       5.017  -5.686  -3.685  0.00  0.00     0.003 A 
ENDROOT
TORSDOF 0
ENDMDL
