MODEL 1
REMARK minimizedAffinity -0.25951463
REMARK minimizedRMSD -1
REMARK  0 active torsions:
REMARK  status: ('A' for Active; 'I' for Inactive)
ROOT
ATOM      1  C4' PXY d   1       1.579  -4.891   5.477  0.00  0.00     0.077 C 
ATOM      2  C1' PXY d   1       2.532  -0.492   1.850  0.00  0.00     0.077 C 
ATOM      3  C1  PXY d   1       2.292  -1.652   2.796  0.00  0.00    -0.082 A 
ATOM      4  C2  PXY d   1       1.092  -1.828   3.325  0.00  0.00     0.003 A 
ATOM      5  C3  PXY d   1       0.866  -2.853   4.207  0.00  0.00     0.003 A 
ATOM      6  C4  PXY d   1       1.864  -3.739   4.510  0.00  0.00    -0.082 A 
ATOM      7  C5  PXY d   1       3.089  -3.574   3.966  0.00  0.00     0.003 A 
ATOM      8  C6  PXY d   1       3.309  -2.502   3.105  0.00  0.00     0.003 A 
ENDROOT
TORSDOF 0
ENDMDL
