MODEL 1
REMARK minimizedAffinity 2.23864412
REMARK minimizedRMSD -1
REMARK  0 active torsions:
REMARK  status: ('A' for Active; 'I' for Inactive)
ROOT
ATOM      1  C4' PXY d   1       5.999  -2.328   3.398  0.00  0.00     0.077 C 
ATOM      2  C1' PXY d   1       0.287  -3.178   3.134  0.00  0.00     0.077 C 
ATOM      3  C1  PXY d   1       1.786  -2.965   3.213  0.00  0.00    -0.082 A 
ATOM      4  C2  PXY d   1       2.302  -1.807   2.832  0.00  0.00     0.003 A 
ATOM      5  C3  PXY d   1       3.659  -1.608   2.866  0.00  0.00     0.003 A 
ATOM      6  C4  PXY d   1       4.490  -2.585   3.345  0.00  0.00    -0.082 A 
ATOM      7  C5  PXY d   1       3.970  -3.764   3.746  0.00  0.00     0.003 A 
ATOM      8  C6  PXY d   1       2.595  -3.961   3.664  0.00  0.00     0.003 A 
ENDROOT
TORSDOF 0
ENDMDL
