MODEL 1
REMARK minimizedAffinity 9.44587231
REMARK minimizedRMSD -1
REMARK  0 active torsions:
REMARK  status: ('A' for Active; 'I' for Inactive)
ROOT
ATOM      1  C4' PXY d   1      -5.850   0.636   1.364  0.00  0.00     0.077 C 
ATOM      2  C1' PXY d   1      -5.745   5.990  -0.811  0.00  0.00     0.077 C 
ATOM      3  C1  PXY d   1      -5.780   4.582  -0.251  0.00  0.00    -0.082 A 
ATOM      4  C2  PXY d   1      -5.626   4.391   1.049  0.00  0.00     0.003 A 
ATOM      5  C3  PXY d   1      -5.622   3.122   1.569  0.00  0.00     0.003 A 
ATOM      6  C4  PXY d   1      -5.832   2.041   0.756  0.00  0.00    -0.082 A 
ATOM      7  C5  PXY d   1      -6.000   2.227  -0.570  0.00  0.00     0.003 A 
ATOM      8  C6  PXY d   1      -5.959   3.521  -1.083  0.00  0.00     0.003 A 
ENDROOT
TORSDOF 0
ENDMDL
