MODEL 1
REMARK minimizedAffinity 4.19587803
REMARK minimizedRMSD -1
REMARK  0 active torsions:
REMARK  status: ('A' for Active; 'I' for Inactive)
ROOT
ATOM      1  C4' PXY d   1       2.023  -5.224   4.473  0.00  0.00     0.077 C 
ATOM      2  C1' PXY d   1       2.798  -0.134   1.844  0.00  0.00     0.077 C 
ATOM      3  C1  PXY d   1       2.607  -1.473   2.530  0.00  0.00    -0.082 A 
ATOM      4  C2  PXY d   1       1.383  -1.931   2.739  0.00  0.00     0.003 A 
ATOM      5  C3  PXY d   1       1.192  -3.125   3.387  0.00  0.00     0.003 A 
ATOM      6  C4  PXY d   1       2.264  -3.882   3.776  0.00  0.00    -0.082 A 
ATOM      7  C5  PXY d   1       3.515  -3.426   3.556  0.00  0.00     0.003 A 
ATOM      8  C6  PXY d   1       3.688  -2.193   2.934  0.00  0.00     0.003 A 
ENDROOT
TORSDOF 0
ENDMDL
