MODEL 1
REMARK minimizedAffinity -2.82569766
REMARK minimizedRMSD -1
REMARK  0 active torsions:
REMARK  status: ('A' for Active; 'I' for Inactive)
ROOT
ATOM      1  C4' PXY d   1       5.187  -0.767   0.943  0.00  0.00     0.077 C 
ATOM      2  C1' PXY d   1       0.590  -2.952   3.682  0.00  0.00     0.077 C 
ATOM      3  C1  PXY d   1       1.801  -2.391   2.964  0.00  0.00    -0.082 A 
ATOM      4  C2  PXY d   1       2.079  -1.101   3.059  0.00  0.00     0.003 A 
ATOM      5  C3  PXY d   1       3.152  -0.571   2.390  0.00  0.00     0.003 A 
ATOM      6  C4  PXY d   1       3.980  -1.379   1.659  0.00  0.00    -0.082 A 
ATOM      7  C5  PXY d   1       3.710  -2.698   1.566  0.00  0.00     0.003 A 
ATOM      8  C6  PXY d   1       2.593  -3.210   2.219  0.00  0.00     0.003 A 
ENDROOT
TORSDOF 0
ENDMDL
