MODEL 1
REMARK minimizedAffinity 12.2184887
REMARK minimizedRMSD -1
REMARK  0 active torsions:
REMARK  status: ('A' for Active; 'I' for Inactive)
ROOT
ATOM      1  C2' OXE d   1      -3.333  -1.192  -5.433  0.00  0.00     0.078 C 
ATOM      2  C1' OXE d   1      -3.644  -3.981  -5.481  0.00  0.00     0.078 C 
ATOM      3  C1  OXE d   1      -2.596  -3.406  -4.561  0.00  0.00    -0.078 A 
ATOM      4  C2  OXE d   1      -2.419  -2.044  -4.578  0.00  0.00    -0.078 A 
ATOM      5  C3  OXE d   1      -1.504  -1.457  -3.709  0.00  0.00     0.003 A 
ATOM      6  C4  OXE d   1      -0.656  -2.252  -2.929  0.00  0.00    -0.002 A 
ATOM      7  C5  OXE d   1      -0.793  -3.644  -2.926  0.00  0.00    -0.002 A 
ATOM      8  C6  OXE d   1      -1.785  -4.233  -3.702  0.00  0.00     0.003 A 
ENDROOT
TORSDOF 0
ENDMDL
