MODEL 1
REMARK minimizedAffinity 9.429039
REMARK minimizedRMSD -1
REMARK  0 active torsions:
REMARK  status: ('A' for Active; 'I' for Inactive)
ROOT
ATOM      1  C2' OXE d   1      -1.584   0.792  -2.254  0.00  0.00     0.078 C 
ATOM      2  C1' OXE d   1      -0.271  -1.545  -1.422  0.00  0.00     0.078 C 
ATOM      3  C1  OXE d   1      -1.214  -1.648  -2.594  0.00  0.00    -0.078 A 
ATOM      4  C2  OXE d   1      -1.888  -0.509  -2.965  0.00  0.00    -0.078 A 
ATOM      5  C3  OXE d   1      -2.728  -0.536  -4.074  0.00  0.00     0.003 A 
ATOM      6  C4  OXE d   1      -3.011  -1.746  -4.720  0.00  0.00    -0.002 A 
ATOM      7  C5  OXE d   1      -2.366  -2.925  -4.333  0.00  0.00    -0.002 A 
ATOM      8  C6  OXE d   1      -1.435  -2.885  -3.301  0.00  0.00     0.003 A 
ENDROOT
TORSDOF 0
ENDMDL
