MODEL 1
REMARK minimizedAffinity 1.25345242
REMARK minimizedRMSD -1
REMARK  0 active torsions:
REMARK  status: ('A' for Active; 'I' for Inactive)
ROOT
ATOM      1  C2' OXE d   1       4.119   1.504  -3.381  0.00  0.00     0.078 C 
ATOM      2  C1' OXE d   1       5.999   3.387  -2.487  0.00  0.00     0.078 C 
ATOM      3  C1  OXE d   1       5.085   2.764  -1.462  0.00  0.00    -0.078 A 
ATOM      4  C2  OXE d   1       4.137   1.879  -1.915  0.00  0.00    -0.078 A 
ATOM      5  C3  OXE d   1       3.304   1.235  -1.005  0.00  0.00     0.003 A 
ATOM      6  C4  OXE d   1       3.320   1.594   0.348  0.00  0.00    -0.002 A 
ATOM      7  C5  OXE d   1       4.251   2.524   0.825  0.00  0.00    -0.002 A 
ATOM      8  C6  OXE d   1       5.166   3.085  -0.058  0.00  0.00     0.003 A 
ENDROOT
TORSDOF 0
ENDMDL
