MODEL 1
REMARK minimizedAffinity -1.41555405
REMARK minimizedRMSD -1
REMARK  0 active torsions:
REMARK  status: ('A' for Active; 'I' for Inactive)
ROOT
ATOM      1  C2' OXE d   1       3.745   0.734   1.666  0.00  0.00     0.078 C 
ATOM      2  C1' OXE d   1       2.088   0.404  -0.575  0.00  0.00     0.078 C 
ATOM      3  C1  OXE d   1       3.408   1.106  -0.774  0.00  0.00    -0.078 A 
ATOM      4  C2  OXE d   1       4.192   1.305   0.337  0.00  0.00    -0.078 A 
ATOM      5  C3  OXE d   1       5.443   1.898   0.201  0.00  0.00     0.003 A 
ATOM      6  C4  OXE d   1       5.844   2.432  -1.030  0.00  0.00    -0.002 A 
ATOM      7  C5  OXE d   1       5.044   2.275  -2.166  0.00  0.00    -0.002 A 
ATOM      8  C6  OXE d   1       3.844   1.579  -2.064  0.00  0.00     0.003 A 
ENDROOT
TORSDOF 0
ENDMDL
