MODEL 1
REMARK minimizedAffinity 15.2996435
REMARK minimizedRMSD -1
REMARK  0 active torsions:
REMARK  status: ('A' for Active; 'I' for Inactive)
ROOT
ATOM      1  C2' OXE d   1       6.000   2.965   1.096  0.00  0.00     0.078 C 
ATOM      2  C1' OXE d   1       6.000   2.940  -1.711  0.00  0.00     0.078 C 
ATOM      3  C1  OXE d   1       4.942   2.134  -1.001  0.00  0.00    -0.078 A 
ATOM      4  C2  OXE d   1       4.978   2.114   0.373  0.00  0.00    -0.078 A 
ATOM      5  C3  OXE d   1       3.992   1.431   1.078  0.00  0.00     0.003 A 
ATOM      6  C4  OXE d   1       3.056   0.638   0.402  0.00  0.00    -0.002 A 
ATOM      7  C5  OXE d   1       3.027   0.612  -0.996  0.00  0.00    -0.002 A 
ATOM      8  C6  OXE d   1       3.934   1.387  -1.712  0.00  0.00     0.003 A 
ENDROOT
TORSDOF 0
ENDMDL
