MODEL 1
REMARK minimizedAffinity 7.90146208
REMARK minimizedRMSD -1
REMARK  0 active torsions:
REMARK  status: ('A' for Active; 'I' for Inactive)
ROOT
ATOM      1  C2' OXE d   1       3.034   1.193   0.015  0.00  0.00     0.078 C 
ATOM      2  C1' OXE d   1       5.128   2.904   0.770  0.00  0.00     0.078 C 
ATOM      3  C1  OXE d   1       5.055   2.476  -0.674  0.00  0.00    -0.078 A 
ATOM      4  C2  OXE d   1       4.054   1.602  -1.026  0.00  0.00    -0.078 A 
ATOM      5  C3  OXE d   1       3.909   1.219  -2.356  0.00  0.00     0.003 A 
ATOM      6  C4  OXE d   1       4.863   1.594  -3.310  0.00  0.00    -0.002 A 
ATOM      7  C5  OXE d   1       5.912   2.452  -2.965  0.00  0.00    -0.002 A 
ATOM      8  C6  OXE d   1       5.998   2.936  -1.664  0.00  0.00     0.003 A 
ENDROOT
TORSDOF 0
ENDMDL
