MODEL 1
REMARK minimizedAffinity -4.13112211
REMARK minimizedRMSD -1
REMARK  1 active torsions:
REMARK  status: ('A' for Active; 'I' for Inactive)
REMARK    1  A    between atoms: N_2  and  C1_3 
ROOT
ATOM      1  C1  UNL d   1       0.348   0.040  -0.160  0.00  0.00     0.143 A 
ATOM      2  C2  UNL d   1       1.152   0.447   0.910  0.00  0.00    -0.057 A 
ATOM      3  C3  UNL d   1       2.135  -0.396   1.442  0.00  0.00     0.033 A 
ATOM      4  C4  UNL d   1       2.312  -1.677   0.930  0.00  0.00    -0.042 A 
ATOM      5  C5  UNL d   1       1.508  -2.112  -0.118  0.00  0.00     0.033 A 
ATOM      6  C6  UNL d   1       0.532  -1.263  -0.649  0.00  0.00    -0.057 A 
ENDROOT
BRANCH   1   7
ATOM      7  N   UNL d   1      -0.712   0.795  -0.668  0.00  0.00    -0.732 N 
ATOM      8  C   UNL d   1      -2.010   0.766  -0.029  0.00  0.00     0.284 C 
ATOM      9  H3  UNL d   1      -0.419   1.721  -0.972  0.00  0.00     0.395 HD
ENDBRANCH   1   7
TORSDOF 1
ENDMDL
