MODEL 1
REMARK minimizedAffinity -2.59102535
REMARK minimizedRMSD -1
REMARK  1 active torsions:
REMARK  status: ('A' for Active; 'I' for Inactive)
REMARK    1  A    between atoms: N_2  and  C1_3 
ROOT
ATOM      1  C1  UNL d   1       0.447  -1.644  -0.676  0.00  0.00     0.143 A 
ATOM      2  C2  UNL d   1       1.762  -2.122  -0.686  0.00  0.00    -0.057 A 
ATOM      3  C3  UNL d   1       2.640  -1.853   0.372  0.00  0.00     0.033 A 
ATOM      4  C4  UNL d   1       2.225  -1.076   1.448  0.00  0.00    -0.042 A 
ATOM      5  C5  UNL d   1       0.930  -0.570   1.467  0.00  0.00     0.033 A 
ATOM      6  C6  UNL d   1       0.056  -0.847   0.411  0.00  0.00    -0.057 A 
ENDROOT
BRANCH   1   7
ATOM      7  N   UNL d   1      -0.443  -1.794  -1.742  0.00  0.00    -0.732 N 
ATOM      8  C   UNL d   1      -1.253  -0.681  -2.188  0.00  0.00     0.284 C 
ATOM      9  H3  UNL d   1      -0.053  -2.354  -2.498  0.00  0.00     0.395 HD
ENDBRANCH   1   7
TORSDOF 1
ENDMDL
