MODEL 1
REMARK minimizedAffinity -4.07764435
REMARK minimizedRMSD -1
REMARK  1 active torsions:
REMARK  status: ('A' for Active; 'I' for Inactive)
REMARK    1  A    between atoms: N_2  and  C1_3 
ROOT
ATOM      1  C1  UNL d   1      -0.910   0.472   0.003  0.00  0.00     0.143 A 
ATOM      2  C2  UNL d   1       0.232   0.742   0.764  0.00  0.00    -0.057 A 
ATOM      3  C3  UNL d   1       1.305  -0.157   0.807  0.00  0.00     0.033 A 
ATOM      4  C4  UNL d   1       1.242  -1.358   0.109  0.00  0.00    -0.042 A 
ATOM      5  C5  UNL d   1       0.106  -1.658  -0.635  0.00  0.00     0.033 A 
ATOM      6  C6  UNL d   1      -0.959  -0.754  -0.679  0.00  0.00    -0.057 A 
ENDROOT
BRANCH   1   7
ATOM      7  N   UNL d   1      -2.050   1.280  -0.002  0.00  0.00    -0.732 N 
ATOM      8  C   UNL d   1      -2.778   1.535   1.223  0.00  0.00     0.284 C 
ATOM      9  H3  UNL d   1      -1.947   2.095  -0.601  0.00  0.00     0.395 HD
ENDBRANCH   1   7
TORSDOF 1
ENDMDL
