MODEL 1
REMARK minimizedAffinity -3.49563241
REMARK minimizedRMSD -1
REMARK  1 active torsions:
REMARK  status: ('A' for Active; 'I' for Inactive)
REMARK    1  A    between atoms: N_2  and  C1_3 
ROOT
ATOM      1  C1  UNL d   1      -0.160   0.009  -0.234  0.00  0.00     0.143 A 
ATOM      2  C2  UNL d   1       0.821   0.786   0.392  0.00  0.00    -0.057 A 
ATOM      3  C3  UNL d   1       2.059   0.241   0.752  0.00  0.00     0.033 A 
ATOM      4  C4  UNL d   1       2.328  -1.104   0.519  0.00  0.00    -0.042 A 
ATOM      5  C5  UNL d   1       1.359  -1.901  -0.080  0.00  0.00     0.033 A 
ATOM      6  C6  UNL d   1       0.127  -1.349  -0.443  0.00  0.00    -0.057 A 
ENDROOT
BRANCH   1   7
ATOM      7  N   UNL d   1      -1.446   0.468  -0.528  0.00  0.00    -0.732 N 
ATOM      8  C   UNL d   1      -2.369   0.805   0.535  0.00  0.00     0.284 C 
ATOM      9  H3  UNL d   1      -1.458   1.118  -1.310  0.00  0.00     0.395 HD
ENDBRANCH   1   7
TORSDOF 1
ENDMDL
