MODEL 1
REMARK minimizedAffinity -0.481006026
REMARK minimizedRMSD -1
REMARK  1 active torsions:
REMARK  status: ('A' for Active; 'I' for Inactive)
REMARK    1  A    between atoms: C1_2  and  C2_3 
ROOT
ATOM      1  C2  UNL d   1      -0.454   0.120   2.100  0.00  0.00    -0.077 A 
ATOM      2  C3  UNL d   1       0.755   0.618   1.594  0.00  0.00     0.002 A 
ATOM      3  C4  UNL d   1       0.863   0.978   0.249  0.00  0.00     0.002 A 
ATOM      4  C5  UNL d   1      -0.235   0.846  -0.599  0.00  0.00    -0.004 A 
ATOM      5  C6  UNL d   1      -1.440   0.349  -0.106  0.00  0.00     0.002 A 
ATOM      6  C7  UNL d   1      -1.550  -0.012   1.238  0.00  0.00     0.002 A 
ENDROOT
BRANCH   1   7
ATOM      7  C1  UNL d   1      -0.587  -0.222   3.561  0.00  0.00     0.055 C 
ATOM      8  C   UNL d   1      -1.736  -1.191   3.801  0.00  0.00     0.019 C 
ENDBRANCH   1   7
TORSDOF 1
ENDMDL
