MODEL 1
REMARK minimizedAffinity 0.163614243
REMARK minimizedRMSD -1
REMARK  1 active torsions:
REMARK  status: ('A' for Active; 'I' for Inactive)
REMARK    1  A    between atoms: C1_2  and  C2_3 
ROOT
ATOM      1  C2  UNL d   1       0.675  -0.422   2.805  0.00  0.00    -0.077 A 
ATOM      2  C3  UNL d   1       0.117   0.532   1.943  0.00  0.00     0.002 A 
ATOM      3  C4  UNL d   1      -1.229   0.456   1.582  0.00  0.00     0.002 A 
ATOM      4  C5  UNL d   1      -2.030  -0.568   2.082  0.00  0.00    -0.004 A 
ATOM      5  C6  UNL d   1      -1.484  -1.523   2.939  0.00  0.00     0.002 A 
ATOM      6  C7  UNL d   1      -0.138  -1.450   3.300  0.00  0.00     0.002 A 
ENDROOT
BRANCH   1   7
ATOM      7  C1  UNL d   1       2.115  -0.314   3.235  0.00  0.00     0.055 C 
ATOM      8  C   UNL d   1       3.056  -0.386   2.041  0.00  0.00     0.019 C 
ENDBRANCH   1   7
TORSDOF 1
ENDMDL
