MODEL 1
REMARK minimizedAffinity -3.03918052
REMARK minimizedRMSD -1
REMARK  1 active torsions:
REMARK  status: ('A' for Active; 'I' for Inactive)
REMARK    1  A    between atoms: C1_2  and  C2_3 
ROOT
ATOM      1  C2  UNL d   1      -1.385  -0.073   1.212  0.00  0.00    -0.077 A 
ATOM      2  C3  UNL d   1      -2.664   0.084   1.765  0.00  0.00     0.002 A 
ATOM      3  C4  UNL d   1      -2.850   0.010   3.146  0.00  0.00     0.002 A 
ATOM      4  C5  UNL d   1      -1.762  -0.217   3.987  0.00  0.00    -0.004 A 
ATOM      5  C6  UNL d   1      -0.487  -0.376   3.447  0.00  0.00     0.002 A 
ATOM      6  C7  UNL d   1      -0.299  -0.304   2.066  0.00  0.00     0.002 A 
ENDROOT
BRANCH   1   7
ATOM      7  C1  UNL d   1      -1.174   0.055  -0.274  0.00  0.00     0.055 C 
ATOM      8  C   UNL d   1       0.201   0.625  -0.591  0.00  0.00     0.019 C 
ENDBRANCH   1   7
TORSDOF 1
ENDMDL
