MODEL 1
REMARK minimizedAffinity -3.37236881
REMARK minimizedRMSD -1
REMARK  1 active torsions:
REMARK  status: ('A' for Active; 'I' for Inactive)
REMARK    1  A    between atoms: C1_2  and  C2_3 
ROOT
ATOM      1  C2  UNL d   1       5.569  -3.580   3.333  0.00  0.00    -0.077 A 
ATOM      2  C3  UNL d   1       5.864  -3.726   4.696  0.00  0.00     0.002 A 
ATOM      3  C4  UNL d   1       5.519  -4.898   5.372  0.00  0.00     0.002 A 
ATOM      4  C5  UNL d   1       4.880  -5.933   4.693  0.00  0.00    -0.004 A 
ATOM      5  C6  UNL d   1       4.581  -5.797   3.338  0.00  0.00     0.002 A 
ATOM      6  C7  UNL d   1       4.925  -4.626   2.661  0.00  0.00     0.002 A 
ENDROOT
BRANCH   1   7
ATOM      7  C1  UNL d   1       5.986  -2.337   2.591  0.00  0.00     0.055 C 
ATOM      8  C   UNL d   1       5.999  -1.123   3.508  0.00  0.00     0.019 C 
ENDBRANCH   1   7
TORSDOF 1
ENDMDL
