MODEL 1
REMARK minimizedAffinity 0.086074166
REMARK minimizedRMSD -1
REMARK  1 active torsions:
REMARK  status: ('A' for Active; 'I' for Inactive)
REMARK    1  A    between atoms: C1_2  and  C2_3 
ROOT
ATOM      1  C2  UNL d   1      -1.498   0.073   1.199  0.00  0.00    -0.077 A 
ATOM      2  C3  UNL d   1      -2.003  -0.953   2.011  0.00  0.00     0.002 A 
ATOM      3  C4  UNL d   1      -1.516  -1.132   3.307  0.00  0.00     0.002 A 
ATOM      4  C5  UNL d   1      -0.525  -0.288   3.804  0.00  0.00    -0.004 A 
ATOM      5  C6  UNL d   1      -0.015   0.734   3.004  0.00  0.00     0.002 A 
ATOM      6  C7  UNL d   1      -0.500   0.914   1.708  0.00  0.00     0.002 A 
ENDROOT
BRANCH   1   7
ATOM      7  C1  UNL d   1      -2.057   0.299  -0.181  0.00  0.00     0.055 C 
ATOM      8  C   UNL d   1      -0.966   0.711  -1.159  0.00  0.00     0.019 C 
ENDBRANCH   1   7
TORSDOF 1
ENDMDL
