MODEL 1
REMARK minimizedAffinity -0.676595926
REMARK minimizedRMSD -1
REMARK  1 active torsions:
REMARK  status: ('A' for Active; 'I' for Inactive)
REMARK    1  A    between atoms: C1_2  and  C2_3 
ROOT
ATOM      1  C2  UNL d   1       3.425   3.348  -2.648  0.00  0.00    -0.077 A 
ATOM      2  C3  UNL d   1       2.596   4.365  -3.143  0.00  0.00     0.002 A 
ATOM      3  C4  UNL d   1       2.943   5.056  -4.305  0.00  0.00     0.002 A 
ATOM      4  C5  UNL d   1       4.117   4.736  -4.984  0.00  0.00    -0.004 A 
ATOM      5  C6  UNL d   1       4.949   3.727  -4.499  0.00  0.00     0.002 A 
ATOM      6  C7  UNL d   1       4.604   3.036  -3.337  0.00  0.00     0.002 A 
ENDROOT
BRANCH   1   7
ATOM      7  C1  UNL d   1       3.028   2.568  -1.422  0.00  0.00     0.055 C 
ATOM      8  C   UNL d   1       1.918   3.272  -0.654  0.00  0.00     0.019 C 
ENDBRANCH   1   7
TORSDOF 1
ENDMDL
