MODEL 1
REMARK minimizedAffinity 14.6329193
REMARK minimizedRMSD -1
REMARK  1 active torsions:
REMARK  status: ('A' for Active; 'I' for Inactive)
REMARK    1  A    between atoms: C1_2  and  C2_3 
ROOT
ATOM      1  C2  UNL d   1       2.632   3.073  -5.363  0.00  0.00    -0.077 A 
ATOM      2  C3  UNL d   1       3.457   3.701  -4.419  0.00  0.00     0.002 A 
ATOM      3  C4  UNL d   1       3.049   4.884  -3.800  0.00  0.00     0.002 A 
ATOM      4  C5  UNL d   1       1.813   5.446  -4.113  0.00  0.00    -0.004 A 
ATOM      5  C6  UNL d   1       0.985   4.830  -5.051  0.00  0.00     0.002 A 
ATOM      6  C7  UNL d   1       1.392   3.648  -5.672  0.00  0.00     0.002 A 
ENDROOT
BRANCH   1   7
ATOM      7  C1  UNL d   1       3.049   1.772  -5.996  0.00  0.00     0.055 C 
ATOM      8  C   UNL d   1       1.906   0.767  -6.000  0.00  0.00     0.019 C 
ENDBRANCH   1   7
TORSDOF 1
ENDMDL
