MODEL 1
REMARK minimizedAffinity 1.90468311
REMARK minimizedRMSD -1
REMARK  1 active torsions:
REMARK  status: ('A' for Active; 'I' for Inactive)
REMARK    1  A    between atoms: C1_2  and  C2_3 
ROOT
ATOM      1  C2  UNL d   1      -1.993  -0.447   1.258  0.00  0.00    -0.077 A 
ATOM      2  C3  UNL d   1      -3.102  -0.030   0.508  0.00  0.00     0.002 A 
ATOM      3  C4  UNL d   1      -3.157  -0.273  -0.866  0.00  0.00     0.002 A 
ATOM      4  C5  UNL d   1      -2.109  -0.937  -1.500  0.00  0.00    -0.004 A 
ATOM      5  C6  UNL d   1      -1.001  -1.354  -0.763  0.00  0.00     0.002 A 
ATOM      6  C7  UNL d   1      -0.944  -1.110   0.610  0.00  0.00     0.002 A 
ENDROOT
BRANCH   1   7
ATOM      7  C1  UNL d   1      -1.954  -0.229   2.748  0.00  0.00     0.055 C 
ATOM      8  C   UNL d   1      -0.536  -0.340   3.287  0.00  0.00     0.019 C 
ENDBRANCH   1   7
TORSDOF 1
ENDMDL
