MODEL 1
REMARK minimizedAffinity 5.15906096
REMARK minimizedRMSD -1
REMARK  1 active torsions:
REMARK  status: ('A' for Active; 'I' for Inactive)
REMARK    1  A    between atoms: C1_2  and  C2_3 
ROOT
ATOM      1  C2  UNL d   1      -2.324   0.207   0.346  0.00  0.00    -0.077 A 
ATOM      2  C3  UNL d   1      -3.486   0.663   0.983  0.00  0.00     0.002 A 
ATOM      3  C4  UNL d   1      -3.468   0.977   2.344  0.00  0.00     0.002 A 
ATOM      4  C5  UNL d   1      -2.291   0.841   3.076  0.00  0.00    -0.004 A 
ATOM      5  C6  UNL d   1      -1.131   0.386   2.452  0.00  0.00     0.002 A 
ATOM      6  C7  UNL d   1      -1.147   0.071   1.093  0.00  0.00     0.002 A 
ENDROOT
BRANCH   1   7
ATOM      7  C1  UNL d   1      -2.328  -0.085  -1.132  0.00  0.00     0.055 C 
ATOM      8  C   UNL d   1      -1.465  -1.295  -1.460  0.00  0.00     0.019 C 
ENDBRANCH   1   7
TORSDOF 1
ENDMDL
