MODEL 1
REMARK minimizedAffinity 1.84003115
REMARK minimizedRMSD -1
REMARK  1 active torsions:
REMARK  status: ('A' for Active; 'I' for Inactive)
REMARK    1  A    between atoms: C1_2  and  C2_3 
ROOT
ATOM      1  C2  UNL d   1      -1.306   1.232   3.976  0.00  0.00    -0.077 A 
ATOM      2  C3  UNL d   1      -2.290   0.404   4.533  0.00  0.00     0.002 A 
ATOM      3  C4  UNL d   1      -2.106  -0.979   4.579  0.00  0.00     0.002 A 
ATOM      4  C5  UNL d   1      -0.937  -1.545   4.073  0.00  0.00    -0.004 A 
ATOM      5  C6  UNL d   1       0.046  -0.730   3.515  0.00  0.00     0.002 A 
ATOM      6  C7  UNL d   1      -0.137   0.653   3.468  0.00  0.00     0.002 A 
ENDROOT
BRANCH   1   7
ATOM      7  C1  UNL d   1      -1.481   2.729   3.971  0.00  0.00     0.055 C 
ATOM      8  C   UNL d   1      -2.942   3.115   4.146  0.00  0.00     0.019 C 
ENDBRANCH   1   7
TORSDOF 1
ENDMDL
