MODEL 1
REMARK minimizedAffinity 5.68436527
REMARK minimizedRMSD -1
REMARK  1 active torsions:
REMARK  status: ('A' for Active; 'I' for Inactive)
REMARK    1  A    between atoms: C1_2  and  C2_3 
ROOT
ATOM      1  C2  UNL d   1      -0.182  -1.829   3.212  0.00  0.00    -0.077 A 
ATOM      2  C3  UNL d   1      -1.505  -1.500   2.886  0.00  0.00     0.002 A 
ATOM      3  C4  UNL d   1      -1.868  -0.170   2.665  0.00  0.00     0.002 A 
ATOM      4  C5  UNL d   1      -0.913   0.840   2.763  0.00  0.00    -0.004 A 
ATOM      5  C6  UNL d   1       0.405   0.523   3.089  0.00  0.00     0.002 A 
ATOM      6  C7  UNL d   1       0.769  -0.805   3.311  0.00  0.00     0.002 A 
ENDROOT
BRANCH   1   7
ATOM      7  C1  UNL d   1       0.223  -3.268   3.403  0.00  0.00     0.055 C 
ATOM      8  C   UNL d   1       0.541  -3.934   2.072  0.00  0.00     0.019 C 
ENDBRANCH   1   7
TORSDOF 1
ENDMDL
