MODEL 1
REMARK minimizedAffinity 6.28018093
REMARK minimizedRMSD -1
REMARK  1 active torsions:
REMARK  status: ('A' for Active; 'I' for Inactive)
REMARK    1  A    between atoms: C1_2  and  C2_3 
ROOT
ATOM      1  C2  UNL d   1      -1.588  -0.303   1.572  0.00  0.00    -0.077 A 
ATOM      2  C3  UNL d   1      -2.134  -1.064   2.616  0.00  0.00     0.002 A 
ATOM      3  C4  UNL d   1      -1.517  -1.090   3.868  0.00  0.00     0.002 A 
ATOM      4  C5  UNL d   1      -0.355  -0.355   4.090  0.00  0.00    -0.004 A 
ATOM      5  C6  UNL d   1       0.197   0.403   3.058  0.00  0.00     0.002 A 
ATOM      6  C7  UNL d   1      -0.417   0.430   1.805  0.00  0.00     0.002 A 
ENDROOT
BRANCH   1   7
ATOM      7  C1  UNL d   1      -2.278  -0.235   0.235  0.00  0.00     0.055 C 
ATOM      8  C   UNL d   1      -1.351   0.316  -0.839  0.00  0.00     0.019 C 
ENDBRANCH   1   7
TORSDOF 1
ENDMDL
