MODEL 1
REMARK minimizedAffinity 8.89679813
REMARK minimizedRMSD -1
REMARK  1 active torsions:
REMARK  status: ('A' for Active; 'I' for Inactive)
REMARK    1  A    between atoms: C1_2  and  C2_3 
ROOT
ATOM      1  C2  UNL d   1       0.018   1.823   2.003  0.00  0.00    -0.077 A 
ATOM      2  C3  UNL d   1       0.718   2.041   0.808  0.00  0.00     0.002 A 
ATOM      3  C4  UNL d   1       2.072   2.380   0.835  0.00  0.00     0.002 A 
ATOM      4  C5  UNL d   1       2.739   2.498   2.053  0.00  0.00    -0.004 A 
ATOM      5  C6  UNL d   1       2.051   2.285   3.246  0.00  0.00     0.002 A 
ATOM      6  C7  UNL d   1       0.697   1.948   3.222  0.00  0.00     0.002 A 
ENDROOT
BRANCH   1   7
ATOM      7  C1  UNL d   1      -1.431   1.409   1.974  0.00  0.00     0.055 C 
ATOM      8  C   UNL d   1      -1.593  -0.065   2.316  0.00  0.00     0.019 C 
ENDBRANCH   1   7
TORSDOF 1
ENDMDL
