MODEL 1
REMARK minimizedAffinity 8.67986393
REMARK minimizedRMSD -1
REMARK  2 active torsions:
REMARK  status: ('A' for Active; 'I' for Inactive)
REMARK    1  A    between atoms: C2'_3  and  C1'_4 
REMARK    2  A    between atoms: C1'_4  and  C1_5 
ROOT
ATOM      1  C1  I4B d   1       5.892   4.886  -3.582  0.00  0.00    -0.075 A 
ATOM      2  C2  I4B d   1       5.884   5.561  -4.777  0.00  0.00     0.003 A 
ATOM      3  C3  I4B d   1       5.820   4.847  -5.999  0.00  0.00     0.002 A 
ATOM      4  C4  I4B d   1       5.816   3.467  -5.980  0.00  0.00    -0.004 A 
ATOM      5  C5  I4B d   1       5.802   2.785  -4.766  0.00  0.00     0.002 A 
ATOM      6  C6  I4B d   1       5.827   3.499  -3.559  0.00  0.00     0.003 A 
ENDROOT
BRANCH   1   7
ATOM      7  C1' I4B d   1       5.994   5.670  -2.312  0.00  0.00     0.060 C 
BRANCH   7   8
ATOM      8  C2' I4B d   1       4.588   5.967  -1.833  0.00  0.00    -0.013 C 
ATOM      9  C4' I4B d   1       3.616   6.000  -2.982  0.00  0.00     0.013 C 
ATOM     10  C3' I4B d   1       4.209   4.916  -0.833  0.00  0.00     0.013 C 
ENDBRANCH   7   8
ENDBRANCH   1   7
TORSDOF 2
ENDMDL
