MODEL 1
REMARK minimizedAffinity 9.4577837
REMARK minimizedRMSD -1
REMARK  2 active torsions:
REMARK  status: ('A' for Active; 'I' for Inactive)
REMARK    1  A    between atoms: C2'_3  and  C1'_4 
REMARK    2  A    between atoms: C1'_4  and  C1_5 
ROOT
ATOM      1  C1  I4B d   1       3.850  -2.950   4.965  0.00  0.00    -0.075 A 
ATOM      2  C2  I4B d   1       3.221  -4.168   5.037  0.00  0.00     0.003 A 
ATOM      3  C3  I4B d   1       3.895  -5.286   5.584  0.00  0.00     0.002 A 
ATOM      4  C4  I4B d   1       5.205  -5.155   5.998  0.00  0.00    -0.004 A 
ATOM      5  C5  I4B d   1       5.833  -3.914   5.945  0.00  0.00     0.002 A 
ATOM      6  C6  I4B d   1       5.147  -2.801   5.437  0.00  0.00     0.003 A 
ENDROOT
BRANCH   1   7
ATOM      7  C1' I4B d   1       3.120  -1.797   4.351  0.00  0.00     0.060 C 
BRANCH   7   8
ATOM      8  C2' I4B d   1       3.686  -1.572   2.964  0.00  0.00    -0.013 C 
ATOM      9  C4' I4B d   1       3.880  -2.876   2.235  0.00  0.00     0.013 C 
ATOM     10  C3' I4B d   1       2.745  -0.671   2.220  0.00  0.00     0.013 C 
ENDBRANCH   7   8
ENDBRANCH   1   7
TORSDOF 2
ENDMDL
