MODEL 1
REMARK minimizedAffinity 0.967802644
REMARK minimizedRMSD -1
REMARK  2 active torsions:
REMARK  status: ('A' for Active; 'I' for Inactive)
REMARK    1  A    between atoms: C2'_3  and  C1'_4 
REMARK    2  A    between atoms: C1'_4  and  C1_5 
ROOT
ATOM      1  C1  I4B d   1       4.728  -2.495   4.188  0.00  0.00    -0.075 A 
ATOM      2  C2  I4B d   1       3.711  -3.411   4.295  0.00  0.00     0.003 A 
ATOM      3  C3  I4B d   1       3.800  -4.469   5.231  0.00  0.00     0.002 A 
ATOM      4  C4  I4B d   1       4.939  -4.603   6.000  0.00  0.00    -0.004 A 
ATOM      5  C5  I4B d   1       5.959  -3.660   5.906  0.00  0.00     0.002 A 
ATOM      6  C6  I4B d   1       5.848  -2.593   5.003  0.00  0.00     0.003 A 
ENDROOT
BRANCH   1   7
ATOM      7  C1' I4B d   1       4.615  -1.409   3.166  0.00  0.00     0.060 C 
BRANCH   7   8
ATOM      8  C2' I4B d   1       4.607  -2.056   1.796  0.00  0.00    -0.013 C 
ATOM      9  C4' I4B d   1       3.535  -1.465   0.920  0.00  0.00     0.013 C 
ATOM     10  C3' I4B d   1       5.966  -1.871   1.189  0.00  0.00     0.013 C 
ENDBRANCH   7   8
ENDBRANCH   1   7
TORSDOF 2
ENDMDL
