MODEL 1
REMARK minimizedAffinity 4.00889683
REMARK minimizedRMSD -1
REMARK  2 active torsions:
REMARK  status: ('A' for Active; 'I' for Inactive)
REMARK    1  A    between atoms: C2'_3  and  C1'_4 
REMARK    2  A    between atoms: C1'_4  and  C1_5 
ROOT
ATOM      1  C1  I4B d   1       5.555  -2.619   3.459  0.00  0.00    -0.075 A 
ATOM      2  C2  I4B d   1       4.793  -1.489   3.623  0.00  0.00     0.003 A 
ATOM      3  C3  I4B d   1       4.359  -1.102   4.914  0.00  0.00     0.002 A 
ATOM      4  C4  I4B d   1       4.665  -1.897   6.000  0.00  0.00    -0.004 A 
ATOM      5  C5  I4B d   1       5.457  -3.030   5.835  0.00  0.00     0.002 A 
ATOM      6  C6  I4B d   1       5.915  -3.387   4.559  0.00  0.00     0.003 A 
ENDROOT
BRANCH   1   7
ATOM      7  C1' I4B d   1       5.968  -3.016   2.078  0.00  0.00     0.060 C 
BRANCH   7   8
ATOM      8  C2' I4B d   1       5.429  -1.979   1.113  0.00  0.00    -0.013 C 
ATOM      9  C4' I4B d   1       5.918  -2.232  -0.289  0.00  0.00     0.013 C 
ATOM     10  C3' I4B d   1       3.931  -2.019   1.180  0.00  0.00     0.013 C 
ENDBRANCH   7   8
ENDBRANCH   1   7
TORSDOF 2
ENDMDL
