MODEL 1
REMARK minimizedAffinity 5.72984266
REMARK minimizedRMSD -1
REMARK  2 active torsions:
REMARK  status: ('A' for Active; 'I' for Inactive)
REMARK    1  A    between atoms: C2'_3  and  C1'_4 
REMARK    2  A    between atoms: C1'_4  and  C1_5 
ROOT
ATOM      1  C1  I4B d   1       3.588  -2.603   3.511  0.00  0.00    -0.075 A 
ATOM      2  C2  I4B d   1       3.148  -1.544   4.265  0.00  0.00     0.003 A 
ATOM      3  C3  I4B d   1       3.744  -1.265   5.518  0.00  0.00     0.002 A 
ATOM      4  C4  I4B d   1       4.736  -2.095   5.999  0.00  0.00    -0.004 A 
ATOM      5  C5  I4B d   1       5.197  -3.154   5.223  0.00  0.00     0.002 A 
ATOM      6  C6  I4B d   1       4.628  -3.403   3.965  0.00  0.00     0.003 A 
ENDROOT
BRANCH   1   7
ATOM      7  C1' I4B d   1       2.914  -2.889   2.207  0.00  0.00     0.060 C 
BRANCH   7   8
ATOM      8  C2' I4B d   1       3.119  -1.691   1.302  0.00  0.00    -0.013 C 
ATOM      9  C4' I4B d   1       4.265  -1.917   0.351  0.00  0.00     0.013 C 
ATOM     10  C3' I4B d   1       1.840  -1.447   0.560  0.00  0.00     0.013 C 
ENDBRANCH   7   8
ENDBRANCH   1   7
TORSDOF 2
ENDMDL
