MODEL 1
REMARK minimizedAffinity 5.17593384
REMARK minimizedRMSD -1
REMARK  2 active torsions:
REMARK  status: ('A' for Active; 'I' for Inactive)
REMARK    1  A    between atoms: C2'_3  and  C1'_4 
REMARK    2  A    between atoms: C1'_4  and  C1_5 
ROOT
ATOM      1  C1  I4B d   1       4.617   4.465  -3.523  0.00  0.00    -0.075 A 
ATOM      2  C2  I4B d   1       3.701   4.277  -2.518  0.00  0.00     0.003 A 
ATOM      3  C3  I4B d   1       3.919   4.846  -1.240  0.00  0.00     0.002 A 
ATOM      4  C4  I4B d   1       5.082   5.549  -0.998  0.00  0.00    -0.004 A 
ATOM      5  C5  I4B d   1       5.998   5.758  -2.025  0.00  0.00     0.002 A 
ATOM      6  C6  I4B d   1       5.758   5.223  -3.300  0.00  0.00     0.003 A 
ENDROOT
BRANCH   1   7
ATOM      7  C1' I4B d   1       4.371   3.821  -4.851  0.00  0.00     0.060 C 
BRANCH   7   8
ATOM      8  C2' I4B d   1       4.543   4.880  -5.922  0.00  0.00    -0.013 C 
ATOM      9  C4' I4B d   1       3.552   5.999  -5.746  0.00  0.00     0.013 C 
ATOM     10  C3' I4B d   1       5.952   5.388  -5.848  0.00  0.00     0.013 C 
ENDBRANCH   7   8
ENDBRANCH   1   7
TORSDOF 2
ENDMDL
