MODEL 1
REMARK minimizedAffinity 1.6912967
REMARK minimizedRMSD -1
REMARK  2 active torsions:
REMARK  status: ('A' for Active; 'I' for Inactive)
REMARK    1  A    between atoms: C2'_3  and  C1'_4 
REMARK    2  A    between atoms: C1'_4  and  C1_5 
ROOT
ATOM      1  C1  I4B d   1       0.369  -3.013  -3.783  0.00  0.00    -0.075 A 
ATOM      2  C2  I4B d   1       1.489  -2.940  -2.993  0.00  0.00     0.003 A 
ATOM      3  C3  I4B d   1       2.602  -2.167  -3.404  0.00  0.00     0.002 A 
ATOM      4  C4  I4B d   1       2.572  -1.528  -4.627  0.00  0.00    -0.004 A 
ATOM      5  C5  I4B d   1       1.427  -1.585  -5.416  0.00  0.00     0.002 A 
ATOM      6  C6  I4B d   1       0.314  -2.321  -4.987  0.00  0.00     0.003 A 
ENDROOT
BRANCH   1   7
ATOM      7  C1' I4B d   1      -0.775  -3.865  -3.335  0.00  0.00     0.060 C 
BRANCH   7   8
ATOM      8  C2' I4B d   1      -0.400  -5.314  -3.572  0.00  0.00    -0.013 C 
ATOM      9  C4' I4B d   1      -0.004  -5.992  -2.287  0.00  0.00     0.013 C 
ATOM     10  C3' I4B d   1      -1.574  -5.998  -4.206  0.00  0.00     0.013 C 
ENDBRANCH   7   8
ENDBRANCH   1   7
TORSDOF 2
ENDMDL
