MODEL 1
REMARK minimizedAffinity -1.34229422
REMARK minimizedRMSD -1
REMARK  2 active torsions:
REMARK  status: ('A' for Active; 'I' for Inactive)
REMARK    1  A    between atoms: C2'_3  and  C1'_4 
REMARK    2  A    between atoms: C1'_4  and  C1_5 
ROOT
ATOM      1  C1  I4B d   1       5.249  -1.768   3.334  0.00  0.00    -0.075 A 
ATOM      2  C2  I4B d   1       5.994  -2.860   3.706  0.00  0.00     0.003 A 
ATOM      3  C3  I4B d   1       6.000  -3.293   5.054  0.00  0.00     0.002 A 
ATOM      4  C4  I4B d   1       5.292  -2.579   6.000  0.00  0.00    -0.004 A 
ATOM      5  C5  I4B d   1       4.519  -1.487   5.617  0.00  0.00     0.002 A 
ATOM      6  C6  I4B d   1       4.488  -1.086   4.273  0.00  0.00     0.003 A 
ENDROOT
BRANCH   1   7
ATOM      7  C1' I4B d   1       5.292  -1.319   1.908  0.00  0.00     0.060 C 
BRANCH   7   8
ATOM      8  C2' I4B d   1       4.808  -2.465   1.042  0.00  0.00    -0.013 C 
ATOM      9  C4' I4B d   1       3.779  -2.000   0.046  0.00  0.00     0.013 C 
ATOM     10  C3' I4B d   1       6.000  -3.059   0.352  0.00  0.00     0.013 C 
ENDBRANCH   7   8
ENDBRANCH   1   7
TORSDOF 2
ENDMDL
