MODEL 1
REMARK minimizedAffinity 6.3796463
REMARK minimizedRMSD -1
REMARK  2 active torsions:
REMARK  status: ('A' for Active; 'I' for Inactive)
REMARK    1  A    between atoms: C2'_3  and  C1'_4 
REMARK    2  A    between atoms: C1'_4  and  C1_5 
ROOT
ATOM      1  C1  I4B d   1      -0.529  -2.105  -1.183  0.00  0.00    -0.075 A 
ATOM      2  C2  I4B d   1      -1.229  -3.036  -1.908  0.00  0.00     0.003 A 
ATOM      3  C3  I4B d   1      -0.772  -3.434  -3.188  0.00  0.00     0.002 A 
ATOM      4  C4  I4B d   1       0.355  -2.843  -3.721  0.00  0.00    -0.004 A 
ATOM      5  C5  I4B d   1       1.076  -1.916  -2.975  0.00  0.00     0.002 A 
ATOM      6  C6  I4B d   1       0.639  -1.553  -1.693  0.00  0.00     0.003 A 
ENDROOT
BRANCH   1   7
ATOM      7  C1' I4B d   1      -1.058  -1.683   0.151  0.00  0.00     0.060 C 
BRANCH   7   8
ATOM      8  C2' I4B d   1      -1.611  -2.912   0.843  0.00  0.00    -0.013 C 
ATOM      9  C4' I4B d   1      -1.096  -3.021   2.254  0.00  0.00     0.013 C 
ATOM     10  C3' I4B d   1      -3.108  -2.823   0.819  0.00  0.00     0.013 C 
ENDBRANCH   7   8
ENDBRANCH   1   7
TORSDOF 2
ENDMDL
