MODEL 1
REMARK minimizedAffinity 10.1842365
REMARK minimizedRMSD -1
REMARK  2 active torsions:
REMARK  status: ('A' for Active; 'I' for Inactive)
REMARK    1  A    between atoms: C2'_3  and  C1'_4 
REMARK    2  A    between atoms: C1'_4  and  C1_5 
ROOT
ATOM      1  C1  I4B d   1      -0.336  -2.957  -1.737  0.00  0.00    -0.075 A 
ATOM      2  C2  I4B d   1      -1.328  -2.063  -1.421  0.00  0.00     0.003 A 
ATOM      3  C3  I4B d   1      -1.670  -1.826  -0.068  0.00  0.00     0.002 A 
ATOM      4  C4  I4B d   1      -1.034  -2.539   0.929  0.00  0.00    -0.004 A 
ATOM      5  C5  I4B d   1      -0.013  -3.428   0.608  0.00  0.00     0.002 A 
ATOM      6  C6  I4B d   1       0.347  -3.630  -0.732  0.00  0.00     0.003 A 
ENDROOT
BRANCH   1   7
ATOM      7  C1' I4B d   1      -0.023  -3.207  -3.178  0.00  0.00     0.060 C 
BRANCH   7   8
ATOM      8  C2' I4B d   1       0.744  -2.010  -3.703  0.00  0.00    -0.013 C 
ATOM      9  C4' I4B d   1       2.230  -2.211  -3.564  0.00  0.00     0.013 C 
ATOM     10  C3' I4B d   1       0.357  -1.806  -5.138  0.00  0.00     0.013 C 
ENDBRANCH   7   8
ENDBRANCH   1   7
TORSDOF 2
ENDMDL
