MODEL 1
REMARK minimizedAffinity 1.34184062
REMARK minimizedRMSD -1
REMARK  2 active torsions:
REMARK  status: ('A' for Active; 'I' for Inactive)
REMARK    1  A    between atoms: C2'_3  and  C1'_4 
REMARK    2  A    between atoms: C1'_4  and  C1_5 
ROOT
ATOM      1  C1  I4B d   1       5.241  -1.743   3.864  0.00  0.00    -0.075 A 
ATOM      2  C2  I4B d   1       5.233  -0.395   4.123  0.00  0.00     0.003 A 
ATOM      3  C3  I4B d   1       4.499   0.116   5.221  0.00  0.00     0.002 A 
ATOM      4  C4  I4B d   1       3.752  -0.745   5.998  0.00  0.00    -0.004 A 
ATOM      5  C5  I4B d   1       3.779  -2.114   5.748  0.00  0.00     0.002 A 
ATOM      6  C6  I4B d   1       4.538  -2.618   4.682  0.00  0.00     0.003 A 
ENDROOT
BRANCH   1   7
ATOM      7  C1' I4B d   1       5.999  -2.245   2.676  0.00  0.00     0.060 C 
BRANCH   7   8
ATOM      8  C2' I4B d   1       5.445  -1.558   1.444  0.00  0.00    -0.013 C 
ATOM      9  C4' I4B d   1       5.997  -2.171   0.184  0.00  0.00     0.013 C 
ATOM     10  C3' I4B d   1       3.950  -1.664   1.489  0.00  0.00     0.013 C 
ENDBRANCH   7   8
ENDBRANCH   1   7
TORSDOF 2
ENDMDL
