MODEL 1
REMARK minimizedAffinity -2.92876148
REMARK minimizedRMSD -1
REMARK  0 active torsions:
REMARK  status: ('A' for Active; 'I' for Inactive)
ROOT
ATOM      1  C   UNL d   1      -1.443   0.020  -0.085  0.00  0.00     0.172 C 
ATOM      2  N   UNL d   1      -0.023   0.103   0.165  0.00  0.00    -0.070 N 
ATOM      3  C1  UNL d   1       0.638   1.197   0.657  0.00  0.00    -0.004 A 
ATOM      4  C2  UNL d   1       1.975   0.874   0.751  0.00  0.00    -0.047 A 
ATOM      5  C3  UNL d   1       2.122  -0.459   0.300  0.00  0.00    -0.047 A 
ATOM      6  C4  UNL d   1       0.869  -0.912  -0.057  0.00  0.00    -0.004 A 
ENDROOT
TORSDOF 0
ENDMDL
