MODEL 1
REMARK minimizedAffinity -3.55869842
REMARK minimizedRMSD -1
REMARK  0 active torsions:
REMARK  status: ('A' for Active; 'I' for Inactive)
ROOT
ATOM      1  C   UNL d   1       3.276  -0.416   0.953  0.00  0.00     0.172 C 
ATOM      2  N   UNL d   1       1.947  -0.046   0.526  0.00  0.00    -0.070 N 
ATOM      3  C1  UNL d   1       0.892  -0.904   0.367  0.00  0.00    -0.004 A 
ATOM      4  C2  UNL d   1      -0.194  -0.165  -0.049  0.00  0.00    -0.047 A 
ATOM      5  C3  UNL d   1       0.223   1.184  -0.145  0.00  0.00    -0.047 A 
ATOM      6  C4  UNL d   1       1.553   1.229   0.217  0.00  0.00    -0.004 A 
ENDROOT
TORSDOF 0
ENDMDL
