MODEL 1
REMARK minimizedAffinity -3.91383553
REMARK minimizedRMSD -1
REMARK  0 active torsions:
REMARK  status: ('A' for Active; 'I' for Inactive)
ROOT
ATOM      1  C   UNL d   1       0.250   0.355  -0.055  0.00  0.00     0.172 C 
ATOM      2  N   UNL d   1       1.077  -0.485   0.779  0.00  0.00    -0.070 N 
ATOM      3  C1  UNL d   1       2.367  -0.217   1.151  0.00  0.00    -0.004 A 
ATOM      4  C2  UNL d   1       2.803  -1.257   1.944  0.00  0.00    -0.047 A 
ATOM      5  C3  UNL d   1       1.737  -2.183   2.051  0.00  0.00    -0.047 A 
ATOM      6  C4  UNL d   1       0.681  -1.679   1.320  0.00  0.00    -0.004 A 
ENDROOT
TORSDOF 0
ENDMDL
