MODEL 1
REMARK minimizedAffinity -3.08411694
REMARK minimizedRMSD -1
REMARK  0 active torsions:
REMARK  status: ('A' for Active; 'I' for Inactive)
ROOT
ATOM      1  C   UNL d   1       3.273  -0.792   0.809  0.00  0.00     0.172 C 
ATOM      2  N   UNL d   1       2.012  -0.191   0.443  0.00  0.00    -0.070 N 
ATOM      3  C1  UNL d   1       0.910  -0.864  -0.013  0.00  0.00    -0.004 A 
ATOM      4  C2  UNL d   1      -0.082   0.063  -0.249  0.00  0.00    -0.047 A 
ATOM      5  C3  UNL d   1       0.442   1.337   0.076  0.00  0.00    -0.047 A 
ATOM      6  C4  UNL d   1       1.740   1.150   0.501  0.00  0.00    -0.004 A 
ENDROOT
TORSDOF 0
ENDMDL
