MODEL 1
REMARK minimizedAffinity -3.43351436
REMARK minimizedRMSD -1
REMARK  0 active torsions:
REMARK  status: ('A' for Active; 'I' for Inactive)
ROOT
ATOM      1  C   UNL d   1      -0.765  -0.070   0.079  0.00  0.00     0.172 C 
ATOM      2  N   UNL d   1       0.665  -0.027   0.274  0.00  0.00    -0.070 N 
ATOM      3  C1  UNL d   1       1.503  -1.110   0.276  0.00  0.00    -0.004 A 
ATOM      4  C2  UNL d   1       2.785  -0.652   0.491  0.00  0.00    -0.047 A 
ATOM      5  C3  UNL d   1       2.714   0.756   0.624  0.00  0.00    -0.047 A 
ATOM      6  C4  UNL d   1       1.390   1.115   0.485  0.00  0.00    -0.004 A 
ENDROOT
TORSDOF 0
ENDMDL
