MODEL 1
REMARK minimizedAffinity -3.82158899
REMARK minimizedRMSD -1
REMARK  0 active torsions:
REMARK  status: ('A' for Active; 'I' for Inactive)
ROOT
ATOM      1  C   UNL d   1      -0.932  -0.197   0.170  0.00  0.00     0.172 C 
ATOM      2  N   UNL d   1       0.430  -0.101   0.638  0.00  0.00    -0.070 N 
ATOM      3  C1  UNL d   1       1.163  -1.124   1.178  0.00  0.00    -0.004 A 
ATOM      4  C2  UNL d   1       2.409  -0.629   1.496  0.00  0.00    -0.047 A 
ATOM      5  C3  UNL d   1       2.425   0.739   1.137  0.00  0.00    -0.047 A 
ATOM      6  C4  UNL d   1       1.188   1.040   0.608  0.00  0.00    -0.004 A 
ENDROOT
TORSDOF 0
ENDMDL
