MODEL 1
REMARK minimizedAffinity -2.89686346
REMARK minimizedRMSD -1
REMARK  0 active torsions:
REMARK  status: ('A' for Active; 'I' for Inactive)
ROOT
ATOM      1  C   UNL d   1       3.006  -0.104   0.956  0.00  0.00     0.172 C 
ATOM      2  N   UNL d   1       1.636  -0.184   0.507  0.00  0.00    -0.070 N 
ATOM      3  C1  UNL d   1       0.943   0.814  -0.123  0.00  0.00    -0.004 A 
ATOM      4  C2  UNL d   1      -0.326   0.346  -0.386  0.00  0.00    -0.047 A 
ATOM      5  C3  UNL d   1      -0.398  -0.980   0.103  0.00  0.00    -0.047 A 
ATOM      6  C4  UNL d   1       0.830  -1.283   0.652  0.00  0.00    -0.004 A 
ENDROOT
TORSDOF 0
ENDMDL
