MODEL 1
REMARK minimizedAffinity -3.29697824
REMARK minimizedRMSD -1
REMARK  0 active torsions:
REMARK  status: ('A' for Active; 'I' for Inactive)
ROOT
ATOM      1  C   UNL d   1       1.256  -2.842   1.859  0.00  0.00     0.172 C 
ATOM      2  N   UNL d   1       1.704  -1.630   1.215  0.00  0.00    -0.070 N 
ATOM      3  C1  UNL d   1       2.937  -1.055   1.365  0.00  0.00    -0.004 A 
ATOM      4  C2  UNL d   1       2.971   0.082   0.587  0.00  0.00    -0.047 A 
ATOM      5  C3  UNL d   1       1.714   0.194  -0.053  0.00  0.00    -0.047 A 
ATOM      6  C4  UNL d   1       0.949  -0.879   0.353  0.00  0.00    -0.004 A 
ENDROOT
TORSDOF 0
ENDMDL
