MODEL 1
REMARK minimizedAffinity -3.45962524
REMARK minimizedRMSD -1
REMARK  0 active torsions:
REMARK  status: ('A' for Active; 'I' for Inactive)
ROOT
ATOM      1  C   UNL d   1      -0.567   0.283  -0.080  0.00  0.00     0.172 C 
ATOM      2  N   UNL d   1       0.814   0.097   0.299  0.00  0.00    -0.070 N 
ATOM      3  C1  UNL d   1       1.352  -1.049   0.820  0.00  0.00    -0.004 A 
ATOM      4  C2  UNL d   1       2.692  -0.823   1.045  0.00  0.00    -0.047 A 
ATOM      5  C3  UNL d   1       2.970   0.507   0.646  0.00  0.00    -0.047 A 
ATOM      6  C4  UNL d   1       1.790   1.053   0.188  0.00  0.00    -0.004 A 
ENDROOT
TORSDOF 0
ENDMDL
