MODEL 1
REMARK minimizedAffinity 0.439265341
REMARK minimizedRMSD -1
REMARK  1 active torsions:
REMARK  status: ('A' for Active; 'I' for Inactive)
REMARK    1  A    between atoms: N_2  and  C1_3 
ROOT
ATOM      1  C1  UNL d   1       0.789   3.809   0.384  0.00  0.00     0.143 A 
ATOM      2  C2  UNL d   1       0.392   2.742  -0.429  0.00  0.00    -0.057 A 
ATOM      3  C3  UNL d   1       0.038   2.942  -1.769  0.00  0.00     0.033 A 
ATOM      4  C4  UNL d   1       0.047   4.222  -2.313  0.00  0.00    -0.042 A 
ATOM      5  C5  UNL d   1       0.414   5.301  -1.517  0.00  0.00     0.033 A 
ATOM      6  C6  UNL d   1       0.772   5.094  -0.182  0.00  0.00    -0.057 A 
ENDROOT
BRANCH   1   7
ATOM      7  N   UNL d   1       1.057   3.689   1.749  0.00  0.00    -0.732 N 
ATOM      8  C   UNL d   1       0.726   2.474   2.461  0.00  0.00     0.284 C 
ATOM      9  H3  UNL d   1       1.958   4.089   2.005  0.00  0.00     0.395 HD
ENDBRANCH   1   7
TORSDOF 1
ENDMDL
