MODEL 1
REMARK minimizedAffinity 0.294453561
REMARK minimizedRMSD -1
REMARK  1 active torsions:
REMARK  status: ('A' for Active; 'I' for Inactive)
REMARK    1  A    between atoms: N_2  and  C1_3 
ROOT
ATOM      1  C1  UNL d   1       0.290   2.088  -0.001  0.00  0.00     0.143 A 
ATOM      2  C2  UNL d   1       0.442   0.708  -0.177  0.00  0.00    -0.057 A 
ATOM      3  C3  UNL d   1       0.672  -0.142   0.912  0.00  0.00     0.033 A 
ATOM      4  C4  UNL d   1       0.783   0.379   2.197  0.00  0.00    -0.042 A 
ATOM      5  C5  UNL d   1       0.660   1.750   2.392  0.00  0.00     0.033 A 
ATOM      6  C6  UNL d   1       0.424   2.593   1.302  0.00  0.00    -0.057 A 
ENDROOT
BRANCH   1   7
ATOM      7  N   UNL d   1       0.159   2.997  -1.054  0.00  0.00    -0.732 N 
ATOM      8  C   UNL d   1       0.398   4.408  -0.844  0.00  0.00     0.284 C 
ATOM      9  H3  UNL d   1       0.537   2.636  -1.927  0.00  0.00     0.395 HD
ENDBRANCH   1   7
TORSDOF 1
ENDMDL
