MODEL 1
REMARK minimizedAffinity 4.37661982
REMARK minimizedRMSD -1
REMARK  1 active torsions:
REMARK  status: ('A' for Active; 'I' for Inactive)
REMARK    1  A    between atoms: N_2  and  C1_3 
ROOT
ATOM      1  C1  UNL d   1       0.548   1.636  -0.000  0.00  0.00     0.143 A 
ATOM      2  C2  UNL d   1       0.346   1.914   1.356  0.00  0.00    -0.057 A 
ATOM      3  C3  UNL d   1       0.694   0.987   2.346  0.00  0.00     0.033 A 
ATOM      4  C4  UNL d   1       1.225  -0.249   1.995  0.00  0.00    -0.042 A 
ATOM      5  C5  UNL d   1       1.412  -0.556   0.651  0.00  0.00     0.033 A 
ATOM      6  C6  UNL d   1       1.068   0.376  -0.333  0.00  0.00    -0.057 A 
ENDROOT
BRANCH   1   7
ATOM      7  N   UNL d   1       0.132   2.476  -1.037  0.00  0.00    -0.732 N 
ATOM      8  C   UNL d   1       0.347   3.905  -0.959  0.00  0.00     0.284 C 
ATOM      9  H3  UNL d   1       0.312   2.078  -1.955  0.00  0.00     0.395 HD
ENDBRANCH   1   7
TORSDOF 1
ENDMDL
