MODEL 1
REMARK minimizedAffinity 3.77444267
REMARK minimizedRMSD -1
REMARK  1 active torsions:
REMARK  status: ('A' for Active; 'I' for Inactive)
REMARK    1  A    between atoms: N_2  and  C1_3 
ROOT
ATOM      1  C1  UNL d   1       1.006   3.804   0.946  0.00  0.00     0.143 A 
ATOM      2  C2  UNL d   1       0.292   2.610   1.097  0.00  0.00    -0.057 A 
ATOM      3  C3  UNL d   1       0.553   1.738   2.161  0.00  0.00     0.033 A 
ATOM      4  C4  UNL d   1       1.555   2.031   3.079  0.00  0.00    -0.042 A 
ATOM      5  C5  UNL d   1       2.294   3.200   2.935  0.00  0.00     0.033 A 
ATOM      6  C6  UNL d   1       2.025   4.070   1.875  0.00  0.00    -0.057 A 
ENDROOT
BRANCH   1   7
ATOM      7  N   UNL d   1       0.861   4.664  -0.145  0.00  0.00    -0.732 N 
ATOM      8  C   UNL d   1       0.372   4.169  -1.414  0.00  0.00     0.284 C 
ATOM      9  H3  UNL d   1       0.481   5.570   0.122  0.00  0.00     0.395 HD
ENDBRANCH   1   7
TORSDOF 1
ENDMDL
