MODEL 1
REMARK minimizedAffinity -2.11882353
REMARK minimizedRMSD -1
REMARK  1 active torsions:
REMARK  status: ('A' for Active; 'I' for Inactive)
REMARK    1  A    between atoms: N_2  and  C1_3 
ROOT
ATOM      1  C1  UNL d   1       0.831   3.173   0.853  0.00  0.00     0.143 A 
ATOM      2  C2  UNL d   1       1.135   4.517   0.611  0.00  0.00    -0.057 A 
ATOM      3  C3  UNL d   1       0.907   5.098  -0.643  0.00  0.00     0.033 A 
ATOM      4  C4  UNL d   1       0.398   4.335  -1.688  0.00  0.00    -0.042 A 
ATOM      5  C5  UNL d   1       0.112   2.991  -1.477  0.00  0.00     0.033 A 
ATOM      6  C6  UNL d   1       0.334   2.418  -0.221  0.00  0.00    -0.057 A 
ENDROOT
BRANCH   1   7
ATOM      7  N   UNL d   1       1.125   2.512   2.048  0.00  0.00    -0.732 N 
ATOM      8  C   UNL d   1       0.541   1.220   2.339  0.00  0.00     0.284 C 
ATOM      9  H3  UNL d   1       2.106   2.592   2.305  0.00  0.00     0.395 HD
ENDBRANCH   1   7
TORSDOF 1
ENDMDL
