MODEL 1
REMARK minimizedAffinity -5.17620468
REMARK minimizedRMSD -1
REMARK  1 active torsions:
REMARK  status: ('A' for Active; 'I' for Inactive)
REMARK    1  A    between atoms: N_2  and  C1_3 
ROOT
ATOM      1  C1  UNL d   1      -0.449   2.707  -0.286  0.00  0.00     0.143 A 
ATOM      2  C2  UNL d   1      -0.832   2.519  -1.618  0.00  0.00    -0.057 A 
ATOM      3  C3  UNL d   1      -0.883   3.592  -2.517  0.00  0.00     0.033 A 
ATOM      4  C4  UNL d   1      -0.579   4.880  -2.090  0.00  0.00    -0.042 A 
ATOM      5  C5  UNL d   1      -0.220   5.094  -0.764  0.00  0.00     0.033 A 
ATOM      6  C6  UNL d   1      -0.164   4.018   0.127  0.00  0.00    -0.057 A 
ENDROOT
BRANCH   1   7
ATOM      7  N   UNL d   1      -0.473   1.698   0.680  0.00  0.00    -0.732 N 
ATOM      8  C   UNL d   1      -0.213   2.002   2.071  0.00  0.00     0.284 C 
ATOM      9  H3  UNL d   1      -1.235   1.039   0.534  0.00  0.00     0.395 HD
ENDBRANCH   1   7
TORSDOF 1
ENDMDL
