MODEL 1
REMARK minimizedAffinity -1.34084141
REMARK minimizedRMSD -1
REMARK  1 active torsions:
REMARK  status: ('A' for Active; 'I' for Inactive)
REMARK    1  A    between atoms: N_2  and  C1_3 
ROOT
ATOM      1  C1  UNL d   1      -0.288   2.950  -1.566  0.00  0.00     0.143 A 
ATOM      2  C2  UNL d   1       0.481   3.823  -0.790  0.00  0.00    -0.057 A 
ATOM      3  C3  UNL d   1       0.559   5.188  -1.094  0.00  0.00     0.033 A 
ATOM      4  C4  UNL d   1      -0.110   5.700  -2.201  0.00  0.00    -0.042 A 
ATOM      5  C5  UNL d   1      -0.861   4.846  -3.001  0.00  0.00     0.033 A 
ATOM      6  C6  UNL d   1      -0.940   3.485  -2.688  0.00  0.00    -0.057 A 
ENDROOT
BRANCH   1   7
ATOM      7  N   UNL d   1      -0.327   1.567  -1.374  0.00  0.00    -0.732 N 
ATOM      8  C   UNL d   1      -1.447   0.787  -1.855  0.00  0.00     0.284 C 
ATOM      9  H3  UNL d   1       0.579   1.129  -1.523  0.00  0.00     0.395 HD
ENDBRANCH   1   7
TORSDOF 1
ENDMDL
