MODEL 1
REMARK minimizedAffinity -2.28715515
REMARK minimizedRMSD -1
REMARK  1 active torsions:
REMARK  status: ('A' for Active; 'I' for Inactive)
REMARK    1  A    between atoms: N_2  and  C1_3 
ROOT
ATOM      1  C1  UNL d   1       0.335   2.593  -0.397  0.00  0.00     0.143 A 
ATOM      2  C2  UNL d   1       0.469   1.213  -0.582  0.00  0.00    -0.057 A 
ATOM      3  C3  UNL d   1       0.541   0.337   0.509  0.00  0.00     0.033 A 
ATOM      4  C4  UNL d   1       0.509   0.832   1.808  0.00  0.00    -0.042 A 
ATOM      5  C5  UNL d   1       0.402   2.202   2.016  0.00  0.00     0.033 A 
ATOM      6  C6  UNL d   1       0.324   3.071   0.923  0.00  0.00    -0.057 A 
ENDROOT
BRANCH   1   7
ATOM      7  N   UNL d   1       0.357   3.523  -1.439  0.00  0.00    -0.732 N 
ATOM      8  C   UNL d   1       0.875   4.858  -1.224  0.00  0.00     0.284 C 
ATOM      9  H3  UNL d   1       0.634   3.107  -2.325  0.00  0.00     0.395 HD
ENDBRANCH   1   7
TORSDOF 1
ENDMDL
