MODEL 1
REMARK minimizedAffinity -4.86844921
REMARK minimizedRMSD -1
REMARK  0 active torsions:
REMARK  status: ('A' for Active; 'I' for Inactive)
ROOT
ATOM      1  C4' PXY d   1       0.896   1.451  -0.591  0.00  0.00     0.077 C 
ATOM      2  C1' PXY d   1      -2.374  -2.693   1.764  0.00  0.00     0.077 C 
ATOM      3  C1  PXY d   1      -1.506  -1.613   1.149  0.00  0.00    -0.082 A 
ATOM      4  C2  PXY d   1      -1.943  -0.365   1.111  0.00  0.00     0.003 A 
ATOM      5  C3  PXY d   1      -1.184   0.618   0.529  0.00  0.00     0.003 A 
ATOM      6  C4  PXY d   1       0.057   0.331   0.029  0.00  0.00    -0.082 A 
ATOM      7  C5  PXY d   1       0.515  -0.939   0.074  0.00  0.00     0.003 A 
ATOM      8  C6  PXY d   1      -0.288  -1.930   0.631  0.00  0.00     0.003 A 
ENDROOT
TORSDOF 0
ENDMDL
