MODEL 1
REMARK minimizedAffinity -4.58311605
REMARK minimizedRMSD -1
REMARK  0 active torsions:
REMARK  status: ('A' for Active; 'I' for Inactive)
ROOT
ATOM      1  C4' PXY d   1      -3.559  -0.384   1.978  0.00  0.00     0.077 C 
ATOM      2  C1' PXY d   1       1.622  -1.712  -0.213  0.00  0.00     0.077 C 
ATOM      3  C1  PXY d   1       0.260  -1.377   0.361  0.00  0.00    -0.082 A 
ATOM      4  C2  PXY d   1      -0.239  -0.163   0.195  0.00  0.00     0.003 A 
ATOM      5  C3  PXY d   1      -1.455   0.168   0.735  0.00  0.00     0.003 A 
ATOM      6  C4  PXY d   1      -2.192  -0.770   1.407  0.00  0.00    -0.082 A 
ATOM      7  C5  PXY d   1      -1.695  -2.015   1.572  0.00  0.00     0.003 A 
ATOM      8  C6  PXY d   1      -0.440  -2.318   1.051  0.00  0.00     0.003 A 
ENDROOT
TORSDOF 0
ENDMDL
