MODEL 1
REMARK minimizedAffinity -4.93214226
REMARK minimizedRMSD -1
REMARK  0 active torsions:
REMARK  status: ('A' for Active; 'I' for Inactive)
ROOT
ATOM      1  C4' PXY d   1       0.790   1.331  -0.576  0.00  0.00     0.077 C 
ATOM      2  C1' PXY d   1      -2.032  -3.240   1.561  0.00  0.00     0.077 C 
ATOM      3  C1  PXY d   1      -1.281  -2.046   1.006  0.00  0.00    -0.082 A 
ATOM      4  C2  PXY d   1      -1.933  -0.922   0.753  0.00  0.00     0.003 A 
ATOM      5  C3  PXY d   1      -1.275   0.157   0.221  0.00  0.00     0.003 A 
ATOM      6  C4  PXY d   1       0.074   0.103  -0.006  0.00  0.00    -0.082 A 
ATOM      7  C5  PXY d   1       0.748  -1.036   0.259  0.00  0.00     0.003 A 
ATOM      8  C6  PXY d   1       0.055  -2.133   0.761  0.00  0.00     0.003 A 
ENDROOT
TORSDOF 0
ENDMDL
