MODEL 1
REMARK minimizedAffinity -2.72332907
REMARK minimizedRMSD -1
REMARK  0 active torsions:
REMARK  status: ('A' for Active; 'I' for Inactive)
ROOT
ATOM      1  C4' PXY d   1       0.563   1.721  -2.408  0.00  0.00     0.077 C 
ATOM      2  C1' PXY d   1      -0.124  -2.578   1.396  0.00  0.00     0.077 C 
ATOM      3  C1  PXY d   1       0.051  -1.442   0.407  0.00  0.00    -0.082 A 
ATOM      4  C2  PXY d   1       0.126  -1.707  -0.887  0.00  0.00     0.003 A 
ATOM      5  C3  PXY d   1       0.317  -0.696  -1.793  0.00  0.00     0.003 A 
ATOM      6  C4  PXY d   1       0.377   0.607  -1.374  0.00  0.00    -0.082 A 
ATOM      7  C5  PXY d   1       0.289   0.886  -0.056  0.00  0.00     0.003 A 
ATOM      8  C6  PXY d   1       0.138  -0.159   0.850  0.00  0.00     0.003 A 
ENDROOT
TORSDOF 0
ENDMDL
