MODEL 1
REMARK minimizedAffinity -5.03671503
REMARK minimizedRMSD -1
REMARK  0 active torsions:
REMARK  status: ('A' for Active; 'I' for Inactive)
ROOT
ATOM      1  C4' PXY d   1      -3.397  -0.468   1.093  0.00  0.00     0.077 C 
ATOM      2  C1' PXY d   1       2.227  -1.562   0.325  0.00  0.00     0.077 C 
ATOM      3  C1  PXY d   1       0.749  -1.288   0.528  0.00  0.00    -0.082 A 
ATOM      4  C2  PXY d   1       0.217  -0.179   0.041  0.00  0.00     0.003 A 
ATOM      5  C3  PXY d   1      -1.110   0.100   0.243  0.00  0.00     0.003 A 
ATOM      6  C4  PXY d   1      -1.913  -0.791   0.904  0.00  0.00    -0.082 A 
ATOM      7  C5  PXY d   1      -1.379  -1.930   1.394  0.00  0.00     0.003 A 
ATOM      8  C6  PXY d   1      -0.021  -2.175   1.215  0.00  0.00     0.003 A 
ENDROOT
TORSDOF 0
ENDMDL
