MODEL 1
REMARK minimizedAffinity -5.18125916
REMARK minimizedRMSD -1
REMARK  0 active torsions:
REMARK  status: ('A' for Active; 'I' for Inactive)
ROOT
ATOM      1  C4' PXY d   1      -3.496   0.769   2.412  0.00  0.00     0.077 C 
ATOM      2  C1' PXY d   1       0.662  -2.466   0.031  0.00  0.00     0.077 C 
ATOM      3  C1  PXY d   1      -0.436  -1.628   0.656  0.00  0.00    -0.082 A 
ATOM      4  C2  PXY d   1      -0.451  -0.319   0.462  0.00  0.00     0.003 A 
ATOM      5  C3  PXY d   1      -1.418   0.458   1.046  0.00  0.00     0.003 A 
ATOM      6  C4  PXY d   1      -2.412  -0.117   1.793  0.00  0.00    -0.082 A 
ATOM      7  C5  PXY d   1      -2.410  -1.453   1.986  0.00  0.00     0.003 A 
ATOM      8  C6  PXY d   1      -1.395  -2.219   1.419  0.00  0.00     0.003 A 
ENDROOT
TORSDOF 0
ENDMDL
