MODEL 1
REMARK minimizedAffinity -4.48543787
REMARK minimizedRMSD -1
REMARK  0 active torsions:
REMARK  status: ('A' for Active; 'I' for Inactive)
ROOT
ATOM      1  C4' PXY d   1       0.974   1.614  -0.612  0.00  0.00     0.077 C 
ATOM      2  C1' PXY d   1      -1.987  -2.923   1.403  0.00  0.00     0.077 C 
ATOM      3  C1  PXY d   1      -1.200  -1.738   0.879  0.00  0.00    -0.082 A 
ATOM      4  C2  PXY d   1      -1.809  -0.579   0.693  0.00  0.00     0.003 A 
ATOM      5  C3  PXY d   1      -1.119   0.494   0.189  0.00  0.00     0.003 A 
ATOM      6  C4  PXY d   1       0.221   0.394  -0.076  0.00  0.00    -0.082 A 
ATOM      7  C5  PXY d   1       0.852  -0.783   0.121  0.00  0.00     0.003 A 
ATOM      8  C6  PXY d   1       0.124  -1.871   0.594  0.00  0.00     0.003 A 
ENDROOT
TORSDOF 0
ENDMDL
