MODEL 1
REMARK minimizedAffinity -3.89685869
REMARK minimizedRMSD -1
REMARK  0 active torsions:
REMARK  status: ('A' for Active; 'I' for Inactive)
ROOT
ATOM      1  C4' PXY d   1       1.546   1.507  -0.069  0.00  0.00     0.077 C 
ATOM      2  C1' PXY d   1      -2.016  -2.983   0.690  0.00  0.00     0.077 C 
ATOM      3  C1  PXY d   1      -1.074  -1.810   0.501  0.00  0.00    -0.082 A 
ATOM      4  C2  PXY d   1      -1.531  -0.680  -0.013  0.00  0.00     0.003 A 
ATOM      5  C3  PXY d   1      -0.686   0.380  -0.222  0.00  0.00     0.003 A 
ATOM      6  C4  PXY d   1       0.629   0.300   0.149  0.00  0.00    -0.082 A 
ATOM      7  C5  PXY d   1       1.101  -0.846   0.684  0.00  0.00     0.003 A 
ATOM      8  C6  PXY d   1       0.236  -1.924   0.849  0.00  0.00     0.003 A 
ENDROOT
TORSDOF 0
ENDMDL
