MODEL 1
REMARK minimizedAffinity -5.78858185
REMARK minimizedRMSD -1
REMARK  0 active torsions:
REMARK  status: ('A' for Active; 'I' for Inactive)
ROOT
ATOM      1  C4' PXY d   1       0.305   1.420  -0.466  0.00  0.00     0.077 C 
ATOM      2  C1' PXY d   1      -2.408  -3.083   1.938  0.00  0.00     0.077 C 
ATOM      3  C1  PXY d   1      -1.707  -1.896   1.307  0.00  0.00    -0.082 A 
ATOM      4  C2  PXY d   1      -0.569  -2.077   0.657  0.00  0.00     0.003 A 
ATOM      5  C3  PXY d   1       0.094  -1.010   0.108  0.00  0.00     0.003 A 
ATOM      6  C4  PXY d   1      -0.441   0.248   0.178  0.00  0.00    -0.082 A 
ATOM      7  C5  PXY d   1      -1.608   0.440   0.830  0.00  0.00     0.003 A 
ATOM      8  C6  PXY d   1      -2.244  -0.650   1.416  0.00  0.00     0.003 A 
ENDROOT
TORSDOF 0
ENDMDL
