MODEL 1
REMARK minimizedAffinity -6.09846544
REMARK minimizedRMSD -1
REMARK  0 active torsions:
REMARK  status: ('A' for Active; 'I' for Inactive)
ROOT
ATOM      1  C4' PXY d   1      -3.227   0.426   2.199  0.00  0.00     0.077 C 
ATOM      2  C1' PXY d   1       1.305  -2.242  -0.199  0.00  0.00     0.077 C 
ATOM      3  C1  PXY d   1       0.111  -1.554   0.431  0.00  0.00    -0.082 A 
ATOM      4  C2  PXY d   1      -0.121  -0.278   0.171  0.00  0.00     0.003 A 
ATOM      5  C3  PXY d   1      -1.179   0.369   0.758  0.00  0.00     0.003 A 
ATOM      6  C4  PXY d   1      -2.038  -0.312   1.577  0.00  0.00    -0.082 A 
ATOM      7  C5  PXY d   1      -1.814  -1.617   1.839  0.00  0.00     0.003 A 
ATOM      8  C6  PXY d   1      -0.712  -2.244   1.266  0.00  0.00     0.003 A 
ENDROOT
TORSDOF 0
ENDMDL
