MODEL 1
REMARK minimizedAffinity -5.07156038
REMARK minimizedRMSD -1
REMARK  0 active torsions:
REMARK  status: ('A' for Active; 'I' for Inactive)
ROOT
ATOM      1  C4' PXY d   1       0.818   1.249  -0.741  0.00  0.00     0.077 C 
ATOM      2  C1' PXY d   1      -2.637  -2.584   1.864  0.00  0.00     0.077 C 
ATOM      3  C1  PXY d   1      -1.721  -1.587   1.182  0.00  0.00    -0.082 A 
ATOM      4  C2  PXY d   1      -1.997  -0.295   1.246  0.00  0.00     0.003 A 
ATOM      5  C3  PXY d   1      -1.197   0.618   0.608  0.00  0.00     0.003 A 
ATOM      6  C4  PXY d   1      -0.074   0.208  -0.059  0.00  0.00    -0.082 A 
ATOM      7  C5  PXY d   1       0.220  -1.108  -0.121  0.00  0.00     0.003 A 
ATOM      8  C6  PXY d   1      -0.627  -2.022   0.499  0.00  0.00     0.003 A 
ENDROOT
TORSDOF 0
ENDMDL
