MODEL 1
REMARK minimizedAffinity 1.37268639
REMARK minimizedRMSD -1
REMARK  0 active torsions:
REMARK  status: ('A' for Active; 'I' for Inactive)
ROOT
ATOM      1  C4' PXY d   1       0.888   1.217  -1.183  0.00  0.00     0.077 C 
ATOM      2  C1' PXY d   1      -2.357  -1.217   2.936  0.00  0.00     0.077 C 
ATOM      3  C1  PXY d   1      -1.496  -0.586   1.859  0.00  0.00    -0.082 A 
ATOM      4  C2  PXY d   1      -1.774   0.634   1.430  0.00  0.00     0.003 A 
ATOM      5  C3  PXY d   1      -1.026   1.206   0.434  0.00  0.00     0.003 A 
ATOM      6  C4  PXY d   1       0.052   0.544  -0.090  0.00  0.00    -0.082 A 
ATOM      7  C5  PXY d   1       0.349  -0.697   0.350  0.00  0.00     0.003 A 
ATOM      8  C6  PXY d   1      -0.448  -1.276   1.333  0.00  0.00     0.003 A 
ENDROOT
TORSDOF 0
ENDMDL
