MODEL 1
REMARK minimizedAffinity -4.3078804
REMARK minimizedRMSD -1
REMARK  0 active torsions:
REMARK  status: ('A' for Active; 'I' for Inactive)
ROOT
ATOM      1  C4' PXY d   1       0.350   1.256  -0.851  0.00  0.00     0.077 C 
ATOM      2  C1' PXY d   1      -2.559  -2.682   2.223  0.00  0.00     0.077 C 
ATOM      3  C1  PXY d   1      -1.807  -1.642   1.416  0.00  0.00    -0.082 A 
ATOM      4  C2  PXY d   1      -0.739  -1.999   0.721  0.00  0.00     0.003 A 
ATOM      5  C3  PXY d   1      -0.028  -1.065   0.012  0.00  0.00     0.003 A 
ATOM      6  C4  PXY d   1      -0.446   0.238  -0.030  0.00  0.00    -0.082 A 
ATOM      7  C5  PXY d   1      -1.541   0.609   0.668  0.00  0.00     0.003 A 
ATOM      8  C6  PXY d   1      -2.224  -0.346   1.415  0.00  0.00     0.003 A 
ENDROOT
TORSDOF 0
ENDMDL
