MODEL 1
REMARK minimizedAffinity -5.12509251
REMARK minimizedRMSD -1
REMARK  0 active torsions:
REMARK  status: ('A' for Active; 'I' for Inactive)
ROOT
ATOM      1  C4' PXY d   1      -3.583  -0.136   1.889  0.00  0.00     0.077 C 
ATOM      2  C1' PXY d   1       1.741  -1.231  -0.077  0.00  0.00     0.077 C 
ATOM      3  C1  PXY d   1       0.342  -0.957   0.436  0.00  0.00    -0.082 A 
ATOM      4  C2  PXY d   1      -0.136   0.277   0.404  0.00  0.00     0.003 A 
ATOM      5  C3  PXY d   1      -1.388   0.549   0.894  0.00  0.00     0.003 A 
ATOM      6  C4  PXY d   1      -2.179  -0.461   1.372  0.00  0.00    -0.082 A 
ATOM      7  C5  PXY d   1      -1.702  -1.724   1.399  0.00  0.00     0.003 A 
ATOM      8  C6  PXY d   1      -0.414  -1.972   0.935  0.00  0.00     0.003 A 
ENDROOT
TORSDOF 0
ENDMDL
