MODEL 1
REMARK minimizedAffinity -4.35432243
REMARK minimizedRMSD -1
REMARK  0 active torsions:
REMARK  status: ('A' for Active; 'I' for Inactive)
ROOT
ATOM      1  C4' PXY d   1      -2.656  -2.251   2.184  0.00  0.00     0.077 C 
ATOM      2  C1' PXY d   1       0.930   1.160  -0.802  0.00  0.00     0.077 C 
ATOM      3  C1  PXY d   1      -0.016   0.276  -0.013  0.00  0.00    -0.082 A 
ATOM      4  C2  PXY d   1       0.296  -0.993   0.196  0.00  0.00     0.003 A 
ATOM      5  C3  PXY d   1      -0.562  -1.814   0.880  0.00  0.00     0.003 A 
ATOM      6  C4  PXY d   1      -1.728  -1.319   1.401  0.00  0.00    -0.082 A 
ATOM      7  C5  PXY d   1      -2.048  -0.023   1.201  0.00  0.00     0.003 A 
ATOM      8  C6  PXY d   1      -1.182   0.784   0.469  0.00  0.00     0.003 A 
ENDROOT
TORSDOF 0
ENDMDL
