MODEL 1
REMARK minimizedAffinity -0.714085698
REMARK minimizedRMSD -1
REMARK  0 active torsions:
REMARK  status: ('A' for Active; 'I' for Inactive)
ROOT
ATOM      1  C4' PXY d   1       4.677   1.502  -3.017  0.00  0.00     0.077 C 
ATOM      2  C1' PXY d   1      -0.991   2.637  -3.094  0.00  0.00     0.077 C 
ATOM      3  C1  PXY d   1       0.497   2.346  -3.062  0.00  0.00    -0.082 A 
ATOM      4  C2  PXY d   1       1.140   2.106  -4.193  0.00  0.00     0.003 A 
ATOM      5  C3  PXY d   1       2.479   1.809  -4.180  0.00  0.00     0.003 A 
ATOM      6  C4  PXY d   1       3.177   1.810  -3.002  0.00  0.00    -0.082 A 
ATOM      7  C5  PXY d   1       2.530   2.064  -1.845  0.00  0.00     0.003 A 
ATOM      8  C6  PXY d   1       1.162   2.322  -1.876  0.00  0.00     0.003 A 
ENDROOT
TORSDOF 0
ENDMDL
