MODEL 1
REMARK minimizedAffinity -3.90417171
REMARK minimizedRMSD -1
REMARK  0 active torsions:
REMARK  status: ('A' for Active; 'I' for Inactive)
ROOT
ATOM      1  C4' PXY d   1      -3.437   0.591   2.295  0.00  0.00     0.077 C 
ATOM      2  C1' PXY d   1       1.180  -1.627  -0.384  0.00  0.00     0.077 C 
ATOM      3  C1  PXY d   1      -0.036  -1.057   0.319  0.00  0.00    -0.082 A 
ATOM      4  C2  PXY d   1      -0.353   0.216   0.150  0.00  0.00     0.003 A 
ATOM      5  C3  PXY d   1      -1.430   0.755   0.804  0.00  0.00     0.003 A 
ATOM      6  C4  PXY d   1      -2.223  -0.030   1.597  0.00  0.00    -0.082 A 
ATOM      7  C5  PXY d   1      -1.913  -1.332   1.766  0.00  0.00     0.003 A 
ATOM      8  C6  PXY d   1      -0.791  -1.851   1.127  0.00  0.00     0.003 A 
ENDROOT
TORSDOF 0
ENDMDL
