MODEL 1
REMARK minimizedAffinity -3.66336703
REMARK minimizedRMSD -1
REMARK  0 active torsions:
REMARK  status: ('A' for Active; 'I' for Inactive)
ROOT
ATOM      1  C4' PXY d   1      -2.485  -2.678   1.681  0.00  0.00     0.077 C 
ATOM      2  C1' PXY d   1       0.766   1.645  -0.356  0.00  0.00     0.077 C 
ATOM      3  C1  PXY d   1      -0.092   0.520   0.186  0.00  0.00    -0.082 A 
ATOM      4  C2  PXY d   1       0.331  -0.730   0.091  0.00  0.00     0.003 A 
ATOM      5  C3  PXY d   1      -0.447  -1.763   0.547  0.00  0.00     0.003 A 
ATOM      6  C4  PXY d   1      -1.647  -1.509   1.156  0.00  0.00    -0.082 A 
ATOM      7  C5  PXY d   1      -2.081  -0.236   1.267  0.00  0.00     0.003 A 
ATOM      8  C6  PXY d   1      -1.295   0.795   0.760  0.00  0.00     0.003 A 
ENDROOT
TORSDOF 0
ENDMDL
