MODEL 1
REMARK minimizedAffinity -3.30798769
REMARK minimizedRMSD -1
REMARK  0 active torsions:
REMARK  status: ('A' for Active; 'I' for Inactive)
ROOT
ATOM      1  C   UNL d   1       0.416  -1.051  -1.154  0.00  0.00     0.078 C 
ATOM      2  C1  UNL d   1      -0.279  -0.121  -0.205  0.00  0.00    -0.077 A 
ATOM      3  C2  UNL d   1      -0.675  -0.552   1.067  0.00  0.00    -0.001 A 
ATOM      4  C3  UNL d   1      -1.330   0.322   1.937  0.00  0.00     0.003 A 
ATOM      5  C4  UNL d   1      -1.595   1.632   1.543  0.00  0.00    -0.005 A 
ATOM      6  C5  UNL d   1      -1.207   2.069   0.278  0.00  0.00     0.003 A 
ATOM      7  C6  UNL d   1      -0.552   1.197  -0.592  0.00  0.00    -0.001 A 
ENDROOT
TORSDOF 0
ENDMDL
