MODEL 1
REMARK minimizedAffinity -2.90965533
REMARK minimizedRMSD -1
REMARK  0 active torsions:
REMARK  status: ('A' for Active; 'I' for Inactive)
ROOT
ATOM      1  C   UNL d   1      -1.911   1.440   1.243  0.00  0.00     0.078 C 
ATOM      2  C1  UNL d   1      -0.909   0.699   0.409  0.00  0.00    -0.077 A 
ATOM      3  C2  UNL d   1      -0.253   1.327  -0.657  0.00  0.00    -0.001 A 
ATOM      4  C3  UNL d   1       0.670   0.623  -1.431  0.00  0.00     0.003 A 
ATOM      5  C4  UNL d   1       0.944  -0.714  -1.149  0.00  0.00    -0.005 A 
ATOM      6  C5  UNL d   1       0.295  -1.348  -0.092  0.00  0.00     0.003 A 
ATOM      7  C6  UNL d   1      -0.629  -0.645   0.684  0.00  0.00    -0.001 A 
ENDROOT
TORSDOF 0
ENDMDL
