MODEL 1
REMARK minimizedAffinity -3.77980566
REMARK minimizedRMSD -1
REMARK  0 active torsions:
REMARK  status: ('A' for Active; 'I' for Inactive)
ROOT
ATOM      1  C   UNL d   1       0.342   2.212  -1.058  0.00  0.00     0.078 C 
ATOM      2  C1  UNL d   1      -0.392   1.495   0.036  0.00  0.00    -0.077 A 
ATOM      3  C2  UNL d   1      -1.342   2.159   0.822  0.00  0.00    -0.001 A 
ATOM      4  C3  UNL d   1      -2.011   1.482   1.843  0.00  0.00     0.003 A 
ATOM      5  C4  UNL d   1      -1.736   0.138   2.088  0.00  0.00    -0.005 A 
ATOM      6  C5  UNL d   1      -0.792  -0.530   1.312  0.00  0.00     0.003 A 
ATOM      7  C6  UNL d   1      -0.122   0.145   0.291  0.00  0.00    -0.001 A 
ENDROOT
TORSDOF 0
ENDMDL
