MODEL 1
REMARK minimizedAffinity -5.75728941
REMARK minimizedRMSD -1
REMARK  0 active torsions:
REMARK  status: ('A' for Active; 'I' for Inactive)
ROOT
ATOM      1  C   UNL d   1       0.748  -1.242  -0.490  0.00  0.00     0.078 C 
ATOM      2  C1  UNL d   1      -0.183  -0.254   0.146  0.00  0.00    -0.077 A 
ATOM      3  C2  UNL d   1      -0.391  -0.248   1.531  0.00  0.00    -0.001 A 
ATOM      4  C3  UNL d   1      -1.267   0.672   2.109  0.00  0.00     0.003 A 
ATOM      5  C4  UNL d   1      -1.944   1.591   1.310  0.00  0.00    -0.005 A 
ATOM      6  C5  UNL d   1      -1.745   1.591  -0.069  0.00  0.00     0.003 A 
ATOM      7  C6  UNL d   1      -0.869   0.673  -0.649  0.00  0.00    -0.001 A 
ENDROOT
TORSDOF 0
ENDMDL
