MODEL 1
REMARK minimizedAffinity -5.05160475
REMARK minimizedRMSD -1
REMARK  0 active torsions:
REMARK  status: ('A' for Active; 'I' for Inactive)
ROOT
ATOM      1  C   UNL d   1       0.601  -0.860  -0.644  0.00  0.00     0.078 C 
ATOM      2  C1  UNL d   1      -0.255   0.040   0.196  0.00  0.00    -0.077 A 
ATOM      3  C2  UNL d   1      -1.211   0.878  -0.391  0.00  0.00    -0.001 A 
ATOM      4  C3  UNL d   1      -1.994   1.719   0.402  0.00  0.00     0.003 A 
ATOM      5  C4  UNL d   1      -1.828   1.730   1.786  0.00  0.00    -0.005 A 
ATOM      6  C5  UNL d   1      -0.877   0.902   2.378  0.00  0.00     0.003 A 
ATOM      7  C6  UNL d   1      -0.093   0.061   1.587  0.00  0.00    -0.001 A 
ENDROOT
TORSDOF 0
ENDMDL
