MODEL 1
REMARK minimizedAffinity -5.76029062
REMARK minimizedRMSD -1
REMARK  0 active torsions:
REMARK  status: ('A' for Active; 'I' for Inactive)
ROOT
ATOM      1  C   UNL d   1       0.603  -0.842  -0.569  0.00  0.00     0.078 C 
ATOM      2  C1  UNL d   1      -0.346  -0.074   0.301  0.00  0.00    -0.077 A 
ATOM      3  C2  UNL d   1      -1.024   1.050  -0.187  0.00  0.00    -0.001 A 
ATOM      4  C3  UNL d   1      -1.897   1.761   0.638  0.00  0.00     0.003 A 
ATOM      5  C4  UNL d   1      -2.100   1.358   1.956  0.00  0.00    -0.005 A 
ATOM      6  C5  UNL d   1      -1.428   0.242   2.451  0.00  0.00     0.003 A 
ATOM      7  C6  UNL d   1      -0.555  -0.471   1.628  0.00  0.00    -0.001 A 
ENDROOT
TORSDOF 0
ENDMDL
