MODEL 1
REMARK minimizedAffinity -5.43954086
REMARK minimizedRMSD -1
REMARK  0 active torsions:
REMARK  status: ('A' for Active; 'I' for Inactive)
ROOT
ATOM      1  C   UNL d   1       0.794  -0.820  -0.737  0.00  0.00     0.078 C 
ATOM      2  C1  UNL d   1      -0.159  -0.039   0.118  0.00  0.00    -0.077 A 
ATOM      3  C2  UNL d   1      -0.378  -0.386   1.457  0.00  0.00    -0.001 A 
ATOM      4  C3  UNL d   1      -1.275   0.344   2.237  0.00  0.00     0.003 A 
ATOM      5  C4  UNL d   1      -1.962   1.425   1.688  0.00  0.00    -0.005 A 
ATOM      6  C5  UNL d   1      -1.753   1.776   0.357  0.00  0.00     0.003 A 
ATOM      7  C6  UNL d   1      -0.855   1.048  -0.426  0.00  0.00    -0.001 A 
ENDROOT
TORSDOF 0
ENDMDL
