MODEL 1
REMARK minimizedAffinity -4.46024418
REMARK minimizedRMSD -1
REMARK  0 active torsions:
REMARK  status: ('A' for Active; 'I' for Inactive)
ROOT
ATOM      1  C   UNL d   1       0.086  -0.762   1.295  0.00  0.00     0.078 C 
ATOM      2  C1  UNL d   1      -0.413   0.472   0.605  0.00  0.00    -0.077 A 
ATOM      3  C2  UNL d   1      -1.567   1.130   1.048  0.00  0.00    -0.001 A 
ATOM      4  C3  UNL d   1      -2.027   2.271   0.390  0.00  0.00     0.003 A 
ATOM      5  C4  UNL d   1      -1.339   2.765  -0.717  0.00  0.00    -0.005 A 
ATOM      6  C5  UNL d   1      -0.191   2.117  -1.167  0.00  0.00     0.003 A 
ATOM      7  C6  UNL d   1       0.270   0.975  -0.510  0.00  0.00    -0.001 A 
ENDROOT
TORSDOF 0
ENDMDL
