MODEL 1
REMARK minimizedAffinity -4.81498241
REMARK minimizedRMSD -1
REMARK  0 active torsions:
REMARK  status: ('A' for Active; 'I' for Inactive)
ROOT
ATOM      1  C   UNL d   1       1.215  -0.670  -0.349  0.00  0.00     0.078 C 
ATOM      2  C1  UNL d   1       0.037   0.055   0.229  0.00  0.00    -0.077 A 
ATOM      3  C2  UNL d   1      -0.780   0.860  -0.575  0.00  0.00    -0.001 A 
ATOM      4  C3  UNL d   1      -1.868   1.537  -0.021  0.00  0.00     0.003 A 
ATOM      5  C4  UNL d   1      -2.149   1.416   1.338  0.00  0.00    -0.005 A 
ATOM      6  C5  UNL d   1      -1.341   0.619   2.146  0.00  0.00     0.003 A 
ATOM      7  C6  UNL d   1      -0.252  -0.058   1.594  0.00  0.00    -0.001 A 
ENDROOT
TORSDOF 0
ENDMDL
