MODEL 1
REMARK minimizedAffinity -5.55538797
REMARK minimizedRMSD -1
REMARK  0 active torsions:
REMARK  status: ('A' for Active; 'I' for Inactive)
ROOT
ATOM      1  C   UNL d   1       0.722  -1.009  -0.749  0.00  0.00     0.078 C 
ATOM      2  C1  UNL d   1      -0.064   0.016   0.012  0.00  0.00    -0.077 A 
ATOM      3  C2  UNL d   1      -0.470  -0.220   1.331  0.00  0.00    -0.001 A 
ATOM      4  C3  UNL d   1      -1.210   0.739   2.025  0.00  0.00     0.003 A 
ATOM      5  C4  UNL d   1      -1.551   1.941   1.407  0.00  0.00    -0.005 A 
ATOM      6  C5  UNL d   1      -1.153   2.184   0.094  0.00  0.00     0.003 A 
ATOM      7  C6  UNL d   1      -0.414   1.226  -0.601  0.00  0.00    -0.001 A 
ENDROOT
TORSDOF 0
ENDMDL
