MODEL 1
REMARK minimizedAffinity -5.52260065
REMARK minimizedRMSD -1
REMARK  0 active torsions:
REMARK  status: ('A' for Active; 'I' for Inactive)
ROOT
ATOM      1  C   UNL d   1      -1.934   2.055   1.632  0.00  0.00     0.078 C 
ATOM      2  C1  UNL d   1      -0.998   1.216   0.813  0.00  0.00    -0.077 A 
ATOM      3  C2  UNL d   1      -0.422   1.716  -0.361  0.00  0.00    -0.001 A 
ATOM      4  C3  UNL d   1       0.439   0.920  -1.119  0.00  0.00     0.003 A 
ATOM      5  C4  UNL d   1       0.731  -0.380  -0.711  0.00  0.00    -0.005 A 
ATOM      6  C5  UNL d   1       0.160  -0.887   0.455  0.00  0.00     0.003 A 
ATOM      7  C6  UNL d   1      -0.701  -0.093   1.214  0.00  0.00    -0.001 A 
ENDROOT
TORSDOF 0
ENDMDL
