MODEL 1
REMARK minimizedAffinity -4.79666948
REMARK minimizedRMSD -1
REMARK  0 active torsions:
REMARK  status: ('A' for Active; 'I' for Inactive)
ROOT
ATOM      1  C   UNL d   1       2.739  -4.407   0.300  0.00  0.00     0.078 C 
ATOM      2  C1  UNL d   1       1.693  -3.800  -0.588  0.00  0.00    -0.077 A 
ATOM      3  C2  UNL d   1       0.863  -4.605  -1.378  0.00  0.00    -0.001 A 
ATOM      4  C3  UNL d   1      -0.100  -4.026  -2.206  0.00  0.00     0.003 A 
ATOM      5  C4  UNL d   1      -0.241  -2.641  -2.254  0.00  0.00    -0.005 A 
ATOM      6  C5  UNL d   1       0.582  -1.832  -1.473  0.00  0.00     0.003 A 
ATOM      7  C6  UNL d   1       1.546  -2.409  -0.644  0.00  0.00    -0.001 A 
ENDROOT
TORSDOF 0
ENDMDL
