MODEL 1
REMARK minimizedAffinity -3.1271317
REMARK minimizedRMSD -1
REMARK  0 active torsions:
REMARK  status: ('A' for Active; 'I' for Inactive)
ROOT
ATOM      1  C   UNL d   1      -2.065   2.038   1.345  0.00  0.00     0.078 C 
ATOM      2  C1  UNL d   1      -0.942   1.431   0.559  0.00  0.00    -0.077 A 
ATOM      3  C2  UNL d   1      -0.228   2.187  -0.379  0.00  0.00    -0.001 A 
ATOM      4  C3  UNL d   1       0.809   1.606  -1.112  0.00  0.00     0.003 A 
ATOM      5  C4  UNL d   1       1.140   0.267  -0.915  0.00  0.00    -0.005 A 
ATOM      6  C5  UNL d   1       0.434  -0.493   0.015  0.00  0.00     0.003 A 
ATOM      7  C6  UNL d   1      -0.603   0.086   0.748  0.00  0.00    -0.001 A 
ENDROOT
TORSDOF 0
ENDMDL
