MODEL 1
REMARK minimizedAffinity -4.02937651
REMARK minimizedRMSD -1
REMARK  0 active torsions:
REMARK  status: ('A' for Active; 'I' for Inactive)
ROOT
ATOM      1  C   UNL d   1       0.761  -0.721  -0.721  0.00  0.00     0.078 C 
ATOM      2  C1  UNL d   1      -0.121   0.188   0.083  0.00  0.00    -0.077 A 
ATOM      3  C2  UNL d   1      -0.470  -0.128   1.402  0.00  0.00    -0.001 A 
ATOM      4  C3  UNL d   1      -1.299   0.722   2.135  0.00  0.00     0.003 A 
ATOM      5  C4  UNL d   1      -1.788   1.892   1.558  0.00  0.00    -0.005 A 
ATOM      6  C5  UNL d   1      -1.448   2.213   0.245  0.00  0.00     0.003 A 
ATOM      7  C6  UNL d   1      -0.619   1.365  -0.489  0.00  0.00    -0.001 A 
ENDROOT
TORSDOF 0
ENDMDL
