MODEL 1
REMARK minimizedAffinity 5.21249771
REMARK minimizedRMSD -1
REMARK  0 active torsions:
REMARK  status: ('A' for Active; 'I' for Inactive)
ROOT
ATOM      1  C   UNL d   1       0.223  -0.911  -1.521  0.00  0.00     0.078 C 
ATOM      2  C1  UNL d   1       1.589  -0.356  -1.252  0.00  0.00    -0.077 A 
ATOM      3  C2  UNL d   1       2.579  -0.364  -2.243  0.00  0.00    -0.001 A 
ATOM      4  C3  UNL d   1       3.849   0.148  -1.975  0.00  0.00     0.003 A 
ATOM      5  C4  UNL d   1       4.143   0.670  -0.718  0.00  0.00    -0.005 A 
ATOM      6  C5  UNL d   1       3.165   0.681   0.275  0.00  0.00     0.003 A 
ATOM      7  C6  UNL d   1       1.894   0.169   0.010  0.00  0.00    -0.001 A 
ENDROOT
TORSDOF 0
ENDMDL
