MODEL 1
REMARK minimizedAffinity -1.54508626
REMARK minimizedRMSD -1
REMARK  0 active torsions:
REMARK  status: ('A' for Active; 'I' for Inactive)
ROOT
ATOM      1  C   UNL d   1      -0.297  -0.398  -1.375  0.00  0.00     0.078 C 
ATOM      2  C1  UNL d   1       0.208   0.719  -0.511  0.00  0.00    -0.077 A 
ATOM      3  C2  UNL d   1       1.182   0.489   0.469  0.00  0.00    -0.001 A 
ATOM      4  C3  UNL d   1       1.636   1.537   1.272  0.00  0.00     0.003 A 
ATOM      5  C4  UNL d   1       1.122   2.821   1.104  0.00  0.00    -0.005 A 
ATOM      6  C5  UNL d   1       0.151   3.059   0.133  0.00  0.00     0.003 A 
ATOM      7  C6  UNL d   1      -0.304   2.013  -0.671  0.00  0.00    -0.001 A 
ENDROOT
TORSDOF 0
ENDMDL
