MODEL 1
REMARK minimizedAffinity -0.981520891
REMARK minimizedRMSD -1
REMARK  0 active torsions:
REMARK  status: ('A' for Active; 'I' for Inactive)
ROOT
ATOM      1  C   UNL d   1      -0.723  -1.654  -0.804  0.00  0.00     0.078 C 
ATOM      2  C1  UNL d   1       0.388  -0.650  -0.712  0.00  0.00    -0.077 A 
ATOM      3  C2  UNL d   1       1.728  -1.050  -0.771  0.00  0.00    -0.001 A 
ATOM      4  C3  UNL d   1       2.752  -0.106  -0.675  0.00  0.00     0.003 A 
ATOM      5  C4  UNL d   1       2.445   1.244  -0.518  0.00  0.00    -0.005 A 
ATOM      6  C5  UNL d   1       1.114   1.652  -0.456  0.00  0.00     0.003 A 
ATOM      7  C6  UNL d   1       0.089   0.709  -0.552  0.00  0.00    -0.001 A 
ENDROOT
TORSDOF 0
ENDMDL
