MODEL 1
REMARK minimizedAffinity 4.30606651
REMARK minimizedRMSD -1
REMARK  0 active torsions:
REMARK  status: ('A' for Active; 'I' for Inactive)
ROOT
ATOM      1  C   UNL d   1       0.913   2.890   4.497  0.00  0.00     0.078 C 
ATOM      2  C1  UNL d   1       2.340   3.330   4.634  0.00  0.00    -0.077 A 
ATOM      3  C2  UNL d   1       2.877   3.659   5.885  0.00  0.00    -0.001 A 
ATOM      4  C3  UNL d   1       4.204   4.076   5.996  0.00  0.00     0.003 A 
ATOM      5  C4  UNL d   1       5.006   4.170   4.859  0.00  0.00    -0.005 A 
ATOM      6  C5  UNL d   1       4.479   3.848   3.610  0.00  0.00     0.003 A 
ATOM      7  C6  UNL d   1       3.152   3.430   3.497  0.00  0.00    -0.001 A 
ENDROOT
TORSDOF 0
ENDMDL
