MODEL 1
REMARK minimizedAffinity 7.91560125
REMARK minimizedRMSD -1
REMARK  0 active torsions:
REMARK  status: ('A' for Active; 'I' for Inactive)
ROOT
ATOM      1  C   UNL d   1       0.377   2.248   4.873  0.00  0.00     0.078 C 
ATOM      2  C1  UNL d   1       1.730   2.892   4.815  0.00  0.00    -0.077 A 
ATOM      3  C2  UNL d   1       2.360   3.138   3.588  0.00  0.00    -0.001 A 
ATOM      4  C3  UNL d   1       3.623   3.729   3.550  0.00  0.00     0.003 A 
ATOM      5  C4  UNL d   1       4.269   4.078   4.734  0.00  0.00    -0.005 A 
ATOM      6  C5  UNL d   1       3.651   3.835   5.959  0.00  0.00     0.003 A 
ATOM      7  C6  UNL d   1       2.388   3.244   6.000  0.00  0.00    -0.001 A 
ENDROOT
TORSDOF 0
ENDMDL
