MODEL 1
REMARK minimizedAffinity 1.36946428
REMARK minimizedRMSD -1
REMARK  0 active torsions:
REMARK  status: ('A' for Active; 'I' for Inactive)
ROOT
ATOM      1  C   UNL d   1       5.944   2.623  -3.182  0.00  0.00     0.078 C 
ATOM      2  C1  UNL d   1       5.160   1.767  -2.233  0.00  0.00    -0.077 A 
ATOM      3  C2  UNL d   1       4.096   0.977  -2.686  0.00  0.00    -0.001 A 
ATOM      4  C3  UNL d   1       3.369   0.191  -1.790  0.00  0.00     0.003 A 
ATOM      5  C4  UNL d   1       3.697   0.189  -0.436  0.00  0.00    -0.005 A 
ATOM      6  C5  UNL d   1       4.753   0.973   0.024  0.00  0.00     0.003 A 
ATOM      7  C6  UNL d   1       5.481   1.759  -0.870  0.00  0.00    -0.001 A 
ENDROOT
TORSDOF 0
ENDMDL
