MODEL 1
REMARK minimizedAffinity 1.88281906
REMARK minimizedRMSD -1
REMARK  0 active torsions:
REMARK  status: ('A' for Active; 'I' for Inactive)
ROOT
ATOM      1  C   UNL d   1       5.754   2.199   0.562  0.00  0.00     0.078 C 
ATOM      2  C1  UNL d   1       4.833   1.570  -0.440  0.00  0.00    -0.077 A 
ATOM      3  C2  UNL d   1       5.033   1.746  -1.815  0.00  0.00    -0.001 A 
ATOM      4  C3  UNL d   1       4.161   1.163  -2.735  0.00  0.00     0.003 A 
ATOM      5  C4  UNL d   1       3.082   0.400  -2.292  0.00  0.00    -0.005 A 
ATOM      6  C5  UNL d   1       2.874   0.221  -0.926  0.00  0.00     0.003 A 
ATOM      7  C6  UNL d   1       3.745   0.804  -0.003  0.00  0.00    -0.001 A 
ENDROOT
TORSDOF 0
ENDMDL
