MODEL 1
REMARK minimizedAffinity 3.72311592
REMARK minimizedRMSD -1
REMARK  0 active torsions:
REMARK  status: ('A' for Active; 'I' for Inactive)
ROOT
ATOM      1  C   UNL d   1       4.035   1.650   1.201  0.00  0.00     0.077 C 
ATOM      2  C1  UNL d   1       3.228   1.911  -0.036  0.00  0.00    -0.074 A 
ATOM      3  C2  UNL d   1       1.863   1.611  -0.080  0.00  0.00    -0.005 A 
ATOM      4  C3  UNL d   1       1.124   1.869  -1.235  0.00  0.00     0.006 A 
ATOM      5  C4  UNL d   1       1.741   2.428  -2.354  0.00  0.00    -0.005 A 
ATOM      6  C5  UNL d   1       3.105   2.736  -2.328  0.00  0.00    -0.074 A 
ATOM      7  C6  UNL d   1       3.782   3.347  -3.519  0.00  0.00     0.077 C 
ATOM      8  C7  UNL d   1       3.840   2.481  -1.162  0.00  0.00    -0.001 A 
ENDROOT
TORSDOF 0
ENDMDL
