MODEL 1
REMARK minimizedAffinity 0.770693362
REMARK minimizedRMSD -1
REMARK  0 active torsions:
REMARK  status: ('A' for Active; 'I' for Inactive)
ROOT
ATOM      1  C   UNL d   1      -2.201   1.409   4.769  0.00  0.00     0.077 C 
ATOM      2  C1  UNL d   1      -2.521   0.427   3.681  0.00  0.00    -0.074 A 
ATOM      3  C2  UNL d   1      -1.572   0.098   2.708  0.00  0.00    -0.005 A 
ATOM      4  C3  UNL d   1      -1.881  -0.824   1.708  0.00  0.00     0.006 A 
ATOM      5  C4  UNL d   1      -3.140  -1.425   1.671  0.00  0.00    -0.005 A 
ATOM      6  C5  UNL d   1      -4.101  -1.109   2.636  0.00  0.00    -0.074 A 
ATOM      7  C6  UNL d   1      -5.455  -1.754   2.617  0.00  0.00     0.077 C 
ATOM      8  C7  UNL d   1      -3.781  -0.187   3.642  0.00  0.00    -0.001 A 
ENDROOT
TORSDOF 0
ENDMDL
