MODEL 1
REMARK minimizedAffinity 9.24233055
REMARK minimizedRMSD -1
REMARK  0 active torsions:
REMARK  status: ('A' for Active; 'I' for Inactive)
ROOT
ATOM      1  C   UNL d   1      -1.646  -1.569  -2.280  0.00  0.00     0.077 C 
ATOM      2  C1  UNL d   1      -1.657  -2.977  -2.796  0.00  0.00    -0.074 A 
ATOM      3  C2  UNL d   1      -0.804  -3.947  -2.259  0.00  0.00    -0.005 A 
ATOM      4  C3  UNL d   1      -0.832  -5.254  -2.743  0.00  0.00     0.006 A 
ATOM      5  C4  UNL d   1      -1.712  -5.605  -3.768  0.00  0.00    -0.005 A 
ATOM      6  C5  UNL d   1      -2.573  -4.650  -4.317  0.00  0.00    -0.074 A 
ATOM      7  C6  UNL d   1      -3.532  -5.013  -5.412  0.00  0.00     0.077 C 
ATOM      8  C7  UNL d   1      -2.544  -3.340  -3.820  0.00  0.00    -0.001 A 
ENDROOT
TORSDOF 0
ENDMDL
