MODEL 1
REMARK minimizedAffinity 8.2797699
REMARK minimizedRMSD -1
REMARK  0 active torsions:
REMARK  status: ('A' for Active; 'I' for Inactive)
ROOT
ATOM      1  C   UNL d   1      -1.900   0.607   4.161  0.00  0.00     0.077 C 
ATOM      2  C1  UNL d   1      -2.374  -0.006   2.877  0.00  0.00    -0.074 A 
ATOM      3  C2  UNL d   1      -1.586  -0.934   2.189  0.00  0.00    -0.005 A 
ATOM      4  C3  UNL d   1      -2.044  -1.502   1.001  0.00  0.00     0.006 A 
ATOM      5  C4  UNL d   1      -3.293  -1.149   0.489  0.00  0.00    -0.005 A 
ATOM      6  C5  UNL d   1      -4.096  -0.224   1.163  0.00  0.00    -0.074 A 
ATOM      7  C6  UNL d   1      -5.445   0.159   0.632  0.00  0.00     0.077 C 
ATOM      8  C7  UNL d   1      -3.631   0.338   2.360  0.00  0.00    -0.001 A 
ENDROOT
TORSDOF 0
ENDMDL
