MODEL 1
REMARK minimizedAffinity 13.7747078
REMARK minimizedRMSD -1
REMARK  0 active torsions:
REMARK  status: ('A' for Active; 'I' for Inactive)
ROOT
ATOM      1  C   UNL d   1       6.000   4.843  -1.432  0.00  0.00     0.077 C 
ATOM      2  C1  UNL d   1       5.222   4.193  -2.537  0.00  0.00    -0.074 A 
ATOM      3  C2  UNL d   1       5.707   4.186  -3.849  0.00  0.00    -0.005 A 
ATOM      4  C3  UNL d   1       4.977   3.570  -4.865  0.00  0.00     0.006 A 
ATOM      5  C4  UNL d   1       3.757   2.955  -4.581  0.00  0.00    -0.005 A 
ATOM      6  C5  UNL d   1       3.257   2.952  -3.275  0.00  0.00    -0.074 A 
ATOM      7  C6  UNL d   1       1.952   2.288  -2.950  0.00  0.00     0.077 C 
ATOM      8  C7  UNL d   1       3.999   3.567  -2.258  0.00  0.00    -0.001 A 
ENDROOT
TORSDOF 0
ENDMDL
