MODEL 1
REMARK minimizedAffinity 5.39465523
REMARK minimizedRMSD -1
REMARK  0 active torsions:
REMARK  status: ('A' for Active; 'I' for Inactive)
ROOT
ATOM      1  C   UNL d   1      -4.794   0.003   1.697  0.00  0.00     0.077 C 
ATOM      2  C1  UNL d   1      -4.807   0.405   3.142  0.00  0.00    -0.074 A 
ATOM      3  C2  UNL d   1      -5.999   0.771   3.775  0.00  0.00    -0.005 A 
ATOM      4  C3  UNL d   1      -5.997   1.133   5.122  0.00  0.00     0.006 A 
ATOM      5  C4  UNL d   1      -4.805   1.134   5.848  0.00  0.00    -0.005 A 
ATOM      6  C5  UNL d   1      -3.604   0.771   5.232  0.00  0.00    -0.074 A 
ATOM      7  C6  UNL d   1      -2.316   0.757   6.000  0.00  0.00     0.077 C 
ATOM      8  C7  UNL d   1      -3.615   0.401   3.880  0.00  0.00    -0.001 A 
ENDROOT
TORSDOF 0
ENDMDL
