MODEL 1
REMARK minimizedAffinity 12.9340496
REMARK minimizedRMSD -1
REMARK  0 active torsions:
REMARK  status: ('A' for Active; 'I' for Inactive)
ROOT
ATOM      1  C   UNL d   1      -2.050   1.235   4.087  0.00  0.00     0.077 C 
ATOM      2  C1  UNL d   1      -2.070   0.073   3.139  0.00  0.00    -0.074 A 
ATOM      3  C2  UNL d   1      -0.982  -0.190   2.301  0.00  0.00    -0.005 A 
ATOM      4  C3  UNL d   1      -1.011  -1.280   1.432  0.00  0.00     0.006 A 
ATOM      5  C4  UNL d   1      -2.127  -2.118   1.392  0.00  0.00    -0.005 A 
ATOM      6  C5  UNL d   1      -3.224  -1.871   2.224  0.00  0.00    -0.074 A 
ATOM      7  C6  UNL d   1      -4.427  -2.767   2.201  0.00  0.00     0.077 C 
ATOM      8  C7  UNL d   1      -3.184  -0.778   3.099  0.00  0.00    -0.001 A 
ENDROOT
TORSDOF 0
ENDMDL
