MODEL 1
REMARK minimizedAffinity 10.0058098
REMARK minimizedRMSD -1
REMARK  0 active torsions:
REMARK  status: ('A' for Active; 'I' for Inactive)
ROOT
ATOM      1  C   UNL d   1      -0.739  -4.769  -1.844  0.00  0.00     0.077 C 
ATOM      2  C1  UNL d   1      -0.736  -5.191  -3.284  0.00  0.00    -0.074 A 
ATOM      3  C2  UNL d   1       0.465  -5.412  -3.966  0.00  0.00    -0.005 A 
ATOM      4  C3  UNL d   1       0.451  -5.813  -5.301  0.00  0.00     0.006 A 
ATOM      5  C4  UNL d   1      -0.761  -5.999  -5.967  0.00  0.00    -0.005 A 
ATOM      6  C5  UNL d   1      -1.972  -5.784  -5.301  0.00  0.00    -0.074 A 
ATOM      7  C6  UNL d   1      -3.284  -5.988  -5.999  0.00  0.00     0.077 C 
ATOM      8  C7  UNL d   1      -1.950  -5.387  -3.957  0.00  0.00    -0.001 A 
ENDROOT
TORSDOF 0
ENDMDL
