MODEL 1
REMARK minimizedAffinity 15.8522739
REMARK minimizedRMSD -1
REMARK  0 active torsions:
REMARK  status: ('A' for Active; 'I' for Inactive)
ROOT
ATOM      1  C   UNL d   1      -4.825  -1.809   2.557  0.00  0.00     0.077 C 
ATOM      2  C1  UNL d   1      -4.875  -3.271   2.888  0.00  0.00    -0.074 A 
ATOM      3  C2  UNL d   1      -4.858  -4.237   1.877  0.00  0.00    -0.005 A 
ATOM      4  C3  UNL d   1      -4.895  -5.594   2.200  0.00  0.00     0.006 A 
ATOM      5  C4  UNL d   1      -4.950  -5.997   3.535  0.00  0.00    -0.005 A 
ATOM      6  C5  UNL d   1      -4.966  -5.045   4.559  0.00  0.00    -0.074 A 
ATOM      7  C6  UNL d   1      -5.015  -5.461   5.999  0.00  0.00     0.077 C 
ATOM      8  C7  UNL d   1      -4.922  -3.684   4.227  0.00  0.00    -0.001 A 
ENDROOT
TORSDOF 0
ENDMDL
