MODEL 1
REMARK minimizedAffinity 13.5401878
REMARK minimizedRMSD -1
REMARK  0 active torsions:
REMARK  status: ('A' for Active; 'I' for Inactive)
ROOT
ATOM      1  C   UNL d   1      -1.871   0.964   4.188  0.00  0.00     0.077 C 
ATOM      2  C1  UNL d   1      -2.223   0.274   2.904  0.00  0.00    -0.074 A 
ATOM      3  C2  UNL d   1      -1.336  -0.626   2.305  0.00  0.00    -0.005 A 
ATOM      4  C3  UNL d   1      -1.681  -1.268   1.115  0.00  0.00     0.006 A 
ATOM      5  C4  UNL d   1      -2.915  -1.017   0.514  0.00  0.00    -0.005 A 
ATOM      6  C5  UNL d   1      -3.815  -0.121   1.099  0.00  0.00    -0.074 A 
ATOM      7  C6  UNL d   1      -5.150   0.153   0.471  0.00  0.00     0.077 C 
ATOM      8  C7  UNL d   1      -3.464   0.515   2.298  0.00  0.00    -0.001 A 
ENDROOT
TORSDOF 0
ENDMDL
