MODEL 1
REMARK minimizedAffinity 4.27527905
REMARK minimizedRMSD -1
REMARK  0 active torsions:
REMARK  status: ('A' for Active; 'I' for Inactive)
ROOT
ATOM      1  C   UNL d   1      -5.388  -1.531   2.403  0.00  0.00     0.077 C 
ATOM      2  C1  UNL d   1      -4.910  -0.776   3.608  0.00  0.00    -0.074 A 
ATOM      3  C2  UNL d   1      -5.375  -1.097   4.887  0.00  0.00    -0.005 A 
ATOM      4  C3  UNL d   1      -4.914  -0.392   6.000  0.00  0.00     0.006 A 
ATOM      5  C4  UNL d   1      -3.985   0.638   5.844  0.00  0.00    -0.005 A 
ATOM      6  C5  UNL d   1      -3.509   0.972   4.572  0.00  0.00    -0.074 A 
ATOM      7  C6  UNL d   1      -2.504   2.069   4.388  0.00  0.00     0.077 C 
ATOM      8  C7  UNL d   1      -3.972   0.255   3.460  0.00  0.00    -0.001 A 
ENDROOT
TORSDOF 0
ENDMDL
