MODEL 1
REMARK minimizedAffinity 13.2566013
REMARK minimizedRMSD -1
REMARK  0 active torsions:
REMARK  status: ('A' for Active; 'I' for Inactive)
ROOT
ATOM      1  C   UNL d   1       5.998   4.472  -0.954  0.00  0.00     0.077 C 
ATOM      2  C1  UNL d   1       5.454   3.676   0.196  0.00  0.00    -0.074 A 
ATOM      3  C2  UNL d   1       5.999   3.801   1.478  0.00  0.00    -0.005 A 
ATOM      4  C3  UNL d   1       5.477   3.062   2.539  0.00  0.00     0.006 A 
ATOM      5  C4  UNL d   1       4.406   2.192   2.329  0.00  0.00    -0.005 A 
ATOM      6  C5  UNL d   1       3.847   2.055   1.055  0.00  0.00    -0.074 A 
ATOM      7  C6  UNL d   1       2.690   1.132   0.814  0.00  0.00     0.077 C 
ATOM      8  C7  UNL d   1       4.374   2.806  -0.005  0.00  0.00    -0.001 A 
ENDROOT
TORSDOF 0
ENDMDL
