MODEL 1
REMARK minimizedAffinity 3.28824925
REMARK minimizedRMSD -1
REMARK  0 active torsions:
REMARK  status: ('A' for Active; 'I' for Inactive)
ROOT
ATOM      1  C   UNL d   1       1.344  -1.165   3.050  0.00  0.00     0.077 C 
ATOM      2  C1  UNL d   1       0.295  -0.478   3.872  0.00  0.00    -0.074 A 
ATOM      3  C2  UNL d   1       0.149  -0.761   5.234  0.00  0.00    -0.005 A 
ATOM      4  C3  UNL d   1      -0.825  -0.107   5.988  0.00  0.00     0.006 A 
ATOM      5  C4  UNL d   1      -1.662   0.836   5.390  0.00  0.00    -0.005 A 
ATOM      6  C5  UNL d   1      -1.530   1.133   4.030  0.00  0.00    -0.074 A 
ATOM      7  C6  UNL d   1      -2.414   2.151   3.373  0.00  0.00     0.077 C 
ATOM      8  C7  UNL d   1      -0.544   0.476   3.280  0.00  0.00    -0.001 A 
ENDROOT
TORSDOF 0
ENDMDL
