MODEL 1
REMARK minimizedAffinity 11.4366789
REMARK minimizedRMSD -1
REMARK  0 active torsions:
REMARK  status: ('A' for Active; 'I' for Inactive)
ROOT
ATOM      1  C   UNL d   1      -5.985  -1.100  -2.784  0.00  0.00     0.077 C 
ATOM      2  C1  UNL d   1      -5.836  -0.328  -1.506  0.00  0.00    -0.074 A 
ATOM      3  C2  UNL d   1      -5.999  -0.953  -0.266  0.00  0.00    -0.005 A 
ATOM      4  C3  UNL d   1      -5.849  -0.224   0.914  0.00  0.00     0.006 A 
ATOM      5  C4  UNL d   1      -5.535   1.135   0.865  0.00  0.00    -0.005 A 
ATOM      6  C5  UNL d   1      -5.367   1.776  -0.366  0.00  0.00    -0.074 A 
ATOM      7  C6  UNL d   1      -5.020   3.234  -0.436  0.00  0.00     0.077 C 
ATOM      8  C7  UNL d   1      -5.513   1.036  -1.547  0.00  0.00    -0.001 A 
ENDROOT
TORSDOF 0
ENDMDL
