MODEL 1
REMARK minimizedAffinity 1.22024643
REMARK minimizedRMSD -1
REMARK  1 active torsions:
REMARK  status: ('A' for Active; 'I' for Inactive)
REMARK    1  A    between atoms: N_2  and  C1_3 
ROOT
ATOM      1  C1  UNL d   1       4.478  -5.488  -4.139  0.00  0.00     0.143 A 
ATOM      2  C2  UNL d   1       5.715  -5.904  -3.634  0.00  0.00    -0.057 A 
ATOM      3  C3  UNL d   1       6.000  -5.838  -2.265  0.00  0.00     0.033 A 
ATOM      4  C4  UNL d   1       5.060  -5.326  -1.376  0.00  0.00    -0.042 A 
ATOM      5  C5  UNL d   1       3.833  -4.883  -1.859  0.00  0.00     0.033 A 
ATOM      6  C6  UNL d   1       3.552  -4.958  -3.226  0.00  0.00    -0.057 A 
ENDROOT
BRANCH   1   7
ATOM      7  N   UNL d   1       4.171  -5.437  -5.500  0.00  0.00    -0.732 N 
ATOM      8  C   UNL d   1       2.935  -6.000  -5.999  0.00  0.00     0.284 C 
ATOM      9  H3  UNL d   1       4.422  -4.545  -5.922  0.00  0.00     0.395 HD
ENDBRANCH   1   7
TORSDOF 1
ENDMDL
