MODEL 1
REMARK minimizedAffinity 3.73472166
REMARK minimizedRMSD -1
REMARK  1 active torsions:
REMARK  status: ('A' for Active; 'I' for Inactive)
REMARK    1  A    between atoms: N_2  and  C1_3 
ROOT
ATOM      1  C1  UNL d   1       0.503   2.293   2.042  0.00  0.00     0.143 A 
ATOM      2  C2  UNL d   1       1.086   2.099   0.784  0.00  0.00    -0.057 A 
ATOM      3  C3  UNL d   1       2.440   1.768   0.655  0.00  0.00     0.033 A 
ATOM      4  C4  UNL d   1       3.245   1.652   1.783  0.00  0.00    -0.042 A 
ATOM      5  C5  UNL d   1       2.693   1.865   3.041  0.00  0.00     0.033 A 
ATOM      6  C6  UNL d   1       1.339   2.189   3.165  0.00  0.00    -0.057 A 
ENDROOT
BRANCH   1   7
ATOM      7  N   UNL d   1      -0.813   2.720   2.231  0.00  0.00    -0.732 N 
ATOM      8  C   UNL d   1      -1.376   2.806   3.562  0.00  0.00     0.284 C 
ATOM      9  H3  UNL d   1      -1.060   3.499   1.625  0.00  0.00     0.395 HD
ENDBRANCH   1   7
TORSDOF 1
ENDMDL
