MODEL 1
REMARK minimizedAffinity 1.47659659
REMARK minimizedRMSD -1
REMARK  1 active torsions:
REMARK  status: ('A' for Active; 'I' for Inactive)
REMARK    1  A    between atoms: N_2  and  C1_3 
ROOT
ATOM      1  C1  UNL d   1      -4.867   3.797  -5.685  0.00  0.00     0.143 A 
ATOM      2  C2  UNL d   1      -3.559   4.182  -5.999  0.00  0.00    -0.057 A 
ATOM      3  C3  UNL d   1      -2.458   3.428  -5.574  0.00  0.00     0.033 A 
ATOM      4  C4  UNL d   1      -2.646   2.287  -4.800  0.00  0.00    -0.042 A 
ATOM      5  C5  UNL d   1      -3.936   1.900  -4.455  0.00  0.00     0.033 A 
ATOM      6  C6  UNL d   1      -5.031   2.653  -4.888  0.00  0.00    -0.057 A 
ENDROOT
BRANCH   1   7
ATOM      7  N   UNL d   1      -5.997   4.558  -5.994  0.00  0.00    -0.732 N 
ATOM      8  C   UNL d   1      -5.981   5.997  -5.842  0.00  0.00     0.284 C 
ATOM      9  H3  UNL d   1      -6.464   4.234  -6.838  0.00  0.00     0.395 HD
ENDBRANCH   1   7
TORSDOF 1
ENDMDL
