MODEL 1
REMARK minimizedAffinity 5.33614016
REMARK minimizedRMSD -1
REMARK  1 active torsions:
REMARK  status: ('A' for Active; 'I' for Inactive)
REMARK    1  A    between atoms: N_2  and  C1_3 
ROOT
ATOM      1  C1  UNL d   1       4.887   3.887  -4.934  0.00  0.00     0.143 A 
ATOM      2  C2  UNL d   1       3.989   3.660  -5.984  0.00  0.00    -0.057 A 
ATOM      3  C3  UNL d   1       2.975   2.701  -5.878  0.00  0.00     0.033 A 
ATOM      4  C4  UNL d   1       2.858   1.928  -4.728  0.00  0.00    -0.042 A 
ATOM      5  C5  UNL d   1       3.754   2.118  -3.682  0.00  0.00     0.033 A 
ATOM      6  C6  UNL d   1       4.761   3.082  -3.791  0.00  0.00    -0.057 A 
ENDROOT
BRANCH   1   7
ATOM      7  N   UNL d   1       5.977   4.756  -5.017  0.00  0.00    -0.732 N 
ATOM      8  C   UNL d   1       6.000   5.818  -6.000  0.00  0.00     0.284 C 
ATOM      9  H3  UNL d   1       6.325   5.030  -4.101  0.00  0.00     0.395 HD
ENDBRANCH   1   7
TORSDOF 1
ENDMDL
