MODEL 1
REMARK minimizedAffinity 10.2159929
REMARK minimizedRMSD -1
REMARK  1 active torsions:
REMARK  status: ('A' for Active; 'I' for Inactive)
REMARK    1  A    between atoms: N_2  and  C1_3 
ROOT
ATOM      1  C1  UNL d   1       3.683   2.212   3.742  0.00  0.00     0.143 A 
ATOM      2  C2  UNL d   1       3.708   3.370   4.526  0.00  0.00    -0.057 A 
ATOM      3  C3  UNL d   1       4.858   3.746   5.230  0.00  0.00     0.033 A 
ATOM      4  C4  UNL d   1       5.999   2.952   5.184  0.00  0.00    -0.042 A 
ATOM      5  C5  UNL d   1       5.990   1.784   4.431  0.00  0.00     0.033 A 
ATOM      6  C6  UNL d   1       4.840   1.417   3.725  0.00  0.00    -0.057 A 
ENDROOT
BRANCH   1   7
ATOM      7  N   UNL d   1       2.540   1.733   3.098  0.00  0.00    -0.732 N 
ATOM      8  C   UNL d   1       2.421   1.803   1.657  0.00  0.00     0.284 C 
ATOM      9  H3  UNL d   1       2.204   0.860   3.500  0.00  0.00     0.395 HD
ENDBRANCH   1   7
TORSDOF 1
ENDMDL
