MODEL 1
REMARK minimizedAffinity 14.3039751
REMARK minimizedRMSD -1
REMARK  1 active torsions:
REMARK  status: ('A' for Active; 'I' for Inactive)
REMARK    1  A    between atoms: N_2  and  C1_3 
ROOT
ATOM      1  C1  UNL d   1      -2.235  -3.762   3.012  0.00  0.00     0.143 A 
ATOM      2  C2  UNL d   1      -2.937  -4.851   2.485  0.00  0.00    -0.057 A 
ATOM      3  C3  UNL d   1      -3.273  -5.953   3.281  0.00  0.00     0.033 A 
ATOM      4  C4  UNL d   1      -2.885  -5.998   4.616  0.00  0.00    -0.042 A 
ATOM      5  C5  UNL d   1      -2.165  -4.938   5.155  0.00  0.00     0.033 A 
ATOM      6  C6  UNL d   1      -1.839  -3.837   4.357  0.00  0.00    -0.057 A 
ENDROOT
BRANCH   1   7
ATOM      7  N   UNL d   1      -1.787  -2.682   2.248  0.00  0.00    -0.732 N 
ATOM      8  C   UNL d   1      -1.331  -2.879   0.889  0.00  0.00     0.284 C 
ATOM      9  H3  UNL d   1      -2.358  -1.850   2.379  0.00  0.00     0.395 HD
ENDBRANCH   1   7
TORSDOF 1
ENDMDL
