MODEL 1
REMARK minimizedAffinity 2.02862859
REMARK minimizedRMSD -1
REMARK  1 active torsions:
REMARK  status: ('A' for Active; 'I' for Inactive)
REMARK    1  A    between atoms: N_2  and  C1_3 
ROOT
ATOM      1  C1  UNL d   1       4.229  -4.924  -4.877  0.00  0.00     0.143 A 
ATOM      2  C2  UNL d   1       3.673  -5.548  -6.000  0.00  0.00    -0.057 A 
ATOM      3  C3  UNL d   1       2.348  -6.000  -5.998  0.00  0.00     0.033 A 
ATOM      4  C4  UNL d   1       1.562  -5.862  -4.859  0.00  0.00    -0.042 A 
ATOM      5  C5  UNL d   1       2.101  -5.268  -3.723  0.00  0.00     0.033 A 
ATOM      6  C6  UNL d   1       3.423  -4.812  -3.734  0.00  0.00    -0.057 A 
ENDROOT
BRANCH   1   7
ATOM      7  N   UNL d   1       5.570  -4.542  -4.784  0.00  0.00    -0.732 N 
ATOM      8  C   UNL d   1       5.927  -3.192  -4.405  0.00  0.00     0.284 C 
ATOM      9  H3  UNL d   1       6.149  -5.261  -4.356  0.00  0.00     0.395 HD
ENDBRANCH   1   7
TORSDOF 1
ENDMDL
