MODEL 1
REMARK minimizedAffinity 2.82665467
REMARK minimizedRMSD -1
REMARK  1 active torsions:
REMARK  status: ('A' for Active; 'I' for Inactive)
REMARK    1  A    between atoms: N_2  and  C1_3 
ROOT
ATOM      1  C1  UNL d   1       3.421  -5.322  -5.495  0.00  0.00     0.143 A 
ATOM      2  C2  UNL d   1       3.626  -4.076  -4.894  0.00  0.00    -0.057 A 
ATOM      3  C3  UNL d   1       4.900  -3.497  -4.838  0.00  0.00     0.033 A 
ATOM      4  C4  UNL d   1       6.000  -4.171  -5.359  0.00  0.00    -0.042 A 
ATOM      5  C5  UNL d   1       5.824  -5.423  -5.938  0.00  0.00     0.033 A 
ATOM      6  C6  UNL d   1       4.548  -5.992  -5.997  0.00  0.00    -0.057 A 
ENDROOT
BRANCH   1   7
ATOM      7  N   UNL d   1       2.196  -5.994  -5.495  0.00  0.00    -0.732 N 
ATOM      8  C   UNL d   1       1.353  -5.989  -4.319  0.00  0.00     0.284 C 
ATOM      9  H3  UNL d   1       1.690  -5.880  -6.370  0.00  0.00     0.395 HD
ENDBRANCH   1   7
TORSDOF 1
ENDMDL
