MODEL 1
REMARK minimizedAffinity -1.47898626
REMARK minimizedRMSD -1
REMARK  1 active torsions:
REMARK  status: ('A' for Active; 'I' for Inactive)
REMARK    1  A    between atoms: N_2  and  C1_3 
ROOT
ATOM      1  C1  UNL d   1       4.391  -4.792  -4.753  0.00  0.00     0.143 A 
ATOM      2  C2  UNL d   1       3.954  -5.435  -5.916  0.00  0.00    -0.057 A 
ATOM      3  C3  UNL d   1       2.673  -5.993  -6.000  0.00  0.00     0.033 A 
ATOM      4  C4  UNL d   1       1.813  -5.943  -4.907  0.00  0.00    -0.042 A 
ATOM      5  C5  UNL d   1       2.236  -5.331  -3.732  0.00  0.00     0.033 A 
ATOM      6  C6  UNL d   1       3.514  -4.770  -3.658  0.00  0.00    -0.057 A 
ENDROOT
BRANCH   1   7
ATOM      7  N   UNL d   1       5.688  -4.305  -4.575  0.00  0.00    -0.732 N 
ATOM      8  C   UNL d   1       5.979  -3.348  -3.529  0.00  0.00     0.284 C 
ATOM      9  H3  UNL d   1       6.394  -5.030  -4.682  0.00  0.00     0.395 HD
ENDBRANCH   1   7
TORSDOF 1
ENDMDL
