MODEL 1
REMARK minimizedAffinity 15.2056723
REMARK minimizedRMSD -1
REMARK  1 active torsions:
REMARK  status: ('A' for Active; 'I' for Inactive)
REMARK    1  A    between atoms: N_2  and  C1_3 
ROOT
ATOM      1  C1  UNL d   1       3.939   2.188  -4.005  0.00  0.00     0.143 A 
ATOM      2  C2  UNL d   1       4.502   3.455  -3.818  0.00  0.00    -0.057 A 
ATOM      3  C3  UNL d   1       5.250   3.755  -2.673  0.00  0.00     0.033 A 
ATOM      4  C4  UNL d   1       5.425   2.798  -1.679  0.00  0.00    -0.042 A 
ATOM      5  C5  UNL d   1       4.853   1.540  -1.832  0.00  0.00     0.033 A 
ATOM      6  C6  UNL d   1       4.112   1.245  -2.981  0.00  0.00    -0.057 A 
ENDROOT
BRANCH   1   7
ATOM      7  N   UNL d   1       3.102   1.860  -5.075  0.00  0.00    -0.732 N 
ATOM      8  C   UNL d   1       2.640   2.881  -5.990  0.00  0.00     0.284 C 
ATOM      9  H3  UNL d   1       3.373   0.989  -5.526  0.00  0.00     0.395 HD
ENDBRANCH   1   7
TORSDOF 1
ENDMDL
