MODEL 1
REMARK minimizedAffinity 5.8547678
REMARK minimizedRMSD -1
REMARK  1 active torsions:
REMARK  status: ('A' for Active; 'I' for Inactive)
REMARK    1  A    between atoms: N_2  and  C1_3 
ROOT
ATOM      1  C1  UNL d   1       4.359   2.077  -3.792  0.00  0.00     0.143 A 
ATOM      2  C2  UNL d   1       5.475   2.920  -3.822  0.00  0.00    -0.057 A 
ATOM      3  C3  UNL d   1       5.711   3.775  -4.906  0.00  0.00     0.033 A 
ATOM      4  C4  UNL d   1       4.847   3.779  -5.996  0.00  0.00    -0.042 A 
ATOM      5  C5  UNL d   1       3.745   2.931  -6.000  0.00  0.00     0.033 A 
ATOM      6  C6  UNL d   1       3.512   2.085  -4.911  0.00  0.00    -0.057 A 
ENDROOT
BRANCH   1   7
ATOM      7  N   UNL d   1       4.124   1.134  -2.789  0.00  0.00    -0.732 N 
ATOM      8  C   UNL d   1       3.389   1.495  -1.595  0.00  0.00     0.284 C 
ATOM      9  H3  UNL d   1       3.883   0.219  -3.164  0.00  0.00     0.395 HD
ENDBRANCH   1   7
TORSDOF 1
ENDMDL
