MODEL 1
REMARK minimizedAffinity -0.334716231
REMARK minimizedRMSD -1
REMARK  1 active torsions:
REMARK  status: ('A' for Active; 'I' for Inactive)
REMARK    1  A    between atoms: N_2  and  C1_3 
ROOT
ATOM      1  C1  UNL d   1      -0.377   1.122   1.287  0.00  0.00     0.143 A 
ATOM      2  C2  UNL d   1      -0.019   2.143   2.173  0.00  0.00    -0.057 A 
ATOM      3  C3  UNL d   1       1.312   2.561   2.300  0.00  0.00     0.033 A 
ATOM      4  C4  UNL d   1       2.314   1.942   1.561  0.00  0.00    -0.042 A 
ATOM      5  C5  UNL d   1       1.985   0.908   0.692  0.00  0.00     0.033 A 
ATOM      6  C6  UNL d   1       0.653   0.500   0.565  0.00  0.00    -0.057 A 
ENDROOT
BRANCH   1   7
ATOM      7  N   UNL d   1      -1.668   0.595   1.187  0.00  0.00    -0.732 N 
ATOM      8  C   UNL d   1      -1.874  -0.780   0.788  0.00  0.00     0.284 C 
ATOM      9  H3  UNL d   1      -2.272   0.903   1.946  0.00  0.00     0.395 HD
ENDBRANCH   1   7
TORSDOF 1
ENDMDL
