MODEL 1
REMARK minimizedAffinity -2.1050024
REMARK minimizedRMSD -1
REMARK  1 active torsions:
REMARK  status: ('A' for Active; 'I' for Inactive)
REMARK    1  A    between atoms: C3_4  and  O_7 
ROOT
ATOM      1  C   UNL d   1      -1.058   0.321  -0.556  0.00  0.00    -0.033 A 
ATOM      2  C1  UNL d   1      -0.068  -0.146   0.309  0.00  0.00     0.039 A 
ATOM      3  C2  UNL d   1       0.043   0.383   1.597  0.00  0.00    -0.080 A 
ATOM      4  C3  UNL d   1      -0.843   1.376   2.006  0.00  0.00     0.150 A 
ATOM      5  C4  UNL d   1      -1.835   1.843   1.150  0.00  0.00    -0.007 A 
ATOM      6  C5  UNL d   1      -1.943   1.314  -0.136  0.00  0.00     0.039 A 
ENDROOT
BRANCH   4   7
ATOM      7  O   UNL d   1      -0.771   1.926   3.251  0.00  0.00    -0.526 OA
ATOM      8  H5  UNL d   1      -0.021   1.527   3.721  0.00  0.00     0.418 HD
ENDBRANCH   4   7
TORSDOF 1
ENDMDL
