MODEL 1
REMARK minimizedAffinity -5.32483768
REMARK minimizedRMSD -1
REMARK  1 active torsions:
REMARK  status: ('A' for Active; 'I' for Inactive)
REMARK    1  A    between atoms: C3_4  and  O_7 
ROOT
ATOM      1  C   UNL d   1       0.658  -0.095   0.569  0.00  0.00    -0.033 A 
ATOM      2  C1  UNL d   1       0.178   0.735  -0.446  0.00  0.00     0.039 A 
ATOM      3  C2  UNL d   1      -0.913   1.574  -0.206  0.00  0.00    -0.080 A 
ATOM      4  C3  UNL d   1      -1.513   1.572   1.050  0.00  0.00     0.150 A 
ATOM      5  C4  UNL d   1      -1.037   0.750   2.066  0.00  0.00    -0.007 A 
ATOM      6  C5  UNL d   1       0.052  -0.087   1.825  0.00  0.00     0.039 A 
ENDROOT
BRANCH   4   7
ATOM      7  O   UNL d   1      -2.582   2.370   1.329  0.00  0.00    -0.526 OA
ATOM      8  H5  UNL d   1      -2.819   2.861   0.525  0.00  0.00     0.418 HD
ENDBRANCH   4   7
TORSDOF 1
ENDMDL
