MODEL 1
REMARK minimizedAffinity -5.60830641
REMARK minimizedRMSD -1
REMARK  1 active torsions:
REMARK  status: ('A' for Active; 'I' for Inactive)
REMARK    1  A    between atoms: C3_4  and  O_7 
ROOT
ATOM      1  C   UNL d   1       0.715  -0.109   0.287  0.00  0.00    -0.033 A 
ATOM      2  C1  UNL d   1       0.219   0.885  -0.559  0.00  0.00     0.039 A 
ATOM      3  C2  UNL d   1      -0.851   1.683  -0.149  0.00  0.00    -0.080 A 
ATOM      4  C3  UNL d   1      -1.415   1.477   1.107  0.00  0.00     0.150 A 
ATOM      5  C4  UNL d   1      -0.924   0.491   1.956  0.00  0.00    -0.007 A 
ATOM      6  C5  UNL d   1       0.144  -0.306   1.545  0.00  0.00     0.039 A 
ENDROOT
BRANCH   4   7
ATOM      7  O   UNL d   1      -2.464   2.228   1.549  0.00  0.00    -0.526 OA
ATOM      8  H5  UNL d   1      -2.715   2.850   0.846  0.00  0.00     0.418 HD
ENDBRANCH   4   7
TORSDOF 1
ENDMDL
