MODEL 1
REMARK minimizedAffinity -3.15101171
REMARK minimizedRMSD -1
REMARK  1 active torsions:
REMARK  status: ('A' for Active; 'I' for Inactive)
REMARK    1  A    between atoms: C3_4  and  O_7 
ROOT
ATOM      1  C   UNL d   1      -1.556   1.209   2.330  0.00  0.00    -0.033 A 
ATOM      2  C1  UNL d   1      -1.061   1.878   1.209  0.00  0.00     0.039 A 
ATOM      3  C2  UNL d   1      -0.271   1.198   0.280  0.00  0.00    -0.080 A 
ATOM      4  C3  UNL d   1       0.016  -0.149   0.484  0.00  0.00     0.150 A 
ATOM      5  C4  UNL d   1      -0.477  -0.822   1.597  0.00  0.00    -0.007 A 
ATOM      6  C5  UNL d   1      -1.265  -0.141   2.523  0.00  0.00     0.039 A 
ENDROOT
BRANCH   4   7
ATOM      7  O   UNL d   1       0.788  -0.853  -0.392  0.00  0.00    -0.526 OA
ATOM      8  H5  UNL d   1       1.081  -0.252  -1.096  0.00  0.00     0.418 HD
ENDBRANCH   4   7
TORSDOF 1
ENDMDL
