MODEL 1
REMARK minimizedAffinity -4.58758831
REMARK minimizedRMSD -1
REMARK  1 active torsions:
REMARK  status: ('A' for Active; 'I' for Inactive)
REMARK    1  A    between atoms: C3_4  and  O_7 
ROOT
ATOM      1  C   UNL d   1       0.541  -0.296   1.103  0.00  0.00    -0.033 A 
ATOM      2  C1  UNL d   1      -0.093  -0.389   2.343  0.00  0.00     0.039 A 
ATOM      3  C2  UNL d   1      -1.298   0.281   2.565  0.00  0.00    -0.080 A 
ATOM      4  C3  UNL d   1      -1.859   1.037   1.539  0.00  0.00     0.150 A 
ATOM      5  C4  UNL d   1      -1.234   1.130   0.299  0.00  0.00    -0.007 A 
ATOM      6  C5  UNL d   1      -0.031   0.462   0.080  0.00  0.00     0.039 A 
ENDROOT
BRANCH   4   7
ATOM      7  O   UNL d   1      -3.031   1.712   1.710  0.00  0.00    -0.526 OA
ATOM      8  H5  UNL d   1      -3.332   1.579   2.624  0.00  0.00     0.418 HD
ENDBRANCH   4   7
TORSDOF 1
ENDMDL
