MODEL 1
REMARK minimizedAffinity -1.44105613
REMARK minimizedRMSD -1
REMARK  1 active torsions:
REMARK  status: ('A' for Active; 'I' for Inactive)
REMARK    1  A    between atoms: C3_4  and  O_7 
ROOT
ATOM      1  C   UNL d   1      -1.221   1.310   2.729  0.00  0.00    -0.033 A 
ATOM      2  C1  UNL d   1      -1.309   1.935   1.484  0.00  0.00     0.039 A 
ATOM      3  C2  UNL d   1      -0.762   1.325   0.354  0.00  0.00    -0.080 A 
ATOM      4  C3  UNL d   1      -0.131   0.091   0.482  0.00  0.00     0.150 A 
ATOM      5  C4  UNL d   1      -0.043  -0.540   1.718  0.00  0.00    -0.007 A 
ATOM      6  C5  UNL d   1      -0.589   0.071   2.846  0.00  0.00     0.039 A 
ENDROOT
BRANCH   4   7
ATOM      7  O   UNL d   1       0.423  -0.542  -0.592  0.00  0.00    -0.526 OA
ATOM      8  H5  UNL d   1       0.311   0.025  -1.374  0.00  0.00     0.418 HD
ENDBRANCH   4   7
TORSDOF 1
ENDMDL
