MODEL 1
REMARK minimizedAffinity -3.75917292
REMARK minimizedRMSD -1
REMARK  1 active torsions:
REMARK  status: ('A' for Active; 'I' for Inactive)
REMARK    1  A    between atoms: C3_4  and  O_7 
ROOT
ATOM      1  C   UNL d   1      -0.192  -0.263   0.026  0.00  0.00    -0.033 A 
ATOM      2  C1  UNL d   1      -0.547   1.002  -0.446  0.00  0.00     0.039 A 
ATOM      3  C2  UNL d   1       0.331   1.715  -1.264  0.00  0.00    -0.080 A 
ATOM      4  C3  UNL d   1       1.558   1.153  -1.604  0.00  0.00     0.150 A 
ATOM      5  C4  UNL d   1       1.917  -0.108  -1.141  0.00  0.00    -0.007 A 
ATOM      6  C5  UNL d   1       1.040  -0.819  -0.323  0.00  0.00     0.039 A 
ENDROOT
BRANCH   4   7
ATOM      7  O   UNL d   1       2.450   1.814  -2.396  0.00  0.00    -0.526 OA
ATOM      8  H5  UNL d   1       2.079   2.684  -2.617  0.00  0.00     0.418 HD
ENDBRANCH   4   7
TORSDOF 1
ENDMDL
