MODEL 1
REMARK minimizedAffinity -2.57117367
REMARK minimizedRMSD -1
REMARK  1 active torsions:
REMARK  status: ('A' for Active; 'I' for Inactive)
REMARK    1  A    between atoms: C3_4  and  O_7 
ROOT
ATOM      1  C   UNL d   1       1.186  -0.112  -1.122  0.00  0.00    -0.033 A 
ATOM      2  C1  UNL d   1       0.594  -0.785  -0.051  0.00  0.00     0.039 A 
ATOM      3  C2  UNL d   1      -0.365  -0.144   0.735  0.00  0.00    -0.080 A 
ATOM      4  C3  UNL d   1      -0.724   1.168   0.440  0.00  0.00     0.150 A 
ATOM      5  C4  UNL d   1      -0.141   1.844  -0.627  0.00  0.00    -0.007 A 
ATOM      6  C5  UNL d   1       0.817   1.203  -1.410  0.00  0.00     0.039 A 
ENDROOT
BRANCH   4   7
ATOM      7  O   UNL d   1      -1.652   1.837   1.182  0.00  0.00    -0.526 OA
ATOM      8  H5  UNL d   1      -1.947   1.255   1.902  0.00  0.00     0.418 HD
ENDBRANCH   4   7
TORSDOF 1
ENDMDL
