MODEL 1
REMARK minimizedAffinity -2.12358928
REMARK minimizedRMSD -1
REMARK  1 active torsions:
REMARK  status: ('A' for Active; 'I' for Inactive)
REMARK    1  A    between atoms: C3_4  and  O_7 
ROOT
ATOM      1  C   UNL d   1       1.453  -0.124  -1.302  0.00  0.00    -0.033 A 
ATOM      2  C1  UNL d   1       0.631   0.996  -1.158  0.00  0.00     0.039 A 
ATOM      3  C2  UNL d   1      -0.215   1.106  -0.053  0.00  0.00    -0.080 A 
ATOM      4  C3  UNL d   1      -0.230   0.092   0.900  0.00  0.00     0.150 A 
ATOM      5  C4  UNL d   1       0.588  -1.025   0.765  0.00  0.00    -0.007 A 
ATOM      6  C5  UNL d   1       1.432  -1.134  -0.339  0.00  0.00     0.039 A 
ENDROOT
BRANCH   4   7
ATOM      7  O   UNL d   1      -1.043   0.153   1.993  0.00  0.00    -0.526 OA
ATOM      8  H5  UNL d   1      -1.572   0.966   1.938  0.00  0.00     0.418 HD
ENDBRANCH   4   7
TORSDOF 1
ENDMDL
