MODEL 1
REMARK minimizedAffinity -4.04244566
REMARK minimizedRMSD -1
REMARK  1 active torsions:
REMARK  status: ('A' for Active; 'I' for Inactive)
REMARK    1  A    between atoms: C3_4  and  O_7 
ROOT
ATOM      1  C   UNL d   1       1.812   0.186  -1.375  0.00  0.00    -0.033 A 
ATOM      2  C1  UNL d   1       1.266   1.432  -1.691  0.00  0.00     0.039 A 
ATOM      3  C2  UNL d   1       0.054   1.830  -1.122  0.00  0.00    -0.080 A 
ATOM      4  C3  UNL d   1      -0.600   0.974  -0.239  0.00  0.00     0.150 A 
ATOM      5  C4  UNL d   1      -0.060  -0.266   0.083  0.00  0.00    -0.007 A 
ATOM      6  C5  UNL d   1       1.149  -0.662  -0.487  0.00  0.00     0.039 A 
ENDROOT
BRANCH   4   7
ATOM      7  O   UNL d   1      -1.787   1.317   0.337  0.00  0.00    -0.526 OA
ATOM      8  H5  UNL d   1      -2.053   2.189  -0.001  0.00  0.00     0.418 HD
ENDBRANCH   4   7
TORSDOF 1
ENDMDL
