MODEL 1
REMARK minimizedAffinity -3.56072474
REMARK minimizedRMSD -1
REMARK  1 active torsions:
REMARK  status: ('A' for Active; 'I' for Inactive)
REMARK    1  A    between atoms: C3_4  and  O_7 
ROOT
ATOM      1  C   UNL d   1      -0.853  -0.624   0.485  0.00  0.00    -0.033 A 
ATOM      2  C1  UNL d   1      -1.391   0.529  -0.089  0.00  0.00     0.039 A 
ATOM      3  C2  UNL d   1      -0.550   1.479  -0.672  0.00  0.00    -0.080 A 
ATOM      4  C3  UNL d   1       0.825   1.263  -0.676  0.00  0.00     0.150 A 
ATOM      5  C4  UNL d   1       1.368   0.114  -0.109  0.00  0.00    -0.007 A 
ATOM      6  C5  UNL d   1       0.526  -0.832   0.473  0.00  0.00     0.039 A 
ENDROOT
BRANCH   4   7
ATOM      7  O   UNL d   1       1.686   2.163  -1.229  0.00  0.00    -0.526 OA
ATOM      8  H5  UNL d   1       1.172   2.920  -1.556  0.00  0.00     0.418 HD
ENDBRANCH   4   7
TORSDOF 1
ENDMDL
