MODEL 1
REMARK minimizedAffinity -2.86995363
REMARK minimizedRMSD -1
REMARK  1 active torsions:
REMARK  status: ('A' for Active; 'I' for Inactive)
REMARK    1  A    between atoms: C3_4  and  O_7 
ROOT
ATOM      1  C   UNL d   1      -0.804   1.121   3.246  0.00  0.00    -0.033 A 
ATOM      2  C1  UNL d   1      -1.134   1.830   2.089  0.00  0.00     0.039 A 
ATOM      3  C2  UNL d   1      -0.857   1.287   0.832  0.00  0.00    -0.080 A 
ATOM      4  C3  UNL d   1      -0.252   0.036   0.747  0.00  0.00     0.150 A 
ATOM      5  C4  UNL d   1       0.076  -0.677   1.895  0.00  0.00    -0.007 A 
ATOM      6  C5  UNL d   1      -0.201  -0.133   3.149  0.00  0.00     0.039 A 
ENDROOT
BRANCH   4   7
ATOM      7  O   UNL d   1       0.042  -0.533  -0.457  0.00  0.00    -0.526 OA
ATOM      8  H5  UNL d   1      -0.214   0.087  -1.160  0.00  0.00     0.418 HD
ENDBRANCH   4   7
TORSDOF 1
ENDMDL
