MODEL 1
REMARK minimizedAffinity -2.37738943
REMARK minimizedRMSD -1
REMARK  1 active torsions:
REMARK  status: ('A' for Active; 'I' for Inactive)
REMARK    1  A    between atoms: C3_4  and  O_7 
ROOT
ATOM      1  C   UNL d   1      -1.085   1.497   1.895  0.00  0.00    -0.033 A 
ATOM      2  C1  UNL d   1      -1.263   0.133   2.135  0.00  0.00     0.039 A 
ATOM      3  C2  UNL d   1      -0.758  -0.808   1.237  0.00  0.00    -0.080 A 
ATOM      4  C3  UNL d   1      -0.076  -0.373   0.104  0.00  0.00     0.150 A 
ATOM      5  C4  UNL d   1       0.109   0.984  -0.140  0.00  0.00    -0.007 A 
ATOM      6  C5  UNL d   1      -0.397   1.922   0.758  0.00  0.00     0.039 A 
ENDROOT
BRANCH   4   7
ATOM      7  O   UNL d   1       0.432  -1.254  -0.805  0.00  0.00    -0.526 OA
ATOM      8  H5  UNL d   1       0.203  -2.155  -0.520  0.00  0.00     0.418 HD
ENDBRANCH   4   7
TORSDOF 1
ENDMDL
