MODEL 1
REMARK minimizedAffinity -4.21645451
REMARK minimizedRMSD -1
REMARK  1 active torsions:
REMARK  status: ('A' for Active; 'I' for Inactive)
REMARK    1  A    between atoms: C3_4  and  O_7 
ROOT
ATOM      1  C   UNL d   1      -1.753   1.331   2.397  0.00  0.00    -0.033 A 
ATOM      2  C1  UNL d   1      -1.314   1.970   1.235  0.00  0.00     0.039 A 
ATOM      3  C2  UNL d   1      -0.489   1.295   0.334  0.00  0.00    -0.080 A 
ATOM      4  C3  UNL d   1      -0.111  -0.017   0.605  0.00  0.00     0.150 A 
ATOM      5  C4  UNL d   1      -0.547  -0.661   1.758  0.00  0.00    -0.007 A 
ATOM      6  C5  UNL d   1      -1.371   0.015   2.657  0.00  0.00     0.039 A 
ENDROOT
BRANCH   4   7
ATOM      7  O   UNL d   1       0.697  -0.715  -0.243  0.00  0.00    -0.526 OA
ATOM      8  H5  UNL d   1       0.943  -0.134  -0.982  0.00  0.00     0.418 HD
ENDBRANCH   4   7
TORSDOF 1
ENDMDL
