MODEL 1
REMARK minimizedAffinity -2.78310442
REMARK minimizedRMSD -1
REMARK  1 active torsions:
REMARK  status: ('A' for Active; 'I' for Inactive)
REMARK    1  A    between atoms: C3_4  and  O_7 
ROOT
ATOM      1  C   UNL d   1       0.827  -0.631  -0.181  0.00  0.00    -0.033 A 
ATOM      2  C1  UNL d   1       0.294   0.526  -0.752  0.00  0.00     0.039 A 
ATOM      3  C2  UNL d   1      -0.596   1.319  -0.025  0.00  0.00    -0.080 A 
ATOM      4  C3  UNL d   1      -0.944   0.945   1.270  0.00  0.00     0.150 A 
ATOM      5  C4  UNL d   1      -0.413  -0.205   1.846  0.00  0.00    -0.007 A 
ATOM      6  C5  UNL d   1       0.475  -0.996   1.118  0.00  0.00     0.039 A 
ENDROOT
BRANCH   4   7
ATOM      7  O   UNL d   1      -1.812   1.684   2.017  0.00  0.00    -0.526 OA
ATOM      8  H5  UNL d   1      -2.120   2.433   1.480  0.00  0.00     0.418 HD
ENDBRANCH   4   7
TORSDOF 1
ENDMDL
