MODEL 1
REMARK minimizedAffinity -2.64435625
REMARK minimizedRMSD -1
REMARK  2 active torsions:
REMARK  status: ('A' for Active; 'I' for Inactive)
REMARK    1  A    between atoms: C2'_3  and  C1'_4 
REMARK    2  A    between atoms: C1'_4  and  C1_5 
ROOT
ATOM      1  C1  I4B d   1       1.732   1.114   0.854  0.00  0.00    -0.075 A 
ATOM      2  C2  I4B d   1       2.138   2.062  -0.051  0.00  0.00     0.003 A 
ATOM      3  C3  I4B d   1       2.617   3.317   0.397  0.00  0.00     0.002 A 
ATOM      4  C4  I4B d   1       2.624   3.599   1.748  0.00  0.00    -0.004 A 
ATOM      5  C5  I4B d   1       2.233   2.628   2.666  0.00  0.00     0.002 A 
ATOM      6  C6  I4B d   1       1.796   1.373   2.217  0.00  0.00     0.003 A 
ENDROOT
BRANCH   1   7
ATOM      7  C1' I4B d   1       1.201  -0.188   0.345  0.00  0.00     0.060 C 
BRANCH   7   8
ATOM      8  C2' I4B d   1      -0.234   0.031  -0.090  0.00  0.00    -0.013 C 
ATOM      9  C4' I4B d   1      -0.356   0.024  -1.591  0.00  0.00     0.013 C 
ATOM     10  C3' I4B d   1      -1.074  -1.048   0.526  0.00  0.00     0.013 C 
ENDBRANCH   7   8
ENDBRANCH   1   7
TORSDOF 2
ENDMDL
