MODEL 1
REMARK minimizedAffinity -5.2866559
REMARK minimizedRMSD -1
REMARK  2 active torsions:
REMARK  status: ('A' for Active; 'I' for Inactive)
REMARK    1  A    between atoms: C2'_3  and  C1'_4 
REMARK    2  A    between atoms: C1'_4  and  C1_5 
ROOT
ATOM      1  C1  I4B d   1       0.303   0.005  -0.060  0.00  0.00    -0.075 A 
ATOM      2  C2  I4B d   1      -0.084   0.560  -1.255  0.00  0.00     0.003 A 
ATOM      3  C3  I4B d   1      -1.418   0.420  -1.706  0.00  0.00     0.002 A 
ATOM      4  C4  I4B d   1      -2.314  -0.320  -0.962  0.00  0.00    -0.004 A 
ATOM      5  C5  I4B d   1      -1.926  -0.863   0.260  0.00  0.00     0.002 A 
ATOM      6  C6  I4B d   1      -0.612  -0.689   0.720  0.00  0.00     0.003 A 
ENDROOT
BRANCH   1   7
ATOM      7  C1' I4B d   1       1.729   0.144   0.370  0.00  0.00     0.060 C 
BRANCH   7   8
ATOM      8  C2' I4B d   1       2.018   1.619   0.562  0.00  0.00    -0.013 C 
ATOM      9  C4' I4B d   1       2.067   1.979   2.023  0.00  0.00     0.013 C 
ATOM     10  C3' I4B d   1       3.319   1.928  -0.116  0.00  0.00     0.013 C 
ENDBRANCH   7   8
ENDBRANCH   1   7
TORSDOF 2
ENDMDL
