MODEL 1
REMARK minimizedAffinity -5.34083223
REMARK minimizedRMSD -1
REMARK  2 active torsions:
REMARK  status: ('A' for Active; 'I' for Inactive)
REMARK    1  A    between atoms: C2'_3  and  C1'_4 
REMARK    2  A    between atoms: C1'_4  and  C1_5 
ROOT
ATOM      1  C1  I4B d   1       0.596   0.237   0.368  0.00  0.00    -0.075 A 
ATOM      2  C2  I4B d   1       0.674  -0.844   1.210  0.00  0.00     0.003 A 
ATOM      3  C3  I4B d   1      -0.473  -1.632   1.467  0.00  0.00     0.002 A 
ATOM      4  C4  I4B d   1      -1.682  -1.276   0.904  0.00  0.00    -0.004 A 
ATOM      5  C5  I4B d   1      -1.755  -0.193   0.033  0.00  0.00     0.002 A 
ATOM      6  C6  I4B d   1      -0.606   0.561  -0.247  0.00  0.00     0.003 A 
ENDROOT
BRANCH   1   7
ATOM      7  C1' I4B d   1       1.820   1.068   0.146  0.00  0.00     0.060 C 
BRANCH   7   8
ATOM      8  C2' I4B d   1       1.598   2.413   0.806  0.00  0.00    -0.013 C 
ATOM      9  C4' I4B d   1       2.270   2.477   2.152  0.00  0.00     0.013 C 
ATOM     10  C3' I4B d   1       2.126   3.473  -0.114  0.00  0.00     0.013 C 
ENDBRANCH   7   8
ENDBRANCH   1   7
TORSDOF 2
ENDMDL
