MODEL 1
REMARK minimizedAffinity -1.19936812
REMARK minimizedRMSD -1
REMARK  2 active torsions:
REMARK  status: ('A' for Active; 'I' for Inactive)
REMARK    1  A    between atoms: C2'_3  and  C1'_4 
REMARK    2  A    between atoms: C1'_4  and  C1_5 
ROOT
ATOM      1  C1  I4B d   1       0.346   0.643   0.115  0.00  0.00    -0.075 A 
ATOM      2  C2  I4B d   1      -0.933   1.136   0.185  0.00  0.00     0.003 A 
ATOM      3  C3  I4B d   1      -1.891   0.772  -0.793  0.00  0.00     0.002 A 
ATOM      4  C4  I4B d   1      -1.516  -0.041  -1.842  0.00  0.00    -0.004 A 
ATOM      5  C5  I4B d   1      -0.225  -0.559  -1.898  0.00  0.00     0.002 A 
ATOM      6  C6  I4B d   1       0.709  -0.225  -0.907  0.00  0.00     0.003 A 
ENDROOT
BRANCH   1   7
ATOM      7  C1' I4B d   1       1.341   1.074   1.145  0.00  0.00     0.060 C 
BRANCH   7   8
ATOM      8  C2' I4B d   1       1.623   2.547   0.934  0.00  0.00    -0.013 C 
ATOM      9  C4' I4B d   1       1.827   3.257   2.247  0.00  0.00     0.013 C 
ATOM     10  C3' I4B d   1       2.835   2.666   0.060  0.00  0.00     0.013 C 
ENDBRANCH   7   8
ENDBRANCH   1   7
TORSDOF 2
ENDMDL
