MODEL 1
REMARK minimizedAffinity -6.60834312
REMARK minimizedRMSD -1
REMARK  2 active torsions:
REMARK  status: ('A' for Active; 'I' for Inactive)
REMARK    1  A    between atoms: C2'_3  and  C1'_4 
REMARK    2  A    between atoms: C1'_4  and  C1_5 
ROOT
ATOM      1  C1  I4B d   1       0.444  -0.110  -0.152  0.00  0.00    -0.075 A 
ATOM      2  C2  I4B d   1      -0.541  -0.701   0.599  0.00  0.00     0.003 A 
ATOM      3  C3  I4B d   1      -1.874  -0.739   0.124  0.00  0.00     0.002 A 
ATOM      4  C4  I4B d   1      -2.185  -0.134  -1.076  0.00  0.00    -0.004 A 
ATOM      5  C5  I4B d   1      -1.181   0.445  -1.847  0.00  0.00     0.002 A 
ATOM      6  C6  I4B d   1       0.144   0.446  -1.389  0.00  0.00     0.003 A 
ENDROOT
BRANCH   1   7
ATOM      7  C1' I4B d   1       1.836  -0.059   0.395  0.00  0.00     0.060 C 
BRANCH   7   8
ATOM      8  C2' I4B d   1       2.217   1.398   0.565  0.00  0.00    -0.013 C 
ATOM      9  C4' I4B d   1       2.344   1.762   2.021  0.00  0.00     0.013 C 
ATOM     10  C3' I4B d   1       3.507   1.627  -0.165  0.00  0.00     0.013 C 
ENDBRANCH   7   8
ENDBRANCH   1   7
TORSDOF 2
ENDMDL
