MODEL 1
REMARK minimizedAffinity -4.73238993
REMARK minimizedRMSD -1
REMARK  2 active torsions:
REMARK  status: ('A' for Active; 'I' for Inactive)
REMARK    1  A    between atoms: C2'_3  and  C1'_4 
REMARK    2  A    between atoms: C1'_4  and  C1_5 
ROOT
ATOM      1  C1  I4B d   1       0.305  -0.025  -0.032  0.00  0.00    -0.075 A 
ATOM      2  C2  I4B d   1      -0.266   0.452  -1.186  0.00  0.00     0.003 A 
ATOM      3  C3  I4B d   1      -1.618   0.159  -1.486  0.00  0.00     0.002 A 
ATOM      4  C4  I4B d   1      -2.343  -0.651  -0.635  0.00  0.00    -0.004 A 
ATOM      5  C5  I4B d   1      -1.769  -1.114   0.545  0.00  0.00     0.002 A 
ATOM      6  C6  I4B d   1      -0.441  -0.790   0.855  0.00  0.00     0.003 A 
ENDROOT
BRANCH   1   7
ATOM      7  C1' I4B d   1       1.746   0.276   0.237  0.00  0.00     0.060 C 
BRANCH   7   8
ATOM      8  C2' I4B d   1       1.841   1.710   0.718  0.00  0.00    -0.013 C 
ATOM      9  C4' I4B d   1       1.440   1.827   2.165  0.00  0.00     0.013 C 
ATOM     10  C3' I4B d   1       3.250   2.176   0.507  0.00  0.00     0.013 C 
ENDBRANCH   7   8
ENDBRANCH   1   7
TORSDOF 2
ENDMDL
