MODEL 1
REMARK minimizedAffinity -5.46233702
REMARK minimizedRMSD -1
REMARK  2 active torsions:
REMARK  status: ('A' for Active; 'I' for Inactive)
REMARK    1  A    between atoms: C2'_3  and  C1'_4 
REMARK    2  A    between atoms: C1'_4  and  C1_5 
ROOT
ATOM      1  C1  I4B d   1       0.088   0.087  -0.027  0.00  0.00    -0.075 A 
ATOM      2  C2  I4B d   1      -0.179   0.569  -1.284  0.00  0.00     0.003 A 
ATOM      3  C3  I4B d   1      -1.478   0.446  -1.833  0.00  0.00     0.002 A 
ATOM      4  C4  I4B d   1      -2.460  -0.208  -1.117  0.00  0.00    -0.004 A 
ATOM      5  C5  I4B d   1      -2.193  -0.676   0.167  0.00  0.00     0.002 A 
ATOM      6  C6  I4B d   1      -0.914  -0.517   0.720  0.00  0.00     0.003 A 
ENDROOT
BRANCH   1   7
ATOM      7  C1' I4B d   1       1.480   0.205   0.509  0.00  0.00     0.060 C 
BRANCH   7   8
ATOM      8  C2' I4B d   1       1.848   1.675   0.533  0.00  0.00    -0.013 C 
ATOM      9  C4' I4B d   1       1.874   2.207   1.942  0.00  0.00     0.013 C 
ATOM     10  C3' I4B d   1       3.184   1.829  -0.129  0.00  0.00     0.013 C 
ENDBRANCH   7   8
ENDBRANCH   1   7
TORSDOF 2
ENDMDL
