MODEL 1
REMARK minimizedAffinity 1.79975784
REMARK minimizedRMSD -1
REMARK  2 active torsions:
REMARK  status: ('A' for Active; 'I' for Inactive)
REMARK    1  A    between atoms: C2'_3  and  C1'_4 
REMARK    2  A    between atoms: C1'_4  and  C1_5 
ROOT
ATOM      1  C1  I4B d   1       0.036  -0.075   0.033  0.00  0.00    -0.075 A 
ATOM      2  C2  I4B d   1      -1.337  -0.089   0.050  0.00  0.00     0.003 A 
ATOM      3  C3  I4B d   1      -2.030  -0.810   1.053  0.00  0.00     0.002 A 
ATOM      4  C4  I4B d   1      -1.316  -1.538   1.983  0.00  0.00    -0.004 A 
ATOM      5  C5  I4B d   1       0.076  -1.503   1.978  0.00  0.00     0.002 A 
ATOM      6  C6  I4B d   1       0.756  -0.757   1.005  0.00  0.00     0.003 A 
ENDROOT
BRANCH   1   7
ATOM      7  C1' I4B d   1       0.735   0.670  -1.059  0.00  0.00     0.060 C 
BRANCH   7   8
ATOM      8  C2' I4B d   1      -0.319   1.330  -1.924  0.00  0.00    -0.013 C 
ATOM      9  C4' I4B d   1      -0.474   2.788  -1.578  0.00  0.00     0.013 C 
ATOM     10  C3' I4B d   1       0.081   1.154  -3.358  0.00  0.00     0.013 C 
ENDBRANCH   7   8
ENDBRANCH   1   7
TORSDOF 2
ENDMDL
