MODEL 1
REMARK minimizedAffinity 17.7274017
REMARK minimizedRMSD -1
REMARK  0 active torsions:
REMARK  status: ('A' for Active; 'I' for Inactive)
ROOT
ATOM      1  C   UNL d   1      -0.118   4.797   0.137  0.00  0.00     0.124 A 
ATOM      2  C1  UNL d   1      -1.258   4.701  -0.649  0.00  0.00     0.062 A 
ATOM      3  C2  UNL d   1      -1.745   3.453  -1.026  0.00  0.00     0.162 A 
ATOM      4  C3  UNL d   1      -1.093   2.290  -0.616  0.00  0.00    -0.034 A 
ATOM      5  C4  UNL d   1       0.053   2.394   0.173  0.00  0.00     0.162 A 
ATOM      6  C5  UNL d   1       0.537   3.644   0.547  0.00  0.00     0.062 A 
ATOM      7  F   UNL d   1       1.638   3.734   1.306  0.00  0.00    -0.097 F 
ATOM      8  F1  UNL d   1       0.704   1.296   0.584  0.00  0.00    -0.096 F 
ATOM      9  I   UNL d   1      -1.820   0.422  -1.178  0.00  0.00    -0.060 I 
ATOM     10  F2  UNL d   1      -2.849   3.391  -1.785  0.00  0.00    -0.096 F 
ATOM     11  F3  UNL d   1      -1.891   5.814  -1.047  0.00  0.00    -0.097 F 
ATOM     12  F4  UNL d   1       0.350   5.999   0.498  0.00  0.00    -0.092 F 
ENDROOT
TORSDOF 0
ENDMDL
