MODEL 1
REMARK minimizedAffinity 17.2368088
REMARK minimizedRMSD -1
REMARK  0 active torsions:
REMARK  status: ('A' for Active; 'I' for Inactive)
ROOT
ATOM      1  C   UNL d   1       2.359   4.570   1.632  0.00  0.00     0.124 A 
ATOM      2  C1  UNL d   1       2.295   3.823   2.800  0.00  0.00     0.062 A 
ATOM      3  C2  UNL d   1       1.159   3.073   3.090  0.00  0.00     0.162 A 
ATOM      4  C3  UNL d   1       0.077   3.065   2.209  0.00  0.00    -0.034 A 
ATOM      5  C4  UNL d   1       0.149   3.821   1.037  0.00  0.00     0.162 A 
ATOM      6  C5  UNL d   1       1.286   4.569   0.752  0.00  0.00     0.062 A 
ATOM      7  F   UNL d   1       1.347   5.290  -0.376  0.00  0.00    -0.097 F 
ATOM      8  F1  UNL d   1      -0.873   3.836   0.168  0.00  0.00    -0.096 F 
ATOM      9  I   UNL d   1      -1.623   1.945   2.638  0.00  0.00    -0.060 I 
ATOM     10  F2  UNL d   1       1.124   2.360   4.225  0.00  0.00    -0.096 F 
ATOM     11  F3  UNL d   1       3.330   3.824   3.653  0.00  0.00    -0.097 F 
ATOM     12  F4  UNL d   1       3.453   5.292   1.357  0.00  0.00    -0.092 F 
ENDROOT
TORSDOF 0
ENDMDL
