MODEL 1
REMARK minimizedAffinity 26.7595901
REMARK minimizedRMSD -1
REMARK  0 active torsions:
REMARK  status: ('A' for Active; 'I' for Inactive)
ROOT
ATOM      1  C   UNL d   1       1.030   3.009   2.162  0.00  0.00     0.124 A 
ATOM      2  C1  UNL d   1      -0.096   2.994   1.350  0.00  0.00     0.062 A 
ATOM      3  C2  UNL d   1      -0.178   3.846   0.252  0.00  0.00     0.162 A 
ATOM      4  C3  UNL d   1       0.869   4.720  -0.040  0.00  0.00    -0.034 A 
ATOM      5  C4  UNL d   1       1.997   4.730   0.782  0.00  0.00     0.162 A 
ATOM      6  C5  UNL d   1       2.074   3.877   1.878  0.00  0.00     0.062 A 
ATOM      7  F   UNL d   1       3.163   3.893   2.661  0.00  0.00    -0.097 F 
ATOM      8  F1  UNL d   1       3.021   5.558   0.530  0.00  0.00    -0.096 F 
ATOM      9  I   UNL d   1       0.749   5.996  -1.680  0.00  0.00    -0.060 I 
ATOM     10  F2  UNL d   1      -1.278   3.810  -0.515  0.00  0.00    -0.096 F 
ATOM     11  F3  UNL d   1      -1.107   2.157   1.623  0.00  0.00    -0.097 F 
ATOM     12  F4  UNL d   1       1.106   2.189   3.218  0.00  0.00    -0.092 F 
ENDROOT
TORSDOF 0
ENDMDL
