MODEL 1
REMARK minimizedAffinity 15.1887951
REMARK minimizedRMSD -1
REMARK  0 active torsions:
REMARK  status: ('A' for Active; 'I' for Inactive)
ROOT
ATOM      1  C   UNL d   1       4.124  -1.861  -1.373  0.00  0.00     0.124 A 
ATOM      2  C1  UNL d   1       4.804  -2.731  -2.214  0.00  0.00     0.062 A 
ATOM      3  C2  UNL d   1       5.341  -3.913  -1.712  0.00  0.00     0.162 A 
ATOM      4  C3  UNL d   1       5.198  -4.233  -0.362  0.00  0.00    -0.034 A 
ATOM      5  C4  UNL d   1       4.514  -3.353   0.478  0.00  0.00     0.162 A 
ATOM      6  C5  UNL d   1       3.979  -2.173  -0.028  0.00  0.00     0.062 A 
ATOM      7  F   UNL d   1       3.322  -1.334   0.786  0.00  0.00    -0.097 F 
ATOM      8  F1  UNL d   1       4.359  -3.630   1.781  0.00  0.00    -0.096 F 
ATOM      9  I   UNL d   1       6.000  -6.000   0.393  0.00  0.00    -0.060 I 
ATOM     10  F2  UNL d   1       5.993  -4.735  -2.547  0.00  0.00    -0.096 F 
ATOM     11  F3  UNL d   1       4.946  -2.432  -3.513  0.00  0.00    -0.097 F 
ATOM     12  F4  UNL d   1       3.609  -0.724  -1.858  0.00  0.00    -0.092 F 
ENDROOT
TORSDOF 0
ENDMDL
