MODEL 1
REMARK minimizedAffinity 16.0856819
REMARK minimizedRMSD -1
REMARK  0 active torsions:
REMARK  status: ('A' for Active; 'I' for Inactive)
ROOT
ATOM      1  C   UNL d   1       1.053   2.947   2.997  0.00  0.00     0.124 A 
ATOM      2  C1  UNL d   1      -0.009   2.829   2.111  0.00  0.00     0.062 A 
ATOM      3  C2  UNL d   1      -0.050   3.609   0.959  0.00  0.00     0.162 A 
ATOM      4  C3  UNL d   1       0.976   4.514   0.686  0.00  0.00    -0.034 A 
ATOM      5  C4  UNL d   1       2.040   4.628   1.582  0.00  0.00     0.162 A 
ATOM      6  C5  UNL d   1       2.076   3.846   2.732  0.00  0.00     0.062 A 
ATOM      7  F   UNL d   1       3.103   3.961   3.586  0.00  0.00    -0.097 F 
ATOM      8  F1  UNL d   1       3.043   5.488   1.349  0.00  0.00    -0.096 F 
ATOM      9  I   UNL d   1       0.918   5.682  -1.036  0.00  0.00    -0.060 I 
ATOM     10  F2  UNL d   1      -1.088   3.474   0.121  0.00  0.00    -0.096 F 
ATOM     11  F3  UNL d   1      -0.999   1.961   2.366  0.00  0.00    -0.097 F 
ATOM     12  F4  UNL d   1       1.089   2.196   4.105  0.00  0.00    -0.092 F 
ENDROOT
TORSDOF 0
ENDMDL
