MODEL 1
REMARK minimizedAffinity 25.4651527
REMARK minimizedRMSD -1
REMARK  0 active torsions:
REMARK  status: ('A' for Active; 'I' for Inactive)
ROOT
ATOM      1  C   UNL d   1       5.298  -2.406  -1.244  0.00  0.00     0.124 A 
ATOM      2  C1  UNL d   1       4.682  -3.552  -0.763  0.00  0.00     0.062 A 
ATOM      3  C2  UNL d   1       4.171  -4.496  -1.649  0.00  0.00     0.162 A 
ATOM      4  C3  UNL d   1       4.275  -4.298  -3.026  0.00  0.00    -0.034 A 
ATOM      5  C4  UNL d   1       4.896  -3.142  -3.502  0.00  0.00     0.162 A 
ATOM      6  C5  UNL d   1       5.405  -2.202  -2.612  0.00  0.00     0.062 A 
ATOM      7  F   UNL d   1       6.000  -1.094  -3.079  0.00  0.00    -0.097 F 
ATOM      8  F1  UNL d   1       5.013  -2.920  -4.819  0.00  0.00    -0.096 F 
ATOM      9  I   UNL d   1       3.513  -5.708  -4.354  0.00  0.00    -0.060 I 
ATOM     10  F2  UNL d   1       3.580  -5.595  -1.156  0.00  0.00    -0.096 F 
ATOM     11  F3  UNL d   1       4.576  -3.751   0.559  0.00  0.00    -0.097 F 
ATOM     12  F4  UNL d   1       5.788  -1.498  -0.389  0.00  0.00    -0.092 F 
ENDROOT
TORSDOF 0
ENDMDL
