MODEL 1
REMARK minimizedAffinity -4.14097595
REMARK minimizedRMSD -1
REMARK  1 active torsions:
REMARK  status: ('A' for Active; 'I' for Inactive)
REMARK    1  A    between atoms: C3_4  and  O_7 
ROOT
ATOM      1  C   UNL d   1       3.286  -1.584   2.073  0.00  0.00    -0.033 A 
ATOM      2  C1  UNL d   1       1.998  -1.996   2.422  0.00  0.00     0.039 A 
ATOM      3  C2  UNL d   1       0.889  -1.442   1.780  0.00  0.00    -0.080 A 
ATOM      4  C3  UNL d   1       1.080  -0.479   0.794  0.00  0.00     0.150 A 
ATOM      5  C4  UNL d   1       2.360  -0.067   0.439  0.00  0.00    -0.007 A 
ATOM      6  C5  UNL d   1       3.467  -0.620   1.081  0.00  0.00     0.039 A 
ENDROOT
BRANCH   4   7
ATOM      7  O   UNL d   1       0.027   0.093   0.143  0.00  0.00    -0.526 OA
ATOM      8  H5  UNL d   1      -0.796  -0.268   0.513  0.00  0.00     0.418 HD
ENDBRANCH   4   7
TORSDOF 1
ENDMDL
