MODEL 1
REMARK minimizedAffinity -5.15834332
REMARK minimizedRMSD -1
REMARK  1 active torsions:
REMARK  status: ('A' for Active; 'I' for Inactive)
REMARK    1  A    between atoms: C3_4  and  O_7 
ROOT
ATOM      1  C   UNL d   1       0.525  -1.838   2.161  0.00  0.00    -0.033 A 
ATOM      2  C1  UNL d   1       1.719  -2.488   2.479  0.00  0.00     0.039 A 
ATOM      3  C2  UNL d   1       2.933  -2.000   1.993  0.00  0.00    -0.080 A 
ATOM      4  C3  UNL d   1       2.940  -0.863   1.191  0.00  0.00     0.150 A 
ATOM      5  C4  UNL d   1       1.755  -0.207   0.873  0.00  0.00    -0.007 A 
ATOM      6  C5  UNL d   1       0.543  -0.696   1.359  0.00  0.00     0.039 A 
ENDROOT
BRANCH   4   7
ATOM      7  O   UNL d   1       4.100  -0.352   0.688  0.00  0.00    -0.526 OA
ATOM      8  H5  UNL d   1       4.834  -0.924   0.967  0.00  0.00     0.418 HD
ENDBRANCH   4   7
TORSDOF 1
ENDMDL
