MODEL 1
REMARK minimizedAffinity -4.54343843
REMARK minimizedRMSD -1
REMARK  1 active torsions:
REMARK  status: ('A' for Active; 'I' for Inactive)
REMARK    1  A    between atoms: C3_4  and  O_7 
ROOT
ATOM      1  C   UNL d   1      -0.286   0.512   0.310  0.00  0.00    -0.033 A 
ATOM      2  C1  UNL d   1       0.085  -0.763  -0.120  0.00  0.00     0.039 A 
ATOM      3  C2  UNL d   1       1.435  -1.114  -0.186  0.00  0.00    -0.080 A 
ATOM      4  C3  UNL d   1       2.402  -0.182   0.181  0.00  0.00     0.150 A 
ATOM      5  C4  UNL d   1       2.039   1.089   0.613  0.00  0.00    -0.007 A 
ATOM      6  C5  UNL d   1       0.691   1.438   0.678  0.00  0.00     0.039 A 
ENDROOT
BRANCH   4   7
ATOM      7  O   UNL d   1       3.732  -0.477   0.129  0.00  0.00    -0.526 OA
ATOM      8  H5  UNL d   1       3.834  -1.380  -0.215  0.00  0.00     0.418 HD
ENDBRANCH   4   7
TORSDOF 1
ENDMDL
