MODEL 1
REMARK minimizedAffinity -1.92676616
REMARK minimizedRMSD -1
REMARK  1 active torsions:
REMARK  status: ('A' for Active; 'I' for Inactive)
REMARK    1  A    between atoms: C3_4  and  O_7 
ROOT
ATOM      1  C   UNL d   1       0.688  -0.579   0.527  0.00  0.00    -0.033 A 
ATOM      2  C1  UNL d   1       0.900  -0.025  -0.737  0.00  0.00     0.039 A 
ATOM      3  C2  UNL d   1      -0.183   0.217  -1.585  0.00  0.00    -0.080 A 
ATOM      4  C3  UNL d   1      -1.470  -0.098  -1.157  0.00  0.00     0.150 A 
ATOM      5  C4  UNL d   1      -1.688  -0.646   0.102  0.00  0.00    -0.007 A 
ATOM      6  C5  UNL d   1      -0.606  -0.887   0.948  0.00  0.00     0.039 A 
ENDROOT
BRANCH   4   7
ATOM      7  O   UNL d   1      -2.557   0.116  -1.952  0.00  0.00    -0.526 OA
ATOM      8  H5  UNL d   1      -2.251   0.471  -2.803  0.00  0.00     0.418 HD
ENDBRANCH   4   7
TORSDOF 1
ENDMDL
