MODEL 1
REMARK minimizedAffinity -2.84376216
REMARK minimizedRMSD -1
REMARK  1 active torsions:
REMARK  status: ('A' for Active; 'I' for Inactive)
REMARK    1  A    between atoms: C3_4  and  O_7 
ROOT
ATOM      1  C   UNL d   1      -0.487  -0.789   0.540  0.00  0.00    -0.033 A 
ATOM      2  C1  UNL d   1      -0.094   0.464   0.064  0.00  0.00     0.039 A 
ATOM      3  C2  UNL d   1       1.118   1.021   0.477  0.00  0.00    -0.080 A 
ATOM      4  C3  UNL d   1       1.927   0.315   1.363  0.00  0.00     0.150 A 
ATOM      5  C4  UNL d   1       1.544  -0.935   1.838  0.00  0.00    -0.007 A 
ATOM      6  C5  UNL d   1       0.333  -1.489   1.425  0.00  0.00     0.039 A 
ENDROOT
BRANCH   4   7
ATOM      7  O   UNL d   1       3.117   0.820   1.798  0.00  0.00    -0.526 OA
ATOM      8  H5  UNL d   1       3.237   1.703   1.410  0.00  0.00     0.418 HD
ENDBRANCH   4   7
TORSDOF 1
ENDMDL
