MODEL 1
REMARK minimizedAffinity -2.53161407
REMARK minimizedRMSD -1
REMARK  1 active torsions:
REMARK  status: ('A' for Active; 'I' for Inactive)
REMARK    1  A    between atoms: C3_4  and  O_7 
ROOT
ATOM      1  C   UNL d   1      -0.266  -0.168   0.560  0.00  0.00    -0.033 A 
ATOM      2  C1  UNL d   1       0.320  -1.434   0.513  0.00  0.00     0.039 A 
ATOM      3  C2  UNL d   1       1.701  -1.572   0.669  0.00  0.00    -0.080 A 
ATOM      4  C3  UNL d   1       2.482  -0.438   0.872  0.00  0.00     0.150 A 
ATOM      5  C4  UNL d   1       1.904   0.826   0.924  0.00  0.00    -0.007 A 
ATOM      6  C5  UNL d   1       0.526   0.962   0.768  0.00  0.00     0.039 A 
ENDROOT
BRANCH   4   7
ATOM      7  O   UNL d   1       3.835  -0.522   1.024  0.00  0.00    -0.526 OA
ATOM      8  H5  UNL d   1       4.097  -1.454   0.937  0.00  0.00     0.418 HD
ENDBRANCH   4   7
TORSDOF 1
ENDMDL
