MODEL 1
REMARK minimizedAffinity -4.88446093
REMARK minimizedRMSD -1
REMARK  1 active torsions:
REMARK  status: ('A' for Active; 'I' for Inactive)
REMARK    1  A    between atoms: C3_4  and  O_7 
ROOT
ATOM      1  C   UNL d   1       0.203   1.135   0.225  0.00  0.00    -0.033 A 
ATOM      2  C1  UNL d   1       1.175   1.758   1.011  0.00  0.00     0.039 A 
ATOM      3  C2  UNL d   1       2.428   1.166   1.175  0.00  0.00    -0.080 A 
ATOM      4  C3  UNL d   1       2.697  -0.048   0.547  0.00  0.00     0.150 A 
ATOM      5  C4  UNL d   1       1.735  -0.672  -0.240  0.00  0.00    -0.007 A 
ATOM      6  C5  UNL d   1       0.484  -0.079  -0.402  0.00  0.00     0.039 A 
ENDROOT
BRANCH   4   7
ATOM      7  O   UNL d   1       3.904  -0.667   0.681  0.00  0.00    -0.526 OA
ATOM      8  H5  UNL d   1       4.459  -0.135   1.276  0.00  0.00     0.418 HD
ENDBRANCH   4   7
TORSDOF 1
ENDMDL
