MODEL 1
REMARK minimizedAffinity -4.67650604
REMARK minimizedRMSD -1
REMARK  0 active torsions:
REMARK  status: ('A' for Active; 'I' for Inactive)
ROOT
ATOM      1  C   UNL d   1       2.236  -2.077   0.411  0.00  0.00     0.078 C 
ATOM      2  C1  UNL d   1       1.011  -1.768   1.219  0.00  0.00    -0.077 A 
ATOM      3  C2  UNL d   1       0.107  -0.781   0.810  0.00  0.00    -0.001 A 
ATOM      4  C3  UNL d   1      -1.024  -0.497   1.578  0.00  0.00     0.003 A 
ATOM      5  C4  UNL d   1      -1.260  -1.195   2.760  0.00  0.00    -0.005 A 
ATOM      6  C5  UNL d   1      -0.365  -2.178   3.177  0.00  0.00     0.003 A 
ATOM      7  C6  UNL d   1       0.767  -2.463   2.410  0.00  0.00    -0.001 A 
ENDROOT
TORSDOF 0
ENDMDL
