MODEL 1
REMARK minimizedAffinity -5.52027225
REMARK minimizedRMSD -1
REMARK  0 active torsions:
REMARK  status: ('A' for Active; 'I' for Inactive)
ROOT
ATOM      1  C   UNL d   1       0.053   1.369  -0.629  0.00  0.00     0.078 C 
ATOM      2  C1  UNL d   1       0.726   0.196   0.018  0.00  0.00    -0.077 A 
ATOM      3  C2  UNL d   1       2.117   0.160   0.176  0.00  0.00    -0.001 A 
ATOM      4  C3  UNL d   1       2.731  -0.943   0.772  0.00  0.00     0.003 A 
ATOM      5  C4  UNL d   1       1.962  -2.018   1.214  0.00  0.00    -0.005 A 
ATOM      6  C5  UNL d   1       0.578  -1.992   1.059  0.00  0.00     0.003 A 
ATOM      7  C6  UNL d   1      -0.038  -0.890   0.463  0.00  0.00    -0.001 A 
ENDROOT
TORSDOF 0
ENDMDL
