MODEL 1
REMARK minimizedAffinity -3.55960345
REMARK minimizedRMSD -1
REMARK  0 active torsions:
REMARK  status: ('A' for Active; 'I' for Inactive)
ROOT
ATOM      1  C   UNL d   1       0.262  -0.329   0.181  0.00  0.00     0.078 C 
ATOM      2  C1  UNL d   1       0.102   0.834  -0.751  0.00  0.00    -0.077 A 
ATOM      3  C2  UNL d   1       0.406   2.137  -0.337  0.00  0.00    -0.001 A 
ATOM      4  C3  UNL d   1       0.243   3.212  -1.213  0.00  0.00     0.003 A 
ATOM      5  C4  UNL d   1      -0.226   2.995  -2.507  0.00  0.00    -0.005 A 
ATOM      6  C5  UNL d   1      -0.534   1.703  -2.927  0.00  0.00     0.003 A 
ATOM      7  C6  UNL d   1      -0.371   0.627  -2.053  0.00  0.00    -0.001 A 
ENDROOT
TORSDOF 0
ENDMDL
