MODEL 1
REMARK minimizedAffinity -5.03291512
REMARK minimizedRMSD -1
REMARK  0 active torsions:
REMARK  status: ('A' for Active; 'I' for Inactive)
ROOT
ATOM      1  C   UNL d   1       1.483  -2.927   0.958  0.00  0.00     0.078 C 
ATOM      2  C1  UNL d   1       1.026  -1.561   0.540  0.00  0.00    -0.077 A 
ATOM      3  C2  UNL d   1      -0.324  -1.197   0.619  0.00  0.00    -0.001 A 
ATOM      4  C3  UNL d   1      -0.737   0.074   0.218  0.00  0.00     0.003 A 
ATOM      5  C4  UNL d   1       0.193   0.992  -0.266  0.00  0.00    -0.005 A 
ATOM      6  C5  UNL d   1       1.538   0.638  -0.351  0.00  0.00     0.003 A 
ATOM      7  C6  UNL d   1       1.953  -0.633   0.050  0.00  0.00    -0.001 A 
ENDROOT
TORSDOF 0
ENDMDL
