MODEL 1
REMARK minimizedAffinity -4.20934439
REMARK minimizedRMSD -1
REMARK  0 active torsions:
REMARK  status: ('A' for Active; 'I' for Inactive)
ROOT
ATOM      1  C   UNL d   1      -0.320   0.491  -0.582  0.00  0.00     0.078 C 
ATOM      2  C1  UNL d   1       0.422  -0.678  -0.006  0.00  0.00    -0.077 A 
ATOM      3  C2  UNL d   1      -0.221  -1.902   0.217  0.00  0.00    -0.001 A 
ATOM      4  C3  UNL d   1       0.479  -2.978   0.763  0.00  0.00     0.003 A 
ATOM      5  C4  UNL d   1       1.826  -2.842   1.093  0.00  0.00    -0.005 A 
ATOM      6  C5  UNL d   1       2.474  -1.627   0.877  0.00  0.00     0.003 A 
ATOM      7  C6  UNL d   1       1.775  -0.549   0.331  0.00  0.00    -0.001 A 
ENDROOT
TORSDOF 0
ENDMDL
