MODEL 1
REMARK minimizedAffinity -3.61166906
REMARK minimizedRMSD -1
REMARK  0 active torsions:
REMARK  status: ('A' for Active; 'I' for Inactive)
ROOT
ATOM      1  C   UNL d   1      -0.526   1.032  -0.128  0.00  0.00     0.078 C 
ATOM      2  C1  UNL d   1       0.204  -0.200   0.316  0.00  0.00    -0.077 A 
ATOM      3  C2  UNL d   1       1.555  -0.391   0.001  0.00  0.00    -0.001 A 
ATOM      4  C3  UNL d   1       2.220  -1.547   0.413  0.00  0.00     0.003 A 
ATOM      5  C4  UNL d   1       1.541  -2.522   1.142  0.00  0.00    -0.005 A 
ATOM      6  C5  UNL d   1       0.196  -2.342   1.458  0.00  0.00     0.003 A 
ATOM      7  C6  UNL d   1      -0.470  -1.186   1.047  0.00  0.00    -0.001 A 
ENDROOT
TORSDOF 0
ENDMDL
