MODEL 1
REMARK minimizedAffinity -2.59105253
REMARK minimizedRMSD -1
REMARK  0 active torsions:
REMARK  status: ('A' for Active; 'I' for Inactive)
ROOT
ATOM      1  C   UNL d   1       2.406  -1.290   0.948  0.00  0.00     0.078 C 
ATOM      2  C1  UNL d   1       1.236  -0.566   0.351  0.00  0.00    -0.077 A 
ATOM      3  C2  UNL d   1       0.012  -0.493   1.028  0.00  0.00    -0.001 A 
ATOM      4  C3  UNL d   1      -1.072   0.176   0.457  0.00  0.00     0.003 A 
ATOM      5  C4  UNL d   1      -0.943   0.775  -0.794  0.00  0.00    -0.005 A 
ATOM      6  C5  UNL d   1       0.269   0.705  -1.477  0.00  0.00     0.003 A 
ATOM      7  C6  UNL d   1       1.354   0.037  -0.907  0.00  0.00    -0.001 A 
ENDROOT
TORSDOF 0
ENDMDL
