MODEL 1
REMARK minimizedAffinity -4.31245327
REMARK minimizedRMSD -1
REMARK  0 active torsions:
REMARK  status: ('A' for Active; 'I' for Inactive)
ROOT
ATOM      1  C   UNL d   1      -1.010  -0.282  -1.101  0.00  0.00     0.078 C 
ATOM      2  C1  UNL d   1       0.245  -0.560  -0.329  0.00  0.00    -0.077 A 
ATOM      3  C2  UNL d   1       0.401  -1.752   0.389  0.00  0.00    -0.001 A 
ATOM      4  C3  UNL d   1       1.571  -1.993   1.111  0.00  0.00     0.003 A 
ATOM      5  C4  UNL d   1       2.593  -1.046   1.123  0.00  0.00    -0.005 A 
ATOM      6  C5  UNL d   1       2.446   0.144   0.414  0.00  0.00     0.003 A 
ATOM      7  C6  UNL d   1       1.277   0.387  -0.309  0.00  0.00    -0.001 A 
ENDROOT
TORSDOF 0
ENDMDL
