MODEL 1
REMARK minimizedAffinity -3.79893613
REMARK minimizedRMSD -1
REMARK  0 active torsions:
REMARK  status: ('A' for Active; 'I' for Inactive)
ROOT
ATOM      1  C   UNL d   1       0.728  -2.604   0.573  0.00  0.00     0.078 C 
ATOM      2  C1  UNL d   1       0.081  -1.251   0.581  0.00  0.00    -0.077 A 
ATOM      3  C2  UNL d   1       0.593  -0.203  -0.193  0.00  0.00    -0.001 A 
ATOM      4  C3  UNL d   1      -0.014   1.054  -0.169  0.00  0.00     0.003 A 
ATOM      5  C4  UNL d   1      -1.135   1.274   0.629  0.00  0.00    -0.005 A 
ATOM      6  C5  UNL d   1      -1.650   0.238   1.405  0.00  0.00     0.003 A 
ATOM      7  C6  UNL d   1      -1.045  -1.020   1.381  0.00  0.00    -0.001 A 
ENDROOT
TORSDOF 0
ENDMDL
