MODEL 1
REMARK minimizedAffinity -5.21410322
REMARK minimizedRMSD -1
REMARK  0 active torsions:
REMARK  status: ('A' for Active; 'I' for Inactive)
ROOT
ATOM      1  C   UNL d   1       1.390  -2.815   0.875  0.00  0.00     0.078 C 
ATOM      2  C1  UNL d   1       0.671  -1.510   0.711  0.00  0.00    -0.077 A 
ATOM      3  C2  UNL d   1      -0.436  -1.192   1.508  0.00  0.00    -0.001 A 
ATOM      4  C3  UNL d   1      -1.102   0.023   1.338  0.00  0.00     0.003 A 
ATOM      5  C4  UNL d   1      -0.670   0.929   0.371  0.00  0.00    -0.005 A 
ATOM      6  C5  UNL d   1       0.430   0.620  -0.427  0.00  0.00     0.003 A 
ATOM      7  C6  UNL d   1       1.097  -0.594  -0.259  0.00  0.00    -0.001 A 
ENDROOT
TORSDOF 0
ENDMDL
