MODEL 1
REMARK minimizedAffinity -4.83034992
REMARK minimizedRMSD -1
REMARK  0 active torsions:
REMARK  status: ('A' for Active; 'I' for Inactive)
ROOT
ATOM      1  C   UNL d   1       1.540  -2.663   0.886  0.00  0.00     0.078 C 
ATOM      2  C1  UNL d   1       0.826  -1.358   0.694  0.00  0.00    -0.077 A 
ATOM      3  C2  UNL d   1       1.396  -0.329  -0.066  0.00  0.00    -0.001 A 
ATOM      4  C3  UNL d   1       0.725   0.883  -0.229  0.00  0.00     0.003 A 
ATOM      5  C4  UNL d   1      -0.520   1.079   0.366  0.00  0.00    -0.005 A 
ATOM      6  C5  UNL d   1      -1.095   0.061   1.125  0.00  0.00     0.003 A 
ATOM      7  C6  UNL d   1      -0.425  -1.152   1.289  0.00  0.00    -0.001 A 
ENDROOT
TORSDOF 0
ENDMDL
