MODEL 1
REMARK minimizedAffinity -5.89392281
REMARK minimizedRMSD -1
REMARK  0 active torsions:
REMARK  status: ('A' for Active; 'I' for Inactive)
ROOT
ATOM      1  C   UNL d   1      -0.217   0.786   0.309  0.00  0.00     0.078 C 
ATOM      2  C1  UNL d   1       0.540  -0.503   0.419  0.00  0.00    -0.077 A 
ATOM      3  C2  UNL d   1       1.871  -0.596  -0.007  0.00  0.00    -0.001 A 
ATOM      4  C3  UNL d   1       2.561  -1.806   0.092  0.00  0.00     0.003 A 
ATOM      5  C4  UNL d   1       1.928  -2.931   0.616  0.00  0.00    -0.005 A 
ATOM      6  C5  UNL d   1       0.604  -2.849   1.041  0.00  0.00     0.003 A 
ATOM      7  C6  UNL d   1      -0.088  -1.640   0.942  0.00  0.00    -0.001 A 
ENDROOT
TORSDOF 0
ENDMDL
