MODEL 1
REMARK minimizedAffinity -5.4355197
REMARK minimizedRMSD -1
REMARK  0 active torsions:
REMARK  status: ('A' for Active; 'I' for Inactive)
ROOT
ATOM      1  C   UNL d   1      -0.370   0.111  -0.431  0.00  0.00     0.078 C 
ATOM      2  C1  UNL d   1      -0.032  -0.900   0.625  0.00  0.00    -0.077 A 
ATOM      3  C2  UNL d   1      -0.865  -1.089   1.735  0.00  0.00    -0.001 A 
ATOM      4  C3  UNL d   1      -0.533  -2.026   2.714  0.00  0.00     0.003 A 
ATOM      5  C4  UNL d   1       0.632  -2.781   2.594  0.00  0.00    -0.005 A 
ATOM      6  C5  UNL d   1       1.468  -2.598   1.494  0.00  0.00     0.003 A 
ATOM      7  C6  UNL d   1       1.138  -1.662   0.514  0.00  0.00    -0.001 A 
ENDROOT
TORSDOF 0
ENDMDL
