MODEL 1
REMARK minimizedAffinity -3.8958714
REMARK minimizedRMSD -1
REMARK  0 active torsions:
REMARK  status: ('A' for Active; 'I' for Inactive)
ROOT
ATOM      1  C   UNL d   1      -0.017   3.330  -4.720  0.00  0.00     0.078 C 
ATOM      2  C1  UNL d   1      -0.709   2.507  -3.674  0.00  0.00    -0.077 A 
ATOM      3  C2  UNL d   1      -1.778   1.668  -4.009  0.00  0.00    -0.001 A 
ATOM      4  C3  UNL d   1      -2.419   0.915  -3.024  0.00  0.00     0.003 A 
ATOM      5  C4  UNL d   1      -1.999   0.994  -1.698  0.00  0.00    -0.005 A 
ATOM      6  C5  UNL d   1      -0.936   1.828  -1.355  0.00  0.00     0.003 A 
ATOM      7  C6  UNL d   1      -0.294   2.582  -2.339  0.00  0.00    -0.001 A 
ENDROOT
TORSDOF 0
ENDMDL
