MODEL 1
REMARK minimizedAffinity -5.40897465
REMARK minimizedRMSD -1
REMARK  0 active torsions:
REMARK  status: ('A' for Active; 'I' for Inactive)
ROOT
ATOM      1  C   UNL d   1       0.258   0.990  -0.354  0.00  0.00     0.078 C 
ATOM      2  C1  UNL d   1       0.800  -0.323   0.124  0.00  0.00    -0.077 A 
ATOM      3  C2  UNL d   1       2.024  -0.813  -0.348  0.00  0.00    -0.001 A 
ATOM      4  C3  UNL d   1       2.512  -2.043   0.098  0.00  0.00     0.003 A 
ATOM      5  C4  UNL d   1       1.782  -2.793   1.018  0.00  0.00    -0.005 A 
ATOM      6  C5  UNL d   1       0.562  -2.314   1.492  0.00  0.00     0.003 A 
ATOM      7  C6  UNL d   1       0.073  -1.085   1.046  0.00  0.00    -0.001 A 
ENDROOT
TORSDOF 0
ENDMDL
