MODEL 1
REMARK minimizedAffinity 5.45507479
REMARK minimizedRMSD -1
REMARK  0 active torsions:
REMARK  status: ('A' for Active; 'I' for Inactive)
ROOT
ATOM      1  O1  BZF d   1      -5.928  -0.540   2.269  0.00  0.00    -0.204 OA
ATOM      2  C2  BZF d   1      -5.079  -0.567   3.358  0.00  0.00     0.174 A 
ATOM      3  C3  BZF d   1      -3.888  -0.014   3.050  0.00  0.00    -0.012 A 
ATOM      4  C3A BZF d   1      -4.031   0.467   1.711  0.00  0.00    -0.107 A 
ATOM      5  C4  BZF d   1      -3.195   1.126   0.855  0.00  0.00     0.055 A 
ATOM      6  C5  BZF d   1      -3.617   1.386  -0.410  0.00  0.00    -0.016 A 
ATOM      7  C6  BZF d   1      -4.864   0.998  -0.855  0.00  0.00     0.022 A 
ATOM      8  C7  BZF d   1      -5.730   0.347  -0.041  0.00  0.00     0.029 A 
ATOM      9  C7A BZF d   1      -5.320   0.111   1.249  0.00  0.00     0.058 A 
ENDROOT
TORSDOF 0
ENDMDL
