MODEL 1
REMARK minimizedAffinity 9.61090469
REMARK minimizedRMSD -1
REMARK  0 active torsions:
REMARK  status: ('A' for Active; 'I' for Inactive)
ROOT
ATOM      1  O1  BZF d   1      -5.965  -3.622   4.217  0.00  0.00    -0.204 OA
ATOM      2  C2  BZF d   1      -5.973  -3.536   5.596  0.00  0.00     0.174 A 
ATOM      3  C3  BZF d   1      -5.931  -2.248   5.995  0.00  0.00    -0.012 A 
ATOM      4  C3A BZF d   1      -5.987  -1.479   4.790  0.00  0.00    -0.107 A 
ATOM      5  C4  BZF d   1      -5.997  -0.138   4.531  0.00  0.00     0.055 A 
ATOM      6  C5  BZF d   1      -5.984   0.286   3.240  0.00  0.00    -0.016 A 
ATOM      7  C6  BZF d   1      -5.957  -0.602   2.185  0.00  0.00     0.022 A 
ATOM      8  C7  BZF d   1      -5.952  -1.941   2.391  0.00  0.00     0.029 A 
ATOM      9  C7A BZF d   1      -5.998  -2.373   3.694  0.00  0.00     0.058 A 
ENDROOT
TORSDOF 0
ENDMDL
