MODEL 1
REMARK minimizedAffinity 6.28976011
REMARK minimizedRMSD -1
REMARK  0 active torsions:
REMARK  status: ('A' for Active; 'I' for Inactive)
ROOT
ATOM      1  O1  BZF d   1      -6.000  -1.468   5.689  0.00  0.00    -0.204 OA
ATOM      2  C2  BZF d   1      -5.419  -2.720   5.652  0.00  0.00     0.174 A 
ATOM      3  C3  BZF d   1      -4.744  -2.900   4.499  0.00  0.00    -0.012 A 
ATOM      4  C3A BZF d   1      -4.836  -1.650   3.809  0.00  0.00    -0.107 A 
ATOM      5  C4  BZF d   1      -4.353  -1.199   2.615  0.00  0.00     0.055 A 
ATOM      6  C5  BZF d   1      -4.684   0.052   2.198  0.00  0.00    -0.016 A 
ATOM      7  C6  BZF d   1      -5.500   0.874   2.947  0.00  0.00     0.022 A 
ATOM      8  C7  BZF d   1      -5.999   0.472   4.141  0.00  0.00     0.029 A 
ATOM      9  C7A BZF d   1      -5.639  -0.778   4.580  0.00  0.00     0.058 A 
ENDROOT
TORSDOF 0
ENDMDL
