MODEL 1
REMARK minimizedAffinity -1.9886378
REMARK minimizedRMSD -1
REMARK  0 active torsions:
REMARK  status: ('A' for Active; 'I' for Inactive)
ROOT
ATOM      1  O1  BZF d   1      -4.696  -1.966   2.250  0.00  0.00    -0.204 OA
ATOM      2  C2  BZF d   1      -5.314  -0.731   2.231  0.00  0.00     0.174 A 
ATOM      3  C3  BZF d   1      -5.963  -0.502   3.391  0.00  0.00    -0.012 A 
ATOM      4  C3A BZF d   1      -5.659  -1.628   4.220  0.00  0.00    -0.107 A 
ATOM      5  C4  BZF d   1      -6.000  -1.973   5.497  0.00  0.00     0.055 A 
ATOM      6  C5  BZF d   1      -5.598  -3.175   5.985  0.00  0.00    -0.016 A 
ATOM      7  C6  BZF d   1      -4.861  -4.059   5.225  0.00  0.00     0.022 A 
ATOM      8  C7  BZF d   1      -4.495  -3.759   3.955  0.00  0.00     0.029 A 
ATOM      9  C7A BZF d   1      -4.871  -2.530   3.469  0.00  0.00     0.058 A 
ENDROOT
TORSDOF 0
ENDMDL
