MODEL 1
REMARK minimizedAffinity 9.5118475
REMARK minimizedRMSD -1
REMARK  0 active torsions:
REMARK  status: ('A' for Active; 'I' for Inactive)
ROOT
ATOM      1  O1  BZF d   1      -0.489   1.292  -0.520  0.00  0.00    -0.204 OA
ATOM      2  C2  BZF d   1       0.018   1.709   0.696  0.00  0.00     0.174 A 
ATOM      3  C3  BZF d   1       0.269   3.033   0.682  0.00  0.00    -0.012 A 
ATOM      4  C3A BZF d   1      -0.190   3.490  -0.594  0.00  0.00    -0.107 A 
ATOM      5  C4  BZF d   1      -0.227   4.715  -1.196  0.00  0.00     0.055 A 
ATOM      6  C5  BZF d   1      -0.670   4.809  -2.477  0.00  0.00    -0.016 A 
ATOM      7  C6  BZF d   1      -1.080   3.699  -3.187  0.00  0.00     0.022 A 
ATOM      8  C7  BZF d   1      -1.067   2.463  -2.630  0.00  0.00     0.029 A 
ATOM      9  C7A BZF d   1      -0.650   2.370  -1.325  0.00  0.00     0.058 A 
ENDROOT
TORSDOF 0
ENDMDL
