MODEL 1
REMARK minimizedAffinity 16.4657402
REMARK minimizedRMSD -1
REMARK  0 active torsions:
REMARK  status: ('A' for Active; 'I' for Inactive)
ROOT
ATOM      1  O1  BZF d   1       5.163  -4.086  -0.173  0.00  0.00    -0.204 OA
ATOM      2  C2  BZF d   1       5.782  -5.159  -0.786  0.00  0.00     0.174 A 
ATOM      3  C3  BZF d   1       4.871  -5.975  -1.354  0.00  0.00    -0.012 A 
ATOM      4  C3A BZF d   1       3.611  -5.328  -1.158  0.00  0.00    -0.107 A 
ATOM      5  C4  BZF d   1       2.330  -5.640  -1.513  0.00  0.00     0.055 A 
ATOM      6  C5  BZF d   1       1.316  -4.832  -1.105  0.00  0.00    -0.016 A 
ATOM      7  C6  BZF d   1       1.546  -3.708  -0.339  0.00  0.00     0.022 A 
ATOM      8  C7  BZF d   1       2.801  -3.355   0.033  0.00  0.00     0.029 A 
ATOM      9  C7A BZF d   1       3.830  -4.151  -0.405  0.00  0.00     0.058 A 
ENDROOT
TORSDOF 0
ENDMDL
