MODEL 1
REMARK minimizedAffinity 10.8221703
REMARK minimizedRMSD -1
REMARK  0 active torsions:
REMARK  status: ('A' for Active; 'I' for Inactive)
ROOT
ATOM      1  C   UNL d   1      -1.304  -3.887   4.658  0.00  0.00     0.023 A 
ATOM      2  C1  UNL d   1      -2.522  -3.236   4.857  0.00  0.00     0.003 A 
ATOM      3  C2  UNL d   1      -2.777  -2.019   4.222  0.00  0.00     0.048 A 
ATOM      4  C3  UNL d   1      -1.810  -1.459   3.388  0.00  0.00     0.023 A 
ATOM      5  C4  UNL d   1      -0.590  -2.107   3.186  0.00  0.00     0.048 A 
ATOM      6  C5  UNL d   1      -0.339  -3.323   3.824  0.00  0.00     0.003 A 
ATOM      7  I   UNL d   1      -2.187   0.353   2.442  0.00  0.00    -0.146 I 
ENDROOT
TORSDOF 0
ENDMDL
