MODEL 1
REMARK minimizedAffinity 5.86227465
REMARK minimizedRMSD -1
REMARK  0 active torsions:
REMARK  status: ('A' for Active; 'I' for Inactive)
ROOT
ATOM      1  C   UNL d   1      -3.062  -2.261   4.782  0.00  0.00     0.023 A 
ATOM      2  C1  UNL d   1      -4.132  -2.049   5.652  0.00  0.00     0.003 A 
ATOM      3  C2  UNL d   1      -4.971  -3.110   5.999  0.00  0.00     0.048 A 
ATOM      4  C3  UNL d   1      -4.734  -4.380   5.474  0.00  0.00     0.023 A 
ATOM      5  C4  UNL d   1      -3.664  -4.597   4.605  0.00  0.00     0.048 A 
ATOM      6  C5  UNL d   1      -2.828  -3.533   4.260  0.00  0.00     0.003 A 
ATOM      7  I   UNL d   1      -5.982  -5.960   5.990  0.00  0.00    -0.146 I 
ENDROOT
TORSDOF 0
ENDMDL
