MODEL 1
REMARK minimizedAffinity 7.38015366
REMARK minimizedRMSD -1
REMARK  0 active torsions:
REMARK  status: ('A' for Active; 'I' for Inactive)
ROOT
ATOM      1  C   UNL d   1       5.498  -4.884  -2.375  0.00  0.00     0.023 A 
ATOM      2  C1  UNL d   1       6.000  -3.755  -3.023  0.00  0.00     0.003 A 
ATOM      3  C2  UNL d   1       5.181  -3.022  -3.885  0.00  0.00     0.048 A 
ATOM      4  C3  UNL d   1       3.862  -3.423  -4.094  0.00  0.00     0.023 A 
ATOM      5  C4  UNL d   1       3.356  -4.552  -3.447  0.00  0.00     0.048 A 
ATOM      6  C5  UNL d   1       4.178  -5.282  -2.587  0.00  0.00     0.003 A 
ATOM      7  I   UNL d   1       2.642  -2.334  -5.377  0.00  0.00    -0.146 I 
ENDROOT
TORSDOF 0
ENDMDL
