MODEL 1
REMARK minimizedAffinity 3.22537255
REMARK minimizedRMSD -1
REMARK  0 active torsions:
REMARK  status: ('A' for Active; 'I' for Inactive)
ROOT
ATOM      1  C   UNL d   1      -2.373   2.016  -0.300  0.00  0.00     0.023 A 
ATOM      2  C1  UNL d   1      -1.308   1.145  -0.071  0.00  0.00     0.003 A 
ATOM      3  C2  UNL d   1      -0.673   1.128   1.172  0.00  0.00     0.048 A 
ATOM      4  C3  UNL d   1      -1.109   1.984   2.183  0.00  0.00     0.023 A 
ATOM      5  C4  UNL d   1      -2.174   2.858   1.958  0.00  0.00     0.048 A 
ATOM      6  C5  UNL d   1      -2.805   2.872   0.713  0.00  0.00     0.003 A 
ATOM      7  I   UNL d   1      -0.166   1.960   4.035  0.00  0.00    -0.146 I 
ENDROOT
TORSDOF 0
ENDMDL
