MODEL 1
REMARK minimizedAffinity 6.07168674
REMARK minimizedRMSD -1
REMARK  0 active torsions:
REMARK  status: ('A' for Active; 'I' for Inactive)
ROOT
ATOM      1  C   UNL d   1       4.849  -3.184  -3.934  0.00  0.00     0.023 A 
ATOM      2  C1  UNL d   1       5.994  -2.999  -3.159  0.00  0.00     0.003 A 
ATOM      3  C2  UNL d   1       5.999  -3.378  -1.815  0.00  0.00     0.048 A 
ATOM      4  C3  UNL d   1       4.855  -3.943  -1.253  0.00  0.00     0.023 A 
ATOM      5  C4  UNL d   1       3.707  -4.130  -2.024  0.00  0.00     0.048 A 
ATOM      6  C5  UNL d   1       3.707  -3.749  -3.367  0.00  0.00     0.003 A 
ATOM      7  I   UNL d   1       4.859  -4.508   0.747  0.00  0.00    -0.146 I 
ENDROOT
TORSDOF 0
ENDMDL
