MODEL 1
REMARK minimizedAffinity 5.06446123
REMARK minimizedRMSD -1
REMARK  0 active torsions:
REMARK  status: ('A' for Active; 'I' for Inactive)
ROOT
ATOM      1  C   UNL d   1      -2.031   2.646   1.811  0.00  0.00     0.023 A 
ATOM      2  C1  UNL d   1      -0.898   1.994   2.298  0.00  0.00     0.003 A 
ATOM      3  C2  UNL d   1       0.002   1.400   1.411  0.00  0.00     0.048 A 
ATOM      4  C3  UNL d   1      -0.236   1.462   0.038  0.00  0.00     0.023 A 
ATOM      5  C4  UNL d   1      -1.368   2.115  -0.453  0.00  0.00     0.048 A 
ATOM      6  C5  UNL d   1      -2.266   2.706   0.438  0.00  0.00     0.003 A 
ATOM      7  I   UNL d   1       1.102   0.579  -1.284  0.00  0.00    -0.146 I 
ENDROOT
TORSDOF 0
ENDMDL
