MODEL 1
REMARK minimizedAffinity 7.80859709
REMARK minimizedRMSD -1
REMARK  0 active torsions:
REMARK  status: ('A' for Active; 'I' for Inactive)
ROOT
ATOM      1  C   UNL d   1      -2.147   2.449   2.414  0.00  0.00     0.023 A 
ATOM      2  C1  UNL d   1      -2.655   2.595   1.123  0.00  0.00     0.003 A 
ATOM      3  C2  UNL d   1      -1.964   2.058   0.034  0.00  0.00     0.048 A 
ATOM      4  C3  UNL d   1      -0.766   1.376   0.244  0.00  0.00     0.023 A 
ATOM      5  C4  UNL d   1      -0.255   1.227   1.534  0.00  0.00     0.048 A 
ATOM      6  C5  UNL d   1      -0.948   1.766   2.619  0.00  0.00     0.003 A 
ATOM      7  I   UNL d   1       0.263   0.575  -1.374  0.00  0.00    -0.146 I 
ENDROOT
TORSDOF 0
ENDMDL
