MODEL 1
REMARK minimizedAffinity 10.2447968
REMARK minimizedRMSD -1
REMARK  0 active torsions:
REMARK  status: ('A' for Active; 'I' for Inactive)
ROOT
ATOM      1  C   UNL d   1      -2.627   2.514   2.005  0.00  0.00     0.023 A 
ATOM      2  C1  UNL d   1      -2.996   2.642   0.666  0.00  0.00     0.003 A 
ATOM      3  C2  UNL d   1      -2.098   2.292  -0.344  0.00  0.00     0.048 A 
ATOM      4  C3  UNL d   1      -0.832   1.814  -0.008  0.00  0.00     0.023 A 
ATOM      5  C4  UNL d   1      -0.458   1.683   1.331  0.00  0.00     0.048 A 
ATOM      6  C5  UNL d   1      -1.360   2.034   2.337  0.00  0.00     0.003 A 
ATOM      7  I   UNL d   1       0.507   1.292  -1.509  0.00  0.00    -0.146 I 
ENDROOT
TORSDOF 0
ENDMDL
