MODEL 1
REMARK minimizedAffinity 11.284152
REMARK minimizedRMSD -1
REMARK  0 active torsions:
REMARK  status: ('A' for Active; 'I' for Inactive)
ROOT
ATOM      1  C   UNL d   1       5.385  -4.861  -1.913  0.00  0.00     0.023 A 
ATOM      2  C1  UNL d   1       6.000  -3.931  -2.751  0.00  0.00     0.003 A 
ATOM      3  C2  UNL d   1       5.299  -3.395  -3.834  0.00  0.00     0.048 A 
ATOM      4  C3  UNL d   1       3.984  -3.793  -4.072  0.00  0.00     0.023 A 
ATOM      5  C4  UNL d   1       3.365  -4.722  -3.235  0.00  0.00     0.048 A 
ATOM      6  C5  UNL d   1       4.069  -5.256  -2.154  0.00  0.00     0.003 A 
ATOM      7  I   UNL d   1       2.939  -2.996  -5.682  0.00  0.00    -0.146 I 
ENDROOT
TORSDOF 0
ENDMDL
