MODEL 1
REMARK minimizedAffinity 2.95011187
REMARK minimizedRMSD -1
REMARK  0 active torsions:
REMARK  status: ('A' for Active; 'I' for Inactive)
ROOT
ATOM      1  C   UNL d   1       4.906  -1.617   1.058  0.00  0.00     0.023 A 
ATOM      2  C1  UNL d   1       5.871  -2.463   0.511  0.00  0.00     0.003 A 
ATOM      3  C2  UNL d   1       5.613  -3.137  -0.684  0.00  0.00     0.048 A 
ATOM      4  C3  UNL d   1       4.389  -2.960  -1.328  0.00  0.00     0.023 A 
ATOM      5  C4  UNL d   1       3.420  -2.115  -0.784  0.00  0.00     0.048 A 
ATOM      6  C5  UNL d   1       3.682  -1.443   0.412  0.00  0.00     0.003 A 
ATOM      7  I   UNL d   1       4.003  -3.963  -3.107  0.00  0.00    -0.146 I 
ENDROOT
TORSDOF 0
ENDMDL
