MODEL 1
REMARK minimizedAffinity 11.4206982
REMARK minimizedRMSD -1
REMARK  0 active torsions:
REMARK  status: ('A' for Active; 'I' for Inactive)
ROOT
ATOM      1  C   UNL d   1      -0.722   2.210   1.584  0.00  0.00     0.023 A 
ATOM      2  C1  UNL d   1      -2.028   1.834   1.898  0.00  0.00     0.003 A 
ATOM      3  C2  UNL d   1      -2.263   0.665   2.625  0.00  0.00     0.048 A 
ATOM      4  C3  UNL d   1      -1.188  -0.123   3.034  0.00  0.00     0.023 A 
ATOM      5  C4  UNL d   1       0.121   0.250   2.723  0.00  0.00     0.048 A 
ATOM      6  C5  UNL d   1       0.351   1.419   1.996  0.00  0.00     0.003 A 
ATOM      7  I   UNL d   1      -1.536  -1.864   4.116  0.00  0.00    -0.146 I 
ENDROOT
TORSDOF 0
ENDMDL
