MODEL 1
REMARK minimizedAffinity 10.4098063
REMARK minimizedRMSD -1
REMARK  0 active torsions:
REMARK  status: ('A' for Active; 'I' for Inactive)
ROOT
ATOM      1  C   UNL d   1       1.834   1.822  -2.792  0.00  0.00     0.023 A 
ATOM      2  C1  UNL d   1       0.856   2.050  -1.824  0.00  0.00     0.003 A 
ATOM      3  C2  UNL d   1      -0.433   1.543  -2.000  0.00  0.00     0.048 A 
ATOM      4  C3  UNL d   1      -0.737   0.808  -3.145  0.00  0.00     0.023 A 
ATOM      5  C4  UNL d   1       0.239   0.577  -4.116  0.00  0.00     0.048 A 
ATOM      6  C5  UNL d   1       1.526   1.086  -3.936  0.00  0.00     0.003 A 
ATOM      7  I   UNL d   1      -2.656   0.053  -3.409  0.00  0.00    -0.146 I 
ENDROOT
TORSDOF 0
ENDMDL
