MODEL 1
REMARK minimizedAffinity 5.73093319
REMARK minimizedRMSD -1
REMARK  0 active torsions:
REMARK  status: ('A' for Active; 'I' for Inactive)
ROOT
ATOM      1  C   UNL d   1       0.438   0.583  -3.561  0.00  0.00     0.023 A 
ATOM      2  C1  UNL d   1      -0.480  -0.115  -2.777  0.00  0.00     0.003 A 
ATOM      3  C2  UNL d   1      -0.772   0.322  -1.484  0.00  0.00     0.048 A 
ATOM      4  C3  UNL d   1      -0.141   1.459  -0.980  0.00  0.00     0.023 A 
ATOM      5  C4  UNL d   1       0.778   2.162  -1.761  0.00  0.00     0.048 A 
ATOM      6  C5  UNL d   1       1.067   1.720  -3.053  0.00  0.00     0.003 A 
ATOM      7  I   UNL d   1      -0.573   2.112   0.945  0.00  0.00    -0.146 I 
ENDROOT
TORSDOF 0
ENDMDL
