MODEL 1
REMARK minimizedAffinity 7.8102808
REMARK minimizedRMSD -1
REMARK  0 active torsions:
REMARK  status: ('A' for Active; 'I' for Inactive)
ROOT
ATOM      1  C   UNL d   1       1.577   1.508  -1.909  0.00  0.00     0.023 A 
ATOM      2  C1  UNL d   1       0.522   2.382  -1.644  0.00  0.00     0.003 A 
ATOM      3  C2  UNL d   1      -0.797   1.959  -1.815  0.00  0.00     0.048 A 
ATOM      4  C3  UNL d   1      -1.056   0.660  -2.250  0.00  0.00     0.023 A 
ATOM      5  C4  UNL d   1      -0.004  -0.219  -2.516  0.00  0.00     0.048 A 
ATOM      6  C5  UNL d   1       1.314   0.209  -2.344  0.00  0.00     0.003 A 
ATOM      7  I   UNL d   1      -3.019   0.027  -2.505  0.00  0.00    -0.146 I 
ENDROOT
TORSDOF 0
ENDMDL
