MODEL 1
REMARK minimizedAffinity 6.48320341
REMARK minimizedRMSD -1
REMARK  0 active torsions:
REMARK  status: ('A' for Active; 'I' for Inactive)
ROOT
ATOM      1  C   UNL d   1      -0.384   2.781   2.548  0.00  0.00     0.023 A 
ATOM      2  C1  UNL d   1      -1.491   2.221   1.911  0.00  0.00     0.003 A 
ATOM      3  C2  UNL d   1      -1.865   0.904   2.186  0.00  0.00     0.048 A 
ATOM      4  C3  UNL d   1      -1.127   0.153   3.101  0.00  0.00     0.023 A 
ATOM      5  C4  UNL d   1      -0.019   0.709   3.741  0.00  0.00     0.048 A 
ATOM      6  C5  UNL d   1       0.351   2.026   3.462  0.00  0.00     0.003 A 
ATOM      7  I   UNL d   1      -1.682  -1.808   3.513  0.00  0.00    -0.146 I 
ENDROOT
TORSDOF 0
ENDMDL
