MODEL 1
REMARK minimizedAffinity 13.3626385
REMARK minimizedRMSD -1
REMARK  0 active torsions:
REMARK  status: ('A' for Active; 'I' for Inactive)
ROOT
ATOM      1  C   UNL d   1      -0.293   0.061  -3.349  0.00  0.00     0.023 A 
ATOM      2  C1  UNL d   1      -1.524   0.468  -2.835  0.00  0.00     0.003 A 
ATOM      3  C2  UNL d   1      -1.583   1.152  -1.618  0.00  0.00     0.048 A 
ATOM      4  C3  UNL d   1      -0.407   1.425  -0.922  0.00  0.00     0.023 A 
ATOM      5  C4  UNL d   1       0.828   1.021  -1.432  0.00  0.00     0.048 A 
ATOM      6  C5  UNL d   1       0.881   0.337  -2.648  0.00  0.00     0.003 A 
ATOM      7  I   UNL d   1      -0.492   2.443   0.889  0.00  0.00    -0.146 I 
ENDROOT
TORSDOF 0
ENDMDL
