MODEL 1
REMARK minimizedAffinity 10.7039728
REMARK minimizedRMSD -1
REMARK  0 active torsions:
REMARK  status: ('A' for Active; 'I' for Inactive)
ROOT
ATOM      1  C   UNL d   1       0.116   2.592   1.141  0.00  0.00     0.023 A 
ATOM      2  C1  UNL d   1       0.826   3.497   0.351  0.00  0.00     0.003 A 
ATOM      3  C2  UNL d   1       0.312   3.904  -0.881  0.00  0.00     0.048 A 
ATOM      4  C3  UNL d   1      -0.914   3.404  -1.318  0.00  0.00     0.023 A 
ATOM      5  C4  UNL d   1      -1.629   2.499  -0.531  0.00  0.00     0.048 A 
ATOM      6  C5  UNL d   1      -1.111   2.094   0.700  0.00  0.00     0.003 A 
ATOM      7  I   UNL d   1      -1.682   4.008  -3.153  0.00  0.00    -0.146 I 
ENDROOT
TORSDOF 0
ENDMDL
