MODEL 1
REMARK minimizedAffinity -3.80527949
REMARK minimizedRMSD -1
REMARK  0 active torsions:
REMARK  status: ('A' for Active; 'I' for Inactive)
ROOT
ATOM      1  C   UNL d   1       1.191   2.017  -1.353  0.00  0.00     0.077 C 
ATOM      2  C1  UNL d   1       0.401   1.127  -0.440  0.00  0.00    -0.074 A 
ATOM      3  C2  UNL d   1      -0.188   1.633   0.724  0.00  0.00    -0.005 A 
ATOM      4  C3  UNL d   1      -0.929   0.796   1.558  0.00  0.00     0.006 A 
ATOM      5  C4  UNL d   1      -1.087  -0.553   1.239  0.00  0.00    -0.005 A 
ATOM      6  C5  UNL d   1      -0.506  -1.076   0.080  0.00  0.00    -0.074 A 
ATOM      7  C6  UNL d   1      -0.675  -2.522  -0.283  0.00  0.00     0.077 C 
ATOM      8  C7  UNL d   1       0.230  -0.227  -0.758  0.00  0.00    -0.001 A 
ENDROOT
TORSDOF 0
ENDMDL
