MODEL 1
REMARK minimizedAffinity -4.66748476
REMARK minimizedRMSD -1
REMARK  0 active torsions:
REMARK  status: ('A' for Active; 'I' for Inactive)
ROOT
ATOM      1  C   UNL d   1      -0.568  -0.668  -0.753  0.00  0.00     0.077 C 
ATOM      2  C1  UNL d   1       0.132   0.617  -0.421  0.00  0.00    -0.074 A 
ATOM      3  C2  UNL d   1      -0.530   1.844  -0.528  0.00  0.00    -0.005 A 
ATOM      4  C3  UNL d   1       0.131   3.030  -0.207  0.00  0.00     0.006 A 
ATOM      5  C4  UNL d   1       1.458   3.000   0.225  0.00  0.00    -0.005 A 
ATOM      6  C5  UNL d   1       2.135   1.782   0.339  0.00  0.00    -0.074 A 
ATOM      7  C6  UNL d   1       3.558   1.731   0.811  0.00  0.00     0.077 C 
ATOM      8  C7  UNL d   1       1.462   0.594   0.021  0.00  0.00    -0.001 A 
ENDROOT
TORSDOF 0
ENDMDL
