MODEL 1
REMARK minimizedAffinity -2.8394649
REMARK minimizedRMSD -1
REMARK  0 active torsions:
REMARK  status: ('A' for Active; 'I' for Inactive)
ROOT
ATOM      1  C   UNL d   1      -0.116   3.041  -0.769  0.00  0.00     0.077 C 
ATOM      2  C1  UNL d   1      -0.412   1.661  -0.262  0.00  0.00    -0.074 A 
ATOM      3  C2  UNL d   1      -1.199   1.468   0.878  0.00  0.00    -0.005 A 
ATOM      4  C3  UNL d   1      -1.474   0.178   1.333  0.00  0.00     0.006 A 
ATOM      5  C4  UNL d   1      -0.966  -0.929   0.652  0.00  0.00    -0.005 A 
ATOM      6  C5  UNL d   1      -0.179  -0.756  -0.490  0.00  0.00    -0.074 A 
ATOM      7  C6  UNL d   1       0.366  -1.936  -1.238  0.00  0.00     0.077 C 
ATOM      8  C7  UNL d   1       0.087   0.543  -0.944  0.00  0.00    -0.001 A 
ENDROOT
TORSDOF 0
ENDMDL
