MODEL 1
REMARK minimizedAffinity -3.4560194
REMARK minimizedRMSD -1
REMARK  0 active torsions:
REMARK  status: ('A' for Active; 'I' for Inactive)
ROOT
ATOM      1  C   UNL d   1       0.965   3.037  -0.751  0.00  0.00     0.077 C 
ATOM      2  C1  UNL d   1       0.163   1.904  -0.182  0.00  0.00    -0.074 A 
ATOM      3  C2  UNL d   1      -0.811   2.133   0.794  0.00  0.00    -0.005 A 
ATOM      4  C3  UNL d   1      -1.556   1.070   1.307  0.00  0.00     0.006 A 
ATOM      5  C4  UNL d   1      -1.333  -0.229   0.849  0.00  0.00    -0.005 A 
ATOM      6  C5  UNL d   1      -0.364  -0.477  -0.128  0.00  0.00    -0.074 A 
ATOM      7  C6  UNL d   1      -0.119  -1.866  -0.638  0.00  0.00     0.077 C 
ATOM      8  C7  UNL d   1       0.375   0.597  -0.643  0.00  0.00    -0.001 A 
ENDROOT
TORSDOF 0
ENDMDL
