MODEL 1
REMARK minimizedAffinity -4.14829731
REMARK minimizedRMSD -1
REMARK  0 active torsions:
REMARK  status: ('A' for Active; 'I' for Inactive)
ROOT
ATOM      1  C   UNL d   1       0.663   3.470  -0.671  0.00  0.00     0.077 C 
ATOM      2  C1  UNL d   1       0.148   2.194  -0.073  0.00  0.00    -0.074 A 
ATOM      3  C2  UNL d   1      -0.910   2.205   0.841  0.00  0.00    -0.005 A 
ATOM      4  C3  UNL d   1      -1.385   1.010   1.382  0.00  0.00     0.006 A 
ATOM      5  C4  UNL d   1      -0.807  -0.206   1.014  0.00  0.00    -0.005 A 
ATOM      6  C5  UNL d   1       0.251  -0.236   0.100  0.00  0.00    -0.074 A 
ATOM      7  C6  UNL d   1       0.876  -1.535  -0.314  0.00  0.00     0.077 C 
ATOM      8  C7  UNL d   1       0.717   0.968  -0.444  0.00  0.00    -0.001 A 
ENDROOT
TORSDOF 0
ENDMDL
