MODEL 1
REMARK minimizedAffinity -4.57454157
REMARK minimizedRMSD -1
REMARK  0 active torsions:
REMARK  status: ('A' for Active; 'I' for Inactive)
ROOT
ATOM      1  C   UNL d   1      -0.457   2.933  -0.145  0.00  0.00     0.077 C 
ATOM      2  C1  UNL d   1       0.337   1.662  -0.101  0.00  0.00    -0.074 A 
ATOM      3  C2  UNL d   1       1.704   1.678   0.194  0.00  0.00    -0.005 A 
ATOM      4  C3  UNL d   1       2.428   0.486   0.239  0.00  0.00     0.006 A 
ATOM      5  C4  UNL d   1       1.793  -0.731  -0.009  0.00  0.00    -0.005 A 
ATOM      6  C5  UNL d   1       0.427  -0.767  -0.304  0.00  0.00    -0.074 A 
ATOM      7  C6  UNL d   1      -0.273  -2.068  -0.564  0.00  0.00     0.077 C 
ATOM      8  C7  UNL d   1      -0.295   0.434  -0.342  0.00  0.00    -0.001 A 
ENDROOT
TORSDOF 0
ENDMDL
