MODEL 1
REMARK minimizedAffinity -3.64111638
REMARK minimizedRMSD -1
REMARK  0 active torsions:
REMARK  status: ('A' for Active; 'I' for Inactive)
ROOT
ATOM      1  C   UNL d   1       0.309   2.945  -0.333  0.00  0.00     0.077 C 
ATOM      2  C1  UNL d   1      -0.003   1.498  -0.093  0.00  0.00    -0.074 A 
ATOM      3  C2  UNL d   1      -0.745   1.098   1.024  0.00  0.00    -0.005 A 
ATOM      4  C3  UNL d   1      -1.035  -0.251   1.229  0.00  0.00     0.006 A 
ATOM      5  C4  UNL d   1      -0.588  -1.212   0.322  0.00  0.00    -0.005 A 
ATOM      6  C5  UNL d   1       0.155  -0.831  -0.801  0.00  0.00    -0.074 A 
ATOM      7  C6  UNL d   1       0.635  -1.850  -1.791  0.00  0.00     0.077 C 
ATOM      8  C7  UNL d   1       0.437   0.527  -1.004  0.00  0.00    -0.001 A 
ENDROOT
TORSDOF 0
ENDMDL
