MODEL 1
REMARK minimizedAffinity -3.01619124
REMARK minimizedRMSD -1
REMARK  0 active torsions:
REMARK  status: ('A' for Active; 'I' for Inactive)
ROOT
ATOM      1  C   UNL d   1      -0.394  -0.977  -0.252  0.00  0.00     0.077 C 
ATOM      2  C1  UNL d   1      -0.053   0.465  -0.020  0.00  0.00    -0.074 A 
ATOM      3  C2  UNL d   1       0.806   1.149  -0.886  0.00  0.00    -0.005 A 
ATOM      4  C3  UNL d   1       1.107   2.493  -0.663  0.00  0.00     0.006 A 
ATOM      5  C4  UNL d   1       0.552   3.165   0.427  0.00  0.00    -0.005 A 
ATOM      6  C5  UNL d   1      -0.310   2.498   1.304  0.00  0.00    -0.074 A 
ATOM      7  C6  UNL d   1      -0.922   3.208   2.474  0.00  0.00     0.077 C 
ATOM      8  C7  UNL d   1      -0.612   1.150   1.069  0.00  0.00    -0.001 A 
ENDROOT
TORSDOF 0
ENDMDL
