MODEL 1
REMARK minimizedAffinity -3.53176737
REMARK minimizedRMSD -1
REMARK  0 active torsions:
REMARK  status: ('A' for Active; 'I' for Inactive)
ROOT
ATOM      1  C   UNL d   1       1.949   2.014  -0.722  0.00  0.00     0.077 C 
ATOM      2  C1  UNL d   1       0.806   1.196  -0.200  0.00  0.00    -0.074 A 
ATOM      3  C2  UNL d   1      -0.225   1.788   0.537  0.00  0.00    -0.005 A 
ATOM      4  C3  UNL d   1      -1.286   1.016   1.009  0.00  0.00     0.006 A 
ATOM      5  C4  UNL d   1      -1.328  -0.354   0.748  0.00  0.00    -0.005 A 
ATOM      6  C5  UNL d   1      -0.307  -0.964   0.013  0.00  0.00    -0.074 A 
ATOM      7  C6  UNL d   1      -0.342  -2.434  -0.285  0.00  0.00     0.077 C 
ATOM      8  C7  UNL d   1       0.753  -0.180  -0.464  0.00  0.00    -0.001 A 
ENDROOT
TORSDOF 0
ENDMDL
