MODEL 1
REMARK minimizedAffinity 1.0736413
REMARK minimizedRMSD -1
REMARK  0 active torsions:
REMARK  status: ('A' for Active; 'I' for Inactive)
ROOT
ATOM      1  C   UNL d   1      -1.240   2.584   1.126  0.00  0.00     0.077 C 
ATOM      2  C1  UNL d   1      -0.322   1.508   0.626  0.00  0.00    -0.074 A 
ATOM      3  C2  UNL d   1       1.020   1.469   1.017  0.00  0.00    -0.005 A 
ATOM      4  C3  UNL d   1       1.859   0.457   0.552  0.00  0.00     0.006 A 
ATOM      5  C4  UNL d   1       1.366  -0.525  -0.307  0.00  0.00    -0.005 A 
ATOM      6  C5  UNL d   1       0.026  -0.503  -0.709  0.00  0.00    -0.074 A 
ATOM      7  C6  UNL d   1      -0.523  -1.557  -1.624  0.00  0.00     0.077 C 
ATOM      8  C7  UNL d   1      -0.813   0.513  -0.231  0.00  0.00    -0.001 A 
ENDROOT
TORSDOF 0
ENDMDL
