MODEL 1
REMARK minimizedAffinity -3.43999505
REMARK minimizedRMSD -1
REMARK  0 active torsions:
REMARK  status: ('A' for Active; 'I' for Inactive)
ROOT
ATOM      1  C   UNL d   1       1.297  -0.926  -1.940  0.00  0.00     0.077 C 
ATOM      2  C1  UNL d   1       0.645  -0.012  -0.947  0.00  0.00    -0.074 A 
ATOM      3  C2  UNL d   1       0.006  -0.523   0.188  0.00  0.00    -0.005 A 
ATOM      4  C3  UNL d   1      -0.589   0.341   1.108  0.00  0.00     0.006 A 
ATOM      5  C4  UNL d   1      -0.550   1.720   0.904  0.00  0.00    -0.005 A 
ATOM      6  C5  UNL d   1       0.085   2.249  -0.224  0.00  0.00    -0.074 A 
ATOM      7  C6  UNL d   1       0.144   3.730  -0.454  0.00  0.00     0.077 C 
ATOM      8  C7  UNL d   1       0.686   1.376  -1.141  0.00  0.00    -0.001 A 
ENDROOT
TORSDOF 0
ENDMDL
