MODEL 1
REMARK minimizedAffinity -4.09804583
REMARK minimizedRMSD -1
REMARK  0 active torsions:
REMARK  status: ('A' for Active; 'I' for Inactive)
ROOT
ATOM      1  C   UNL d   1       3.394  -0.286   0.854  0.00  0.00     0.077 C 
ATOM      2  C1  UNL d   1       1.995   0.079   0.456  0.00  0.00    -0.074 A 
ATOM      3  C2  UNL d   1       1.021  -0.906   0.268  0.00  0.00    -0.005 A 
ATOM      4  C3  UNL d   1      -0.279  -0.550  -0.093  0.00  0.00     0.006 A 
ATOM      5  C4  UNL d   1      -0.617   0.792  -0.270  0.00  0.00    -0.005 A 
ATOM      6  C5  UNL d   1       0.344   1.791  -0.085  0.00  0.00    -0.074 A 
ATOM      7  C6  UNL d   1      -0.004   3.239  -0.261  0.00  0.00     0.077 C 
ATOM      8  C7  UNL d   1       1.646   1.426   0.285  0.00  0.00    -0.001 A 
ENDROOT
TORSDOF 0
ENDMDL
