MODEL 1
REMARK minimizedAffinity -4.19433308
REMARK minimizedRMSD -1
REMARK  0 active torsions:
REMARK  status: ('A' for Active; 'I' for Inactive)
ROOT
ATOM      1  C   UNL d   1       1.874  -1.087   0.678  0.00  0.00     0.077 C 
ATOM      2  C1  UNL d   1       0.833  -0.023   0.490  0.00  0.00    -0.074 A 
ATOM      3  C2  UNL d   1      -0.520  -0.294   0.718  0.00  0.00    -0.005 A 
ATOM      4  C3  UNL d   1      -1.476   0.708   0.548  0.00  0.00     0.006 A 
ATOM      5  C4  UNL d   1      -1.088   1.988   0.150  0.00  0.00    -0.005 A 
ATOM      6  C5  UNL d   1       0.260   2.277  -0.081  0.00  0.00    -0.074 A 
ATOM      7  C6  UNL d   1       0.694   3.651  -0.501  0.00  0.00     0.077 C 
ATOM      8  C7  UNL d   1       1.215   1.267   0.098  0.00  0.00    -0.001 A 
ENDROOT
TORSDOF 0
ENDMDL
