MODEL 1
REMARK minimizedAffinity -1.70111275
REMARK minimizedRMSD -1
REMARK  0 active torsions:
REMARK  status: ('A' for Active; 'I' for Inactive)
ROOT
ATOM      1  C   UNL d   1       3.539   1.428   0.719  0.00  0.00     0.077 C 
ATOM      2  C1  UNL d   1       2.050   1.252   0.701  0.00  0.00    -0.074 A 
ATOM      3  C2  UNL d   1       1.196   2.335   0.935  0.00  0.00    -0.005 A 
ATOM      4  C3  UNL d   1      -0.188   2.158   0.906  0.00  0.00     0.006 A 
ATOM      5  C4  UNL d   1      -0.730   0.900   0.643  0.00  0.00    -0.005 A 
ATOM      6  C5  UNL d   1       0.108  -0.194   0.406  0.00  0.00    -0.074 A 
ATOM      7  C6  UNL d   1      -0.458  -1.551   0.112  0.00  0.00     0.077 C 
ATOM      8  C7  UNL d   1       1.497  -0.007   0.430  0.00  0.00    -0.001 A 
ENDROOT
TORSDOF 0
ENDMDL
