MODEL 1
REMARK minimizedAffinity 2.73680711
REMARK minimizedRMSD -1
REMARK  0 active torsions:
REMARK  status: ('A' for Active; 'I' for Inactive)
ROOT
ATOM      1  C1  BNZ d   1       2.678  -0.556  -1.163  0.00  0.00     0.000 A 
ATOM      2  C2  BNZ d   1       1.915  -0.804  -0.053  0.00  0.00     0.000 A 
ATOM      3  C3  BNZ d   1       2.499  -1.019   1.164  0.00  0.00     0.000 A 
ATOM      4  C4  BNZ d   1       3.844  -1.027   1.262  0.00  0.00     0.000 A 
ATOM      5  C5  BNZ d   1       4.628  -0.788   0.150  0.00  0.00     0.000 A 
ATOM      6  C6  BNZ d   1       4.035  -0.533  -1.065  0.00  0.00     0.000 A 
ENDROOT
TORSDOF 0
ENDMDL
