MODEL 1
REMARK minimizedAffinity -0.435905486
REMARK minimizedRMSD -1
REMARK  0 active torsions:
REMARK  status: ('A' for Active; 'I' for Inactive)
ROOT
ATOM      1  C1  BNZ d   1       1.921   1.873  -1.024  0.00  0.00     0.000 A 
ATOM      2  C2  BNZ d   1       1.904   1.469   0.285  0.00  0.00     0.000 A 
ATOM      3  C3  BNZ d   1       1.198   0.362   0.666  0.00  0.00     0.000 A 
ATOM      4  C4  BNZ d   1       0.479  -0.315  -0.252  0.00  0.00     0.000 A 
ATOM      5  C5  BNZ d   1       0.478   0.086  -1.573  0.00  0.00     0.000 A 
ATOM      6  C6  BNZ d   1       1.221   1.177  -1.961  0.00  0.00     0.000 A 
ENDROOT
TORSDOF 0
ENDMDL
