MODEL 1
REMARK minimizedAffinity 7.60349798
REMARK minimizedRMSD -1
REMARK  0 active torsions:
REMARK  status: ('A' for Active; 'I' for Inactive)
ROOT
ATOM      1  C1  BNZ d   1      -0.204   0.050   2.305  0.00  0.00     0.000 A 
ATOM      2  C2  BNZ d   1       0.220  -1.247   2.424  0.00  0.00     0.000 A 
ATOM      3  C3  BNZ d   1       1.303  -1.562   3.196  0.00  0.00     0.000 A 
ATOM      4  C4  BNZ d   1       1.985  -0.576   3.815  0.00  0.00     0.000 A 
ATOM      5  C5  BNZ d   1       1.576   0.737   3.698  0.00  0.00     0.000 A 
ATOM      6  C6  BNZ d   1       0.462   1.046   2.951  0.00  0.00     0.000 A 
ENDROOT
TORSDOF 0
ENDMDL
