MODEL 1
REMARK minimizedAffinity 2.93922234
REMARK minimizedRMSD -1
REMARK  0 active torsions:
REMARK  status: ('A' for Active; 'I' for Inactive)
ROOT
ATOM      1  C1  BNZ d   1       1.427   0.566   3.196  0.00  0.00     0.000 A 
ATOM      2  C2  BNZ d   1       2.144  -0.428   3.807  0.00  0.00     0.000 A 
ATOM      3  C3  BNZ d   1       1.547  -1.607   4.156  0.00  0.00     0.000 A 
ATOM      4  C4  BNZ d   1       0.228  -1.775   3.930  0.00  0.00     0.000 A 
ATOM      5  C5  BNZ d   1      -0.510  -0.778   3.324  0.00  0.00     0.000 A 
ATOM      6  C6  BNZ d   1       0.102   0.392   2.939  0.00  0.00     0.000 A 
ENDROOT
TORSDOF 0
ENDMDL
