MODEL 1
REMARK minimizedAffinity 3.92414284
REMARK minimizedRMSD -1
REMARK  0 active torsions:
REMARK  status: ('A' for Active; 'I' for Inactive)
ROOT
ATOM      1  C1  BNZ d   1       0.774  -0.918   3.224  0.00  0.00     0.000 A 
ATOM      2  C2  BNZ d   1       1.116  -2.061   3.896  0.00  0.00     0.000 A 
ATOM      3  C3  BNZ d   1       1.946  -2.014   4.981  0.00  0.00     0.000 A 
ATOM      4  C4  BNZ d   1       2.464  -0.830   5.369  0.00  0.00     0.000 A 
ATOM      5  C5  BNZ d   1       2.136   0.330   4.696  0.00  0.00     0.000 A 
ATOM      6  C6  BNZ d   1       1.270   0.284   3.628  0.00  0.00     0.000 A 
ENDROOT
TORSDOF 0
ENDMDL
