MODEL 1
REMARK minimizedAffinity 1.07940292
REMARK minimizedRMSD -1
REMARK  0 active torsions:
REMARK  status: ('A' for Active; 'I' for Inactive)
ROOT
ATOM      1  C1  BNZ d   1       1.069   0.133   2.059  0.00  0.00     0.000 A 
ATOM      2  C2  BNZ d   1      -0.269  -0.134   2.174  0.00  0.00     0.000 A 
ATOM      3  C3  BNZ d   1      -1.106   0.740   2.810  0.00  0.00     0.000 A 
ATOM      4  C4  BNZ d   1      -0.597   1.859   3.365  0.00  0.00     0.000 A 
ATOM      5  C5  BNZ d   1       0.751   2.138   3.266  0.00  0.00     0.000 A 
ATOM      6  C6  BNZ d   1       1.584   1.275   2.592  0.00  0.00     0.000 A 
ENDROOT
TORSDOF 0
ENDMDL
