MODEL 1
REMARK minimizedAffinity 7.57863235
REMARK minimizedRMSD -1
REMARK  0 active torsions:
REMARK  status: ('A' for Active; 'I' for Inactive)
ROOT
ATOM      1  C1  BNZ d   1       1.890   0.475  -0.798  0.00  0.00     0.000 A 
ATOM      2  C2  BNZ d   1       1.567  -0.805  -0.433  0.00  0.00     0.000 A 
ATOM      3  C3  BNZ d   1       1.719  -1.223   0.859  0.00  0.00     0.000 A 
ATOM      4  C4  BNZ d   1       2.230  -0.375   1.775  0.00  0.00     0.000 A 
ATOM      5  C5  BNZ d   1       2.569   0.916   1.420  0.00  0.00     0.000 A 
ATOM      6  C6  BNZ d   1       2.378   1.345   0.127  0.00  0.00     0.000 A 
ENDROOT
TORSDOF 0
ENDMDL
