MODEL 1
REMARK minimizedAffinity 3.44547677
REMARK minimizedRMSD -1
REMARK  0 active torsions:
REMARK  status: ('A' for Active; 'I' for Inactive)
ROOT
ATOM      1  C1  BNZ d   1      -6.000   4.499   1.224  0.00  0.00     0.000 A 
ATOM      2  C2  BNZ d   1      -6.000   5.772   0.719  0.00  0.00     0.000 A 
ATOM      3  C3  BNZ d   1      -5.824   5.995  -0.618  0.00  0.00     0.000 A 
ATOM      4  C4  BNZ d   1      -5.609   4.949  -1.441  0.00  0.00     0.000 A 
ATOM      5  C5  BNZ d   1      -5.597   3.660  -0.946  0.00  0.00     0.000 A 
ATOM      6  C6  BNZ d   1      -5.813   3.437   0.394  0.00  0.00     0.000 A 
ENDROOT
TORSDOF 0
ENDMDL
