MODEL 1
REMARK minimizedAffinity -0.598148525
REMARK minimizedRMSD -1
REMARK  1 active torsions:
REMARK  status: ('A' for Active; 'I' for Inactive)
REMARK    1  A    between atoms: N_2  and  C1_3 
ROOT
ATOM      1  C1  UNL d   1       2.693  -0.839   1.080  0.00  0.00     0.143 A 
ATOM      2  C2  UNL d   1       3.424  -1.298   2.181  0.00  0.00    -0.057 A 
ATOM      3  C3  UNL d   1       2.975  -2.376   2.953  0.00  0.00     0.033 A 
ATOM      4  C4  UNL d   1       1.767  -2.998   2.654  0.00  0.00    -0.042 A 
ATOM      5  C5  UNL d   1       1.011  -2.542   1.580  0.00  0.00     0.033 A 
ATOM      6  C6  UNL d   1       1.469  -1.470   0.808  0.00  0.00    -0.057 A 
ENDROOT
BRANCH   1   7
ATOM      7  N   UNL d   1       3.038   0.290   0.333  0.00  0.00    -0.732 N 
ATOM      8  C   UNL d   1       2.407   1.566   0.593  0.00  0.00     0.284 C 
ATOM      9  H3  UNL d   1       4.038   0.349   0.157  0.00  0.00     0.395 HD
ENDBRANCH   1   7
TORSDOF 1
ENDMDL
