MODEL 1
REMARK minimizedAffinity 14.024909
REMARK minimizedRMSD -1
REMARK  1 active torsions:
REMARK  status: ('A' for Active; 'I' for Inactive)
REMARK    1  A    between atoms: N_2  and  C1_3 
ROOT
ATOM      1  C1  UNL d   1       3.701   4.568  -1.652  0.00  0.00     0.143 A 
ATOM      2  C2  UNL d   1       4.836   5.148  -1.076  0.00  0.00    -0.057 A 
ATOM      3  C3  UNL d   1       5.968   5.447  -1.844  0.00  0.00     0.033 A 
ATOM      4  C4  UNL d   1       5.995   5.143  -3.201  0.00  0.00    -0.042 A 
ATOM      5  C5  UNL d   1       4.888   4.542  -3.790  0.00  0.00     0.033 A 
ATOM      6  C6  UNL d   1       3.758   4.252  -3.019  0.00  0.00    -0.057 A 
ENDROOT
BRANCH   1   7
ATOM      7  N   UNL d   1       2.582   4.157  -0.923  0.00  0.00    -0.732 N 
ATOM      8  C   UNL d   1       1.396   4.983  -0.865  0.00  0.00     0.284 C 
ATOM      9  H3  UNL d   1       2.392   3.163  -1.032  0.00  0.00     0.395 HD
ENDBRANCH   1   7
TORSDOF 1
ENDMDL
