MODEL 1
REMARK minimizedAffinity -4.45331812
REMARK minimizedRMSD -1
REMARK  1 active torsions:
REMARK  status: ('A' for Active; 'I' for Inactive)
REMARK    1  A    between atoms: N_2  and  C1_3 
ROOT
ATOM      1  C1  UNL d   1       0.556  -0.836   0.492  0.00  0.00     0.143 A 
ATOM      2  C2  UNL d   1       1.425   0.259   0.462  0.00  0.00    -0.057 A 
ATOM      3  C3  UNL d   1       2.736   0.159   0.946  0.00  0.00     0.033 A 
ATOM      4  C4  UNL d   1       3.191  -1.034   1.496  0.00  0.00    -0.042 A 
ATOM      5  C5  UNL d   1       2.336  -2.129   1.559  0.00  0.00     0.033 A 
ATOM      6  C6  UNL d   1       1.031  -2.025   1.068  0.00  0.00    -0.057 A 
ENDROOT
BRANCH   1   7
ATOM      7  N   UNL d   1      -0.789  -0.772   0.118  0.00  0.00    -0.732 N 
ATOM      8  C   UNL d   1      -1.171  -0.223  -1.165  0.00  0.00     0.284 C 
ATOM      9  H3  UNL d   1      -1.306  -1.608   0.383  0.00  0.00     0.395 HD
ENDBRANCH   1   7
TORSDOF 1
ENDMDL
