MODEL 1
REMARK minimizedAffinity -1.37868345
REMARK minimizedRMSD -1
REMARK  1 active torsions:
REMARK  status: ('A' for Active; 'I' for Inactive)
REMARK    1  A    between atoms: N_2  and  C1_3 
ROOT
ATOM      1  C1  UNL d   1      -2.676   1.748  -2.435  0.00  0.00     0.143 A 
ATOM      2  C2  UNL d   1      -2.509   2.758  -3.389  0.00  0.00    -0.057 A 
ATOM      3  C3  UNL d   1      -3.440   2.948  -4.417  0.00  0.00     0.033 A 
ATOM      4  C4  UNL d   1      -4.544   2.109  -4.526  0.00  0.00    -0.042 A 
ATOM      5  C5  UNL d   1      -4.717   1.082  -3.605  0.00  0.00     0.033 A 
ATOM      6  C6  UNL d   1      -3.787   0.902  -2.576  0.00  0.00    -0.057 A 
ENDROOT
BRANCH   1   7
ATOM      7  N   UNL d   1      -1.734   1.447  -1.448  0.00  0.00    -0.732 N 
ATOM      8  C   UNL d   1      -2.103   1.459  -0.049  0.00  0.00     0.284 C 
ATOM      9  H3  UNL d   1      -1.129   0.673  -1.712  0.00  0.00     0.395 HD
ENDBRANCH   1   7
TORSDOF 1
ENDMDL
