MODEL 1
REMARK minimizedAffinity -4.53814983
REMARK minimizedRMSD -1
REMARK  3 active torsions:
REMARK  status: ('A' for Active; 'I' for Inactive)
REMARK    1  A    between atoms: C3'_2  and  C2'_3 
REMARK    2  A    between atoms: C2'_3  and  C1'_4 
REMARK    3  A    between atoms: C1'_4  and  C1_5 
ROOT
ATOM      1  C1  N4B d   1      -0.223  -0.331   0.855  0.00  0.00    -0.075 A 
ATOM      2  C2  N4B d   1      -0.340  -1.211   1.953  0.00  0.00     0.002 A 
ATOM      3  C3  N4B d   1      -1.224  -0.932   2.966  0.00  0.00     0.002 A 
ATOM      4  C4  N4B d   1      -1.985   0.226   2.913  0.00  0.00    -0.004 A 
ATOM      5  C5  N4B d   1      -1.884   1.059   1.837  0.00  0.00     0.002 A 
ATOM      6  C6  N4B d   1      -1.003   0.788   0.809  0.00  0.00     0.002 A 
ENDROOT
BRANCH   1   7
ATOM      7  C1' N4B d   1       0.791  -0.550  -0.234  0.00  0.00     0.057 C 
BRANCH   7   8
ATOM      8  C2' N4B d   1       2.189  -0.319   0.330  0.00  0.00     0.009 C 
BRANCH   8   9
ATOM      9  C3' N4B d   1       3.036  -1.579   0.285  0.00  0.00     0.004 C 
ATOM     10  C4' N4B d   1       2.347  -2.717  -0.409  0.00  0.00     0.003 C 
ENDBRANCH   8   9
ENDBRANCH   7   8
ENDBRANCH   1   7
TORSDOF 3
ENDMDL
