MODEL 1
REMARK minimizedAffinity -4.96939898
REMARK minimizedRMSD -1
REMARK  3 active torsions:
REMARK  status: ('A' for Active; 'I' for Inactive)
REMARK    1  A    between atoms: C3'_2  and  C2'_3 
REMARK    2  A    between atoms: C2'_3  and  C1'_4 
REMARK    3  A    between atoms: C1'_4  and  C1_5 
ROOT
ATOM      1  C1  N4B d   1       0.496  -0.991   0.819  0.00  0.00    -0.075 A 
ATOM      2  C2  N4B d   1       1.883  -1.011   0.557  0.00  0.00     0.002 A 
ATOM      3  C3  N4B d   1       2.455  -2.112  -0.030  0.00  0.00     0.002 A 
ATOM      4  C4  N4B d   1       1.667  -3.209  -0.345  0.00  0.00    -0.004 A 
ATOM      5  C5  N4B d   1       0.323  -3.172  -0.111  0.00  0.00     0.002 A 
ATOM      6  C6  N4B d   1      -0.266  -2.070   0.474  0.00  0.00     0.002 A 
ENDROOT
BRANCH   1   7
ATOM      7  C1' N4B d   1      -0.161   0.156   1.538  0.00  0.00     0.057 C 
BRANCH   7   8
ATOM      8  C2' N4B d   1      -1.658   0.138   1.246  0.00  0.00     0.009 C 
BRANCH   8   9
ATOM      9  C3' N4B d   1      -2.318   1.465   1.582  0.00  0.00     0.004 C 
ATOM     10  C4' N4B d   1      -3.080   2.043   0.426  0.00  0.00     0.003 C 
ENDBRANCH   8   9
ENDBRANCH   7   8
ENDBRANCH   1   7
TORSDOF 3
ENDMDL
