MODEL 1
REMARK minimizedAffinity -2.43237424
REMARK minimizedRMSD -1
REMARK  3 active torsions:
REMARK  status: ('A' for Active; 'I' for Inactive)
REMARK    1  A    between atoms: C3'_2  and  C2'_3 
REMARK    2  A    between atoms: C2'_3  and  C1'_4 
REMARK    3  A    between atoms: C1'_4  and  C1_5 
ROOT
ATOM      1  C1  N4B d   1       4.481   4.458  -0.500  0.00  0.00    -0.075 A 
ATOM      2  C2  N4B d   1       3.527   4.231   0.517  0.00  0.00     0.002 A 
ATOM      3  C3  N4B d   1       3.631   4.893   1.716  0.00  0.00     0.002 A 
ATOM      4  C4  N4B d   1       4.687   5.767   1.927  0.00  0.00    -0.004 A 
ATOM      5  C5  N4B d   1       5.589   5.999   0.931  0.00  0.00     0.002 A 
ATOM      6  C6  N4B d   1       5.495   5.345  -0.280  0.00  0.00     0.002 A 
ENDROOT
BRANCH   1   7
ATOM      7  C1' N4B d   1       4.457   3.694  -1.795  0.00  0.00     0.057 C 
BRANCH   7   8
ATOM      8  C2' N4B d   1       4.478   2.198  -1.495  0.00  0.00     0.009 C 
BRANCH   8   9
ATOM      9  C3' N4B d   1       3.709   1.399  -2.533  0.00  0.00     0.004 C 
ATOM     10  C4' N4B d   1       2.764   2.245  -3.334  0.00  0.00     0.003 C 
ENDBRANCH   8   9
ENDBRANCH   7   8
ENDBRANCH   1   7
TORSDOF 3
ENDMDL
