MODEL 1
REMARK minimizedAffinity -0.139516294
REMARK minimizedRMSD -1
REMARK  3 active torsions:
REMARK  status: ('A' for Active; 'I' for Inactive)
REMARK    1  A    between atoms: C3'_2  and  C2'_3 
REMARK    2  A    between atoms: C2'_3  and  C1'_4 
REMARK    3  A    between atoms: C1'_4  and  C1_5 
ROOT
ATOM      1  C1  N4B d   1       1.659  -1.953   0.104  0.00  0.00    -0.075 A 
ATOM      2  C2  N4B d   1       0.483  -2.701  -0.128  0.00  0.00     0.002 A 
ATOM      3  C3  N4B d   1      -0.723  -2.250   0.349  0.00  0.00     0.002 A 
ATOM      4  C4  N4B d   1      -0.775  -1.068   1.073  0.00  0.00    -0.004 A 
ATOM      5  C5  N4B d   1       0.361  -0.339   1.270  0.00  0.00     0.002 A 
ATOM      6  C6  N4B d   1       1.579  -0.778   0.793  0.00  0.00     0.002 A 
ENDROOT
BRANCH   1   7
ATOM      7  C1' N4B d   1       3.013  -2.450  -0.324  0.00  0.00     0.057 C 
BRANCH   7   8
ATOM      8  C2' N4B d   1       3.000  -3.975  -0.356  0.00  0.00     0.009 C 
BRANCH   8   9
ATOM      9  C3' N4B d   1       4.365  -4.548  -0.696  0.00  0.00     0.004 C 
ATOM     10  C4' N4B d   1       4.495  -5.996  -0.329  0.00  0.00     0.003 C 
ENDBRANCH   8   9
ENDBRANCH   7   8
ENDBRANCH   1   7
TORSDOF 3
ENDMDL
