MODEL 1
REMARK minimizedAffinity 0.290723145
REMARK minimizedRMSD -1
REMARK  3 active torsions:
REMARK  status: ('A' for Active; 'I' for Inactive)
REMARK    1  A    between atoms: C3'_2  and  C2'_3 
REMARK    2  A    between atoms: C2'_3  and  C1'_4 
REMARK    3  A    between atoms: C1'_4  and  C1_5 
ROOT
ATOM      1  C1  N4B d   1       2.029  -2.191   0.133  0.00  0.00    -0.075 A 
ATOM      2  C2  N4B d   1       0.956  -3.062  -0.160  0.00  0.00     0.002 A 
ATOM      3  C3  N4B d   1      -0.306  -2.776   0.300  0.00  0.00     0.002 A 
ATOM      4  C4  N4B d   1      -0.515  -1.640   1.067  0.00  0.00    -0.004 A 
ATOM      5  C5  N4B d   1       0.521  -0.791   1.324  0.00  0.00     0.002 A 
ATOM      6  C6  N4B d   1       1.794  -1.063   0.865  0.00  0.00     0.002 A 
ENDROOT
BRANCH   1   7
ATOM      7  C1' N4B d   1       3.442  -2.506  -0.275  0.00  0.00     0.057 C 
BRANCH   7   8
ATOM      8  C2' N4B d   1       3.541  -3.985  -0.637  0.00  0.00     0.009 C 
BRANCH   8   9
ATOM      9  C3' N4B d   1       4.926  -4.546  -0.365  0.00  0.00     0.004 C 
ATOM     10  C4' N4B d   1       4.902  -5.997   0.010  0.00  0.00     0.003 C 
ENDBRANCH   8   9
ENDBRANCH   7   8
ENDBRANCH   1   7
TORSDOF 3
ENDMDL
