MODEL 1
REMARK minimizedAffinity -1.58431649
REMARK minimizedRMSD -1
REMARK  3 active torsions:
REMARK  status: ('A' for Active; 'I' for Inactive)
REMARK    1  A    between atoms: C3'_2  and  C2'_3 
REMARK    2  A    between atoms: C2'_3  and  C1'_4 
REMARK    3  A    between atoms: C1'_4  and  C1_5 
ROOT
ATOM      1  C1  N4B d   1       2.081  -2.149  -0.022  0.00  0.00    -0.075 A 
ATOM      2  C2  N4B d   1       0.957  -3.005   0.001  0.00  0.00     0.002 A 
ATOM      3  C3  N4B d   1      -0.267  -2.519   0.389  0.00  0.00     0.002 A 
ATOM      4  C4  N4B d   1      -0.388  -1.192   0.774  0.00  0.00    -0.004 A 
ATOM      5  C5  N4B d   1       0.696  -0.366   0.724  0.00  0.00     0.002 A 
ATOM      6  C6  N4B d   1       1.932  -0.840   0.332  0.00  0.00     0.002 A 
ENDROOT
BRANCH   1   7
ATOM      7  C1' N4B d   1       3.457  -2.655  -0.357  0.00  0.00     0.057 C 
BRANCH   7   8
ATOM      8  C2' N4B d   1       3.440  -4.181  -0.373  0.00  0.00     0.009 C 
BRANCH   8   9
ATOM      9  C3' N4B d   1       4.841  -4.766  -0.331  0.00  0.00     0.004 C 
ATOM     10  C4' N4B d   1       4.930  -6.000   0.516  0.00  0.00     0.003 C 
ENDBRANCH   8   9
ENDBRANCH   7   8
ENDBRANCH   1   7
TORSDOF 3
ENDMDL
