MODEL 1
REMARK minimizedAffinity 1.04768884
REMARK minimizedRMSD -1
REMARK  3 active torsions:
REMARK  status: ('A' for Active; 'I' for Inactive)
REMARK    1  A    between atoms: C3'_2  and  C2'_3 
REMARK    2  A    between atoms: C2'_3  and  C1'_4 
REMARK    3  A    between atoms: C1'_4  and  C1_5 
ROOT
ATOM      1  C1  N4B d   1       1.954   4.560  -4.385  0.00  0.00    -0.075 A 
ATOM      2  C2  N4B d   1       1.072   4.596  -3.282  0.00  0.00     0.002 A 
ATOM      3  C3  N4B d   1      -0.101   5.305  -3.364  0.00  0.00     0.002 A 
ATOM      4  C4  N4B d   1      -0.403   6.000  -4.526  0.00  0.00    -0.004 A 
ATOM      5  C5  N4B d   1       0.442   5.939  -5.595  0.00  0.00     0.002 A 
ATOM      6  C6  N4B d   1       1.622   5.226  -5.529  0.00  0.00     0.002 A 
ENDROOT
BRANCH   1   7
ATOM      7  C1' N4B d   1       3.287   3.868  -4.313  0.00  0.00     0.057 C 
BRANCH   7   8
ATOM      8  C2' N4B d   1       3.086   2.444  -3.804  0.00  0.00     0.009 C 
BRANCH   8   9
ATOM      9  C3' N4B d   1       4.087   2.081  -2.721  0.00  0.00     0.004 C 
ATOM     10  C4' N4B d   1       4.949   0.912  -3.095  0.00  0.00     0.003 C 
ENDBRANCH   8   9
ENDBRANCH   7   8
ENDBRANCH   1   7
TORSDOF 3
ENDMDL
