MODEL 1
REMARK minimizedAffinity 0.836151302
REMARK minimizedRMSD -1
REMARK  0 active torsions:
REMARK  status: ('A' for Active; 'I' for Inactive)
ROOT
ATOM      1  C   UNL d   1       2.642   4.945  -1.543  0.00  0.00     0.077 C 
ATOM      2  C1  UNL d   1       3.814   5.087  -2.467  0.00  0.00    -0.074 A 
ATOM      3  C2  UNL d   1       4.911   5.883  -2.121  0.00  0.00    -0.005 A 
ATOM      4  C3  UNL d   1       5.998   5.998  -2.987  0.00  0.00     0.006 A 
ATOM      5  C4  UNL d   1       6.000   5.319  -4.206  0.00  0.00    -0.005 A 
ATOM      6  C5  UNL d   1       4.913   4.518  -4.569  0.00  0.00    -0.074 A 
ATOM      7  C6  UNL d   1       4.903   3.773  -5.871  0.00  0.00     0.077 C 
ATOM      8  C7  UNL d   1       3.827   4.402  -3.690  0.00  0.00    -0.001 A 
ENDROOT
TORSDOF 0
ENDMDL
