MODEL 1
REMARK minimizedAffinity 11.6212168
REMARK minimizedRMSD -1
REMARK  0 active torsions:
REMARK  status: ('A' for Active; 'I' for Inactive)
ROOT
ATOM      1  C   UNL d   1       3.027  -2.345  -3.809  0.00  0.00     0.077 C 
ATOM      2  C1  UNL d   1       1.730  -2.200  -3.069  0.00  0.00    -0.074 A 
ATOM      3  C2  UNL d   1       0.636  -1.557  -3.656  0.00  0.00    -0.005 A 
ATOM      4  C3  UNL d   1      -0.567  -1.438  -2.960  0.00  0.00     0.006 A 
ATOM      5  C4  UNL d   1      -0.687  -1.960  -1.671  0.00  0.00    -0.005 A 
ATOM      6  C5  UNL d   1       0.397  -2.607  -1.068  0.00  0.00    -0.074 A 
ATOM      7  C6  UNL d   1       0.281  -3.182   0.312  0.00  0.00     0.077 C 
ATOM      8  C7  UNL d   1       1.599  -2.728  -1.778  0.00  0.00    -0.001 A 
ENDROOT
TORSDOF 0
ENDMDL
