MODEL 1
REMARK minimizedAffinity 22.5427265
REMARK minimizedRMSD -1
REMARK  0 active torsions:
REMARK  status: ('A' for Active; 'I' for Inactive)
ROOT
ATOM      1  C   UNL d   1      -5.769  -5.190  -4.953  0.00  0.00     0.077 C 
ATOM      2  C1  UNL d   1      -4.278  -5.081  -5.071  0.00  0.00    -0.074 A 
ATOM      3  C2  UNL d   1      -3.554  -5.966  -5.876  0.00  0.00    -0.005 A 
ATOM      4  C3  UNL d   1      -2.168  -5.846  -5.983  0.00  0.00     0.006 A 
ATOM      5  C4  UNL d   1      -1.494  -4.842  -5.287  0.00  0.00    -0.005 A 
ATOM      6  C5  UNL d   1      -2.201  -3.948  -4.478  0.00  0.00    -0.074 A 
ATOM      7  C6  UNL d   1      -1.493  -2.856  -3.732  0.00  0.00     0.077 C 
ATOM      8  C7  UNL d   1      -3.594  -4.070  -4.381  0.00  0.00    -0.001 A 
ENDROOT
TORSDOF 0
ENDMDL
