MODEL 1
REMARK minimizedAffinity 1.43322539
REMARK minimizedRMSD -1
REMARK  0 active torsions:
REMARK  status: ('A' for Active; 'I' for Inactive)
ROOT
ATOM      1  C   UNL d   1       1.565  -2.456  -2.261  0.00  0.00     0.077 C 
ATOM      2  C1  UNL d   1       0.079  -2.335  -2.091  0.00  0.00    -0.074 A 
ATOM      3  C2  UNL d   1      -0.758  -2.149  -3.196  0.00  0.00    -0.005 A 
ATOM      4  C3  UNL d   1      -2.138  -2.048  -3.024  0.00  0.00     0.006 A 
ATOM      5  C4  UNL d   1      -2.695  -2.132  -1.747  0.00  0.00    -0.005 A 
ATOM      6  C5  UNL d   1      -1.874  -2.318  -0.630  0.00  0.00    -0.074 A 
ATOM      7  C6  UNL d   1      -2.456  -2.419   0.748  0.00  0.00     0.077 C 
ATOM      8  C7  UNL d   1      -0.488  -2.425  -0.812  0.00  0.00    -0.001 A 
ENDROOT
TORSDOF 0
ENDMDL
