MODEL 1
REMARK minimizedAffinity 8.37774944
REMARK minimizedRMSD -1
REMARK  0 active torsions:
REMARK  status: ('A' for Active; 'I' for Inactive)
ROOT
ATOM      1  C   UNL d   1       3.066  -2.119  -3.793  0.00  0.00     0.077 C 
ATOM      2  C1  UNL d   1       1.767  -1.965  -3.058  0.00  0.00    -0.074 A 
ATOM      3  C2  UNL d   1       0.663  -1.360  -3.668  0.00  0.00    -0.005 A 
ATOM      4  C3  UNL d   1      -0.541  -1.233  -2.975  0.00  0.00     0.006 A 
ATOM      5  C4  UNL d   1      -0.653  -1.709  -1.668  0.00  0.00    -0.005 A 
ATOM      6  C5  UNL d   1       0.440  -2.318  -1.043  0.00  0.00    -0.074 A 
ATOM      7  C6  UNL d   1       0.333  -2.843   0.358  0.00  0.00     0.077 C 
ATOM      8  C7  UNL d   1       1.644  -2.448  -1.748  0.00  0.00    -0.001 A 
ENDROOT
TORSDOF 0
ENDMDL
