MODEL 1
REMARK minimizedAffinity 18.1305885
REMARK minimizedRMSD -1
REMARK  0 active torsions:
REMARK  status: ('A' for Active; 'I' for Inactive)
ROOT
ATOM      1  C   UNL d   1       3.200  -1.814  -3.356  0.00  0.00     0.077 C 
ATOM      2  C1  UNL d   1       1.800  -1.876  -2.822  0.00  0.00    -0.074 A 
ATOM      3  C2  UNL d   1       0.710  -1.513  -3.619  0.00  0.00    -0.005 A 
ATOM      4  C3  UNL d   1      -0.587  -1.585  -3.111  0.00  0.00     0.006 A 
ATOM      5  C4  UNL d   1      -0.807  -2.020  -1.804  0.00  0.00    -0.005 A 
ATOM      6  C5  UNL d   1       0.270  -2.389  -0.992  0.00  0.00    -0.074 A 
ATOM      7  C6  UNL d   1       0.051  -2.868   0.412  0.00  0.00     0.077 C 
ATOM      8  C7  UNL d   1       1.570  -2.320  -1.512  0.00  0.00    -0.001 A 
ENDROOT
TORSDOF 0
ENDMDL
