MODEL 1
REMARK minimizedAffinity 17.0025558
REMARK minimizedRMSD -1
REMARK  0 active torsions:
REMARK  status: ('A' for Active; 'I' for Inactive)
ROOT
ATOM      1  C   UNL d   1      -1.210  -2.139  -4.626  0.00  0.00     0.077 C 
ATOM      2  C1  UNL d   1      -0.687  -2.267  -3.226  0.00  0.00    -0.074 A 
ATOM      3  C2  UNL d   1       0.468  -3.008  -2.955  0.00  0.00    -0.005 A 
ATOM      4  C3  UNL d   1       0.948  -3.109  -1.649  0.00  0.00     0.006 A 
ATOM      5  C4  UNL d   1       0.280  -2.471  -0.603  0.00  0.00    -0.005 A 
ATOM      6  C5  UNL d   1      -0.876  -1.725  -0.856  0.00  0.00    -0.074 A 
ATOM      7  C6  UNL d   1      -1.601  -1.026   0.256  0.00  0.00     0.077 C 
ATOM      8  C7  UNL d   1      -1.348  -1.623  -2.171  0.00  0.00    -0.001 A 
ENDROOT
TORSDOF 0
ENDMDL
