MODEL 1
REMARK minimizedAffinity 15.3511343
REMARK minimizedRMSD -1
REMARK  0 active torsions:
REMARK  status: ('A' for Active; 'I' for Inactive)
ROOT
ATOM      1  C   UNL d   1       6.000   1.227  -4.431  0.00  0.00     0.077 C 
ATOM      2  C1  UNL d   1       5.061   0.060  -4.357  0.00  0.00    -0.074 A 
ATOM      3  C2  UNL d   1       3.791   0.121  -4.940  0.00  0.00    -0.005 A 
ATOM      4  C3  UNL d   1       2.932  -0.976  -4.871  0.00  0.00     0.006 A 
ATOM      5  C4  UNL d   1       3.333  -2.143  -4.220  0.00  0.00    -0.005 A 
ATOM      6  C5  UNL d   1       4.599  -2.223  -3.632  0.00  0.00    -0.074 A 
ATOM      7  C6  UNL d   1       5.050  -3.473  -2.937  0.00  0.00     0.077 C 
ATOM      8  C7  UNL d   1       5.459  -1.119  -3.711  0.00  0.00    -0.001 A 
ENDROOT
TORSDOF 0
ENDMDL
