MODEL 1
REMARK minimizedAffinity 11.3715096
REMARK minimizedRMSD -1
REMARK  0 active torsions:
REMARK  status: ('A' for Active; 'I' for Inactive)
ROOT
ATOM      1  C   UNL d   1       1.505  -3.294  -4.064  0.00  0.00     0.077 C 
ATOM      2  C1  UNL d   1       0.805  -2.919  -2.792  0.00  0.00    -0.074 A 
ATOM      3  C2  UNL d   1       0.855  -3.753  -1.670  0.00  0.00    -0.005 A 
ATOM      4  C3  UNL d   1       0.207  -3.387  -0.491  0.00  0.00     0.006 A 
ATOM      5  C4  UNL d   1      -0.497  -2.183  -0.421  0.00  0.00    -0.005 A 
ATOM      6  C5  UNL d   1      -0.557  -1.336  -1.532  0.00  0.00    -0.074 A 
ATOM      7  C6  UNL d   1      -1.300  -0.034  -1.470  0.00  0.00     0.077 C 
ATOM      8  C7  UNL d   1       0.103  -1.708  -2.711  0.00  0.00    -0.001 A 
ENDROOT
TORSDOF 0
ENDMDL
