MODEL 1
REMARK minimizedAffinity 10.7847099
REMARK minimizedRMSD -1
REMARK  0 active torsions:
REMARK  status: ('A' for Active; 'I' for Inactive)
ROOT
ATOM      1  C   UNL d   1      -1.095  -0.031  -0.984  0.00  0.00     0.077 C 
ATOM      2  C1  UNL d   1      -0.899  -1.424  -1.505  0.00  0.00    -0.074 A 
ATOM      3  C2  UNL d   1       0.050  -2.278  -0.933  0.00  0.00    -0.005 A 
ATOM      4  C3  UNL d   1       0.214  -3.574  -1.422  0.00  0.00     0.006 A 
ATOM      5  C4  UNL d   1      -0.567  -4.028  -2.485  0.00  0.00    -0.005 A 
ATOM      6  C5  UNL d   1      -1.522  -3.189  -3.068  0.00  0.00    -0.074 A 
ATOM      7  C6  UNL d   1      -2.377  -3.665  -4.205  0.00  0.00     0.077 C 
ATOM      8  C7  UNL d   1      -1.686  -1.890  -2.567  0.00  0.00    -0.001 A 
ENDROOT
TORSDOF 0
ENDMDL
