MODEL 1
REMARK minimizedAffinity 10.3799725
REMARK minimizedRMSD -1
REMARK  0 active torsions:
REMARK  status: ('A' for Active; 'I' for Inactive)
ROOT
ATOM      1  C   UNL d   1       2.304   2.818   0.982  0.00  0.00     0.077 C 
ATOM      2  C1  UNL d   1       1.498   3.925   0.369  0.00  0.00    -0.074 A 
ATOM      3  C2  UNL d   1       0.576   4.650   1.130  0.00  0.00    -0.005 A 
ATOM      4  C3  UNL d   1      -0.158   5.683   0.548  0.00  0.00     0.006 A 
ATOM      5  C4  UNL d   1       0.021   6.000  -0.799  0.00  0.00    -0.005 A 
ATOM      6  C5  UNL d   1       0.938   5.286  -1.576  0.00  0.00    -0.074 A 
ATOM      7  C6  UNL d   1       1.150   5.620  -3.023  0.00  0.00     0.077 C 
ATOM      8  C7  UNL d   1       1.678   4.254  -0.982  0.00  0.00    -0.001 A 
ENDROOT
TORSDOF 0
ENDMDL
