MODEL 1
REMARK minimizedAffinity 11.5928965
REMARK minimizedRMSD -1
REMARK  0 active torsions:
REMARK  status: ('A' for Active; 'I' for Inactive)
ROOT
ATOM      1  C   UNL d   1      -0.967   0.308  -1.111  0.00  0.00     0.077 C 
ATOM      2  C1  UNL d   1      -0.658  -1.059  -1.644  0.00  0.00    -0.074 A 
ATOM      3  C2  UNL d   1       0.352  -1.841  -1.076  0.00  0.00    -0.005 A 
ATOM      4  C3  UNL d   1       0.622  -3.115  -1.576  0.00  0.00     0.006 A 
ATOM      5  C4  UNL d   1      -0.116  -3.619  -2.648  0.00  0.00    -0.005 A 
ATOM      6  C5  UNL d   1      -1.131  -2.852  -3.229  0.00  0.00    -0.074 A 
ATOM      7  C6  UNL d   1      -1.940  -3.382  -4.375  0.00  0.00     0.077 C 
ATOM      8  C7  UNL d   1      -1.400  -1.576  -2.716  0.00  0.00    -0.001 A 
ENDROOT
TORSDOF 0
ENDMDL
