MODEL 1
REMARK minimizedAffinity 7.27674866
REMARK minimizedRMSD -1
REMARK  0 active torsions:
REMARK  status: ('A' for Active; 'I' for Inactive)
ROOT
ATOM      1  C   UNL d   1       0.545  -5.989  -1.229  0.00  0.00     0.077 C 
ATOM      2  C1  UNL d   1       0.064  -4.659  -1.726  0.00  0.00    -0.074 A 
ATOM      3  C2  UNL d   1       0.084  -3.532  -0.898  0.00  0.00    -0.005 A 
ATOM      4  C3  UNL d   1      -0.358  -2.299  -1.378  0.00  0.00     0.006 A 
ATOM      5  C4  UNL d   1      -0.823  -2.180  -2.688  0.00  0.00    -0.005 A 
ATOM      6  C5  UNL d   1      -0.850  -3.296  -3.531  0.00  0.00    -0.074 A 
ATOM      7  C6  UNL d   1      -1.338  -3.183  -4.944  0.00  0.00     0.077 C 
ATOM      8  C7  UNL d   1      -0.398  -4.530  -3.044  0.00  0.00    -0.001 A 
ENDROOT
TORSDOF 0
ENDMDL
