MODEL 1
REMARK minimizedAffinity 15.3995972
REMARK minimizedRMSD -1
REMARK  0 active torsions:
REMARK  status: ('A' for Active; 'I' for Inactive)
ROOT
ATOM      1  C   UNL d   1       5.111   0.754  -5.276  0.00  0.00     0.077 C 
ATOM      2  C1  UNL d   1       4.961  -0.620  -4.693  0.00  0.00    -0.074 A 
ATOM      3  C2  UNL d   1       4.688  -1.721  -5.510  0.00  0.00    -0.005 A 
ATOM      4  C3  UNL d   1       4.561  -2.995  -4.955  0.00  0.00     0.006 A 
ATOM      5  C4  UNL d   1       4.705  -3.179  -3.579  0.00  0.00    -0.005 A 
ATOM      6  C5  UNL d   1       4.979  -2.089  -2.747  0.00  0.00    -0.074 A 
ATOM      7  C6  UNL d   1       5.147  -2.271  -1.267  0.00  0.00     0.077 C 
ATOM      8  C7  UNL d   1       5.112  -0.814  -3.313  0.00  0.00    -0.001 A 
ENDROOT
TORSDOF 0
ENDMDL
