MODEL 1
REMARK minimizedAffinity 9.44134521
REMARK minimizedRMSD -1
REMARK  0 active torsions:
REMARK  status: ('A' for Active; 'I' for Inactive)
ROOT
ATOM      1  C   UNL d   1      -0.407  -1.987   0.189  0.00  0.00     0.077 C 
ATOM      2  C1  UNL d   1      -0.412  -2.338  -1.269  0.00  0.00    -0.074 A 
ATOM      3  C2  UNL d   1      -1.500  -2.010  -2.083  0.00  0.00    -0.005 A 
ATOM      4  C3  UNL d   1      -1.486  -2.334  -3.440  0.00  0.00     0.006 A 
ATOM      5  C4  UNL d   1      -0.386  -2.990  -3.994  0.00  0.00    -0.005 A 
ATOM      6  C5  UNL d   1       0.711  -3.325  -3.195  0.00  0.00    -0.074 A 
ATOM      7  C6  UNL d   1       1.906  -4.021  -3.778  0.00  0.00     0.077 C 
ATOM      8  C7  UNL d   1       0.693  -2.990  -1.835  0.00  0.00    -0.001 A 
ENDROOT
TORSDOF 0
ENDMDL
