MODEL 1
REMARK minimizedAffinity 0.938619196
REMARK minimizedRMSD -1
REMARK  0 active torsions:
REMARK  status: ('A' for Active; 'I' for Inactive)
ROOT
ATOM      1  C   UNL d   1      -1.346  -3.344  -6.000  0.00  0.00     0.077 C 
ATOM      2  C1  UNL d   1      -0.663  -2.879  -4.748  0.00  0.00    -0.074 A 
ATOM      3  C2  UNL d   1      -1.402  -2.410  -3.657  0.00  0.00    -0.005 A 
ATOM      4  C3  UNL d   1      -0.753  -1.990  -2.497  0.00  0.00     0.006 A 
ATOM      5  C4  UNL d   1       0.640  -2.033  -2.415  0.00  0.00    -0.005 A 
ATOM      6  C5  UNL d   1       1.395  -2.499  -3.495  0.00  0.00    -0.074 A 
ATOM      7  C6  UNL d   1       2.892  -2.562  -3.421  0.00  0.00     0.077 C 
ATOM      8  C7  UNL d   1       0.736  -2.927  -4.656  0.00  0.00    -0.001 A 
ENDROOT
TORSDOF 0
ENDMDL
