MODEL 1
REMARK minimizedAffinity -5.45938969
REMARK minimizedRMSD -1
REMARK  2 active torsions:
REMARK  status: ('A' for Active; 'I' for Inactive)
REMARK    1  A    between atoms: C2'_3  and  C1'_4 
REMARK    2  A    between atoms: C1'_4  and  C1_5 
ROOT
ATOM      1  C1  I4B d   1      -0.893   0.461  -0.495  0.00  0.00    -0.075 A 
ATOM      2  C2  I4B d   1      -1.547  -0.052  -1.587  0.00  0.00     0.003 A 
ATOM      3  C3  I4B d   1      -2.253   0.807  -2.463  0.00  0.00     0.002 A 
ATOM      4  C4  I4B d   1      -2.320   2.157  -2.184  0.00  0.00    -0.004 A 
ATOM      5  C5  I4B d   1      -1.637   2.679  -1.090  0.00  0.00     0.002 A 
ATOM      6  C6  I4B d   1      -0.908   1.828  -0.246  0.00  0.00     0.003 A 
ENDROOT
BRANCH   1   7
ATOM      7  C1' I4B d   1      -0.184  -0.478   0.429  0.00  0.00     0.060 C 
BRANCH   7   8
ATOM      8  C2' I4B d   1       0.963  -1.108  -0.336  0.00  0.00    -0.013 C 
ATOM      9  C4' I4B d   1       2.067  -0.113  -0.579  0.00  0.00     0.013 C 
ATOM     10  C3' I4B d   1       1.456  -2.283   0.455  0.00  0.00     0.013 C 
ENDBRANCH   7   8
ENDBRANCH   1   7
TORSDOF 2
ENDMDL
