MODEL 1
REMARK minimizedAffinity -4.28935242
REMARK minimizedRMSD -1
REMARK  2 active torsions:
REMARK  status: ('A' for Active; 'I' for Inactive)
REMARK    1  A    between atoms: C2'_3  and  C1'_4 
REMARK    2  A    between atoms: C1'_4  and  C1_5 
ROOT
ATOM      1  C1  I4B d   1      -0.009   0.738   0.112  0.00  0.00    -0.075 A 
ATOM      2  C2  I4B d   1       1.221   1.207  -0.277  0.00  0.00     0.003 A 
ATOM      3  C3  I4B d   1       2.357   0.364  -0.217  0.00  0.00     0.002 A 
ATOM      4  C4  I4B d   1       2.228  -0.916   0.282  0.00  0.00    -0.004 A 
ATOM      5  C5  I4B d   1       0.976  -1.397   0.655  0.00  0.00     0.002 A 
ATOM      6  C6  I4B d   1      -0.152  -0.569   0.558  0.00  0.00     0.003 A 
ENDROOT
BRANCH   1   7
ATOM      7  C1' I4B d   1      -1.181   1.666   0.068  0.00  0.00     0.060 C 
BRANCH   7   8
ATOM      8  C2' I4B d   1      -1.620   1.795  -1.377  0.00  0.00    -0.013 C 
ATOM      9  C4' I4B d   1      -3.095   1.530  -1.525  0.00  0.00     0.013 C 
ATOM     10  C3' I4B d   1      -1.268   3.175  -1.847  0.00  0.00     0.013 C 
ENDBRANCH   7   8
ENDBRANCH   1   7
TORSDOF 2
ENDMDL
