MODEL 1
REMARK minimizedAffinity 2.3753159
REMARK minimizedRMSD -1
REMARK  2 active torsions:
REMARK  status: ('A' for Active; 'I' for Inactive)
REMARK    1  A    between atoms: C2'_3  and  C1'_4 
REMARK    2  A    between atoms: C1'_4  and  C1_5 
ROOT
ATOM      1  C1  I4B d   1       0.101  -0.159  -0.226  0.00  0.00    -0.075 A 
ATOM      2  C2  I4B d   1       1.473  -0.149  -0.273  0.00  0.00     0.003 A 
ATOM      3  C3  I4B d   1       2.207  -1.302   0.096  0.00  0.00     0.002 A 
ATOM      4  C4  I4B d   1       1.535  -2.418   0.552  0.00  0.00    -0.004 A 
ATOM      5  C5  I4B d   1       0.144  -2.434   0.578  0.00  0.00     0.002 A 
ATOM      6  C6  I4B d   1      -0.579  -1.301   0.175  0.00  0.00     0.003 A 
ENDROOT
BRANCH   1   7
ATOM      7  C1' I4B d   1      -0.641   1.087  -0.592  0.00  0.00     0.060 C 
BRANCH   7   8
ATOM      8  C2' I4B d   1      -1.159   0.924  -2.006  0.00  0.00    -0.013 C 
ATOM      9  C4' I4B d   1      -2.611   0.527  -2.013  0.00  0.00     0.013 C 
ATOM     10  C3' I4B d   1      -0.948   2.221  -2.729  0.00  0.00     0.013 C 
ENDBRANCH   7   8
ENDBRANCH   1   7
TORSDOF 2
ENDMDL
