MODEL 1
REMARK minimizedAffinity -3.72877979
REMARK minimizedRMSD -1
REMARK  2 active torsions:
REMARK  status: ('A' for Active; 'I' for Inactive)
REMARK    1  A    between atoms: C2'_3  and  C1'_4 
REMARK    2  A    between atoms: C1'_4  and  C1_5 
ROOT
ATOM      1  C1  I4B d   1       0.877  -0.425  -0.420  0.00  0.00    -0.075 A 
ATOM      2  C2  I4B d   1       1.965  -0.369   0.416  0.00  0.00     0.003 A 
ATOM      3  C3  I4B d   1       2.297  -1.480   1.228  0.00  0.00     0.002 A 
ATOM      4  C4  I4B d   1       1.492  -2.600   1.210  0.00  0.00    -0.004 A 
ATOM      5  C5  I4B d   1       0.403  -2.664   0.345  0.00  0.00     0.002 A 
ATOM      6  C6  I4B d   1       0.101  -1.574  -0.485  0.00  0.00     0.003 A 
ENDROOT
BRANCH   1   7
ATOM      7  C1' I4B d   1       0.536   0.779  -1.240  0.00  0.00     0.060 C 
BRANCH   7   8
ATOM      8  C2' I4B d   1      -0.937   1.074  -1.044  0.00  0.00    -0.013 C 
ATOM      9  C4' I4B d   1      -1.249   1.358   0.402  0.00  0.00     0.013 C 
ATOM     10  C3' I4B d   1      -1.295   2.242  -1.914  0.00  0.00     0.013 C 
ENDBRANCH   7   8
ENDBRANCH   1   7
TORSDOF 2
ENDMDL
