MODEL 1
REMARK minimizedAffinity -4.20153761
REMARK minimizedRMSD -1
REMARK  2 active torsions:
REMARK  status: ('A' for Active; 'I' for Inactive)
REMARK    1  A    between atoms: C2'_3  and  C1'_4 
REMARK    2  A    between atoms: C1'_4  and  C1_5 
ROOT
ATOM      1  C1  I4B d   1      -0.793   0.994  -0.370  0.00  0.00    -0.075 A 
ATOM      2  C2  I4B d   1       0.261   0.242  -0.827  0.00  0.00     0.003 A 
ATOM      3  C3  I4B d   1       0.703  -0.885  -0.093  0.00  0.00     0.002 A 
ATOM      4  C4  I4B d   1       0.100  -1.192   1.110  0.00  0.00    -0.004 A 
ATOM      5  C5  I4B d   1      -0.983  -0.442   1.560  0.00  0.00     0.002 A 
ATOM      6  C6  I4B d   1      -1.441   0.651   0.809  0.00  0.00     0.003 A 
ENDROOT
BRANCH   1   7
ATOM      7  C1' I4B d   1      -1.213   2.197  -1.154  0.00  0.00     0.060 C 
BRANCH   7   8
ATOM      8  C2' I4B d   1      -1.710   1.724  -2.505  0.00  0.00    -0.013 C 
ATOM      9  C4' I4B d   1      -3.214   1.762  -2.576  0.00  0.00     0.013 C 
ATOM     10  C3' I4B d   1      -1.096   2.598  -3.557  0.00  0.00     0.013 C 
ENDBRANCH   7   8
ENDBRANCH   1   7
TORSDOF 2
ENDMDL
