MODEL 1
REMARK minimizedAffinity -2.21325064
REMARK minimizedRMSD -1
REMARK  2 active torsions:
REMARK  status: ('A' for Active; 'I' for Inactive)
REMARK    1  A    between atoms: C2'_3  and  C1'_4 
REMARK    2  A    between atoms: C1'_4  and  C1_5 
ROOT
ATOM      1  C1  I4B d   1      -0.218  -0.029  -0.033  0.00  0.00    -0.075 A 
ATOM      2  C2  I4B d   1       1.010  -0.058  -0.647  0.00  0.00     0.003 A 
ATOM      3  C3  I4B d   1       1.963  -1.041  -0.288  0.00  0.00     0.002 A 
ATOM      4  C4  I4B d   1       1.668  -1.938   0.718  0.00  0.00    -0.004 A 
ATOM      5  C5  I4B d   1       0.415  -1.922   1.323  0.00  0.00     0.002 A 
ATOM      6  C6  I4B d   1      -0.539  -0.969   0.937  0.00  0.00     0.003 A 
ENDROOT
BRANCH   1   7
ATOM      7  C1' I4B d   1      -1.188   1.044  -0.414  0.00  0.00     0.060 C 
BRANCH   7   8
ATOM      8  C2' I4B d   1      -1.496   0.893  -1.890  0.00  0.00    -0.013 C 
ATOM      9  C4' I4B d   1      -2.537  -0.169  -2.124  0.00  0.00     0.013 C 
ATOM     10  C3' I4B d   1      -1.955   2.224  -2.405  0.00  0.00     0.013 C 
ENDBRANCH   7   8
ENDBRANCH   1   7
TORSDOF 2
ENDMDL
