MODEL 1
REMARK minimizedAffinity -2.51591563
REMARK minimizedRMSD -1
REMARK  2 active torsions:
REMARK  status: ('A' for Active; 'I' for Inactive)
REMARK    1  A    between atoms: C2'_3  and  C1'_4 
REMARK    2  A    between atoms: C1'_4  and  C1_5 
ROOT
ATOM      1  C1  I4B d   1       1.097  -0.625  -0.074  0.00  0.00    -0.075 A 
ATOM      2  C2  I4B d   1       1.656  -0.791   1.168  0.00  0.00     0.003 A 
ATOM      3  C3  I4B d   1       2.118  -2.066   1.577  0.00  0.00     0.002 A 
ATOM      4  C4  I4B d   1       1.955  -3.149   0.738  0.00  0.00    -0.004 A 
ATOM      5  C5  I4B d   1       1.409  -2.974  -0.530  0.00  0.00     0.002 A 
ATOM      6  C6  I4B d   1       0.988  -1.702  -0.944  0.00  0.00     0.003 A 
ENDROOT
BRANCH   1   7
ATOM      7  C1' I4B d   1       0.590   0.728  -0.462  0.00  0.00     0.060 C 
BRANCH   7   8
ATOM      8  C2' I4B d   1      -0.923   0.666  -0.502  0.00  0.00    -0.013 C 
ATOM      9  C4' I4B d   1      -1.517   0.944   0.854  0.00  0.00     0.013 C 
ATOM     10  C3' I4B d   1      -1.401   1.661  -1.517  0.00  0.00     0.013 C 
ENDBRANCH   7   8
ENDBRANCH   1   7
TORSDOF 2
ENDMDL
