MODEL 1
REMARK minimizedAffinity -3.88653588
REMARK minimizedRMSD -1
REMARK  2 active torsions:
REMARK  status: ('A' for Active; 'I' for Inactive)
REMARK    1  A    between atoms: C2'_3  and  C1'_4 
REMARK    2  A    between atoms: C1'_4  and  C1_5 
ROOT
ATOM      1  C1  I4B d   1       1.006  -0.516  -0.381  0.00  0.00    -0.075 A 
ATOM      2  C2  I4B d   1       1.943   0.432  -0.055  0.00  0.00     0.003 A 
ATOM      3  C3  I4B d   1       2.987   0.122   0.849  0.00  0.00     0.002 A 
ATOM      4  C4  I4B d   1       3.027  -1.125   1.440  0.00  0.00    -0.004 A 
ATOM      5  C5  I4B d   1       2.089  -2.092   1.091  0.00  0.00     0.002 A 
ATOM      6  C6  I4B d   1       1.079  -1.791   0.166  0.00  0.00     0.003 A 
ENDROOT
BRANCH   1   7
ATOM      7  C1' I4B d   1      -0.103  -0.145  -1.314  0.00  0.00     0.060 C 
BRANCH   7   8
ATOM      8  C2' I4B d   1      -0.613   1.224  -0.910  0.00  0.00    -0.013 C 
ATOM      9  C4' I4B d   1      -1.635   1.735  -1.891  0.00  0.00     0.013 C 
ATOM     10  C3' I4B d   1      -1.193   1.113   0.468  0.00  0.00     0.013 C 
ENDBRANCH   7   8
ENDBRANCH   1   7
TORSDOF 2
ENDMDL
