MODEL 1
REMARK minimizedAffinity -4.9909234
REMARK minimizedRMSD -1
REMARK  2 active torsions:
REMARK  status: ('A' for Active; 'I' for Inactive)
REMARK    1  A    between atoms: C2'_3  and  C1'_4 
REMARK    2  A    between atoms: C1'_4  and  C1_5 
ROOT
ATOM      1  C1  I4B d   1       0.518  -0.600  -0.513  0.00  0.00    -0.075 A 
ATOM      2  C2  I4B d   1       1.571   0.257  -0.717  0.00  0.00     0.003 A 
ATOM      3  C3  I4B d   1       2.836  -0.020  -0.146  0.00  0.00     0.002 A 
ATOM      4  C4  I4B d   1       2.991  -1.130   0.659  0.00  0.00    -0.004 A 
ATOM      5  C5  I4B d   1       1.928  -2.010   0.846  0.00  0.00     0.002 A 
ATOM      6  C6  I4B d   1       0.688  -1.750   0.246  0.00  0.00     0.003 A 
ENDROOT
BRANCH   1   7
ATOM      7  C1' I4B d   1      -0.813  -0.260  -1.105  0.00  0.00     0.060 C 
BRANCH   7   8
ATOM      8  C2' I4B d   1      -1.073   1.212  -0.854  0.00  0.00    -0.013 C 
ATOM      9  C4' I4B d   1      -2.142   1.741  -1.773  0.00  0.00     0.013 C 
ATOM     10  C3' I4B d   1      -1.467   1.374   0.584  0.00  0.00     0.013 C 
ENDBRANCH   7   8
ENDBRANCH   1   7
TORSDOF 2
ENDMDL
