MODEL 1
REMARK minimizedAffinity -3.96431613
REMARK minimizedRMSD -1
REMARK  2 active torsions:
REMARK  status: ('A' for Active; 'I' for Inactive)
REMARK    1  A    between atoms: C2'_3  and  C1'_4 
REMARK    2  A    between atoms: C1'_4  and  C1_5 
ROOT
ATOM      1  C1  I4B d   1       0.503  -0.823   0.182  0.00  0.00    -0.075 A 
ATOM      2  C2  I4B d   1       1.749  -1.031   0.718  0.00  0.00     0.003 A 
ATOM      3  C3  I4B d   1       1.973  -2.114   1.602  0.00  0.00     0.002 A 
ATOM      4  C4  I4B d   1       0.917  -2.928   1.960  0.00  0.00    -0.004 A 
ATOM      5  C5  I4B d   1      -0.340  -2.729   1.398  0.00  0.00     0.002 A 
ATOM      6  C6  I4B d   1      -0.547  -1.677   0.494  0.00  0.00     0.003 A 
ENDROOT
BRANCH   1   7
ATOM      7  C1' I4B d   1       0.294   0.350  -0.723  0.00  0.00     0.060 C 
BRANCH   7   8
ATOM      8  C2' I4B d   1      -1.156   0.775  -0.609  0.00  0.00    -0.013 C 
ATOM      9  C4' I4B d   1      -1.500   1.165   0.804  0.00  0.00     0.013 C 
ATOM     10  C3' I4B d   1      -1.379   1.917  -1.556  0.00  0.00     0.013 C 
ENDBRANCH   7   8
ENDBRANCH   1   7
TORSDOF 2
ENDMDL
