MODEL 1
REMARK minimizedAffinity -0.783120096
REMARK minimizedRMSD -1
REMARK  2 active torsions:
REMARK  status: ('A' for Active; 'I' for Inactive)
REMARK    1  A    between atoms: C2'_3  and  C1'_4 
REMARK    2  A    between atoms: C1'_4  and  C1_5 
ROOT
ATOM      1  C1  I4B d   1      -0.084   0.548  -0.068  0.00  0.00    -0.075 A 
ATOM      2  C2  I4B d   1      -0.452  -0.556   0.660  0.00  0.00     0.003 A 
ATOM      3  C3  I4B d   1       0.490  -1.578   0.930  0.00  0.00     0.002 A 
ATOM      4  C4  I4B d   1       1.765  -1.481   0.412  0.00  0.00    -0.004 A 
ATOM      5  C5  I4B d   1       2.143  -0.351  -0.307  0.00  0.00     0.002 A 
ATOM      6  C6  I4B d   1       1.216   0.676  -0.538  0.00  0.00     0.003 A 
ENDROOT
BRANCH   1   7
ATOM      7  C1' I4B d   1      -1.113   1.593  -0.362  0.00  0.00     0.060 C 
BRANCH   7   8
ATOM      8  C2' I4B d   1      -1.237   1.715  -1.867  0.00  0.00    -0.013 C 
ATOM      9  C4' I4B d   1      -2.624   1.356  -2.331  0.00  0.00     0.013 C 
ATOM     10  C3' I4B d   1      -0.887   3.123  -2.247  0.00  0.00     0.013 C 
ENDBRANCH   7   8
ENDBRANCH   1   7
TORSDOF 2
ENDMDL
