MODEL 1
REMARK minimizedAffinity -4.40675545
REMARK minimizedRMSD -1
REMARK  2 active torsions:
REMARK  status: ('A' for Active; 'I' for Inactive)
REMARK    1  A    between atoms: C2'_3  and  C1'_4 
REMARK    2  A    between atoms: C1'_4  and  C1_5 
ROOT
ATOM      1  C1  I4B d   1      -0.190   0.031  -0.034  0.00  0.00    -0.075 A 
ATOM      2  C2  I4B d   1       1.057  -0.005  -0.609  0.00  0.00     0.003 A 
ATOM      3  C3  I4B d   1       1.903  -1.122  -0.405  0.00  0.00     0.002 A 
ATOM      4  C4  I4B d   1       1.486  -2.150   0.416  0.00  0.00    -0.004 A 
ATOM      5  C5  I4B d   1       0.213  -2.122   0.979  0.00  0.00     0.002 A 
ATOM      6  C6  I4B d   1      -0.635  -1.030   0.743  0.00  0.00     0.003 A 
ENDROOT
BRANCH   1   7
ATOM      7  C1' I4B d   1      -1.044   1.241  -0.244  0.00  0.00     0.060 C 
BRANCH   7   8
ATOM      8  C2' I4B d   1      -1.572   1.200  -1.664  0.00  0.00    -0.013 C 
ATOM      9  C4' I4B d   1      -3.077   1.196  -1.686  0.00  0.00     0.013 C 
ATOM     10  C3' I4B d   1      -1.022   2.388  -2.396  0.00  0.00     0.013 C 
ENDBRANCH   7   8
ENDBRANCH   1   7
TORSDOF 2
ENDMDL
