MODEL 1
REMARK minimizedAffinity -4.63383818
REMARK minimizedRMSD -1
REMARK  2 active torsions:
REMARK  status: ('A' for Active; 'I' for Inactive)
REMARK    1  A    between atoms: C2'_3  and  C1'_4 
REMARK    2  A    between atoms: C1'_4  and  C1_5 
ROOT
ATOM      1  C1  I4B d   1      -1.640   1.193  -1.564  0.00  0.00    -0.075 A 
ATOM      2  C2  I4B d   1      -1.347   2.473  -1.963  0.00  0.00     0.003 A 
ATOM      3  C3  I4B d   1      -1.786   2.945  -3.224  0.00  0.00     0.002 A 
ATOM      4  C4  I4B d   1      -2.467   2.092  -4.069  0.00  0.00    -0.004 A 
ATOM      5  C5  I4B d   1      -2.782   0.802  -3.653  0.00  0.00     0.002 A 
ATOM      6  C6  I4B d   1      -2.378   0.353  -2.388  0.00  0.00     0.003 A 
ENDROOT
BRANCH   1   7
ATOM      7  C1' I4B d   1      -1.133   0.717  -0.239  0.00  0.00     0.060 C 
BRANCH   7   8
ATOM      8  C2' I4B d   1      -0.122  -0.382  -0.495  0.00  0.00    -0.013 C 
ATOM      9  C4' I4B d   1       1.279   0.168  -0.549  0.00  0.00     0.013 C 
ATOM     10  C3' I4B d   1      -0.261  -1.402   0.596  0.00  0.00     0.013 C 
ENDBRANCH   7   8
ENDBRANCH   1   7
TORSDOF 2
ENDMDL
