MODEL 1
REMARK minimizedAffinity 3.23314786
REMARK minimizedRMSD -1
REMARK  0 active torsions:
REMARK  status: ('A' for Active; 'I' for Inactive)
ROOT
ATOM      1  C4' PXY d   1       0.031  -0.269  -0.710  0.00  0.00     0.077 C 
ATOM      2  C1' PXY d   1      -5.694  -0.868  -1.237  0.00  0.00     0.077 C 
ATOM      3  C1  PXY d   1      -4.191  -0.711  -1.112  0.00  0.00    -0.082 A 
ATOM      4  C2  PXY d   1      -3.587  -1.072   0.009  0.00  0.00     0.003 A 
ATOM      5  C3  PXY d   1      -2.233  -0.908   0.151  0.00  0.00     0.003 A 
ATOM      6  C4  PXY d   1      -1.482  -0.418  -0.885  0.00  0.00    -0.082 A 
ATOM      7  C5  PXY d   1      -2.090  -0.058  -2.035  0.00  0.00     0.003 A 
ATOM      8  C6  PXY d   1      -3.471  -0.194  -2.144  0.00  0.00     0.003 A 
ENDROOT
TORSDOF 0
ENDMDL
