MODEL 1
REMARK minimizedAffinity -0.157407939
REMARK minimizedRMSD -1
REMARK  0 active torsions:
REMARK  status: ('A' for Active; 'I' for Inactive)
ROOT
ATOM      1  C4' PXY d   1       1.216  -0.578   5.982  0.00  0.00     0.077 C 
ATOM      2  C1' PXY d   1      -0.931  -5.944   5.995  0.00  0.00     0.077 C 
ATOM      3  C1  PXY d   1      -0.357  -4.542   5.997  0.00  0.00    -0.082 A 
ATOM      4  C2  PXY d   1      -1.174  -3.500   6.000  0.00  0.00     0.003 A 
ATOM      5  C3  PXY d   1      -0.671  -2.225   5.969  0.00  0.00     0.003 A 
ATOM      6  C4  PXY d   1       0.681  -2.012   5.990  0.00  0.00    -0.082 A 
ATOM      7  C5  PXY d   1       1.521  -3.069   5.998  0.00  0.00     0.003 A 
ATOM      8  C6  PXY d   1       0.991  -4.356   5.987  0.00  0.00     0.003 A 
ENDROOT
TORSDOF 0
ENDMDL
