MODEL 1
REMARK minimizedAffinity 3.08263874
REMARK minimizedRMSD -1
REMARK  0 active torsions:
REMARK  status: ('A' for Active; 'I' for Inactive)
ROOT
ATOM      1  C4' PXY d   1      -0.794  -2.749  -2.149  0.00  0.00     0.077 C 
ATOM      2  C1' PXY d   1       1.310   1.247   1.460  0.00  0.00     0.077 C 
ATOM      3  C1  PXY d   1       0.769   0.199   0.506  0.00  0.00    -0.082 A 
ATOM      4  C2  PXY d   1      -0.538   0.021   0.403  0.00  0.00     0.003 A 
ATOM      5  C3  PXY d   1      -1.043  -0.943  -0.430  0.00  0.00     0.003 A 
ATOM      6  C4  PXY d   1      -0.204  -1.697  -1.206  0.00  0.00    -0.082 A 
ATOM      7  C5  PXY d   1       1.131  -1.514  -1.115  0.00  0.00     0.003 A 
ATOM      8  C6  PXY d   1       1.625  -0.558  -0.232  0.00  0.00     0.003 A 
ENDROOT
TORSDOF 0
ENDMDL
