MODEL 1
REMARK minimizedAffinity -3.94681382
REMARK minimizedRMSD -1
REMARK  0 active torsions:
REMARK  status: ('A' for Active; 'I' for Inactive)
ROOT
ATOM      1  C4' PXY d   1      -0.399  -4.841   4.574  0.00  0.00     0.077 C 
ATOM      2  C1' PXY d   1      -1.510  -4.837  -1.099  0.00  0.00     0.077 C 
ATOM      3  C1  PXY d   1      -1.220  -4.851   0.389  0.00  0.00    -0.082 A 
ATOM      4  C2  PXY d   1      -1.418  -3.755   1.104  0.00  0.00     0.003 A 
ATOM      5  C3  PXY d   1      -1.131  -3.741   2.445  0.00  0.00     0.003 A 
ATOM      6  C4  PXY d   1      -0.687  -4.875   3.071  0.00  0.00    -0.082 A 
ATOM      7  C5  PXY d   1      -0.493  -6.000   2.350  0.00  0.00     0.003 A 
ATOM      8  C6  PXY d   1      -0.751  -5.982   0.982  0.00  0.00     0.003 A 
ENDROOT
TORSDOF 0
ENDMDL
