MODEL 1
REMARK minimizedAffinity 5.78506231
REMARK minimizedRMSD -1
REMARK  0 active torsions:
REMARK  status: ('A' for Active; 'I' for Inactive)
ROOT
ATOM      1  C4' PXY d   1      -0.434  -3.236  -1.336  0.00  0.00     0.077 C 
ATOM      2  C1' PXY d   1       3.493  -0.048   1.463  0.00  0.00     0.077 C 
ATOM      3  C1  PXY d   1       2.460  -0.874   0.722  0.00  0.00    -0.082 A 
ATOM      4  C2  PXY d   1       1.929  -1.935   1.306  0.00  0.00     0.003 A 
ATOM      5  C3  PXY d   1       1.017  -2.711   0.638  0.00  0.00     0.003 A 
ATOM      6  C4  PXY d   1       0.606  -2.367  -0.622  0.00  0.00    -0.082 A 
ATOM      7  C5  PXY d   1       1.135  -1.280  -1.221  0.00  0.00     0.003 A 
ATOM      8  C6  PXY d   1       2.090  -0.529  -0.541  0.00  0.00     0.003 A 
ENDROOT
TORSDOF 0
ENDMDL
