MODEL 1
REMARK minimizedAffinity -1.02506733
REMARK minimizedRMSD -1
REMARK  0 active torsions:
REMARK  status: ('A' for Active; 'I' for Inactive)
ROOT
ATOM      1  C4' PXY d   1      -0.350  -5.727   5.980  0.00  0.00     0.077 C 
ATOM      2  C1' PXY d   1       0.719  -0.047   5.997  0.00  0.00     0.077 C 
ATOM      3  C1  PXY d   1       0.451  -1.539   5.988  0.00  0.00    -0.082 A 
ATOM      4  C2  PXY d   1      -0.797  -1.979   5.976  0.00  0.00     0.003 A 
ATOM      5  C3  PXY d   1      -1.058  -3.324   6.000  0.00  0.00     0.003 A 
ATOM      6  C4  PXY d   1      -0.031  -4.230   5.981  0.00  0.00    -0.082 A 
ATOM      7  C5  PXY d   1       1.245  -3.789   5.982  0.00  0.00     0.003 A 
ATOM      8  C6  PXY d   1       1.488  -2.419   6.000  0.00  0.00     0.003 A 
ENDROOT
TORSDOF 0
ENDMDL
