MODEL 1
REMARK minimizedAffinity 2.81856298
REMARK minimizedRMSD -1
REMARK  0 active torsions:
REMARK  status: ('A' for Active; 'I' for Inactive)
ROOT
ATOM      1  C4' PXY d   1      -0.702  -5.632   5.983  0.00  0.00     0.077 C 
ATOM      2  C1' PXY d   1       1.243  -0.189   5.996  0.00  0.00     0.077 C 
ATOM      3  C1  PXY d   1       0.722  -1.612   5.998  0.00  0.00    -0.082 A 
ATOM      4  C2  PXY d   1       1.577  -2.622   5.999  0.00  0.00     0.003 A 
ATOM      5  C3  PXY d   1       1.123  -3.915   5.969  0.00  0.00     0.003 A 
ATOM      6  C4  PXY d   1      -0.221  -4.179   5.990  0.00  0.00    -0.082 A 
ATOM      7  C5  PXY d   1      -1.100  -3.154   5.999  0.00  0.00     0.003 A 
ATOM      8  C6  PXY d   1      -0.619  -1.848   5.988  0.00  0.00     0.003 A 
ENDROOT
TORSDOF 0
ENDMDL
