MODEL 1
REMARK minimizedAffinity 15.0635767
REMARK minimizedRMSD -1
REMARK  0 active torsions:
REMARK  status: ('A' for Active; 'I' for Inactive)
ROOT
ATOM      1  C2' OXE d   1       4.052   2.499   2.086  0.00  0.00     0.078 C 
ATOM      2  C1' OXE d   1       5.403   2.004   4.496  0.00  0.00     0.078 C 
ATOM      3  C1  OXE d   1       5.381   3.421   3.980  0.00  0.00    -0.078 A 
ATOM      4  C2  OXE d   1       4.757   3.646   2.777  0.00  0.00    -0.078 A 
ATOM      5  C3  OXE d   1       4.660   4.943   2.282  0.00  0.00     0.003 A 
ATOM      6  C4  OXE d   1       5.323   5.997   2.922  0.00  0.00    -0.002 A 
ATOM      7  C5  OXE d   1       5.998   5.783   4.129  0.00  0.00    -0.002 A 
ATOM      8  C6  OXE d   1       6.000   4.512   4.692  0.00  0.00     0.003 A 
ENDROOT
TORSDOF 0
ENDMDL
