MODEL 1
REMARK minimizedAffinity 9.54834843
REMARK minimizedRMSD -1
REMARK  0 active torsions:
REMARK  status: ('A' for Active; 'I' for Inactive)
ROOT
ATOM      1  C2' OXE d   1       4.405  -0.114  -5.859  0.00  0.00     0.078 C 
ATOM      2  C1' OXE d   1       4.411  -2.921  -5.825  0.00  0.00     0.078 C 
ATOM      3  C1  OXE d   1       3.076  -2.221  -5.895  0.00  0.00    -0.078 A 
ATOM      4  C2  OXE d   1       3.081  -0.847  -5.864  0.00  0.00    -0.078 A 
ATOM      5  C3  OXE d   1       1.881  -0.151  -5.981  0.00  0.00     0.003 A 
ATOM      6  C4  OXE d   1       0.660  -0.837  -5.974  0.00  0.00    -0.002 A 
ATOM      7  C5  OXE d   1       0.632  -2.235  -5.966  0.00  0.00    -0.002 A 
ATOM      8  C6  OXE d   1       1.829  -2.941  -5.970  0.00  0.00     0.003 A 
ENDROOT
TORSDOF 0
ENDMDL
