MODEL 1
REMARK minimizedAffinity 14.076251
REMARK minimizedRMSD -1
REMARK  0 active torsions:
REMARK  status: ('A' for Active; 'I' for Inactive)
ROOT
ATOM      1  C2' OXE d   1      -2.503   0.028   1.969  0.00  0.00     0.078 C 
ATOM      2  C1' OXE d   1      -2.730  -2.346   3.449  0.00  0.00     0.078 C 
ATOM      3  C1  OXE d   1      -1.375  -1.689   3.378  0.00  0.00    -0.078 A 
ATOM      4  C2  OXE d   1      -1.263  -0.553   2.613  0.00  0.00    -0.078 A 
ATOM      5  C3  OXE d   1      -0.048   0.124   2.557  0.00  0.00     0.003 A 
ATOM      6  C4  OXE d   1       1.097  -0.425   3.147  0.00  0.00    -0.002 A 
ATOM      7  C5  OXE d   1       1.013  -1.603   3.898  0.00  0.00    -0.002 A 
ATOM      8  C6  OXE d   1      -0.221  -2.222   4.058  0.00  0.00     0.003 A 
ENDROOT
TORSDOF 0
ENDMDL
