MODEL 1
REMARK minimizedAffinity 9.83969212
REMARK minimizedRMSD -1
REMARK  0 active torsions:
REMARK  status: ('A' for Active; 'I' for Inactive)
ROOT
ATOM      1  C2' OXE d   1       0.516   1.999   5.250  0.00  0.00     0.078 C 
ATOM      2  C1' OXE d   1       2.361  -0.081   4.868  0.00  0.00     0.078 C 
ATOM      3  C1  OXE d   1       1.308   0.129   3.808  0.00  0.00    -0.078 A 
ATOM      4  C2  OXE d   1       0.381   1.119   4.027  0.00  0.00    -0.078 A 
ATOM      5  C3  OXE d   1      -0.579   1.391   3.056  0.00  0.00     0.003 A 
ATOM      6  C4  OXE d   1      -0.703   0.566   1.931  0.00  0.00    -0.002 A 
ATOM      7  C5  OXE d   1       0.206  -0.473   1.709  0.00  0.00    -0.002 A 
ATOM      8  C6  OXE d   1       1.242  -0.678   2.615  0.00  0.00     0.003 A 
ENDROOT
TORSDOF 0
ENDMDL
