MODEL 1
REMARK minimizedAffinity 15.9425201
REMARK minimizedRMSD -1
REMARK  0 active torsions:
REMARK  status: ('A' for Active; 'I' for Inactive)
ROOT
ATOM      1  C2' OXE d   1      -1.502  -4.889  -5.982  0.00  0.00     0.078 C 
ATOM      2  C1' OXE d   1       1.292  -4.619  -5.998  0.00  0.00     0.078 C 
ATOM      3  C1  OXE d   1       0.481  -3.500  -5.395  0.00  0.00    -0.078 A 
ATOM      4  C2  OXE d   1      -0.888  -3.619  -5.433  0.00  0.00    -0.078 A 
ATOM      5  C3  OXE d   1      -1.682  -2.641  -4.842  0.00  0.00     0.003 A 
ATOM      6  C4  OXE d   1      -1.106  -1.465  -4.345  0.00  0.00    -0.002 A 
ATOM      7  C5  OXE d   1       0.283  -1.306  -4.332  0.00  0.00    -0.002 A 
ATOM      8  C6  OXE d   1       1.091  -2.330  -4.814  0.00  0.00     0.003 A 
ENDROOT
TORSDOF 0
ENDMDL
