MODEL 1
REMARK minimizedAffinity 11.6628675
REMARK minimizedRMSD -1
REMARK  0 active torsions:
REMARK  status: ('A' for Active; 'I' for Inactive)
ROOT
ATOM      1  C2' OXE d   1      -1.106  -1.575  -2.687  0.00  0.00     0.078 C 
ATOM      2  C1' OXE d   1       0.737  -1.180  -4.767  0.00  0.00     0.078 C 
ATOM      3  C1  OXE d   1      -0.198  -2.360  -4.870  0.00  0.00    -0.078 A 
ATOM      4  C2  OXE d   1      -1.064  -2.572  -3.825  0.00  0.00    -0.078 A 
ATOM      5  C3  OXE d   1      -1.985  -3.614  -3.893  0.00  0.00     0.003 A 
ATOM      6  C4  OXE d   1      -1.933  -4.538  -4.944  0.00  0.00    -0.002 A 
ATOM      7  C5  OXE d   1      -1.031  -4.363  -5.999  0.00  0.00    -0.002 A 
ATOM      8  C6  OXE d   1      -0.187  -3.257  -5.998  0.00  0.00     0.003 A 
ENDROOT
TORSDOF 0
ENDMDL
