MODEL 1
REMARK minimizedAffinity 18.7442322
REMARK minimizedRMSD -1
REMARK  0 active torsions:
REMARK  status: ('A' for Active; 'I' for Inactive)
ROOT
ATOM      1  C2' OXE d   1      -1.482  -2.984  -4.864  0.00  0.00     0.078 C 
ATOM      2  C1' OXE d   1      -1.147  -1.425  -2.553  0.00  0.00     0.078 C 
ATOM      3  C1  OXE d   1      -0.275  -1.114  -3.744  0.00  0.00    -0.078 A 
ATOM      4  C2  OXE d   1      -0.413  -1.912  -4.855  0.00  0.00    -0.078 A 
ATOM      5  C3  OXE d   1       0.327  -1.633  -6.000  0.00  0.00     0.003 A 
ATOM      6  C4  OXE d   1       1.320  -0.647  -5.980  0.00  0.00    -0.002 A 
ATOM      7  C5  OXE d   1       1.505   0.151  -4.846  0.00  0.00    -0.002 A 
ATOM      8  C6  OXE d   1       0.688  -0.041  -3.737  0.00  0.00     0.003 A 
ENDROOT
TORSDOF 0
ENDMDL
