MODEL 1
REMARK minimizedAffinity 10.3860273
REMARK minimizedRMSD -1
REMARK  0 active torsions:
REMARK  status: ('A' for Active; 'I' for Inactive)
ROOT
ATOM      1  C2' OXE d   1       3.747  -2.727  -5.626  0.00  0.00     0.078 C 
ATOM      2  C1' OXE d   1       3.765   0.051  -5.224  0.00  0.00     0.078 C 
ATOM      3  C1  OXE d   1       2.436  -0.614  -5.475  0.00  0.00    -0.078 A 
ATOM      4  C2  OXE d   1       2.442  -1.967  -5.717  0.00  0.00    -0.078 A 
ATOM      5  C3  OXE d   1       1.237  -2.640  -5.901  0.00  0.00     0.003 A 
ATOM      6  C4  OXE d   1       0.035  -1.928  -5.994  0.00  0.00    -0.002 A 
ATOM      7  C5  OXE d   1       0.011  -0.545  -5.790  0.00  0.00    -0.002 A 
ATOM      8  C6  OXE d   1       1.194   0.120  -5.488  0.00  0.00     0.003 A 
ENDROOT
TORSDOF 0
ENDMDL
