MODEL 1
REMARK minimizedAffinity 12.8760576
REMARK minimizedRMSD -1
REMARK  0 active torsions:
REMARK  status: ('A' for Active; 'I' for Inactive)
ROOT
ATOM      1  C2' OXE d   1       4.287   1.125   4.523  0.00  0.00     0.078 C 
ATOM      2  C1' OXE d   1       4.026  -1.331   5.858  0.00  0.00     0.078 C 
ATOM      3  C1  OXE d   1       2.986  -0.977   4.825  0.00  0.00    -0.078 A 
ATOM      4  C2  OXE d   1       3.095   0.247   4.210  0.00  0.00    -0.078 A 
ATOM      5  C3  OXE d   1       2.193   0.600   3.210  0.00  0.00     0.003 A 
ATOM      6  C4  OXE d   1       1.088  -0.214   2.934  0.00  0.00    -0.002 A 
ATOM      7  C5  OXE d   1       0.935  -1.447   3.577  0.00  0.00    -0.002 A 
ATOM      8  C6  OXE d   1       1.896  -1.862   4.492  0.00  0.00     0.003 A 
ENDROOT
TORSDOF 0
ENDMDL
