MODEL 1
REMARK minimizedAffinity -0.479837418
REMARK minimizedRMSD -1
REMARK  0 active torsions:
REMARK  status: ('A' for Active; 'I' for Inactive)
ROOT
ATOM      1  C4' PXY d   1       1.226   4.396   0.279  0.00  0.00     0.077 C 
ATOM      2  C1' PXY d   1       1.256  -1.196  -1.184  0.00  0.00     0.077 C 
ATOM      3  C1  PXY d   1       1.258   0.272  -0.808  0.00  0.00    -0.082 A 
ATOM      4  C2  PXY d   1       0.690   0.659   0.323  0.00  0.00     0.003 A 
ATOM      5  C3  PXY d   1       0.655   1.987   0.663  0.00  0.00     0.003 A 
ATOM      6  C4  PXY d   1       1.255   2.923  -0.137  0.00  0.00    -0.082 A 
ATOM      7  C5  PXY d   1       1.847   2.535  -1.286  0.00  0.00     0.003 A 
ATOM      8  C6  PXY d   1       1.835   1.187  -1.633  0.00  0.00     0.003 A 
ENDROOT
TORSDOF 0
ENDMDL
