MODEL 1
REMARK minimizedAffinity 2.14153719
REMARK minimizedRMSD -1
REMARK  0 active torsions:
REMARK  status: ('A' for Active; 'I' for Inactive)
ROOT
ATOM      1  C4' PXY d   1       3.867  -1.307  -0.065  0.00  0.00     0.077 C 
ATOM      2  C1' PXY d   1      -0.126   2.722  -1.176  0.00  0.00     0.077 C 
ATOM      3  C1  PXY d   1       0.925   1.665  -0.897  0.00  0.00    -0.082 A 
ATOM      4  C2  PXY d   1       0.797   0.879   0.159  0.00  0.00     0.003 A 
ATOM      5  C3  PXY d   1       1.754  -0.061   0.444  0.00  0.00     0.003 A 
ATOM      6  C4  PXY d   1       2.826  -0.233  -0.390  0.00  0.00    -0.082 A 
ATOM      7  C5  PXY d   1       2.958   0.559  -1.476  0.00  0.00     0.003 A 
ATOM      8  C6  PXY d   1       1.997   1.534  -1.725  0.00  0.00     0.003 A 
ENDROOT
TORSDOF 0
ENDMDL
