MODEL 1
REMARK minimizedAffinity -5.78766632
REMARK minimizedRMSD -1
REMARK  0 active torsions:
REMARK  status: ('A' for Active; 'I' for Inactive)
ROOT
ATOM      1  C4' PXY d   1       1.629   5.722  -0.620  0.00  0.00     0.077 C 
ATOM      2  C1' PXY d   1       0.915  -0.014  -0.539  0.00  0.00     0.077 C 
ATOM      3  C1  PXY d   1       1.097   1.491  -0.549  0.00  0.00    -0.082 A 
ATOM      4  C2  PXY d   1       1.182   2.132  -1.703  0.00  0.00     0.003 A 
ATOM      5  C3  PXY d   1       1.378   3.489  -1.729  0.00  0.00     0.003 A 
ATOM      6  C4  PXY d   1       1.435   4.204  -0.563  0.00  0.00    -0.082 A 
ATOM      7  C5  PXY d   1       1.339   3.558   0.618  0.00  0.00     0.003 A 
ATOM      8  C6  PXY d   1       1.181   2.175   0.624  0.00  0.00     0.003 A 
ENDROOT
TORSDOF 0
ENDMDL
