MODEL 1
REMARK minimizedAffinity -1.08563673
REMARK minimizedRMSD -1
REMARK  0 active torsions:
REMARK  status: ('A' for Active; 'I' for Inactive)
ROOT
ATOM      1  C4' PXY d   1       0.912  -0.680  -0.720  0.00  0.00     0.077 C 
ATOM      2  C1' PXY d   1       1.499   5.067  -0.924  0.00  0.00     0.077 C 
ATOM      3  C1  PXY d   1       1.350   3.560  -0.858  0.00  0.00    -0.082 A 
ATOM      4  C2  PXY d   1       1.345   2.854  -1.977  0.00  0.00     0.003 A 
ATOM      5  C3  PXY d   1       1.178   1.493  -1.938  0.00  0.00     0.003 A 
ATOM      6  C4  PXY d   1       1.070   0.843  -0.738  0.00  0.00    -0.082 A 
ATOM      7  C5  PXY d   1       1.085   1.555   0.409  0.00  0.00     0.003 A 
ATOM      8  C6  PXY d   1       1.213   2.939   0.345  0.00  0.00     0.003 A 
ENDROOT
TORSDOF 0
ENDMDL
