MODEL 1
REMARK minimizedAffinity -3.70506096
REMARK minimizedRMSD -1
REMARK  0 active torsions:
REMARK  status: ('A' for Active; 'I' for Inactive)
ROOT
ATOM      1  C4' PXY d   1       1.749   5.270  -1.017  0.00  0.00     0.077 C 
ATOM      2  C1' PXY d   1       0.695  -0.398  -0.597  0.00  0.00     0.077 C 
ATOM      3  C1  PXY d   1       0.980   1.086  -0.717  0.00  0.00    -0.082 A 
ATOM      4  C2  PXY d   1       0.812   1.872   0.334  0.00  0.00     0.003 A 
ATOM      5  C3  PXY d   1       1.034   3.221   0.235  0.00  0.00     0.003 A 
ATOM      6  C4  PXY d   1       1.483   3.764  -0.939  0.00  0.00    -0.082 A 
ATOM      7  C5  PXY d   1       1.667   2.968  -2.013  0.00  0.00     0.003 A 
ATOM      8  C6  PXY d   1       1.397   1.607  -1.903  0.00  0.00     0.003 A 
ENDROOT
TORSDOF 0
ENDMDL
