MODEL 1
REMARK minimizedAffinity -1.86443198
REMARK minimizedRMSD -1
REMARK  0 active torsions:
REMARK  status: ('A' for Active; 'I' for Inactive)
ROOT
ATOM      1  C4' PXY d   1       1.524   4.778  -0.013  0.00  0.00     0.077 C 
ATOM      2  C1' PXY d   1       0.906  -0.868  -1.087  0.00  0.00     0.077 C 
ATOM      3  C1  PXY d   1       1.060   0.612  -0.796  0.00  0.00    -0.082 A 
ATOM      4  C2  PXY d   1       1.480   1.427  -1.750  0.00  0.00     0.003 A 
ATOM      5  C3  PXY d   1       1.655   2.762  -1.495  0.00  0.00     0.003 A 
ATOM      6  C4  PXY d   1       1.346   3.279  -0.265  0.00  0.00    -0.082 A 
ATOM      7  C5  PXY d   1       0.906   2.456   0.711  0.00  0.00     0.003 A 
ATOM      8  C6  PXY d   1       0.775   1.096   0.443  0.00  0.00     0.003 A 
ENDROOT
TORSDOF 0
ENDMDL
