MODEL 1
REMARK minimizedAffinity 0.620290816
REMARK minimizedRMSD -1
REMARK  0 active torsions:
REMARK  status: ('A' for Active; 'I' for Inactive)
ROOT
ATOM      1  C4' PXY d   1       1.087   0.376  -0.552  0.00  0.00     0.077 C 
ATOM      2  C1' PXY d   1       2.173   5.981  -1.455  0.00  0.00     0.077 C 
ATOM      3  C1  PXY d   1       1.892   4.512  -1.206  0.00  0.00    -0.082 A 
ATOM      4  C2  PXY d   1       1.887   3.666  -2.223  0.00  0.00     0.003 A 
ATOM      5  C3  PXY d   1       1.604   2.340  -2.020  0.00  0.00     0.003 A 
ATOM      6  C4  PXY d   1       1.375   1.866  -0.756  0.00  0.00    -0.082 A 
ATOM      7  C5  PXY d   1       1.389   2.721   0.288  0.00  0.00     0.003 A 
ATOM      8  C6  PXY d   1       1.638   4.071   0.056  0.00  0.00     0.003 A 
ENDROOT
TORSDOF 0
ENDMDL
