MODEL 1
REMARK minimizedAffinity -3.60999584
REMARK minimizedRMSD -1
REMARK  0 active torsions:
REMARK  status: ('A' for Active; 'I' for Inactive)
ROOT
ATOM      1  C4' PXY d   1       1.855   5.556  -0.518  0.00  0.00     0.077 C 
ATOM      2  C1' PXY d   1       0.850  -0.136  -0.601  0.00  0.00     0.077 C 
ATOM      3  C1  PXY d   1       1.107   1.358  -0.568  0.00  0.00    -0.082 A 
ATOM      4  C2  PXY d   1       1.381   2.000  -1.693  0.00  0.00     0.003 A 
ATOM      5  C3  PXY d   1       1.647   3.345  -1.677  0.00  0.00     0.003 A 
ATOM      6  C4  PXY d   1       1.580   4.050  -0.505  0.00  0.00    -0.082 A 
ATOM      7  C5  PXY d   1       1.291   3.405   0.645  0.00  0.00     0.003 A 
ATOM      8  C6  PXY d   1       1.064   2.032   0.613  0.00  0.00     0.003 A 
ENDROOT
TORSDOF 0
ENDMDL
