MODEL 1
REMARK minimizedAffinity 4.50281
REMARK minimizedRMSD -1
REMARK  0 active torsions:
REMARK  status: ('A' for Active; 'I' for Inactive)
ROOT
ATOM      1  C4' PXY d   1       1.136   5.418  -0.868  0.00  0.00     0.077 C 
ATOM      2  C1' PXY d   1       1.017  -0.324  -1.530  0.00  0.00     0.077 C 
ATOM      3  C1  PXY d   1       1.043   1.181  -1.345  0.00  0.00    -0.082 A 
ATOM      4  C2  PXY d   1       1.089   1.970  -2.406  0.00  0.00     0.003 A 
ATOM      5  C3  PXY d   1       1.145   3.331  -2.256  0.00  0.00     0.003 A 
ATOM      6  C4  PXY d   1       1.100   3.893  -1.008  0.00  0.00    -0.082 A 
ATOM      7  C5  PXY d   1       1.042   3.095   0.079  0.00  0.00     0.003 A 
ATOM      8  C6  PXY d   1       1.028   1.714  -0.093  0.00  0.00     0.003 A 
ENDROOT
TORSDOF 0
ENDMDL
