MODEL 1
REMARK minimizedAffinity 4.59282732
REMARK minimizedRMSD -1
REMARK  0 active torsions:
REMARK  status: ('A' for Active; 'I' for Inactive)
ROOT
ATOM      1  C4' PXY d   1       0.745  -0.752  -1.122  0.00  0.00     0.077 C 
ATOM      2  C1' PXY d   1       2.050   4.879  -1.145  0.00  0.00     0.077 C 
ATOM      3  C1  PXY d   1       1.714   3.401  -1.128  0.00  0.00    -0.082 A 
ATOM      4  C2  PXY d   1       1.436   2.780  -2.263  0.00  0.00     0.003 A 
ATOM      5  C3  PXY d   1       1.100   1.451  -2.262  0.00  0.00     0.003 A 
ATOM      6  C4  PXY d   1       1.099   0.737  -1.093  0.00  0.00    -0.082 A 
ATOM      7  C5  PXY d   1       1.391   1.361   0.068  0.00  0.00     0.003 A 
ATOM      8  C6  PXY d   1       1.690   2.720   0.050  0.00  0.00     0.003 A 
ENDROOT
TORSDOF 0
ENDMDL
