MODEL 1
REMARK minimizedAffinity -4.16537762
REMARK minimizedRMSD -1
REMARK  0 active torsions:
REMARK  status: ('A' for Active; 'I' for Inactive)
ROOT
ATOM      1  C4' PXY d   1       0.656  -0.036  -0.810  0.00  0.00     0.077 C 
ATOM      2  C1' PXY d   1       1.737   5.633  -1.148  0.00  0.00     0.077 C 
ATOM      3  C1  PXY d   1       1.458   4.146  -1.047  0.00  0.00    -0.082 A 
ATOM      4  C2  PXY d   1       1.456   3.405  -2.143  0.00  0.00     0.003 A 
ATOM      5  C3  PXY d   1       1.174   2.065  -2.074  0.00  0.00     0.003 A 
ATOM      6  C4  PXY d   1       0.943   1.467  -0.864  0.00  0.00    -0.082 A 
ATOM      7  C5  PXY d   1       0.953   2.215   0.260  0.00  0.00     0.003 A 
ATOM      8  C6  PXY d   1       1.201   3.581   0.164  0.00  0.00     0.003 A 
ENDROOT
TORSDOF 0
ENDMDL
