MODEL 1
REMARK minimizedAffinity -1.69571304
REMARK minimizedRMSD -1
REMARK  0 active torsions:
REMARK  status: ('A' for Active; 'I' for Inactive)
ROOT
ATOM      1  C4' PXY d   1       1.377   4.635  -1.624  0.00  0.00     0.077 C 
ATOM      2  C1' PXY d   1       1.366  -0.809   0.320  0.00  0.00     0.077 C 
ATOM      3  C1  PXY d   1       1.375   0.615  -0.201  0.00  0.00    -0.082 A 
ATOM      4  C2  PXY d   1       1.352   1.624   0.654  0.00  0.00     0.003 A 
ATOM      5  C3  PXY d   1       1.327   2.918   0.200  0.00  0.00     0.003 A 
ATOM      6  C4  PXY d   1       1.379   3.181  -1.143  0.00  0.00    -0.082 A 
ATOM      7  C5  PXY d   1       1.413   2.157  -2.021  0.00  0.00     0.003 A 
ATOM      8  C6  PXY d   1       1.396   0.851  -1.541  0.00  0.00     0.003 A 
ENDROOT
TORSDOF 0
ENDMDL
