MODEL 1
REMARK minimizedAffinity -2.3070035
REMARK minimizedRMSD -1
REMARK  0 active torsions:
REMARK  status: ('A' for Active; 'I' for Inactive)
ROOT
ATOM      1  C4' PXY d   1       0.757  -1.112  -0.010  0.00  0.00     0.077 C 
ATOM      2  C1' PXY d   1       1.502   4.413  -1.539  0.00  0.00     0.077 C 
ATOM      3  C1  PXY d   1       1.311   2.967  -1.126  0.00  0.00    -0.082 A 
ATOM      4  C2  PXY d   1       1.328   2.016  -2.046  0.00  0.00     0.003 A 
ATOM      5  C3  PXY d   1       1.125   0.707  -1.694  0.00  0.00     0.003 A 
ATOM      6  C4  PXY d   1       0.955   0.361  -0.380  0.00  0.00    -0.082 A 
ATOM      7  C5  PXY d   1       0.946   1.324   0.566  0.00  0.00     0.003 A 
ATOM      8  C6  PXY d   1       1.113   2.652   0.183  0.00  0.00     0.003 A 
ENDROOT
TORSDOF 0
ENDMDL
