MODEL 1
REMARK minimizedAffinity 4.71736813
REMARK minimizedRMSD -1
REMARK  0 active torsions:
REMARK  status: ('A' for Active; 'I' for Inactive)
ROOT
ATOM      1  C4' PXY d   1       1.898   5.999  -1.527  0.00  0.00     0.077 C 
ATOM      2  C1' PXY d   1       1.665   1.786   2.424  0.00  0.00     0.077 C 
ATOM      3  C1  PXY d   1       1.732   2.883   1.379  0.00  0.00    -0.082 A 
ATOM      4  C2  PXY d   1       1.728   4.150   1.760  0.00  0.00     0.003 A 
ATOM      5  C3  PXY d   1       1.756   5.154   0.828  0.00  0.00     0.003 A 
ATOM      6  C4  PXY d   1       1.842   4.859  -0.507  0.00  0.00    -0.082 A 
ATOM      7  C5  PXY d   1       1.857   3.569  -0.903  0.00  0.00     0.003 A 
ATOM      8  C6  PXY d   1       1.786   2.564   0.058  0.00  0.00     0.003 A 
ENDROOT
TORSDOF 0
ENDMDL
