MODEL 1
REMARK minimizedAffinity 4.77402449
REMARK minimizedRMSD -1
REMARK  0 active torsions:
REMARK  status: ('A' for Active; 'I' for Inactive)
ROOT
ATOM      1  C4' PXY d   1       2.233   6.000  -0.893  0.00  0.00     0.077 C 
ATOM      2  C1' PXY d   1       0.949   0.434  -1.781  0.00  0.00     0.077 C 
ATOM      3  C1  PXY d   1       1.276   1.895  -1.540  0.00  0.00    -0.082 A 
ATOM      4  C2  PXY d   1       1.934   2.579  -2.462  0.00  0.00     0.003 A 
ATOM      5  C3  PXY d   1       2.265   3.892  -2.246  0.00  0.00     0.003 A 
ATOM      6  C4  PXY d   1       1.873   4.526  -1.098  0.00  0.00    -0.082 A 
ATOM      7  C5  PXY d   1       1.193   3.838  -0.157  0.00  0.00     0.003 A 
ATOM      8  C6  PXY d   1       0.902   2.494  -0.377  0.00  0.00     0.003 A 
ENDROOT
TORSDOF 0
ENDMDL
