MODEL 1
REMARK minimizedAffinity -4.95463467
REMARK minimizedRMSD -1
REMARK  0 active torsions:
REMARK  status: ('A' for Active; 'I' for Inactive)
ROOT
ATOM      1  C4' PXY d   1       0.619   0.242  -0.415  0.00  0.00     0.077 C 
ATOM      2  C1' PXY d   1       1.867   5.842  -1.121  0.00  0.00     0.077 C 
ATOM      3  C1  PXY d   1       1.545   4.374  -0.924  0.00  0.00    -0.082 A 
ATOM      4  C2  PXY d   1       1.440   3.580  -1.977  0.00  0.00     0.003 A 
ATOM      5  C3  PXY d   1       1.117   2.257  -1.819  0.00  0.00     0.003 A 
ATOM      6  C4  PXY d   1       0.953   1.729  -0.566  0.00  0.00    -0.082 A 
ATOM      7  C5  PXY d   1       1.068   2.530   0.514  0.00  0.00     0.003 A 
ATOM      8  C6  PXY d   1       1.356   3.879   0.330  0.00  0.00     0.003 A 
ENDROOT
TORSDOF 0
ENDMDL
