MODEL 1
REMARK minimizedAffinity -2.35877514
REMARK minimizedRMSD -1
REMARK  0 active torsions:
REMARK  status: ('A' for Active; 'I' for Inactive)
ROOT
ATOM      1  C4' PXY d   1       1.511   0.288  -1.138  0.00  0.00     0.077 C 
ATOM      2  C1' PXY d   1       1.828   5.997  -0.290  0.00  0.00     0.077 C 
ATOM      3  C1  PXY d   1       1.749   4.498  -0.500  0.00  0.00    -0.082 A 
ATOM      4  C2  PXY d   1       1.833   4.004  -1.724  0.00  0.00     0.003 A 
ATOM      5  C3  PXY d   1       1.732   2.653  -1.936  0.00  0.00     0.003 A 
ATOM      6  C4  PXY d   1       1.595   1.794  -0.878  0.00  0.00    -0.082 A 
ATOM      7  C5  PXY d   1       1.519   2.290   0.375  0.00  0.00     0.003 A 
ATOM      8  C6  PXY d   1       1.583   3.667   0.565  0.00  0.00     0.003 A 
ENDROOT
TORSDOF 0
ENDMDL
