MODEL 1
REMARK minimizedAffinity -3.44922996
REMARK minimizedRMSD -1
REMARK  0 active torsions:
REMARK  status: ('A' for Active; 'I' for Inactive)
ROOT
ATOM      1  C4' PXY d   1       1.103  -0.201  -0.727  0.00  0.00     0.077 C 
ATOM      2  C1' PXY d   1       1.584   5.555  -0.498  0.00  0.00     0.077 C 
ATOM      3  C1  PXY d   1       1.460   4.045  -0.545  0.00  0.00    -0.082 A 
ATOM      4  C2  PXY d   1       1.678   3.406  -1.683  0.00  0.00     0.003 A 
ATOM      5  C3  PXY d   1       1.539   2.044  -1.751  0.00  0.00     0.003 A 
ATOM      6  C4  PXY d   1       1.226   1.322  -0.630  0.00  0.00    -0.082 A 
ATOM      7  C5  PXY d   1       1.012   1.966   0.537  0.00  0.00     0.003 A 
ATOM      8  C6  PXY d   1       1.118   3.353   0.576  0.00  0.00     0.003 A 
ENDROOT
TORSDOF 0
ENDMDL
