MODEL 1
REMARK minimizedAffinity 11.0483885
REMARK minimizedRMSD -1
REMARK  0 active torsions:
REMARK  status: ('A' for Active; 'I' for Inactive)
ROOT
ATOM      1  C   UNL d   1      -5.731  -5.466   2.130  0.00  0.00     0.023 A 
ATOM      2  C1  UNL d   1      -5.358  -4.139   1.914  0.00  0.00     0.003 A 
ATOM      3  C2  UNL d   1      -5.255  -3.258   2.992  0.00  0.00     0.048 A 
ATOM      4  C3  UNL d   1      -5.524  -3.710   4.284  0.00  0.00     0.023 A 
ATOM      5  C4  UNL d   1      -5.897  -5.037   4.504  0.00  0.00     0.048 A 
ATOM      6  C5  UNL d   1      -6.000  -5.914   3.423  0.00  0.00     0.003 A 
ATOM      7  I   UNL d   1      -5.371  -2.400   5.890  0.00  0.00    -0.146 I 
ENDROOT
TORSDOF 0
ENDMDL
