MODEL 1
REMARK minimizedAffinity 3.3808527
REMARK minimizedRMSD -1
REMARK  0 active torsions:
REMARK  status: ('A' for Active; 'I' for Inactive)
ROOT
ATOM      1  C   UNL d   1       3.163   4.809  -2.312  0.00  0.00     0.023 A 
ATOM      2  C1  UNL d   1       2.937   3.729  -3.164  0.00  0.00     0.003 A 
ATOM      3  C2  UNL d   1       1.899   3.779  -4.097  0.00  0.00     0.048 A 
ATOM      4  C3  UNL d   1       1.092   4.914  -4.173  0.00  0.00     0.023 A 
ATOM      5  C4  UNL d   1       1.315   5.998  -3.323  0.00  0.00     0.048 A 
ATOM      6  C5  UNL d   1       2.353   5.943  -2.391  0.00  0.00     0.003 A 
ATOM      7  I   UNL d   1      -0.453   4.992  -5.561  0.00  0.00    -0.146 I 
ENDROOT
TORSDOF 0
ENDMDL
