MODEL 1
REMARK minimizedAffinity 5.13382912
REMARK minimizedRMSD -1
REMARK  0 active torsions:
REMARK  status: ('A' for Active; 'I' for Inactive)
ROOT
ATOM      1  C   UNL d   1      -4.345   0.383   5.237  0.00  0.00     0.023 A 
ATOM      2  C1  UNL d   1      -5.478   0.707   5.984  0.00  0.00     0.003 A 
ATOM      3  C2  UNL d   1      -5.954   2.019   6.000  0.00  0.00     0.048 A 
ATOM      4  C3  UNL d   1      -5.292   3.004   5.267  0.00  0.00     0.023 A 
ATOM      5  C4  UNL d   1      -4.158   2.685   4.518  0.00  0.00     0.048 A 
ATOM      6  C5  UNL d   1      -3.686   1.371   4.505  0.00  0.00     0.003 A 
ATOM      7  I   UNL d   1      -5.999   4.958   5.289  0.00  0.00    -0.146 I 
ENDROOT
TORSDOF 0
ENDMDL
