MODEL 1
REMARK minimizedAffinity 13.8509941
REMARK minimizedRMSD -1
REMARK  0 active torsions:
REMARK  status: ('A' for Active; 'I' for Inactive)
ROOT
ATOM      1  C   UNL d   1       0.925  -2.701   2.612  0.00  0.00     0.023 A 
ATOM      2  C1  UNL d   1       0.965  -2.306   3.949  0.00  0.00     0.003 A 
ATOM      3  C2  UNL d   1       0.035  -1.384   4.435  0.00  0.00     0.048 A 
ATOM      4  C3  UNL d   1      -0.933  -0.862   3.577  0.00  0.00     0.023 A 
ATOM      5  C4  UNL d   1      -0.977  -1.255   2.239  0.00  0.00     0.048 A 
ATOM      6  C5  UNL d   1      -0.045  -2.176   1.758  0.00  0.00     0.003 A 
ATOM      7  I   UNL d   1      -2.318   0.511   4.297  0.00  0.00    -0.146 I 
ENDROOT
TORSDOF 0
ENDMDL
