MODEL 1
REMARK minimizedAffinity 14.854311
REMARK minimizedRMSD -1
REMARK  0 active torsions:
REMARK  status: ('A' for Active; 'I' for Inactive)
ROOT
ATOM      1  C   UNL d   1      -2.758  -0.105   1.566  0.00  0.00     0.023 A 
ATOM      2  C1  UNL d   1      -2.215  -1.183   0.866  0.00  0.00     0.003 A 
ATOM      3  C2  UNL d   1      -1.014  -1.756   1.287  0.00  0.00     0.048 A 
ATOM      4  C3  UNL d   1      -0.361  -1.248   2.410  0.00  0.00     0.023 A 
ATOM      5  C4  UNL d   1      -0.901  -0.171   3.114  0.00  0.00     0.048 A 
ATOM      6  C5  UNL d   1      -2.102   0.400   2.688  0.00  0.00     0.003 A 
ATOM      7  I   UNL d   1       1.427  -2.101   3.039  0.00  0.00    -0.146 I 
ENDROOT
TORSDOF 0
ENDMDL
