MODEL 1
REMARK minimizedAffinity 13.5786781
REMARK minimizedRMSD -1
REMARK  0 active torsions:
REMARK  status: ('A' for Active; 'I' for Inactive)
ROOT
ATOM      1  C   UNL d   1       3.615   3.155  -3.406  0.00  0.00     0.023 A 
ATOM      2  C1  UNL d   1       4.322   3.432  -2.236  0.00  0.00     0.003 A 
ATOM      3  C2  UNL d   1       4.024   2.743  -1.059  0.00  0.00     0.048 A 
ATOM      4  C3  UNL d   1       3.019   1.777  -1.059  0.00  0.00     0.023 A 
ATOM      5  C4  UNL d   1       2.310   1.495  -2.227  0.00  0.00     0.048 A 
ATOM      6  C5  UNL d   1       2.610   2.187  -3.402  0.00  0.00     0.003 A 
ATOM      7  I   UNL d   1       2.575   0.749   0.693  0.00  0.00    -0.146 I 
ENDROOT
TORSDOF 0
ENDMDL
