MODEL 1
REMARK minimizedAffinity 4.9608407
REMARK minimizedRMSD -1
REMARK  0 active torsions:
REMARK  status: ('A' for Active; 'I' for Inactive)
ROOT
ATOM      1  C   UNL d   1      -2.422   0.005   2.376  0.00  0.00     0.023 A 
ATOM      2  C1  UNL d   1      -1.964  -0.868   1.388  0.00  0.00     0.003 A 
ATOM      3  C2  UNL d   1      -0.820  -1.637   1.610  0.00  0.00     0.048 A 
ATOM      4  C3  UNL d   1      -0.139  -1.529   2.823  0.00  0.00     0.023 A 
ATOM      5  C4  UNL d   1      -0.594  -0.658   3.814  0.00  0.00     0.048 A 
ATOM      6  C5  UNL d   1      -1.738   0.109   3.587  0.00  0.00     0.003 A 
ATOM      7  I   UNL d   1       1.564  -2.673   3.155  0.00  0.00    -0.146 I 
ENDROOT
TORSDOF 0
ENDMDL
