MODEL 1
REMARK minimizedAffinity 4.76751471
REMARK minimizedRMSD -1
REMARK  0 active torsions:
REMARK  status: ('A' for Active; 'I' for Inactive)
ROOT
ATOM      1  C   UNL d   1      -5.362  -5.287   1.684  0.00  0.00     0.023 A 
ATOM      2  C1  UNL d   1      -4.999  -3.948   1.830  0.00  0.00     0.003 A 
ATOM      3  C2  UNL d   1      -5.136  -3.316   3.067  0.00  0.00     0.048 A 
ATOM      4  C3  UNL d   1      -5.635  -4.030   4.156  0.00  0.00     0.023 A 
ATOM      5  C4  UNL d   1      -5.998  -5.371   4.016  0.00  0.00     0.048 A 
ATOM      6  C5  UNL d   1      -5.861  -5.997   2.776  0.00  0.00     0.003 A 
ATOM      7  I   UNL d   1      -5.840  -3.093   6.000  0.00  0.00    -0.146 I 
ENDROOT
TORSDOF 0
ENDMDL
