MODEL 1
REMARK minimizedAffinity 7.92263603
REMARK minimizedRMSD -1
REMARK  0 active torsions:
REMARK  status: ('A' for Active; 'I' for Inactive)
ROOT
ATOM      1  C   UNL d   1       6.000  -5.052  -0.779  0.00  0.00     0.023 A 
ATOM      2  C1  UNL d   1       5.032  -5.994  -0.431  0.00  0.00     0.003 A 
ATOM      3  C2  UNL d   1       3.713  -5.592  -0.207  0.00  0.00     0.048 A 
ATOM      4  C3  UNL d   1       3.370  -4.246  -0.333  0.00  0.00     0.023 A 
ATOM      5  C4  UNL d   1       4.335  -3.300  -0.682  0.00  0.00     0.048 A 
ATOM      6  C5  UNL d   1       5.652  -3.707  -0.904  0.00  0.00     0.003 A 
ATOM      7  I   UNL d   1       1.408  -3.646   0.000  0.00  0.00    -0.146 I 
ENDROOT
TORSDOF 0
ENDMDL
