MODEL 1
REMARK minimizedAffinity 8.30569744
REMARK minimizedRMSD -1
REMARK  0 active torsions:
REMARK  status: ('A' for Active; 'I' for Inactive)
ROOT
ATOM      1  C   UNL d   1      -2.930   0.452   2.013  0.00  0.00     0.023 A 
ATOM      2  C1  UNL d   1      -2.339   0.528   3.274  0.00  0.00     0.003 A 
ATOM      3  C2  UNL d   1      -1.212  -0.243   3.566  0.00  0.00     0.048 A 
ATOM      4  C3  UNL d   1      -0.681  -1.088   2.592  0.00  0.00     0.023 A 
ATOM      5  C4  UNL d   1      -1.269  -1.167   1.329  0.00  0.00     0.048 A 
ATOM      6  C5  UNL d   1      -2.396  -0.394   1.041  0.00  0.00     0.003 A 
ATOM      7  I   UNL d   1       0.996  -2.237   3.025  0.00  0.00    -0.146 I 
ENDROOT
TORSDOF 0
ENDMDL
