MODEL 1
REMARK minimizedAffinity 11.9905205
REMARK minimizedRMSD -1
REMARK  0 active torsions:
REMARK  status: ('A' for Active; 'I' for Inactive)
ROOT
ATOM      1  C   UNL d   1      -3.344  -0.394   0.634  0.00  0.00     0.023 A 
ATOM      2  C1  UNL d   1      -2.900  -1.693   0.383  0.00  0.00     0.003 A 
ATOM      3  C2  UNL d   1      -1.640  -2.099   0.825  0.00  0.00     0.048 A 
ATOM      4  C3  UNL d   1      -0.828  -1.203   1.519  0.00  0.00     0.023 A 
ATOM      5  C4  UNL d   1      -1.268   0.097   1.774  0.00  0.00     0.048 A 
ATOM      6  C5  UNL d   1      -2.528   0.500   1.329  0.00  0.00     0.003 A 
ATOM      7  I   UNL d   1       1.049  -1.806   2.178  0.00  0.00    -0.146 I 
ENDROOT
TORSDOF 0
ENDMDL
