MODEL 1
REMARK minimizedAffinity 8.03589153
REMARK minimizedRMSD -1
REMARK  0 active torsions:
REMARK  status: ('A' for Active; 'I' for Inactive)
ROOT
ATOM      1  C   UNL d   1       1.533  -1.933   3.876  0.00  0.00     0.023 A 
ATOM      2  C1  UNL d   1       0.428  -1.093   4.016  0.00  0.00     0.003 A 
ATOM      3  C2  UNL d   1      -0.622  -1.159   3.098  0.00  0.00     0.048 A 
ATOM      4  C3  UNL d   1      -0.561  -2.068   2.043  0.00  0.00     0.023 A 
ATOM      5  C4  UNL d   1       0.541  -2.911   1.898  0.00  0.00     0.048 A 
ATOM      6  C5  UNL d   1       1.589  -2.841   2.818  0.00  0.00     0.003 A 
ATOM      7  I   UNL d   1      -2.123  -2.167   0.675  0.00  0.00    -0.146 I 
ENDROOT
TORSDOF 0
ENDMDL
