MODEL 1
REMARK minimizedAffinity 18.630476
REMARK minimizedRMSD -1
REMARK  0 active torsions:
REMARK  status: ('A' for Active; 'I' for Inactive)
ROOT
ATOM      1  C   UNL d   1       0.112  -1.934   1.933  0.00  0.00     0.023 A 
ATOM      2  C1  UNL d   1       0.253  -0.626   1.469  0.00  0.00     0.003 A 
ATOM      3  C2  UNL d   1      -0.862   0.076   1.007  0.00  0.00     0.048 A 
ATOM      4  C3  UNL d   1      -2.115  -0.535   1.013  0.00  0.00     0.023 A 
ATOM      5  C4  UNL d   1      -2.261  -1.844   1.477  0.00  0.00     0.048 A 
ATOM      6  C5  UNL d   1      -1.144  -2.542   1.937  0.00  0.00     0.003 A 
ATOM      7  I   UNL d   1      -3.776   0.508   0.326  0.00  0.00    -0.146 I 
ENDROOT
TORSDOF 0
ENDMDL
