MODEL 1
REMARK minimizedAffinity 3.52475214
REMARK minimizedRMSD -1
REMARK  0 active torsions:
REMARK  status: ('A' for Active; 'I' for Inactive)
ROOT
ATOM      1  C   UNL d   1      -5.440  -4.796   5.999  0.00  0.00     0.023 A 
ATOM      2  C1  UNL d   1      -5.588  -5.999   5.309  0.00  0.00     0.003 A 
ATOM      3  C2  UNL d   1      -5.718  -5.997   3.919  0.00  0.00     0.048 A 
ATOM      4  C3  UNL d   1      -5.699  -4.788   3.225  0.00  0.00     0.023 A 
ATOM      5  C4  UNL d   1      -5.550  -3.581   3.911  0.00  0.00     0.048 A 
ATOM      6  C5  UNL d   1      -5.421  -3.589   5.301  0.00  0.00     0.003 A 
ATOM      7  I   UNL d   1      -5.892  -4.782   1.155  0.00  0.00    -0.146 I 
ENDROOT
TORSDOF 0
ENDMDL
