MODEL 1
REMARK minimizedAffinity 12.3472128
REMARK minimizedRMSD -1
REMARK  0 active torsions:
REMARK  status: ('A' for Active; 'I' for Inactive)
ROOT
ATOM      1  C   UNL d   1      -1.627  -1.968   2.500  0.00  0.00     0.023 A 
ATOM      2  C1  UNL d   1      -0.879  -1.624   3.626  0.00  0.00     0.003 A 
ATOM      3  C2  UNL d   1       0.452  -1.227   3.487  0.00  0.00     0.048 A 
ATOM      4  C3  UNL d   1       1.029  -1.173   2.219  0.00  0.00     0.023 A 
ATOM      5  C4  UNL d   1       0.284  -1.515   1.089  0.00  0.00     0.048 A 
ATOM      6  C5  UNL d   1      -1.046  -1.913   1.233  0.00  0.00     0.003 A 
ATOM      7  I   UNL d   1       3.010  -0.581   2.009  0.00  0.00    -0.146 I 
ENDROOT
TORSDOF 0
ENDMDL
