MODEL 1
REMARK minimizedAffinity 7.86415672
REMARK minimizedRMSD -1
REMARK  0 active torsions:
REMARK  status: ('A' for Active; 'I' for Inactive)
ROOT
ATOM      1  C   UNL d   1      -2.074   6.000  -5.435  0.00  0.00     0.023 A 
ATOM      2  C1  UNL d   1      -0.799   6.000  -6.000  0.00  0.00     0.003 A 
ATOM      3  C2  UNL d   1       0.229   5.262  -5.408  0.00  0.00     0.048 A 
ATOM      4  C3  UNL d   1      -0.026   4.526  -4.252  0.00  0.00     0.023 A 
ATOM      5  C4  UNL d   1      -1.301   4.522  -3.684  0.00  0.00     0.048 A 
ATOM      6  C5  UNL d   1      -2.325   5.262  -4.278  0.00  0.00     0.003 A 
ATOM      7  I   UNL d   1       1.501   3.426  -3.370  0.00  0.00    -0.146 I 
ENDROOT
TORSDOF 0
ENDMDL
