MODEL 1
REMARK minimizedAffinity 9.02085972
REMARK minimizedRMSD -1
REMARK  1 active torsions:
REMARK  status: ('A' for Active; 'I' for Inactive)
REMARK    1  A    between atoms: C1_2  and  C2_3 
ROOT
ATOM      1  C2  UNL d   1      -3.820   3.858  -1.949  0.00  0.00    -0.076 A 
ATOM      2  C3  UNL d   1      -3.386   5.136  -1.556  0.00  0.00     0.004 A 
ATOM      3  C4  UNL d   1      -2.776   5.998  -2.466  0.00  0.00    -0.003 A 
ATOM      4  C5  UNL d   1      -2.591   5.596  -3.784  0.00  0.00     0.000 A 
ATOM      5  C6  UNL d   1      -3.031   4.338  -4.196  0.00  0.00     0.000 A 
ATOM      6  C7  UNL d   1      -3.663   3.464  -3.295  0.00  0.00    -0.073 A 
ATOM      7  C8  UNL d   1      -4.112   2.117  -3.792  0.00  0.00     0.078 C 
ENDROOT
BRANCH   1   8
ATOM      8  C1  UNL d   1      -4.450   2.956  -0.912  0.00  0.00     0.053 C 
ATOM      9  C   UNL d   1      -5.780   3.492  -0.405  0.00  0.00     0.018 C 
ENDBRANCH   1   8
TORSDOF 1
ENDMDL
