MODEL 1
REMARK minimizedAffinity 3.6386416
REMARK minimizedRMSD -1
REMARK  1 active torsions:
REMARK  status: ('A' for Active; 'I' for Inactive)
REMARK    1  A    between atoms: C1_2  and  C2_3 
ROOT
ATOM      1  C2  UNL d   1      -3.059   3.048  -2.754  0.00  0.00    -0.076 A 
ATOM      2  C3  UNL d   1      -2.332   3.728  -3.747  0.00  0.00     0.004 A 
ATOM      3  C4  UNL d   1      -2.796   4.929  -4.280  0.00  0.00    -0.003 A 
ATOM      4  C5  UNL d   1      -3.995   5.470  -3.828  0.00  0.00     0.000 A 
ATOM      5  C6  UNL d   1      -4.720   4.819  -2.831  0.00  0.00     0.000 A 
ATOM      6  C7  UNL d   1      -4.258   3.615  -2.272  0.00  0.00    -0.073 A 
ATOM      7  C8  UNL d   1      -5.083   2.952  -1.203  0.00  0.00     0.078 C 
ENDROOT
BRANCH   1   8
ATOM      8  C1  UNL d   1      -2.519   1.735  -2.233  0.00  0.00     0.053 C 
ATOM      9  C   UNL d   1      -1.758   1.895  -0.927  0.00  0.00     0.018 C 
ENDBRANCH   1   8
TORSDOF 1
ENDMDL
