MODEL 1
REMARK minimizedAffinity -3.40834618
REMARK minimizedRMSD -1
REMARK  1 active torsions:
REMARK  status: ('A' for Active; 'I' for Inactive)
REMARK    1  A    between atoms: C1_2  and  C2_3 
ROOT
ATOM      1  C2  UNL d   1      -2.757   3.195  -2.444  0.00  0.00    -0.076 A 
ATOM      2  C3  UNL d   1      -2.924   4.536  -2.831  0.00  0.00     0.004 A 
ATOM      3  C4  UNL d   1      -2.514   4.977  -4.088  0.00  0.00    -0.003 A 
ATOM      4  C5  UNL d   1      -1.930   4.083  -4.979  0.00  0.00     0.000 A 
ATOM      5  C6  UNL d   1      -1.773   2.745  -4.619  0.00  0.00     0.000 A 
ATOM      6  C7  UNL d   1      -2.196   2.281  -3.362  0.00  0.00    -0.073 A 
ATOM      7  C8  UNL d   1      -1.997   0.829  -3.024  0.00  0.00     0.078 C 
ENDROOT
BRANCH   1   8
ATOM      8  C1  UNL d   1      -3.197   2.781  -1.058  0.00  0.00     0.053 C 
ATOM      9  C   UNL d   1      -4.622   3.210  -0.747  0.00  0.00     0.018 C 
ENDBRANCH   1   8
TORSDOF 1
ENDMDL
