MODEL 1
REMARK minimizedAffinity -3.10456157
REMARK minimizedRMSD -1
REMARK  1 active torsions:
REMARK  status: ('A' for Active; 'I' for Inactive)
REMARK    1  A    between atoms: C1_2  and  C2_3 
ROOT
ATOM      1  C2  UNL d   1      -1.516   2.725  -2.584  0.00  0.00    -0.076 A 
ATOM      2  C3  UNL d   1      -0.642   2.933  -3.665  0.00  0.00     0.004 A 
ATOM      3  C4  UNL d   1      -0.918   3.895  -4.635  0.00  0.00    -0.003 A 
ATOM      4  C5  UNL d   1      -2.072   4.664  -4.541  0.00  0.00     0.000 A 
ATOM      5  C6  UNL d   1      -2.942   4.483  -3.466  0.00  0.00     0.000 A 
ATOM      6  C7  UNL d   1      -2.670   3.529  -2.470  0.00  0.00    -0.073 A 
ATOM      7  C8  UNL d   1      -3.646   3.372  -1.336  0.00  0.00     0.078 C 
ENDROOT
BRANCH   1   8
ATOM      8  C1  UNL d   1      -1.179   1.649  -1.576  0.00  0.00     0.053 C 
ATOM      9  C   UNL d   1      -1.856   0.324  -1.890  0.00  0.00     0.018 C 
ENDBRANCH   1   8
TORSDOF 1
ENDMDL
