MODEL 1
REMARK minimizedAffinity -1.71113372
REMARK minimizedRMSD -1
REMARK  1 active torsions:
REMARK  status: ('A' for Active; 'I' for Inactive)
REMARK    1  A    between atoms: C1_2  and  C2_3 
ROOT
ATOM      1  C2  UNL d   1      -2.124   3.663  -3.497  0.00  0.00    -0.076 A 
ATOM      2  C3  UNL d   1      -1.046   3.173  -4.254  0.00  0.00     0.004 A 
ATOM      3  C4  UNL d   1      -0.391   3.984  -5.179  0.00  0.00    -0.003 A 
ATOM      4  C5  UNL d   1      -0.803   5.300  -5.361  0.00  0.00     0.000 A 
ATOM      5  C6  UNL d   1      -1.859   5.808  -4.606  0.00  0.00     0.000 A 
ATOM      6  C7  UNL d   1      -2.520   5.008  -3.658  0.00  0.00    -0.073 A 
ATOM      7  C8  UNL d   1      -3.657   5.607  -2.876  0.00  0.00     0.078 C 
ENDROOT
BRANCH   1   8
ATOM      8  C1  UNL d   1      -2.814   2.729  -2.529  0.00  0.00     0.053 C 
ATOM      9  C   UNL d   1      -2.180   1.347  -2.501  0.00  0.00     0.018 C 
ENDBRANCH   1   8
TORSDOF 1
ENDMDL
