MODEL 1
REMARK minimizedAffinity -2.82827973
REMARK minimizedRMSD -1
REMARK  1 active torsions:
REMARK  status: ('A' for Active; 'I' for Inactive)
REMARK    1  A    between atoms: C1_2  and  C2_3 
ROOT
ATOM      1  C2  UNL d   1      -0.814   0.006  -1.152  0.00  0.00    -0.077 A 
ATOM      2  C3  UNL d   1      -1.079   0.434   0.156  0.00  0.00     0.002 A 
ATOM      3  C4  UNL d   1      -0.164   1.243   0.834  0.00  0.00     0.002 A 
ATOM      4  C5  UNL d   1       1.018   1.634   0.209  0.00  0.00    -0.004 A 
ATOM      5  C6  UNL d   1       1.292   1.212  -1.091  0.00  0.00     0.002 A 
ATOM      6  C7  UNL d   1       0.379   0.403  -1.769  0.00  0.00     0.002 A 
ENDROOT
BRANCH   1   7
ATOM      7  C1  UNL d   1      -1.822  -0.825  -1.902  0.00  0.00     0.055 C 
ATOM      8  C   UNL d   1      -2.569   0.008  -2.934  0.00  0.00     0.019 C 
ENDBRANCH   1   7
TORSDOF 1
ENDMDL
