MODEL 1
REMARK minimizedAffinity -5.76614666
REMARK minimizedRMSD -1
REMARK  1 active torsions:
REMARK  status: ('A' for Active; 'I' for Inactive)
REMARK    1  A    between atoms: C1_2  and  C2_3 
ROOT
ATOM      1  C2  UNL d   1       1.084  -1.961   1.326  0.00  0.00    -0.077 A 
ATOM      2  C3  UNL d   1       1.320  -0.916   0.421  0.00  0.00     0.002 A 
ATOM      3  C4  UNL d   1       0.252  -0.239  -0.170  0.00  0.00     0.002 A 
ATOM      4  C5  UNL d   1      -1.059  -0.596   0.139  0.00  0.00    -0.004 A 
ATOM      5  C6  UNL d   1      -1.304  -1.635   1.036  0.00  0.00     0.002 A 
ATOM      6  C7  UNL d   1      -0.238  -2.313   1.628  0.00  0.00     0.002 A 
ENDROOT
BRANCH   1   7
ATOM      7  C1  UNL d   1       2.234  -2.659   2.003  0.00  0.00     0.055 C 
ATOM      8  C   UNL d   1       3.458  -1.759   2.083  0.00  0.00     0.019 C 
ENDBRANCH   1   7
TORSDOF 1
ENDMDL
