MODEL 1
REMARK minimizedAffinity -2.43858385
REMARK minimizedRMSD -1
REMARK  1 active torsions:
REMARK  status: ('A' for Active; 'I' for Inactive)
REMARK    1  A    between atoms: C1_2  and  C2_3 
ROOT
ATOM      1  C2  UNL d   1       0.595   0.032   0.628  0.00  0.00    -0.077 A 
ATOM      2  C3  UNL d   1      -0.736   0.284   0.268  0.00  0.00     0.002 A 
ATOM      3  C4  UNL d   1      -1.709  -0.705   0.423  0.00  0.00     0.002 A 
ATOM      4  C5  UNL d   1      -1.362  -1.951   0.941  0.00  0.00    -0.004 A 
ATOM      5  C6  UNL d   1      -0.040  -2.213   1.300  0.00  0.00     0.002 A 
ATOM      6  C7  UNL d   1       0.934  -1.225   1.145  0.00  0.00     0.002 A 
ENDROOT
BRANCH   1   7
ATOM      7  C1  UNL d   1       1.637   1.113   0.508  0.00  0.00     0.055 C 
ATOM      8  C   UNL d   1       1.033   2.408  -0.017  0.00  0.00     0.019 C 
ENDBRANCH   1   7
TORSDOF 1
ENDMDL
