MODEL 1
REMARK minimizedAffinity -4.65789366
REMARK minimizedRMSD -1
REMARK  1 active torsions:
REMARK  status: ('A' for Active; 'I' for Inactive)
REMARK    1  A    between atoms: C1_2  and  C2_3 
ROOT
ATOM      1  C2  UNL d   1       0.804  -0.124   0.566  0.00  0.00    -0.077 A 
ATOM      2  C3  UNL d   1       0.467  -1.406   1.022  0.00  0.00     0.002 A 
ATOM      3  C4  UNL d   1       1.338  -2.110   1.856  0.00  0.00     0.002 A 
ATOM      4  C5  UNL d   1       2.547  -1.539   2.245  0.00  0.00    -0.004 A 
ATOM      5  C6  UNL d   1       2.892  -0.265   1.796  0.00  0.00     0.002 A 
ATOM      6  C7  UNL d   1       2.024   0.440   0.961  0.00  0.00     0.002 A 
ENDROOT
BRANCH   1   7
ATOM      7  C1  UNL d   1      -0.155   0.657  -0.294  0.00  0.00     0.055 C 
ATOM      8  C   UNL d   1      -1.529   0.003  -0.325  0.00  0.00     0.019 C 
ENDBRANCH   1   7
TORSDOF 1
ENDMDL
