MODEL 1
REMARK minimizedAffinity -3.36356735
REMARK minimizedRMSD -1
REMARK  1 active torsions:
REMARK  status: ('A' for Active; 'I' for Inactive)
REMARK    1  A    between atoms: C1_2  and  C2_3 
ROOT
ATOM      1  C2  UNL d   1      -1.328   0.338  -0.925  0.00  0.00    -0.077 A 
ATOM      2  C3  UNL d   1      -0.357   1.320  -1.162  0.00  0.00     0.002 A 
ATOM      3  C4  UNL d   1       0.814   1.354  -0.402  0.00  0.00     0.002 A 
ATOM      4  C5  UNL d   1       1.026   0.406   0.596  0.00  0.00    -0.004 A 
ATOM      5  C6  UNL d   1       0.065  -0.575   0.841  0.00  0.00     0.002 A 
ATOM      6  C7  UNL d   1      -1.106  -0.609   0.083  0.00  0.00     0.002 A 
ENDROOT
BRANCH   1   7
ATOM      7  C1  UNL d   1      -2.569   0.270  -1.776  0.00  0.00     0.055 C 
ATOM      8  C   UNL d   1      -2.228  -0.024  -3.230  0.00  0.00     0.019 C 
ENDBRANCH   1   7
TORSDOF 1
ENDMDL
