MODEL 1
REMARK minimizedAffinity -3.86192656
REMARK minimizedRMSD -1
REMARK  1 active torsions:
REMARK  status: ('A' for Active; 'I' for Inactive)
REMARK    1  A    between atoms: C1_2  and  C2_3 
ROOT
ATOM      1  C2  UNL d   1      -1.937   0.018  -1.136  0.00  0.00    -0.077 A 
ATOM      2  C3  UNL d   1      -2.221   1.210  -1.818  0.00  0.00     0.002 A 
ATOM      3  C4  UNL d   1      -3.187   1.234  -2.826  0.00  0.00     0.002 A 
ATOM      4  C5  UNL d   1      -3.880   0.071  -3.157  0.00  0.00    -0.004 A 
ATOM      5  C6  UNL d   1      -3.603  -1.119  -2.486  0.00  0.00     0.002 A 
ATOM      6  C7  UNL d   1      -2.637  -1.146  -1.480  0.00  0.00     0.002 A 
ENDROOT
BRANCH   1   7
ATOM      7  C1  UNL d   1      -0.931   0.001  -0.016  0.00  0.00     0.055 C 
ATOM      8  C   UNL d   1       0.306   0.813  -0.371  0.00  0.00     0.019 C 
ENDBRANCH   1   7
TORSDOF 1
ENDMDL
