MODEL 1
REMARK minimizedAffinity 0.05067477
REMARK minimizedRMSD -1
REMARK  0 active torsions:
REMARK  status: ('A' for Active; 'I' for Inactive)
ROOT
ATOM      1  C1  DEN d   1      -0.428   2.545  -0.141  0.00  0.00     0.130 A 
ATOM      2  C2  DEN d   1      -1.055   2.540  -1.459  0.00  0.00    -0.031 A 
ATOM      3  C3  DEN d   1      -0.655   1.298  -2.151  0.00  0.00     0.027 A 
ATOM      4  C4  DEN d   1       0.863  -0.610  -1.310  0.00  0.00     0.027 A 
ATOM      5  C5  DEN d   1       1.637  -1.048  -0.258  0.00  0.00    -0.003 A 
ATOM      6  C6  DEN d   1       1.804  -0.309   0.883  0.00  0.00     0.001 A 
ATOM      7  C7  DEN d   1       1.150   0.887   1.019  0.00  0.00     0.017 A 
ATOM      8  C8  DEN d   1       0.374   1.339  -0.040  0.00  0.00    -0.094 A 
ATOM      9  C9  DEN d   1       0.209   0.572  -1.181  0.00  0.00    -0.072 A 
ENDROOT
TORSDOF 0
ENDMDL
