MODEL 1
REMARK minimizedAffinity -2.80557823
REMARK minimizedRMSD -1
REMARK  0 active torsions:
REMARK  status: ('A' for Active; 'I' for Inactive)
ROOT
ATOM      1  C1  DEN d   1      -2.854  -1.188  -1.359  0.00  0.00     0.130 A 
ATOM      2  C2  DEN d   1      -4.114  -1.476  -0.678  0.00  0.00    -0.031 A 
ATOM      3  C3  DEN d   1      -3.929  -1.196   0.760  0.00  0.00     0.027 A 
ATOM      4  C4  DEN d   1      -1.829  -0.344   1.992  0.00  0.00     0.027 A 
ATOM      5  C5  DEN d   1      -0.513   0.032   1.838  0.00  0.00    -0.003 A 
ATOM      6  C6  DEN d   1       0.120  -0.004   0.623  0.00  0.00     0.001 A 
ATOM      7  C7  DEN d   1      -0.577  -0.382  -0.494  0.00  0.00     0.017 A 
ATOM      8  C8  DEN d   1      -1.902  -0.770  -0.346  0.00  0.00    -0.094 A 
ATOM      9  C9  DEN d   1      -2.527  -0.715   0.889  0.00  0.00    -0.072 A 
ENDROOT
TORSDOF 0
ENDMDL
