MODEL 1
REMARK minimizedAffinity -3.18181229
REMARK minimizedRMSD -1
REMARK  0 active torsions:
REMARK  status: ('A' for Active; 'I' for Inactive)
ROOT
ATOM      1  C1  DEN d   1      -2.734  -1.544   0.951  0.00  0.00     0.130 A 
ATOM      2  C2  DEN d   1      -3.500  -1.368  -0.280  0.00  0.00    -0.031 A 
ATOM      3  C3  DEN d   1      -2.614  -0.745  -1.283  0.00  0.00     0.027 A 
ATOM      4  C4  DEN d   1      -0.142  -0.043  -1.053  0.00  0.00     0.027 A 
ATOM      5  C5  DEN d   1       0.932   0.018  -0.193  0.00  0.00    -0.003 A 
ATOM      6  C6  DEN d   1       0.851  -0.403   1.107  0.00  0.00     0.001 A 
ATOM      7  C7  DEN d   1      -0.318  -0.945   1.574  0.00  0.00     0.017 A 
ATOM      8  C8  DEN d   1      -1.407  -1.003   0.715  0.00  0.00    -0.094 A 
ATOM      9  C9  DEN d   1      -1.302  -0.584  -0.600  0.00  0.00    -0.072 A 
ENDROOT
TORSDOF 0
ENDMDL
