MODEL 1
REMARK minimizedAffinity 4.31839466
REMARK minimizedRMSD -1
REMARK  0 active torsions:
REMARK  status: ('A' for Active; 'I' for Inactive)
ROOT
ATOM      1  C1  DEN d   1      -0.755  -0.784   1.161  0.00  0.00     0.130 A 
ATOM      2  C2  DEN d   1       0.156   0.041   0.371  0.00  0.00    -0.031 A 
ATOM      3  C3  DEN d   1      -0.522   0.389  -0.893  0.00  0.00     0.027 A 
ATOM      4  C4  DEN d   1      -2.885  -0.262  -1.699  0.00  0.00     0.027 A 
ATOM      5  C5  DEN d   1      -4.027  -0.962  -1.379  0.00  0.00    -0.003 A 
ATOM      6  C6  DEN d   1      -4.145  -1.673  -0.214  0.00  0.00     0.001 A 
ATOM      7  C7  DEN d   1      -3.119  -1.664   0.694  0.00  0.00     0.017 A 
ATOM      8  C8  DEN d   1      -1.961  -0.967   0.374  0.00  0.00    -0.094 A 
ATOM      9  C9  DEN d   1      -1.866  -0.244  -0.803  0.00  0.00    -0.072 A 
ENDROOT
TORSDOF 0
ENDMDL
