MODEL 1
REMARK minimizedAffinity -0.137113273
REMARK minimizedRMSD -1
REMARK  0 active torsions:
REMARK  status: ('A' for Active; 'I' for Inactive)
ROOT
ATOM      1  C1  DEN d   1       0.506  -2.420   2.993  0.00  0.00     0.130 A 
ATOM      2  C2  DEN d   1      -0.863  -2.768   3.363  0.00  0.00    -0.031 A 
ATOM      3  C3  DEN d   1      -1.780  -1.986   2.510  0.00  0.00     0.027 A 
ATOM      4  C4  DEN d   1      -1.215  -0.281   0.659  0.00  0.00     0.027 A 
ATOM      5  C5  DEN d   1      -0.190   0.354  -0.008  0.00  0.00    -0.003 A 
ATOM      6  C6  DEN d   1       1.127   0.136   0.300  0.00  0.00     0.001 A 
ATOM      7  C7  DEN d   1       1.456  -0.774   1.270  0.00  0.00     0.017 A 
ATOM      8  C8  DEN d   1       0.428  -1.412   1.952  0.00  0.00    -0.094 A 
ATOM      9  C9  DEN d   1      -0.897  -1.187   1.618  0.00  0.00    -0.072 A 
ENDROOT
TORSDOF 0
ENDMDL
