MODEL 1
REMARK minimizedAffinity -0.418070644
REMARK minimizedRMSD -1
REMARK  0 active torsions:
REMARK  status: ('A' for Active; 'I' for Inactive)
ROOT
ATOM      1  C1  DEN d   1       1.588   2.835  -3.565  0.00  0.00     0.130 A 
ATOM      2  C2  DEN d   1       1.643   3.044  -5.009  0.00  0.00    -0.031 A 
ATOM      3  C3  DEN d   1       0.270   3.310  -5.484  0.00  0.00     0.027 A 
ATOM      4  C4  DEN d   1      -1.922   3.422  -4.131  0.00  0.00     0.027 A 
ATOM      5  C5  DEN d   1      -2.473   3.300  -2.874  0.00  0.00    -0.003 A 
ATOM      6  C6  DEN d   1      -1.721   2.984  -1.775  0.00  0.00     0.001 A 
ATOM      7  C7  DEN d   1      -0.367   2.822  -1.902  0.00  0.00     0.017 A 
ATOM      8  C8  DEN d   1       0.195   2.936  -3.167  0.00  0.00    -0.094 A 
ATOM      9  C9  DEN d   1      -0.581   3.269  -4.265  0.00  0.00    -0.072 A 
ENDROOT
TORSDOF 0
ENDMDL
