MODEL 1
REMARK minimizedAffinity 4.74177122
REMARK minimizedRMSD -1
REMARK  0 active torsions:
REMARK  status: ('A' for Active; 'I' for Inactive)
ROOT
ATOM      1  C1  DEN d   1      -0.750   3.817  -1.606  0.00  0.00     0.130 A 
ATOM      2  C2  DEN d   1      -1.916   2.981  -1.875  0.00  0.00    -0.031 A 
ATOM      3  C3  DEN d   1      -1.744   2.374  -3.210  0.00  0.00     0.027 A 
ATOM      4  C4  DEN d   1       0.207   2.642  -4.875  0.00  0.00     0.027 A 
ATOM      5  C5  DEN d   1       1.419   3.259  -5.094  0.00  0.00    -0.003 A 
ATOM      6  C6  DEN d   1       1.972   4.125  -4.188  0.00  0.00     0.001 A 
ATOM      7  C7  DEN d   1       1.334   4.363  -3.000  0.00  0.00     0.017 A 
ATOM      8  C8  DEN d   1       0.108   3.750  -2.775  0.00  0.00    -0.094 A 
ATOM      9  C9  DEN d   1      -0.429   2.868  -3.698  0.00  0.00    -0.072 A 
ENDROOT
TORSDOF 0
ENDMDL
