MODEL 1
REMARK minimizedAffinity -3.29988313
REMARK minimizedRMSD -1
REMARK  0 active torsions:
REMARK  status: ('A' for Active; 'I' for Inactive)
ROOT
ATOM      1  C   UNL d   1      -0.448  -0.689  -1.225  0.00  0.00     0.172 C 
ATOM      2  N   UNL d   1      -0.292   0.686  -0.813  0.00  0.00    -0.070 N 
ATOM      3  C1  UNL d   1      -0.438   1.158   0.464  0.00  0.00    -0.004 A 
ATOM      4  C2  UNL d   1      -0.208   2.517   0.441  0.00  0.00    -0.047 A 
ATOM      5  C3  UNL d   1       0.085   2.874  -0.896  0.00  0.00    -0.047 A 
ATOM      6  C4  UNL d   1       0.026   1.722  -1.652  0.00  0.00    -0.004 A 
ENDROOT
TORSDOF 0
ENDMDL
