MODEL 1
REMARK minimizedAffinity -3.57928133
REMARK minimizedRMSD -1
REMARK  0 active torsions:
REMARK  status: ('A' for Active; 'I' for Inactive)
ROOT
ATOM      1  C   UNL d   1       0.411  -0.600  -0.173  0.00  0.00     0.172 C 
ATOM      2  N   UNL d   1       0.127   0.802   0.022  0.00  0.00    -0.070 N 
ATOM      3  C1  UNL d   1      -1.094   1.332   0.343  0.00  0.00    -0.004 A 
ATOM      4  C2  UNL d   1      -0.948   2.699   0.440  0.00  0.00    -0.047 A 
ATOM      5  C3  UNL d   1       0.407   3.001   0.168  0.00  0.00    -0.047 A 
ATOM      6  C4  UNL d   1       1.050   1.808  -0.088  0.00  0.00    -0.004 A 
ENDROOT
TORSDOF 0
ENDMDL
