MODEL 1
REMARK minimizedAffinity -2.75250053
REMARK minimizedRMSD -1
REMARK  0 active torsions:
REMARK  status: ('A' for Active; 'I' for Inactive)
ROOT
ATOM      1  C   UNL d   1      -0.025   3.256  -0.732  0.00  0.00     0.172 C 
ATOM      2  N   UNL d   1      -0.398   1.965  -0.206  0.00  0.00    -0.070 N 
ATOM      3  C1  UNL d   1       0.204   0.773  -0.511  0.00  0.00    -0.004 A 
ATOM      4  C2  UNL d   1      -0.442  -0.219   0.193  0.00  0.00    -0.047 A 
ATOM      5  C3  UNL d   1      -1.469   0.397   0.948  0.00  0.00    -0.047 A 
ATOM      6  C4  UNL d   1      -1.419   1.749   0.682  0.00  0.00    -0.004 A 
ENDROOT
TORSDOF 0
ENDMDL
