MODEL 1
REMARK minimizedAffinity -3.93343973
REMARK minimizedRMSD -1
REMARK  0 active torsions:
REMARK  status: ('A' for Active; 'I' for Inactive)
ROOT
ATOM      1  C   UNL d   1       0.138  -1.043   0.515  0.00  0.00     0.172 C 
ATOM      2  N   UNL d   1      -0.096   0.381   0.463  0.00  0.00    -0.070 N 
ATOM      3  C1  UNL d   1       0.828   1.330   0.115  0.00  0.00    -0.004 A 
ATOM      4  C2  UNL d   1       0.215   2.562   0.188  0.00  0.00    -0.047 A 
ATOM      5  C3  UNL d   1      -1.123   2.346   0.594  0.00  0.00    -0.047 A 
ATOM      6  C4  UNL d   1      -1.289   0.987   0.757  0.00  0.00    -0.004 A 
ENDROOT
TORSDOF 0
ENDMDL
