MODEL 1
REMARK minimizedAffinity -2.71079206
REMARK minimizedRMSD -1
REMARK  0 active torsions:
REMARK  status: ('A' for Active; 'I' for Inactive)
ROOT
ATOM      1  C   UNL d   1      -1.088   0.012   0.953  0.00  0.00     0.172 C 
ATOM      2  N   UNL d   1      -0.275   1.032   0.332  0.00  0.00    -0.070 N 
ATOM      3  C1  UNL d   1       0.756   0.810  -0.541  0.00  0.00    -0.004 A 
ATOM      4  C2  UNL d   1       1.273   2.035  -0.904  0.00  0.00    -0.047 A 
ATOM      5  C3  UNL d   1       0.527   3.027  -0.224  0.00  0.00    -0.047 A 
ATOM      6  C4  UNL d   1      -0.425   2.379   0.534  0.00  0.00    -0.004 A 
ENDROOT
TORSDOF 0
ENDMDL
