MODEL 1
REMARK minimizedAffinity -2.77711034
REMARK minimizedRMSD -1
REMARK  0 active torsions:
REMARK  status: ('A' for Active; 'I' for Inactive)
ROOT
ATOM      1  C   UNL d   1      -0.105  -2.555  -2.350  0.00  0.00     0.172 C 
ATOM      2  N   UNL d   1      -0.111  -1.636  -1.237  0.00  0.00    -0.070 N 
ATOM      3  C1  UNL d   1      -0.287  -0.280  -1.322  0.00  0.00    -0.004 A 
ATOM      4  C2  UNL d   1      -0.228   0.234  -0.045  0.00  0.00    -0.047 A 
ATOM      5  C3  UNL d   1      -0.008  -0.850   0.838  0.00  0.00    -0.047 A 
ATOM      6  C4  UNL d   1       0.060  -1.995   0.074  0.00  0.00    -0.004 A 
ENDROOT
TORSDOF 0
ENDMDL
