MODEL 1
REMARK minimizedAffinity -2.88085699
REMARK minimizedRMSD -1
REMARK  0 active torsions:
REMARK  status: ('A' for Active; 'I' for Inactive)
ROOT
ATOM      1  C   UNL d   1       1.985   0.381   0.756  0.00  0.00     0.172 C 
ATOM      2  N   UNL d   1       0.676   0.983   0.665  0.00  0.00    -0.070 N 
ATOM      3  C1  UNL d   1       0.413   2.327   0.673  0.00  0.00    -0.004 A 
ATOM      4  C2  UNL d   1      -0.951   2.491   0.567  0.00  0.00    -0.047 A 
ATOM      5  C3  UNL d   1      -1.529   1.202   0.494  0.00  0.00    -0.047 A 
ATOM      6  C4  UNL d   1      -0.499   0.287   0.556  0.00  0.00    -0.004 A 
ENDROOT
TORSDOF 0
ENDMDL
