MODEL 1
REMARK minimizedAffinity -3.23100662
REMARK minimizedRMSD -1
REMARK  0 active torsions:
REMARK  status: ('A' for Active; 'I' for Inactive)
ROOT
ATOM      1  C   UNL d   1       0.394   3.077  -0.381  0.00  0.00     0.172 C 
ATOM      2  N   UNL d   1       0.639   1.671  -0.161  0.00  0.00    -0.070 N 
ATOM      3  C1  UNL d   1       1.866   1.096   0.037  0.00  0.00    -0.004 A 
ATOM      4  C2  UNL d   1       1.675  -0.258   0.208  0.00  0.00    -0.047 A 
ATOM      5  C3  UNL d   1       0.286  -0.506   0.107  0.00  0.00    -0.047 A 
ATOM      6  C4  UNL d   1      -0.332   0.706  -0.122  0.00  0.00    -0.004 A 
ENDROOT
TORSDOF 0
ENDMDL
