MODEL 1
REMARK minimizedAffinity -3.85263968
REMARK minimizedRMSD -1
REMARK  0 active torsions:
REMARK  status: ('A' for Active; 'I' for Inactive)
ROOT
ATOM      1  C   UNL d   1       0.181  -1.516   0.040  0.00  0.00     0.172 C 
ATOM      2  N   UNL d   1       0.295  -0.117  -0.298  0.00  0.00    -0.070 N 
ATOM      3  C1  UNL d   1      -0.729   0.687  -0.725  0.00  0.00    -0.004 A 
ATOM      4  C2  UNL d   1      -0.214   1.947  -0.942  0.00  0.00    -0.047 A 
ATOM      5  C3  UNL d   1       1.167   1.899  -0.635  0.00  0.00    -0.047 A 
ATOM      6  C4  UNL d   1       1.455   0.609  -0.239  0.00  0.00    -0.004 A 
ENDROOT
TORSDOF 0
ENDMDL
