MODEL 1
REMARK minimizedAffinity -3.16312218
REMARK minimizedRMSD -1
REMARK  0 active torsions:
REMARK  status: ('A' for Active; 'I' for Inactive)
ROOT
ATOM      1  C   UNL d   1       0.384  -1.030   0.229  0.00  0.00     0.172 C 
ATOM      2  N   UNL d   1       0.248   0.406   0.157  0.00  0.00    -0.070 N 
ATOM      3  C1  UNL d   1       1.241   1.286  -0.180  0.00  0.00    -0.004 A 
ATOM      4  C2  UNL d   1       0.712   2.557  -0.133  0.00  0.00    -0.047 A 
ATOM      5  C3  UNL d   1      -0.646   2.437   0.246  0.00  0.00    -0.047 A 
ATOM      6  C4  UNL d   1      -0.907   1.094   0.419  0.00  0.00    -0.004 A 
ENDROOT
TORSDOF 0
ENDMDL
