MODEL 1
REMARK minimizedAffinity -3.52756119
REMARK minimizedRMSD -1
REMARK  0 active torsions:
REMARK  status: ('A' for Active; 'I' for Inactive)
ROOT
ATOM      1  C   UNL d   1       0.537  -0.609  -0.081  0.00  0.00     0.172 C 
ATOM      2  N   UNL d   1       0.244   0.805  -0.075  0.00  0.00    -0.070 N 
ATOM      3  C1  UNL d   1      -0.810   1.399   0.567  0.00  0.00    -0.004 A 
ATOM      4  C2  UNL d   1      -0.738   2.755   0.331  0.00  0.00    -0.047 A 
ATOM      5  C3  UNL d   1       0.397   2.984  -0.482  0.00  0.00    -0.047 A 
ATOM      6  C4  UNL d   1       0.986   1.760  -0.719  0.00  0.00    -0.004 A 
ENDROOT
TORSDOF 0
ENDMDL
