MODEL 1
REMARK minimizedAffinity -3.12134147
REMARK minimizedRMSD -1
REMARK  0 active torsions:
REMARK  status: ('A' for Active; 'I' for Inactive)
ROOT
ATOM      1  C   UNL d   1       0.042  -0.539  -0.749  0.00  0.00     0.172 C 
ATOM      2  N   UNL d   1      -0.083   0.835  -0.321  0.00  0.00    -0.070 N 
ATOM      3  C1  UNL d   1       0.832   1.828  -0.549  0.00  0.00    -0.004 A 
ATOM      4  C2  UNL d   1       0.345   2.987   0.016  0.00  0.00    -0.047 A 
ATOM      5  C3  UNL d   1      -0.904   2.680   0.604  0.00  0.00    -0.047 A 
ATOM      6  C4  UNL d   1      -1.145   1.341   0.381  0.00  0.00    -0.004 A 
ENDROOT
TORSDOF 0
ENDMDL
