MODEL 1
REMARK minimizedAffinity -2.99639082
REMARK minimizedRMSD -1
REMARK  0 active torsions:
REMARK  status: ('A' for Active; 'I' for Inactive)
ROOT
ATOM      1  C   UNL d   1       1.581   1.521  -0.441  0.00  0.00     0.172 C 
ATOM      2  N   UNL d   1       0.521   0.601  -0.105  0.00  0.00    -0.070 N 
ATOM      3  C1  UNL d   1       0.522  -0.745  -0.358  0.00  0.00    -0.004 A 
ATOM      4  C2  UNL d   1      -0.664  -1.264   0.115  0.00  0.00    -0.047 A 
ATOM      5  C3  UNL d   1      -1.403  -0.193   0.671  0.00  0.00    -0.047 A 
ATOM      6  C4  UNL d   1      -0.647   0.950   0.521  0.00  0.00    -0.004 A 
ENDROOT
TORSDOF 0
ENDMDL
