MODEL 1
REMARK minimizedAffinity -3.13564849
REMARK minimizedRMSD -1
REMARK  0 active torsions:
REMARK  status: ('A' for Active; 'I' for Inactive)
ROOT
ATOM      1  C   UNL d   1       0.096  -1.476  -0.186  0.00  0.00     0.172 C 
ATOM      2  N   UNL d   1      -0.289  -2.107  -1.427  0.00  0.00    -0.070 N 
ATOM      3  C1  UNL d   1      -0.151  -1.563  -2.676  0.00  0.00    -0.004 A 
ATOM      4  C2  UNL d   1      -0.634  -2.475  -3.589  0.00  0.00    -0.047 A 
ATOM      5  C3  UNL d   1      -1.078  -3.606  -2.864  0.00  0.00    -0.047 A 
ATOM      6  C4  UNL d   1      -0.853  -3.351  -1.528  0.00  0.00    -0.004 A 
ENDROOT
TORSDOF 0
ENDMDL
