MODEL 1
REMARK minimizedAffinity -4.28362942
REMARK minimizedRMSD -1
REMARK  0 active torsions:
REMARK  status: ('A' for Active; 'I' for Inactive)
ROOT
ATOM      1  C   UNL d   1       0.011  -0.947  -0.352  0.00  0.00     0.172 C 
ATOM      2  N   UNL d   1       0.113   0.479  -0.146  0.00  0.00    -0.070 N 
ATOM      3  C1  UNL d   1       1.227   1.241  -0.377  0.00  0.00    -0.004 A 
ATOM      4  C2  UNL d   1       0.918   2.546  -0.059  0.00  0.00    -0.047 A 
ATOM      5  C3  UNL d   1      -0.427   2.569   0.380  0.00  0.00    -0.047 A 
ATOM      6  C4  UNL d   1      -0.901   1.276   0.316  0.00  0.00    -0.004 A 
ENDROOT
TORSDOF 0
ENDMDL
