MODEL 1
REMARK minimizedAffinity -4.01884699
REMARK minimizedRMSD -1
REMARK  0 active torsions:
REMARK  status: ('A' for Active; 'I' for Inactive)
ROOT
ATOM      1  C   UNL d   1       0.686  -0.833   0.007  0.00  0.00     0.172 C 
ATOM      2  N   UNL d   1       0.600   0.608  -0.018  0.00  0.00    -0.070 N 
ATOM      3  C1  UNL d   1       1.642   1.474   0.181  0.00  0.00    -0.004 A 
ATOM      4  C2  UNL d   1       1.150   2.757   0.078  0.00  0.00    -0.047 A 
ATOM      5  C3  UNL d   1      -0.235   2.660  -0.192  0.00  0.00    -0.047 A 
ATOM      6  C4  UNL d   1      -0.550   1.318  -0.246  0.00  0.00    -0.004 A 
ENDROOT
TORSDOF 0
ENDMDL
