MODEL 1
REMARK minimizedAffinity 0.311137825
REMARK minimizedRMSD -1
REMARK  0 active torsions:
REMARK  status: ('A' for Active; 'I' for Inactive)
ROOT
ATOM      1  C   UNL d   1      -0.185  -1.410   0.140  0.00  0.00     0.172 C 
ATOM      2  N   UNL d   1      -0.589  -0.039   0.349  0.00  0.00    -0.070 N 
ATOM      3  C1  UNL d   1       0.147   1.069   0.024  0.00  0.00    -0.004 A 
ATOM      4  C2  UNL d   1      -0.585   2.181   0.380  0.00  0.00    -0.047 A 
ATOM      5  C3  UNL d   1      -1.803   1.726   0.938  0.00  0.00    -0.047 A 
ATOM      6  C4  UNL d   1      -1.779   0.347   0.907  0.00  0.00    -0.004 A 
ENDROOT
TORSDOF 0
ENDMDL
