MODEL 1
REMARK minimizedAffinity -3.80080605
REMARK minimizedRMSD -1
REMARK  0 active torsions:
REMARK  status: ('A' for Active; 'I' for Inactive)
ROOT
ATOM      1  C   UNL d   1       0.046  -0.490   0.408  0.00  0.00     0.172 C 
ATOM      2  N   UNL d   1      -0.037   0.849  -0.126  0.00  0.00    -0.070 N 
ATOM      3  C1  UNL d   1      -0.294   1.174  -1.431  0.00  0.00    -0.004 A 
ATOM      4  C2  UNL d   1      -0.289   2.548  -1.533  0.00  0.00    -0.047 A 
ATOM      5  C3  UNL d   1      -0.019   3.068  -0.245  0.00  0.00    -0.047 A 
ATOM      6  C4  UNL d   1       0.133   1.994   0.607  0.00  0.00    -0.004 A 
ENDROOT
TORSDOF 0
ENDMDL
