MODEL 1
REMARK minimizedAffinity -3.92203832
REMARK minimizedRMSD -1
REMARK  0 active torsions:
REMARK  status: ('A' for Active; 'I' for Inactive)
ROOT
ATOM      1  C   UNL d   1      -0.716   1.248   0.352  0.00  0.00     0.172 C 
ATOM      2  N   UNL d   1       0.494   2.032   0.430  0.00  0.00    -0.070 N 
ATOM      3  C1  UNL d   1       0.570   3.396   0.329  0.00  0.00    -0.004 A 
ATOM      4  C2  UNL d   1       1.894   3.756   0.455  0.00  0.00    -0.047 A 
ATOM      5  C3  UNL d   1       2.641   2.567   0.636  0.00  0.00    -0.047 A 
ATOM      6  C4  UNL d   1       1.749   1.515   0.616  0.00  0.00    -0.004 A 
ENDROOT
TORSDOF 0
ENDMDL
