MODEL 1
REMARK minimizedAffinity -2.68266892
REMARK minimizedRMSD -1
REMARK  0 active torsions:
REMARK  status: ('A' for Active; 'I' for Inactive)
ROOT
ATOM      1  C   UNL d   1      -0.194  -1.459  -0.070  0.00  0.00     0.172 C 
ATOM      2  N   UNL d   1      -0.215  -0.058   0.279  0.00  0.00    -0.070 N 
ATOM      3  C1  UNL d   1       0.884   0.716   0.541  0.00  0.00    -0.004 A 
ATOM      4  C2  UNL d   1       0.444   1.989   0.832  0.00  0.00    -0.047 A 
ATOM      5  C3  UNL d   1      -0.968   1.980   0.744  0.00  0.00    -0.047 A 
ATOM      6  C4  UNL d   1      -1.349   0.700   0.400  0.00  0.00    -0.004 A 
ENDROOT
TORSDOF 0
ENDMDL
