MODEL 1
REMARK minimizedAffinity -3.73016429
REMARK minimizedRMSD -1
REMARK  0 active torsions:
REMARK  status: ('A' for Active; 'I' for Inactive)
ROOT
ATOM      1  O1  BZF d   1      -0.611   2.639  -0.340  0.00  0.00    -0.204 OA
ATOM      2  C2  BZF d   1      -1.408   3.551   0.323  0.00  0.00     0.174 A 
ATOM      3  C3  BZF d   1      -2.080   2.956   1.330  0.00  0.00    -0.012 A 
ATOM      4  C3A BZF d   1      -1.607   1.606   1.352  0.00  0.00    -0.107 A 
ATOM      5  C4  BZF d   1      -1.887   0.526   2.139  0.00  0.00     0.055 A 
ATOM      6  C5  BZF d   1      -1.308  -0.669   1.851  0.00  0.00    -0.016 A 
ATOM      7  C6  BZF d   1      -0.449  -0.821   0.782  0.00  0.00     0.022 A 
ATOM      8  C7  BZF d   1      -0.136   0.223  -0.024  0.00  0.00     0.029 A 
ATOM      9  C7A BZF d   1      -0.695   1.440   0.284  0.00  0.00     0.058 A 
ENDROOT
TORSDOF 0
ENDMDL
