MODEL 1
REMARK minimizedAffinity -3.23219204
REMARK minimizedRMSD -1
REMARK  0 active torsions:
REMARK  status: ('A' for Active; 'I' for Inactive)
ROOT
ATOM      1  O1  BZF d   1       0.495   0.829  -0.923  0.00  0.00    -0.204 OA
ATOM      2  C2  BZF d   1       0.306  -0.489  -0.553  0.00  0.00     0.174 A 
ATOM      3  C3  BZF d   1      -0.334  -0.567   0.631  0.00  0.00    -0.012 A 
ATOM      4  C3A BZF d   1      -0.642   0.786   0.982  0.00  0.00    -0.107 A 
ATOM      5  C4  BZF d   1      -1.286   1.357   2.042  0.00  0.00     0.055 A 
ATOM      6  C5  BZF d   1      -1.355   2.712   2.121  0.00  0.00    -0.016 A 
ATOM      7  C6  BZF d   1      -0.786   3.525   1.162  0.00  0.00     0.022 A 
ATOM      8  C7  BZF d   1      -0.141   3.004   0.090  0.00  0.00     0.029 A 
ATOM      9  C7A BZF d   1      -0.099   1.635  -0.010  0.00  0.00     0.058 A 
ENDROOT
TORSDOF 0
ENDMDL
