MODEL 1
REMARK minimizedAffinity -4.26317072
REMARK minimizedRMSD -1
REMARK  0 active torsions:
REMARK  status: ('A' for Active; 'I' for Inactive)
ROOT
ATOM      1  O1  BZF d   1       0.694   0.184  -1.295  0.00  0.00    -0.204 OA
ATOM      2  C2  BZF d   1       1.274  -1.061  -1.145  0.00  0.00     0.174 A 
ATOM      3  C3  BZF d   1       0.966  -1.590   0.057  0.00  0.00    -0.012 A 
ATOM      4  C3A BZF d   1       0.066  -0.655   0.660  0.00  0.00    -0.107 A 
ATOM      5  C4  BZF d   1      -0.601  -0.629   1.852  0.00  0.00     0.055 A 
ATOM      6  C5  BZF d   1      -1.344   0.464   2.169  0.00  0.00    -0.016 A 
ATOM      7  C6  BZF d   1      -1.438   1.548   1.321  0.00  0.00     0.022 A 
ATOM      8  C7  BZF d   1      -0.799   1.566   0.126  0.00  0.00     0.029 A 
ATOM      9  C7A BZF d   1      -0.074   0.450  -0.211  0.00  0.00     0.058 A 
ENDROOT
TORSDOF 0
ENDMDL
