MODEL 1
REMARK minimizedAffinity -4.52746916
REMARK minimizedRMSD -1
REMARK  0 active torsions:
REMARK  status: ('A' for Active; 'I' for Inactive)
ROOT
ATOM      1  O1  BZF d   1      -0.283  -0.453  -0.715  0.00  0.00    -0.204 OA
ATOM      2  C2  BZF d   1       0.003  -1.408   0.242  0.00  0.00     0.174 A 
ATOM      3  C3  BZF d   1      -0.152  -0.902   1.482  0.00  0.00    -0.012 A 
ATOM      4  C3A BZF d   1      -0.649   0.425   1.289  0.00  0.00    -0.107 A 
ATOM      5  C4  BZF d   1      -1.013   1.426   2.144  0.00  0.00     0.055 A 
ATOM      6  C5  BZF d   1      -1.386   2.628   1.634  0.00  0.00    -0.016 A 
ATOM      7  C6  BZF d   1      -1.402   2.867   0.275  0.00  0.00     0.022 A 
ATOM      8  C7  BZF d   1      -1.055   1.904  -0.613  0.00  0.00     0.029 A 
ATOM      9  C7A BZF d   1      -0.709   0.677  -0.101  0.00  0.00     0.058 A 
ENDROOT
TORSDOF 0
ENDMDL
