MODEL 1
REMARK minimizedAffinity -4.49427986
REMARK minimizedRMSD -1
REMARK  0 active torsions:
REMARK  status: ('A' for Active; 'I' for Inactive)
ROOT
ATOM      1  O1  BZF d   1      -1.349  -0.106   0.232  0.00  0.00    -0.204 OA
ATOM      2  C2  BZF d   1      -0.465   0.250   1.232  0.00  0.00     0.174 A 
ATOM      3  C3  BZF d   1       0.752  -0.286   1.008  0.00  0.00    -0.012 A 
ATOM      4  C3A BZF d   1       0.645  -0.947  -0.256  0.00  0.00    -0.107 A 
ATOM      5  C4  BZF d   1       1.527  -1.653  -1.024  0.00  0.00     0.055 A 
ATOM      6  C5  BZF d   1       1.086  -2.232  -2.172  0.00  0.00    -0.016 A 
ATOM      7  C6  BZF d   1      -0.228  -2.131  -2.579  0.00  0.00     0.022 A 
ATOM      8  C7  BZF d   1      -1.138  -1.437  -1.853  0.00  0.00     0.029 A 
ATOM      9  C7A BZF d   1      -0.689  -0.823  -0.709  0.00  0.00     0.058 A 
ENDROOT
TORSDOF 0
ENDMDL
