MODEL 1
REMARK minimizedAffinity -6.1983819
REMARK minimizedRMSD -1
REMARK  0 active torsions:
REMARK  status: ('A' for Active; 'I' for Inactive)
ROOT
ATOM      1  O1  BZF d   1       0.875   1.088  -1.070  0.00  0.00    -0.204 OA
ATOM      2  C2  BZF d   1       1.105  -0.166  -0.538  0.00  0.00     0.174 A 
ATOM      3  C3  BZF d   1       0.252  -0.420   0.475  0.00  0.00    -0.012 A 
ATOM      4  C3A BZF d   1      -0.622   0.712   0.523  0.00  0.00    -0.107 A 
ATOM      5  C4  BZF d   1      -1.690   1.041   1.308  0.00  0.00     0.055 A 
ATOM      6  C5  BZF d   1      -2.280   2.254   1.147  0.00  0.00    -0.016 A 
ATOM      7  C6  BZF d   1      -1.826   3.164   0.214  0.00  0.00     0.022 A 
ATOM      8  C7  BZF d   1      -0.774   2.881  -0.591  0.00  0.00     0.029 A 
ATOM      9  C7A BZF d   1      -0.196   1.642  -0.453  0.00  0.00     0.058 A 
ENDROOT
TORSDOF 0
ENDMDL
