MODEL 1
REMARK minimizedAffinity -5.13344193
REMARK minimizedRMSD -1
REMARK  0 active torsions:
REMARK  status: ('A' for Active; 'I' for Inactive)
ROOT
ATOM      1  O1  BZF d   1       0.517   0.446  -0.570  0.00  0.00    -0.204 OA
ATOM      2  C2  BZF d   1       0.202  -0.689   0.151  0.00  0.00     0.174 A 
ATOM      3  C3  BZF d   1      -0.506  -0.374   1.255  0.00  0.00    -0.012 A 
ATOM      4  C3A BZF d   1      -0.720   1.039   1.173  0.00  0.00    -0.107 A 
ATOM      5  C4  BZF d   1      -1.372   1.937   1.969  0.00  0.00     0.055 A 
ATOM      6  C5  BZF d   1      -1.334   3.256   1.645  0.00  0.00    -0.016 A 
ATOM      7  C6  BZF d   1      -0.650   3.712   0.537  0.00  0.00     0.022 A 
ATOM      8  C7  BZF d   1       0.008   2.858  -0.285  0.00  0.00     0.029 A 
ATOM      9  C7A BZF d   1      -0.057   1.521   0.021  0.00  0.00     0.058 A 
ENDROOT
TORSDOF 0
ENDMDL
