MODEL 1
REMARK minimizedAffinity -3.77032995
REMARK minimizedRMSD -1
REMARK  0 active torsions:
REMARK  status: ('A' for Active; 'I' for Inactive)
ROOT
ATOM      1  O1  BZF d   1       1.455  -0.592  -0.963  0.00  0.00    -0.204 OA
ATOM      2  C2  BZF d   1       0.375  -0.082  -0.268  0.00  0.00     0.174 A 
ATOM      3  C3  BZF d   1      -0.688  -0.906  -0.364  0.00  0.00    -0.012 A 
ATOM      4  C3A BZF d   1      -0.217  -2.045  -1.092  0.00  0.00    -0.107 A 
ATOM      5  C4  BZF d   1      -0.804  -3.211  -1.492  0.00  0.00     0.055 A 
ATOM      6  C5  BZF d   1      -0.089  -4.083  -2.251  0.00  0.00    -0.016 A 
ATOM      7  C6  BZF d   1       1.210  -3.819  -2.632  0.00  0.00     0.022 A 
ATOM      8  C7  BZF d   1       1.836  -2.677  -2.255  0.00  0.00     0.029 A 
ATOM      9  C7A BZF d   1       1.128  -1.809  -1.460  0.00  0.00     0.058 A 
ENDROOT
TORSDOF 0
ENDMDL
