MODEL 1
REMARK minimizedAffinity -4.97809696
REMARK minimizedRMSD -1
REMARK  0 active torsions:
REMARK  status: ('A' for Active; 'I' for Inactive)
ROOT
ATOM      1  O1  BZF d   1       0.833   1.304  -0.972  0.00  0.00    -0.204 OA
ATOM      2  C2  BZF d   1       0.570  -0.009  -0.633  0.00  0.00     0.174 A 
ATOM      3  C3  BZF d   1      -0.419  -0.078   0.280  0.00  0.00    -0.012 A 
ATOM      4  C3A BZF d   1      -0.862   1.271   0.459  0.00  0.00    -0.107 A 
ATOM      5  C4  BZF d   1      -1.832   1.846   1.228  0.00  0.00     0.055 A 
ATOM      6  C5  BZF d   1      -1.960   3.199   1.228  0.00  0.00    -0.016 A 
ATOM      7  C6  BZF d   1      -1.131   4.006   0.476  0.00  0.00     0.022 A 
ATOM      8  C7  BZF d   1      -0.157   3.481  -0.307  0.00  0.00     0.029 A 
ATOM      9  C7A BZF d   1      -0.047   2.112  -0.334  0.00  0.00     0.058 A 
ENDROOT
TORSDOF 0
ENDMDL
