MODEL 1
REMARK minimizedAffinity -4.39634132
REMARK minimizedRMSD -1
REMARK  0 active torsions:
REMARK  status: ('A' for Active; 'I' for Inactive)
ROOT
ATOM      1  O1  BZF d   1       0.836  -0.662   1.052  0.00  0.00    -0.204 OA
ATOM      2  C2  BZF d   1      -0.134   0.297   1.272  0.00  0.00     0.174 A 
ATOM      3  C3  BZF d   1      -0.974   0.377   0.220  0.00  0.00    -0.012 A 
ATOM      4  C3A BZF d   1      -0.554  -0.657  -0.676  0.00  0.00    -0.107 A 
ATOM      5  C4  BZF d   1      -1.008  -1.089  -1.890  0.00  0.00     0.055 A 
ATOM      6  C5  BZF d   1      -0.330  -2.074  -2.536  0.00  0.00    -0.016 A 
ATOM      7  C6  BZF d   1       0.806  -2.645  -2.000  0.00  0.00     0.022 A 
ATOM      8  C7  BZF d   1       1.291  -2.254  -0.797  0.00  0.00     0.029 A 
ATOM      9  C7A BZF d   1       0.589  -1.281  -0.127  0.00  0.00     0.058 A 
ENDROOT
TORSDOF 0
ENDMDL
