MODEL 1
REMARK minimizedAffinity -4.59736967
REMARK minimizedRMSD -1
REMARK  0 active torsions:
REMARK  status: ('A' for Active; 'I' for Inactive)
ROOT
ATOM      1  O1  BZF d   1       0.758   0.176  -0.279  0.00  0.00    -0.204 OA
ATOM      2  C2  BZF d   1       0.648  -1.067   0.314  0.00  0.00     0.174 A 
ATOM      3  C3  BZF d   1      -0.340  -1.074   1.232  0.00  0.00    -0.012 A 
ATOM      4  C3A BZF d   1      -0.943   0.221   1.146  0.00  0.00    -0.107 A 
ATOM      5  C4  BZF d   1      -1.987   0.816   1.794  0.00  0.00     0.055 A 
ATOM      6  C5  BZF d   1      -2.275   2.117   1.529  0.00  0.00    -0.016 A 
ATOM      7  C6  BZF d   1      -1.537   2.854   0.625  0.00  0.00     0.022 A 
ATOM      8  C7  BZF d   1      -0.495   2.306  -0.046  0.00  0.00     0.029 A 
ATOM      9  C7A BZF d   1      -0.223   0.982   0.196  0.00  0.00     0.058 A 
ENDROOT
TORSDOF 0
ENDMDL
