MODEL 1
REMARK minimizedAffinity -1.38035083
REMARK minimizedRMSD -1
REMARK  0 active torsions:
REMARK  status: ('A' for Active; 'I' for Inactive)
ROOT
ATOM      1  O1  BZF d   1       0.707   1.206  -1.518  0.00  0.00    -0.204 OA
ATOM      2  C2  BZF d   1       1.676   0.425  -2.118  0.00  0.00     0.174 A 
ATOM      3  C3  BZF d   1       1.965  -0.649  -1.355  0.00  0.00    -0.012 A 
ATOM      4  C3A BZF d   1       1.057  -0.581  -0.251  0.00  0.00    -0.107 A 
ATOM      5  C4  BZF d   1       0.843  -1.376   0.839  0.00  0.00     0.055 A 
ATOM      6  C5  BZF d   1      -0.069  -0.991   1.769  0.00  0.00    -0.016 A 
ATOM      7  C6  BZF d   1      -0.781   0.184   1.644  0.00  0.00     0.022 A 
ATOM      8  C7  BZF d   1      -0.607   1.003   0.578  0.00  0.00     0.029 A 
ATOM      9  C7A BZF d   1       0.291   0.600  -0.380  0.00  0.00     0.058 A 
ENDROOT
TORSDOF 0
ENDMDL
