MODEL 1
REMARK minimizedAffinity -5.94126225
REMARK minimizedRMSD -1
REMARK  0 active torsions:
REMARK  status: ('A' for Active; 'I' for Inactive)
ROOT
ATOM      1  O1  BZF d   1       0.259  -0.099  -0.815  0.00  0.00    -0.204 OA
ATOM      2  C2  BZF d   1       0.482  -1.145   0.060  0.00  0.00     0.174 A 
ATOM      3  C3  BZF d   1       0.049  -0.833   1.298  0.00  0.00    -0.012 A 
ATOM      4  C3A BZF d   1      -0.561   0.455   1.171  0.00  0.00    -0.107 A 
ATOM      5  C4  BZF d   1      -1.189   1.288   2.052  0.00  0.00     0.055 A 
ATOM      6  C5  BZF d   1      -1.607   2.508   1.624  0.00  0.00    -0.016 A 
ATOM      7  C6  BZF d   1      -1.409   2.929   0.325  0.00  0.00     0.022 A 
ATOM      8  C7  BZF d   1      -0.796   2.136  -0.586  0.00  0.00     0.029 A 
ATOM      9  C7A BZF d   1      -0.402   0.889  -0.166  0.00  0.00     0.058 A 
ENDROOT
TORSDOF 0
ENDMDL
