MODEL 1
REMARK minimizedAffinity -5.88197374
REMARK minimizedRMSD -1
REMARK  0 active torsions:
REMARK  status: ('A' for Active; 'I' for Inactive)
ROOT
ATOM      1  O1  BZF d   1       0.879   0.768  -0.569  0.00  0.00    -0.204 OA
ATOM      2  C2  BZF d   1       0.575  -0.385   0.129  0.00  0.00     0.174 A 
ATOM      3  C3  BZF d   1      -0.400  -0.154   1.032  0.00  0.00    -0.012 A 
ATOM      4  C3A BZF d   1      -0.789   1.207   0.826  0.00  0.00    -0.107 A 
ATOM      5  C4  BZF d   1      -1.725   2.014   1.408  0.00  0.00     0.055 A 
ATOM      6  C5  BZF d   1      -1.803   3.316   1.027  0.00  0.00    -0.016 A 
ATOM      7  C6  BZF d   1      -0.959   3.845   0.071  0.00  0.00     0.022 A 
ATOM      8  C7  BZF d   1      -0.019   3.082  -0.538  0.00  0.00     0.029 A 
ATOM      9  C7A BZF d   1       0.040   1.757  -0.178  0.00  0.00     0.058 A 
ENDROOT
TORSDOF 0
ENDMDL
