MODEL 1
REMARK minimizedAffinity -5.27379942
REMARK minimizedRMSD -1
REMARK  0 active torsions:
REMARK  status: ('A' for Active; 'I' for Inactive)
ROOT
ATOM      1  O1  BZF d   1       0.796   0.556  -1.103  0.00  0.00    -0.204 OA
ATOM      2  C2  BZF d   1       0.770  -0.680  -0.488  0.00  0.00     0.174 A 
ATOM      3  C3  BZF d   1       0.060  -0.631   0.658  0.00  0.00    -0.012 A 
ATOM      4  C3A BZF d   1      -0.464   0.700   0.718  0.00  0.00    -0.107 A 
ATOM      5  C4  BZF d   1      -1.261   1.355   1.612  0.00  0.00     0.055 A 
ATOM      6  C5  BZF d   1      -1.529   2.673   1.417  0.00  0.00    -0.016 A 
ATOM      7  C6  BZF d   1      -1.011   3.367   0.343  0.00  0.00     0.022 A 
ATOM      8  C7  BZF d   1      -0.219   2.759  -0.573  0.00  0.00     0.029 A 
ATOM      9  C7A BZF d   1       0.026   1.419  -0.396  0.00  0.00     0.058 A 
ENDROOT
TORSDOF 0
ENDMDL
