MODEL 1
REMARK minimizedAffinity -6.30134296
REMARK minimizedRMSD -1
REMARK  0 active torsions:
REMARK  status: ('A' for Active; 'I' for Inactive)
ROOT
ATOM      1  O1  BZF d   1       0.440   0.066  -0.723  0.00  0.00    -0.204 OA
ATOM      2  C2  BZF d   1       0.371  -1.056   0.081  0.00  0.00     0.174 A 
ATOM      3  C3  BZF d   1      -0.363  -0.809   1.185  0.00  0.00    -0.012 A 
ATOM      4  C3A BZF d   1      -0.855   0.525   1.019  0.00  0.00    -0.107 A 
ATOM      5  C4  BZF d   1      -1.656   1.331   1.776  0.00  0.00     0.055 A 
ATOM      6  C5  BZF d   1      -1.886   2.606   1.367  0.00  0.00    -0.016 A 
ATOM      7  C6  BZF d   1      -1.328   3.109   0.210  0.00  0.00     0.022 A 
ATOM      8  C7  BZF d   1      -0.531   2.346  -0.577  0.00  0.00     0.029 A 
ATOM      9  C7A BZF d   1      -0.323   1.046  -0.183  0.00  0.00     0.058 A 
ENDROOT
TORSDOF 0
ENDMDL
