MODEL 1
REMARK minimizedAffinity -4.96854401
REMARK minimizedRMSD -1
REMARK  0 active torsions:
REMARK  status: ('A' for Active; 'I' for Inactive)
ROOT
ATOM      1  C   UNL d   1       0.198  -1.378   0.137  0.00  0.00     0.078 C 
ATOM      2  C1  UNL d   1      -0.107   0.080   0.311  0.00  0.00    -0.077 A 
ATOM      3  C2  UNL d   1      -1.317   0.501   0.875  0.00  0.00    -0.001 A 
ATOM      4  C3  UNL d   1      -1.591   1.862   1.022  0.00  0.00     0.003 A 
ATOM      5  C4  UNL d   1      -0.661   2.812   0.606  0.00  0.00    -0.005 A 
ATOM      6  C5  UNL d   1       0.545   2.402   0.041  0.00  0.00     0.003 A 
ATOM      7  C6  UNL d   1       0.821   1.042  -0.107  0.00  0.00    -0.001 A 
ENDROOT
TORSDOF 0
ENDMDL
