MODEL 1
REMARK minimizedAffinity -3.60671449
REMARK minimizedRMSD -1
REMARK  0 active torsions:
REMARK  status: ('A' for Active; 'I' for Inactive)
ROOT
ATOM      1  C   UNL d   1       3.086   1.490   1.133  0.00  0.00     0.078 C 
ATOM      2  C1  UNL d   1       1.623   1.399   0.815  0.00  0.00    -0.077 A 
ATOM      3  C2  UNL d   1       0.774   2.496   1.007  0.00  0.00    -0.001 A 
ATOM      4  C3  UNL d   1      -0.587   2.394   0.716  0.00  0.00     0.003 A 
ATOM      5  C4  UNL d   1      -1.112   1.197   0.233  0.00  0.00    -0.005 A 
ATOM      6  C5  UNL d   1      -0.275   0.100   0.040  0.00  0.00     0.003 A 
ATOM      7  C6  UNL d   1       1.086   0.199   0.331  0.00  0.00    -0.001 A 
ENDROOT
TORSDOF 0
ENDMDL
