MODEL 1
REMARK minimizedAffinity -5.36211252
REMARK minimizedRMSD -1
REMARK  0 active torsions:
REMARK  status: ('A' for Active; 'I' for Inactive)
ROOT
ATOM      1  C   UNL d   1      -0.450  -1.392  -0.104  0.00  0.00     0.078 C 
ATOM      2  C1  UNL d   1      -0.359   0.083   0.147  0.00  0.00    -0.077 A 
ATOM      3  C2  UNL d   1      -1.478   0.814   0.564  0.00  0.00    -0.001 A 
ATOM      4  C3  UNL d   1      -1.380   2.189   0.785  0.00  0.00     0.003 A 
ATOM      5  C4  UNL d   1      -0.167   2.845   0.590  0.00  0.00    -0.005 A 
ATOM      6  C5  UNL d   1       0.952   2.126   0.173  0.00  0.00     0.003 A 
ATOM      7  C6  UNL d   1       0.857   0.751  -0.049  0.00  0.00    -0.001 A 
ENDROOT
TORSDOF 0
ENDMDL
