MODEL 1
REMARK minimizedAffinity -2.04583931
REMARK minimizedRMSD -1
REMARK  0 active torsions:
REMARK  status: ('A' for Active; 'I' for Inactive)
ROOT
ATOM      1  C   UNL d   1      -0.409  -1.369  -0.187  0.00  0.00     0.078 C 
ATOM      2  C1  UNL d   1      -0.688   0.028   0.279  0.00  0.00    -0.077 A 
ATOM      3  C2  UNL d   1       0.355   0.934   0.509  0.00  0.00    -0.001 A 
ATOM      4  C3  UNL d   1       0.081   2.229   0.952  0.00  0.00     0.003 A 
ATOM      5  C4  UNL d   1      -1.236   2.630   1.170  0.00  0.00    -0.005 A 
ATOM      6  C5  UNL d   1      -2.280   1.735   0.946  0.00  0.00     0.003 A 
ATOM      7  C6  UNL d   1      -2.008   0.440   0.503  0.00  0.00    -0.001 A 
ENDROOT
TORSDOF 0
ENDMDL
