MODEL 1
REMARK minimizedAffinity -0.954764366
REMARK minimizedRMSD -1
REMARK  0 active torsions:
REMARK  status: ('A' for Active; 'I' for Inactive)
ROOT
ATOM      1  C   UNL d   1      -2.327   0.685   1.186  0.00  0.00     0.078 C 
ATOM      2  C1  UNL d   1      -0.974   0.247   0.710  0.00  0.00    -0.077 A 
ATOM      3  C2  UNL d   1      -0.655  -1.111   0.596  0.00  0.00    -0.001 A 
ATOM      4  C3  UNL d   1       0.612  -1.505   0.161  0.00  0.00     0.003 A 
ATOM      5  C4  UNL d   1       1.569  -0.546  -0.163  0.00  0.00    -0.005 A 
ATOM      6  C5  UNL d   1       1.261   0.809  -0.051  0.00  0.00     0.003 A 
ATOM      7  C6  UNL d   1      -0.005   1.204   0.384  0.00  0.00    -0.001 A 
ENDROOT
TORSDOF 0
ENDMDL
