MODEL 1
REMARK minimizedAffinity -4.69505024
REMARK minimizedRMSD -1
REMARK  0 active torsions:
REMARK  status: ('A' for Active; 'I' for Inactive)
ROOT
ATOM      1  C   UNL d   1       0.406  -1.676  -0.260  0.00  0.00     0.078 C 
ATOM      2  C1  UNL d   1       0.010  -0.247  -0.040  0.00  0.00    -0.077 A 
ATOM      3  C2  UNL d   1       0.877   0.801  -0.370  0.00  0.00    -0.001 A 
ATOM      4  C3  UNL d   1       0.499   2.126  -0.150  0.00  0.00     0.003 A 
ATOM      5  C4  UNL d   1      -0.747   2.416   0.402  0.00  0.00    -0.005 A 
ATOM      6  C5  UNL d   1      -1.616   1.379   0.736  0.00  0.00     0.003 A 
ATOM      7  C6  UNL d   1      -1.240   0.053   0.517  0.00  0.00    -0.001 A 
ENDROOT
TORSDOF 0
ENDMDL
