MODEL 1
REMARK minimizedAffinity -3.38958383
REMARK minimizedRMSD -1
REMARK  0 active torsions:
REMARK  status: ('A' for Active; 'I' for Inactive)
ROOT
ATOM      1  C   UNL d   1       0.367  -1.135   0.408  0.00  0.00     0.078 C 
ATOM      2  C1  UNL d   1       0.409   0.355   0.573  0.00  0.00    -0.077 A 
ATOM      3  C2  UNL d   1       1.629   1.035   0.678  0.00  0.00    -0.001 A 
ATOM      4  C3  UNL d   1       1.653   2.421   0.841  0.00  0.00     0.003 A 
ATOM      5  C4  UNL d   1       0.460   3.139   0.903  0.00  0.00    -0.005 A 
ATOM      6  C5  UNL d   1      -0.759   2.471   0.802  0.00  0.00     0.003 A 
ATOM      7  C6  UNL d   1      -0.784   1.085   0.638  0.00  0.00    -0.001 A 
ENDROOT
TORSDOF 0
ENDMDL
