MODEL 1
REMARK minimizedAffinity -3.56215811
REMARK minimizedRMSD -1
REMARK  0 active torsions:
REMARK  status: ('A' for Active; 'I' for Inactive)
ROOT
ATOM      1  C   UNL d   1      -0.005  -1.649   0.127  0.00  0.00     0.078 C 
ATOM      2  C1  UNL d   1      -0.498  -0.261   0.407  0.00  0.00    -0.077 A 
ATOM      3  C2  UNL d   1      -1.688  -0.046   1.112  0.00  0.00    -0.001 A 
ATOM      4  C3  UNL d   1      -2.140   1.252   1.357  0.00  0.00     0.003 A 
ATOM      5  C4  UNL d   1      -1.408   2.345   0.898  0.00  0.00    -0.005 A 
ATOM      6  C5  UNL d   1      -0.223   2.142   0.194  0.00  0.00     0.003 A 
ATOM      7  C6  UNL d   1       0.230   0.845  -0.052  0.00  0.00    -0.001 A 
ENDROOT
TORSDOF 0
ENDMDL
