MODEL 1
REMARK minimizedAffinity -5.30516958
REMARK minimizedRMSD -1
REMARK  0 active torsions:
REMARK  status: ('A' for Active; 'I' for Inactive)
ROOT
ATOM      1  C   UNL d   1       0.026   3.574  -0.090  0.00  0.00     0.078 C 
ATOM      2  C1  UNL d   1      -0.265   2.143   0.249  0.00  0.00    -0.077 A 
ATOM      3  C2  UNL d   1      -1.338   1.804   1.083  0.00  0.00    -0.001 A 
ATOM      4  C3  UNL d   1      -1.592   0.469   1.398  0.00  0.00     0.003 A 
ATOM      5  C4  UNL d   1      -0.777  -0.539   0.886  0.00  0.00    -0.005 A 
ATOM      6  C5  UNL d   1       0.294  -0.211   0.058  0.00  0.00     0.003 A 
ATOM      7  C6  UNL d   1       0.550   1.124  -0.259  0.00  0.00    -0.001 A 
ENDROOT
TORSDOF 0
ENDMDL
