MODEL 1
REMARK minimizedAffinity -2.82350659
REMARK minimizedRMSD -1
REMARK  0 active torsions:
REMARK  status: ('A' for Active; 'I' for Inactive)
ROOT
ATOM      1  C   UNL d   1      -0.746   2.907   1.134  0.00  0.00     0.078 C 
ATOM      2  C1  UNL d   1      -0.541   1.519   0.604  0.00  0.00    -0.077 A 
ATOM      3  C2  UNL d   1      -1.545   0.549   0.714  0.00  0.00    -0.001 A 
ATOM      4  C3  UNL d   1      -1.336  -0.741   0.226  0.00  0.00     0.003 A 
ATOM      5  C4  UNL d   1      -0.124  -1.074  -0.376  0.00  0.00    -0.005 A 
ATOM      6  C5  UNL d   1       0.882  -0.117  -0.488  0.00  0.00     0.003 A 
ATOM      7  C6  UNL d   1       0.675   1.175   0.000  0.00  0.00    -0.001 A 
ENDROOT
TORSDOF 0
ENDMDL
