MODEL 1
REMARK minimizedAffinity -5.01313543
REMARK minimizedRMSD -1
REMARK  0 active torsions:
REMARK  status: ('A' for Active; 'I' for Inactive)
ROOT
ATOM      1  C   UNL d   1      -0.165  -0.709  -0.124  0.00  0.00     0.078 C 
ATOM      2  C1  UNL d   1       0.006   0.759   0.130  0.00  0.00    -0.077 A 
ATOM      3  C2  UNL d   1      -0.821   1.436   1.036  0.00  0.00    -0.001 A 
ATOM      4  C3  UNL d   1      -0.657   2.804   1.255  0.00  0.00     0.003 A 
ATOM      5  C4  UNL d   1       0.333   3.509   0.572  0.00  0.00    -0.005 A 
ATOM      6  C5  UNL d   1       1.159   2.845  -0.332  0.00  0.00     0.003 A 
ATOM      7  C6  UNL d   1       0.996   1.476  -0.553  0.00  0.00    -0.001 A 
ENDROOT
TORSDOF 0
ENDMDL
