MODEL 1
REMARK minimizedAffinity 1.62654269
REMARK minimizedRMSD -1
REMARK  0 active torsions:
REMARK  status: ('A' for Active; 'I' for Inactive)
ROOT
ATOM      1  C   UNL d   1       1.922  -0.416   0.465  0.00  0.00     0.078 C 
ATOM      2  C1  UNL d   1       0.602   0.226   0.774  0.00  0.00    -0.077 A 
ATOM      3  C2  UNL d   1      -0.599  -0.471   0.592  0.00  0.00    -0.001 A 
ATOM      4  C3  UNL d   1      -1.820   0.142   0.875  0.00  0.00     0.003 A 
ATOM      5  C4  UNL d   1      -1.853   1.455   1.341  0.00  0.00    -0.005 A 
ATOM      6  C5  UNL d   1      -0.663   2.157   1.523  0.00  0.00     0.003 A 
ATOM      7  C6  UNL d   1       0.559   1.545   1.241  0.00  0.00    -0.001 A 
ENDROOT
TORSDOF 0
ENDMDL
