MODEL 1
REMARK minimizedAffinity -5.5194006
REMARK minimizedRMSD -1
REMARK  0 active torsions:
REMARK  status: ('A' for Active; 'I' for Inactive)
ROOT
ATOM      1  C   UNL d   1       2.780   2.043   0.566  0.00  0.00     0.078 C 
ATOM      2  C1  UNL d   1       1.292   1.878   0.473  0.00  0.00    -0.077 A 
ATOM      3  C2  UNL d   1       0.459   2.974   0.221  0.00  0.00    -0.001 A 
ATOM      4  C3  UNL d   1      -0.925   2.807   0.147  0.00  0.00     0.003 A 
ATOM      5  C4  UNL d   1      -1.488   1.545   0.325  0.00  0.00    -0.005 A 
ATOM      6  C5  UNL d   1      -0.667   0.448   0.579  0.00  0.00     0.003 A 
ATOM      7  C6  UNL d   1       0.717   0.613   0.653  0.00  0.00    -0.001 A 
ENDROOT
TORSDOF 0
ENDMDL
