MODEL 1
REMARK minimizedAffinity -5.39796782
REMARK minimizedRMSD -1
REMARK  0 active torsions:
REMARK  status: ('A' for Active; 'I' for Inactive)
ROOT
ATOM      1  C   UNL d   1      -0.101  -1.242   0.092  0.00  0.00     0.078 C 
ATOM      2  C1  UNL d   1      -0.039   0.253   0.199  0.00  0.00    -0.077 A 
ATOM      3  C2  UNL d   1      -1.190   1.004   0.469  0.00  0.00    -0.001 A 
ATOM      4  C3  UNL d   1      -1.119   2.396   0.556  0.00  0.00     0.003 A 
ATOM      5  C4  UNL d   1       0.099   3.048   0.374  0.00  0.00    -0.005 A 
ATOM      6  C5  UNL d   1       1.248   2.308   0.103  0.00  0.00     0.003 A 
ATOM      7  C6  UNL d   1       1.180   0.917   0.015  0.00  0.00    -0.001 A 
ENDROOT
TORSDOF 0
ENDMDL
