MODEL 1
REMARK minimizedAffinity -4.95998907
REMARK minimizedRMSD -1
REMARK  0 active torsions:
REMARK  status: ('A' for Active; 'I' for Inactive)
ROOT
ATOM      1  C   UNL d   1       0.757   2.962  -0.478  0.00  0.00     0.078 C 
ATOM      2  C1  UNL d   1       0.654   1.565   0.059  0.00  0.00    -0.077 A 
ATOM      3  C2  UNL d   1       1.803   0.818   0.350  0.00  0.00    -0.001 A 
ATOM      4  C3  UNL d   1       1.692  -0.484   0.839  0.00  0.00     0.003 A 
ATOM      5  C4  UNL d   1       0.436  -1.052   1.041  0.00  0.00    -0.005 A 
ATOM      6  C5  UNL d   1      -0.713  -0.317   0.752  0.00  0.00     0.003 A 
ATOM      7  C6  UNL d   1      -0.604   0.985   0.262  0.00  0.00    -0.001 A 
ENDROOT
TORSDOF 0
ENDMDL
