MODEL 1
REMARK minimizedAffinity 7.90284443
REMARK minimizedRMSD -1
REMARK  0 active torsions:
REMARK  status: ('A' for Active; 'I' for Inactive)
ROOT
ATOM      1  N1  IND d   1       1.193   3.234  -0.529  0.00  0.00    -0.196 N 
ATOM      2  C2  IND d   1       1.061   3.284  -1.888  0.00  0.00     0.054 A 
ATOM      3  C3  IND d   1       1.085   2.037  -2.410  0.00  0.00    -0.031 A 
ATOM      4  C4  IND d   1       1.230  -0.236  -1.208  0.00  0.00     0.051 A 
ATOM      5  C5  IND d   1       1.403  -0.791   0.028  0.00  0.00    -0.031 A 
ATOM      6  C6  IND d   1       1.514  -0.018   1.166  0.00  0.00     0.015 A 
ATOM      7  C7  IND d   1       1.445   1.345   1.110  0.00  0.00    -0.016 A 
ATOM      8  C8  IND d   1       1.277   1.913  -0.145  0.00  0.00    -0.047 A 
ATOM      9  C9  IND d   1       1.206   1.135  -1.308  0.00  0.00    -0.096 A 
ATOM     10  HN1 IND d   1       1.220   3.913  -0.002  0.00  0.00     0.298 HD
ENDROOT
TORSDOF 0
ENDMDL
