MODEL 1
REMARK minimizedAffinity 7.43703461
REMARK minimizedRMSD -1
REMARK  0 active torsions:
REMARK  status: ('A' for Active; 'I' for Inactive)
ROOT
ATOM      1  N1  IND d   1       1.530   0.633  -2.262  0.00  0.00    -0.196 N 
ATOM      2  C2  IND d   1       1.969  -0.384  -1.462  0.00  0.00     0.054 A 
ATOM      3  C3  IND d   1       2.008   0.016  -0.171  0.00  0.00    -0.031 A 
ATOM      4  C4  IND d   1       1.300   2.264   0.866  0.00  0.00     0.051 A 
ATOM      5  C5  IND d   1       0.868   3.516   0.531  0.00  0.00    -0.031 A 
ATOM      6  C6  IND d   1       0.628   3.878  -0.779  0.00  0.00     0.015 A 
ATOM      7  C7  IND d   1       0.800   2.994  -1.806  0.00  0.00    -0.016 A 
ATOM      8  C8  IND d   1       1.245   1.723  -1.470  0.00  0.00    -0.047 A 
ATOM      9  C9  IND d   1       1.531   1.363  -0.146  0.00  0.00    -0.096 A 
ATOM     10  HN1 IND d   1       1.447   0.598  -3.117  0.00  0.00     0.298 HD
ENDROOT
TORSDOF 0
ENDMDL
