MODEL 1
REMARK minimizedAffinity -0.687311649
REMARK minimizedRMSD -1
REMARK  0 active torsions:
REMARK  status: ('A' for Active; 'I' for Inactive)
ROOT
ATOM      1  N1  IND d   1       1.538   2.980  -2.308  0.00  0.00    -0.196 N 
ATOM      2  C2  IND d   1       1.170   4.094  -1.606  0.00  0.00     0.054 A 
ATOM      3  C3  IND d   1       0.799   3.757  -0.351  0.00  0.00    -0.031 A 
ATOM      4  C4  IND d   1       0.815   1.453   0.797  0.00  0.00     0.051 A 
ATOM      5  C5  IND d   1       1.037   0.127   0.549  0.00  0.00    -0.031 A 
ATOM      6  C6  IND d   1       1.449  -0.324  -0.689  0.00  0.00     0.015 A 
ATOM      7  C7  IND d   1       1.665   0.539  -1.726  0.00  0.00    -0.016 A 
ATOM      8  C8  IND d   1       1.434   1.885  -1.479  0.00  0.00    -0.047 A 
ATOM      9  C9  IND d   1       0.975   2.344  -0.238  0.00  0.00    -0.096 A 
ATOM     10  HN1 IND d   1       1.793   2.966  -3.129  0.00  0.00     0.298 HD
ENDROOT
TORSDOF 0
ENDMDL
