MODEL 1
REMARK minimizedAffinity -0.509282827
REMARK minimizedRMSD -1
REMARK  0 active torsions:
REMARK  status: ('A' for Active; 'I' for Inactive)
ROOT
ATOM      1  N1  IND d   1       1.594  -2.292   0.001  0.00  0.00    -0.196 N 
ATOM      2  C2  IND d   1       1.127  -2.840  -1.161  0.00  0.00     0.054 A 
ATOM      3  C3  IND d   1       0.574  -1.884  -1.942  0.00  0.00    -0.031 A 
ATOM      4  C4  IND d   1       0.420   0.656  -1.557  0.00  0.00     0.051 A 
ATOM      5  C5  IND d   1       0.676   1.622  -0.624  0.00  0.00    -0.031 A 
ATOM      6  C6  IND d   1       1.265   1.326   0.589  0.00  0.00     0.015 A 
ATOM      7  C7  IND d   1       1.633   0.050   0.910  0.00  0.00    -0.016 A 
ATOM      8  C8  IND d   1       1.368  -0.934  -0.032  0.00  0.00    -0.047 A 
ATOM      9  C9  IND d   1       0.732  -0.647  -1.247  0.00  0.00    -0.096 A 
ATOM     10  HN1 IND d   1       1.967  -2.724   0.645  0.00  0.00     0.298 HD
ENDROOT
TORSDOF 0
ENDMDL
