MODEL 1
REMARK minimizedAffinity 0.720567703
REMARK minimizedRMSD -1
REMARK  0 active torsions:
REMARK  status: ('A' for Active; 'I' for Inactive)
ROOT
ATOM      1  N1  IND d   1       1.095   2.678  -2.261  0.00  0.00    -0.196 N 
ATOM      2  C2  IND d   1       1.071   3.666  -1.316  0.00  0.00     0.054 A 
ATOM      3  C3  IND d   1       1.075   3.130  -0.075  0.00  0.00    -0.031 A 
ATOM      4  C4  IND d   1       1.221   0.662   0.640  0.00  0.00     0.051 A 
ATOM      5  C5  IND d   1       1.226  -0.608   0.134  0.00  0.00    -0.031 A 
ATOM      6  C6  IND d   1       1.189  -0.852  -1.224  0.00  0.00     0.015 A 
ATOM      7  C7  IND d   1       1.157   0.170  -2.130  0.00  0.00    -0.016 A 
ATOM      8  C8  IND d   1       1.146   1.460  -1.620  0.00  0.00    -0.047 A 
ATOM      9  C9  IND d   1       1.140   1.713  -0.242  0.00  0.00    -0.096 A 
ATOM     10  HN1 IND d   1       1.080   2.798  -3.112  0.00  0.00     0.298 HD
ENDROOT
TORSDOF 0
ENDMDL
