MODEL 1
REMARK minimizedAffinity -0.36637336
REMARK minimizedRMSD -1
REMARK  0 active torsions:
REMARK  status: ('A' for Active; 'I' for Inactive)
ROOT
ATOM      1  N1  IND d   1       1.549   3.821  -1.828  0.00  0.00    -0.196 N 
ATOM      2  C2  IND d   1       1.716   4.774  -0.863  0.00  0.00     0.054 A 
ATOM      3  C3  IND d   1       1.525   4.241   0.364  0.00  0.00    -0.031 A 
ATOM      4  C4  IND d   1       1.030   1.804   1.029  0.00  0.00     0.051 A 
ATOM      5  C5  IND d   1       0.753   0.576   0.495  0.00  0.00    -0.031 A 
ATOM      6  C6  IND d   1       0.729   0.363  -0.868  0.00  0.00     0.015 A 
ATOM      7  C7  IND d   1       0.994   1.371  -1.752  0.00  0.00    -0.016 A 
ATOM      8  C8  IND d   1       1.269   2.620  -1.213  0.00  0.00    -0.047 A 
ATOM      9  C9  IND d   1       1.253   2.852   0.168  0.00  0.00    -0.096 A 
ATOM     10  HN1 IND d   1       1.608   3.949  -2.676  0.00  0.00     0.298 HD
ENDROOT
TORSDOF 0
ENDMDL
