MODEL 1
REMARK minimizedAffinity -3.31192446
REMARK minimizedRMSD -1
REMARK  0 active torsions:
REMARK  status: ('A' for Active; 'I' for Inactive)
ROOT
ATOM      1  N1  IND d   1       1.495  -0.194  -2.316  0.00  0.00    -0.196 N 
ATOM      2  C2  IND d   1       1.476  -1.282  -1.488  0.00  0.00     0.054 A 
ATOM      3  C3  IND d   1       1.211  -0.902  -0.218  0.00  0.00    -0.031 A 
ATOM      4  C4  IND d   1       0.675   1.438   0.711  0.00  0.00     0.051 A 
ATOM      5  C5  IND d   1       0.610   2.753   0.346  0.00  0.00    -0.031 A 
ATOM      6  C6  IND d   1       0.838   3.161  -0.952  0.00  0.00     0.015 A 
ATOM      7  C7  IND d   1       1.131   2.264  -1.940  0.00  0.00    -0.016 A 
ATOM      8  C8  IND d   1       1.205   0.928  -1.571  0.00  0.00    -0.047 A 
ATOM      9  C9  IND d   1       1.016   0.513  -0.247  0.00  0.00    -0.096 A 
ATOM     10  HN1 IND d   1       1.661  -0.208  -3.159  0.00  0.00     0.298 HD
ENDROOT
TORSDOF 0
ENDMDL
