MODEL 1
REMARK minimizedAffinity -2.78813529
REMARK minimizedRMSD -1
REMARK  0 active torsions:
REMARK  status: ('A' for Active; 'I' for Inactive)
ROOT
ATOM      1  N1  IND d   1       1.159  -0.017   0.771  0.00  0.00    -0.196 N 
ATOM      2  C2  IND d   1       1.213  -0.737  -0.390  0.00  0.00     0.054 A 
ATOM      3  C3  IND d   1       1.128   0.087  -1.459  0.00  0.00    -0.031 A 
ATOM      4  C4  IND d   1       0.999   2.657  -1.536  0.00  0.00     0.051 A 
ATOM      5  C5  IND d   1       0.885   3.754  -0.730  0.00  0.00    -0.031 A 
ATOM      6  C6  IND d   1       0.860   3.649   0.646  0.00  0.00     0.015 A 
ATOM      7  C7  IND d   1       0.958   2.438   1.269  0.00  0.00    -0.016 A 
ATOM      8  C8  IND d   1       1.066   1.320   0.454  0.00  0.00    -0.047 A 
ATOM      9  C9  IND d   1       1.050   1.417  -0.944  0.00  0.00    -0.096 A 
ATOM     10  HN1 IND d   1       1.180  -0.345   1.566  0.00  0.00     0.298 HD
ENDROOT
TORSDOF 0
ENDMDL
