MODEL 1
REMARK minimizedAffinity -1.9139477
REMARK minimizedRMSD -1
REMARK  0 active torsions:
REMARK  status: ('A' for Active; 'I' for Inactive)
ROOT
ATOM      1  N1  IND d   1      -4.984   2.065   3.726  0.00  0.00    -0.196 N 
ATOM      2  C2  IND d   1      -4.839   1.309   2.596  0.00  0.00     0.054 A 
ATOM      3  C3  IND d   1      -3.562   0.883   2.476  0.00  0.00    -0.031 A 
ATOM      4  C4  IND d   1      -1.568   1.221   4.068  0.00  0.00     0.051 A 
ATOM      5  C5  IND d   1      -1.201   1.872   5.212  0.00  0.00    -0.031 A 
ATOM      6  C6  IND d   1      -2.096   2.634   5.936  0.00  0.00     0.015 A 
ATOM      7  C7  IND d   1      -3.399   2.765   5.546  0.00  0.00    -0.016 A 
ATOM      8  C8  IND d   1      -3.772   2.110   4.381  0.00  0.00    -0.047 A 
ATOM      9  C9  IND d   1      -2.859   1.370   3.620  0.00  0.00    -0.096 A 
ATOM     10  HN1 IND d   1      -5.709   2.447   3.985  0.00  0.00     0.298 HD
ENDROOT
TORSDOF 0
ENDMDL
