MODEL 1
REMARK minimizedAffinity -2.67717934
REMARK minimizedRMSD -1
REMARK  0 active torsions:
REMARK  status: ('A' for Active; 'I' for Inactive)
ROOT
ATOM      1  N1  IND d   1       3.395  -0.586   0.897  0.00  0.00    -0.196 N 
ATOM      2  C2  IND d   1       3.275  -1.511  -0.102  0.00  0.00     0.054 A 
ATOM      3  C3  IND d   1       2.223  -1.210  -0.897  0.00  0.00    -0.031 A 
ATOM      4  C4  IND d   1       0.625   0.805  -0.801  0.00  0.00     0.051 A 
ATOM      5  C5  IND d   1       0.315   1.900  -0.043  0.00  0.00    -0.031 A 
ATOM      6  C6  IND d   1       1.033   2.230   1.088  0.00  0.00     0.015 A 
ATOM      7  C7  IND d   1       2.099   1.480   1.499  0.00  0.00    -0.016 A 
ATOM      8  C8  IND d   1       2.411   0.364   0.736  0.00  0.00    -0.047 A 
ATOM      9  C9  IND d   1       1.660   0.001  -0.389  0.00  0.00    -0.096 A 
ATOM     10  HN1 IND d   1       3.986  -0.596   1.522  0.00  0.00     0.298 HD
ENDROOT
TORSDOF 0
ENDMDL
