MODEL 1
REMARK minimizedAffinity -3.05035043
REMARK minimizedRMSD -1
REMARK  0 active torsions:
REMARK  status: ('A' for Active; 'I' for Inactive)
ROOT
ATOM      1  N1  IND d   1       0.910   3.151   0.008  0.00  0.00    -0.196 N 
ATOM      2  C2  IND d   1       0.894   2.540   1.231  0.00  0.00     0.054 A 
ATOM      3  C3  IND d   1       0.946   1.197   1.087  0.00  0.00    -0.031 A 
ATOM      4  C4  IND d   1       1.166  -0.211  -1.057  0.00  0.00     0.051 A 
ATOM      5  C5  IND d   1       1.182  -0.103  -2.420  0.00  0.00    -0.031 A 
ATOM      6  C6  IND d   1       1.110   1.120  -3.055  0.00  0.00     0.015 A 
ATOM      7  C7  IND d   1       1.030   2.286  -2.349  0.00  0.00    -0.016 A 
ATOM      8  C8  IND d   1       1.006   2.180  -0.965  0.00  0.00    -0.047 A 
ATOM      9  C9  IND d   1       1.036   0.940  -0.315  0.00  0.00    -0.096 A 
ATOM     10  HN1 IND d   1       0.868   3.998  -0.130  0.00  0.00     0.298 HD
ENDROOT
TORSDOF 0
ENDMDL
