MODEL 1
REMARK minimizedAffinity 2.13730693
REMARK minimizedRMSD -1
REMARK  0 active torsions:
REMARK  status: ('A' for Active; 'I' for Inactive)
ROOT
ATOM      1  N1  IND d   1       1.848   0.383   2.041  0.00  0.00    -0.196 N 
ATOM      2  C2  IND d   1       1.651   1.585   2.662  0.00  0.00     0.054 A 
ATOM      3  C3  IND d   1       1.233   2.512   1.771  0.00  0.00    -0.031 A 
ATOM      4  C4  IND d   1       0.707   2.250  -0.736  0.00  0.00     0.051 A 
ATOM      5  C5  IND d   1       0.769   1.348  -1.761  0.00  0.00    -0.031 A 
ATOM      6  C6  IND d   1       1.200   0.052  -1.567  0.00  0.00     0.015 A 
ATOM      7  C7  IND d   1       1.576  -0.396  -0.332  0.00  0.00    -0.016 A 
ATOM      8  C8  IND d   1       1.521   0.519   0.710  0.00  0.00    -0.047 A 
ATOM      9  C9  IND d   1       1.125   1.847   0.511  0.00  0.00    -0.096 A 
ATOM     10  HN1 IND d   1       2.129  -0.336   2.419  0.00  0.00     0.298 HD
ENDROOT
TORSDOF 0
ENDMDL
