MODEL 1
REMARK minimizedAffinity -2.09407115
REMARK minimizedRMSD -1
REMARK  0 active torsions:
REMARK  status: ('A' for Active; 'I' for Inactive)
ROOT
ATOM      1  N1  IND d   1       1.844  -0.471  -2.287  0.00  0.00    -0.196 N 
ATOM      2  C2  IND d   1       1.077  -0.041  -3.334  0.00  0.00     0.054 A 
ATOM      3  C3  IND d   1       0.320   1.015  -2.960  0.00  0.00    -0.031 A 
ATOM      4  C4  IND d   1       0.254   2.265  -0.710  0.00  0.00     0.051 A 
ATOM      5  C5  IND d   1       0.749   2.219   0.563  0.00  0.00    -0.031 A 
ATOM      6  C6  IND d   1       1.655   1.256   0.958  0.00  0.00     0.015 A 
ATOM      7  C7  IND d   1       2.110   0.306   0.088  0.00  0.00    -0.016 A 
ATOM      8  C8  IND d   1       1.604   0.345  -1.204  0.00  0.00    -0.047 A 
ATOM      9  C9  IND d   1       0.652   1.294  -1.599  0.00  0.00    -0.096 A 
ATOM     10  HN1 IND d   1       2.385  -1.139  -2.303  0.00  0.00     0.298 HD
ENDROOT
TORSDOF 0
ENDMDL
