MODEL 1
REMARK minimizedAffinity 1.73545802
REMARK minimizedRMSD -1
REMARK  0 active torsions:
REMARK  status: ('A' for Active; 'I' for Inactive)
ROOT
ATOM      1  N1  IND d   1       1.040  -0.769   0.701  0.00  0.00    -0.196 N 
ATOM      2  C2  IND d   1       1.074  -1.500  -0.454  0.00  0.00     0.054 A 
ATOM      3  C3  IND d   1       1.095  -0.681  -1.529  0.00  0.00    -0.031 A 
ATOM      4  C4  IND d   1       1.179   1.890  -1.624  0.00  0.00     0.051 A 
ATOM      5  C5  IND d   1       1.128   3.000  -0.828  0.00  0.00    -0.031 A 
ATOM      6  C6  IND d   1       1.046   2.908   0.546  0.00  0.00     0.015 A 
ATOM      7  C7  IND d   1       1.023   1.697   1.179  0.00  0.00    -0.016 A 
ATOM      8  C8  IND d   1       1.068   0.568   0.373  0.00  0.00    -0.047 A 
ATOM      9  C9  IND d   1       1.108   0.655  -1.024  0.00  0.00    -0.096 A 
ATOM     10  HN1 IND d   1       1.006  -1.091   1.497  0.00  0.00     0.298 HD
ENDROOT
TORSDOF 0
ENDMDL
