MODEL 1
REMARK minimizedAffinity -3.57131743
REMARK minimizedRMSD -1
REMARK  0 active torsions:
REMARK  status: ('A' for Active; 'I' for Inactive)
ROOT
ATOM      1  N1  IND d   1       0.542   3.222  -0.048  0.00  0.00    -0.196 N 
ATOM      2  C2  IND d   1       0.580   3.631  -1.352  0.00  0.00     0.054 A 
ATOM      3  C3  IND d   1       0.864   2.587  -2.163  0.00  0.00    -0.031 A 
ATOM      4  C4  IND d   1       1.202   0.104  -1.576  0.00  0.00     0.051 A 
ATOM      5  C5  IND d   1       1.297  -0.748  -0.512  0.00  0.00    -0.031 A 
ATOM      6  C6  IND d   1       1.139  -0.312   0.788  0.00  0.00     0.015 A 
ATOM      7  C7  IND d   1       0.868   0.996   1.072  0.00  0.00    -0.016 A 
ATOM      8  C8  IND d   1       0.778   1.866  -0.006  0.00  0.00    -0.047 A 
ATOM      9  C9  IND d   1       0.979   1.437  -1.324  0.00  0.00    -0.096 A 
ATOM     10  HN1 IND d   1       0.395   3.728   0.632  0.00  0.00     0.298 HD
ENDROOT
TORSDOF 0
ENDMDL
