MODEL 1
REMARK minimizedAffinity -3.03718376
REMARK minimizedRMSD -1
REMARK  0 active torsions:
REMARK  status: ('A' for Active; 'I' for Inactive)
ROOT
ATOM      1  N1  IND d   1       1.116   0.880  -2.239  0.00  0.00    -0.196 N 
ATOM      2  C2  IND d   1       0.908  -0.346  -1.671  0.00  0.00     0.054 A 
ATOM      3  C3  IND d   1       0.844  -0.236  -0.325  0.00  0.00    -0.031 A 
ATOM      4  C4  IND d   1       0.952   1.871   1.150  0.00  0.00     0.051 A 
ATOM      5  C5  IND d   1       1.168   3.219   1.089  0.00  0.00    -0.031 A 
ATOM      6  C6  IND d   1       1.380   3.870  -0.109  0.00  0.00     0.015 A 
ATOM      7  C7  IND d   1       1.372   3.195  -1.297  0.00  0.00    -0.016 A 
ATOM      8  C8  IND d   1       1.159   1.825  -1.238  0.00  0.00    -0.047 A 
ATOM      9  C9  IND d   1       0.986   1.153  -0.022  0.00  0.00    -0.096 A 
ATOM     10  HN1 IND d   1       1.204   1.035  -3.081  0.00  0.00     0.298 HD
ENDROOT
TORSDOF 0
ENDMDL
