MODEL 1
REMARK minimizedAffinity 7.7745471
REMARK minimizedRMSD -1
REMARK  0 active torsions:
REMARK  status: ('A' for Active; 'I' for Inactive)
ROOT
ATOM      1  N1  IND d   1       1.458   3.415  -1.278  0.00  0.00    -0.196 N 
ATOM      2  C2  IND d   1       1.142   3.293  -2.602  0.00  0.00     0.054 A 
ATOM      3  C3  IND d   1       0.793   2.018  -2.887  0.00  0.00    -0.031 A 
ATOM      4  C4  IND d   1       0.573  -0.008  -1.314  0.00  0.00     0.051 A 
ATOM      5  C5  IND d   1       0.791  -0.397  -0.022  0.00  0.00    -0.031 A 
ATOM      6  C6  IND d   1       1.249   0.483   0.937  0.00  0.00     0.015 A 
ATOM      7  C7  IND d   1       1.496   1.793   0.641  0.00  0.00    -0.016 A 
ATOM      8  C8  IND d   1       1.283   2.190  -0.671  0.00  0.00    -0.047 A 
ATOM      9  C9  IND d   1       0.859   1.292  -1.659  0.00  0.00    -0.096 A 
ATOM     10  HN1 IND d   1       1.722   4.135  -0.890  0.00  0.00     0.298 HD
ENDROOT
TORSDOF 0
ENDMDL
