MODEL 1
REMARK minimizedAffinity -0.826717317
REMARK minimizedRMSD -1
REMARK  0 active torsions:
REMARK  status: ('A' for Active; 'I' for Inactive)
ROOT
ATOM      1  N1  IND d   1       1.490  -1.430   0.457  0.00  0.00    -0.196 N 
ATOM      2  C2  IND d   1       1.202  -2.180  -0.649  0.00  0.00     0.054 A 
ATOM      3  C3  IND d   1       0.838  -1.382  -1.677  0.00  0.00    -0.031 A 
ATOM      4  C4  IND d   1       0.742   1.188  -1.798  0.00  0.00     0.051 A 
ATOM      5  C5  IND d   1       0.880   2.308  -1.028  0.00  0.00    -0.031 A 
ATOM      6  C6  IND d   1       1.238   2.239   0.303  0.00  0.00     0.015 A 
ATOM      7  C7  IND d   1       1.484   1.041   0.912  0.00  0.00    -0.016 A 
ATOM      8  C8  IND d   1       1.338  -0.099   0.135  0.00  0.00    -0.047 A 
ATOM      9  C9  IND d   1       0.933  -0.037  -1.204  0.00  0.00    -0.096 A 
ATOM     10  HN1 IND d   1       1.726  -1.738   1.225  0.00  0.00     0.298 HD
ENDROOT
TORSDOF 0
ENDMDL
