MODEL 1
REMARK minimizedAffinity 3.13166308
REMARK minimizedRMSD -1
REMARK  0 active torsions:
REMARK  status: ('A' for Active; 'I' for Inactive)
ROOT
ATOM      1  N1  IND d   1       1.253  -0.169  -1.536  0.00  0.00    -0.196 N 
ATOM      2  C2  IND d   1       1.004  -0.814  -0.357  0.00  0.00     0.054 A 
ATOM      3  C3  IND d   1       0.726   0.079   0.619  0.00  0.00    -0.031 A 
ATOM      4  C4  IND d   1       0.521   2.641   0.481  0.00  0.00     0.051 A 
ATOM      5  C5  IND d   1       0.694   3.691  -0.377  0.00  0.00    -0.031 A 
ATOM      6  C6  IND d   1       1.067   3.504  -1.693  0.00  0.00     0.015 A 
ATOM      7  C7  IND d   1       1.271   2.254  -2.204  0.00  0.00    -0.016 A 
ATOM      8  C8  IND d   1       1.103   1.186  -1.334  0.00  0.00    -0.047 A 
ATOM      9  C9  IND d   1       0.766   1.372   0.013  0.00  0.00    -0.096 A 
ATOM     10  HN1 IND d   1       1.466  -0.545  -2.279  0.00  0.00     0.298 HD
ENDROOT
TORSDOF 0
ENDMDL
