MODEL 1
REMARK minimizedAffinity -0.351059139
REMARK minimizedRMSD -1
REMARK  1 active torsions:
REMARK  status: ('A' for Active; 'I' for Inactive)
REMARK    1  A    between atoms: C1_2  and  C2_3 
ROOT
ATOM      1  C2  UNL d   1       5.968   0.922   4.906  0.00  0.00    -0.073 A 
ATOM      2  C3  UNL d   1       5.980   0.535   3.561  0.00  0.00    -0.002 A 
ATOM      3  C4  UNL d   1       5.990   1.498   2.551  0.00  0.00     0.004 A 
ATOM      4  C5  UNL d   1       5.996   2.855   2.874  0.00  0.00    -0.004 A 
ATOM      5  C6  UNL d   1       5.996   3.261   4.213  0.00  0.00    -0.075 A 
ATOM      6  C7  UNL d   1       6.000   4.716   4.577  0.00  0.00     0.076 C 
ATOM      7  C8  UNL d   1       5.983   2.288   5.221  0.00  0.00     0.001 A 
ENDROOT
BRANCH   1   8
ATOM      8  C1  UNL d   1       5.963  -0.115   6.000  0.00  0.00     0.053 C 
ATOM      9  C   UNL d   1       5.637  -1.502   5.470  0.00  0.00     0.018 C 
ENDBRANCH   1   8
TORSDOF 1
ENDMDL
