MODEL 1
REMARK minimizedAffinity -1.44533813
REMARK minimizedRMSD -1
REMARK  1 active torsions:
REMARK  status: ('A' for Active; 'I' for Inactive)
REMARK    1  A    between atoms: C1_2  and  C2_3 
ROOT
ATOM      1  C2  UNL d   1       5.255   2.354   4.228  0.00  0.00    -0.073 A 
ATOM      2  C3  UNL d   1       5.624   2.010   2.922  0.00  0.00    -0.002 A 
ATOM      3  C4  UNL d   1       5.998   0.700   2.618  0.00  0.00     0.004 A 
ATOM      4  C5  UNL d   1       6.000  -0.279   3.611  0.00  0.00    -0.004 A 
ATOM      5  C6  UNL d   1       5.623   0.043   4.919  0.00  0.00    -0.075 A 
ATOM      6  C7  UNL d   1       5.622  -0.998   6.000  0.00  0.00     0.076 C 
ATOM      7  C8  UNL d   1       5.252   1.361   5.218  0.00  0.00     0.001 A 
ENDROOT
BRANCH   1   8
ATOM      8  C1  UNL d   1       4.845   3.765   4.560  0.00  0.00     0.053 C 
ATOM      9  C   UNL d   1       5.744   4.793   3.892  0.00  0.00     0.018 C 
ENDBRANCH   1   8
TORSDOF 1
ENDMDL
