MODEL 1
REMARK minimizedAffinity -1.03021514
REMARK minimizedRMSD -1
REMARK  1 active torsions:
REMARK  status: ('A' for Active; 'I' for Inactive)
REMARK    1  A    between atoms: C1_2  and  C2_3 
ROOT
ATOM      1  C2  UNL d   1       5.769   0.163   5.073  0.00  0.00    -0.073 A 
ATOM      2  C3  UNL d   1       5.362  -0.042   3.749  0.00  0.00    -0.002 A 
ATOM      3  C4  UNL d   1       5.156   1.044   2.898  0.00  0.00     0.004 A 
ATOM      4  C5  UNL d   1       5.360   2.345   3.359  0.00  0.00    -0.004 A 
ATOM      5  C6  UNL d   1       5.778   2.570   4.674  0.00  0.00    -0.075 A 
ATOM      6  C7  UNL d   1       6.000   3.964   5.186  0.00  0.00     0.076 C 
ATOM      7  C8  UNL d   1       5.980   1.474   5.524  0.00  0.00     0.001 A 
ENDROOT
BRANCH   1   8
ATOM      8  C1  UNL d   1       5.999  -1.007   5.993  0.00  0.00     0.053 C 
ATOM      9  C   UNL d   1       5.146  -2.207   5.613  0.00  0.00     0.018 C 
ENDBRANCH   1   8
TORSDOF 1
ENDMDL
