MODEL 1
REMARK minimizedAffinity -1.40644741
REMARK minimizedRMSD -1
REMARK  1 active torsions:
REMARK  status: ('A' for Active; 'I' for Inactive)
REMARK    1  A    between atoms: C1_2  and  C2_3 
ROOT
ATOM      1  C2  UNL d   1       5.932   1.165   4.942  0.00  0.00    -0.073 A 
ATOM      2  C3  UNL d   1       5.960   0.825   3.584  0.00  0.00    -0.002 A 
ATOM      3  C4  UNL d   1       5.990   1.822   2.608  0.00  0.00     0.004 A 
ATOM      4  C5  UNL d   1       6.000   3.166   2.979  0.00  0.00    -0.004 A 
ATOM      5  C6  UNL d   1       5.985   3.526   4.330  0.00  0.00    -0.075 A 
ATOM      6  C7  UNL d   1       5.993   4.968   4.745  0.00  0.00     0.076 C 
ATOM      7  C8  UNL d   1       5.951   2.519   5.304  0.00  0.00     0.001 A 
ENDROOT
BRANCH   1   8
ATOM      8  C1  UNL d   1       5.906   0.092   5.999  0.00  0.00     0.053 C 
ATOM      9  C   UNL d   1       5.013  -1.075   5.606  0.00  0.00     0.018 C 
ENDBRANCH   1   8
TORSDOF 1
ENDMDL
