MODEL 1
REMARK minimizedAffinity -5.03635502
REMARK minimizedRMSD -1
REMARK  1 active torsions:
REMARK  status: ('A' for Active; 'I' for Inactive)
REMARK    1  A    between atoms: C1_2  and  C2_3 
ROOT
ATOM      1  C2  UNL d   1       5.801   1.109   4.600  0.00  0.00    -0.073 A 
ATOM      2  C3  UNL d   1       5.689   1.192   3.207  0.00  0.00    -0.002 A 
ATOM      3  C4  UNL d   1       5.669   0.032   2.432  0.00  0.00     0.004 A 
ATOM      4  C5  UNL d   1       5.754  -1.221   3.039  0.00  0.00    -0.004 A 
ATOM      5  C6  UNL d   1       5.855  -1.325   4.430  0.00  0.00    -0.075 A 
ATOM      6  C7  UNL d   1       5.949  -2.665   5.099  0.00  0.00     0.076 C 
ATOM      7  C8  UNL d   1       5.876  -0.155   5.202  0.00  0.00     0.001 A 
ENDROOT
BRANCH   1   8
ATOM      8  C1  UNL d   1       5.815   2.358   5.442  0.00  0.00     0.053 C 
ATOM      9  C   UNL d   1       4.953   3.458   4.845  0.00  0.00     0.018 C 
ENDBRANCH   1   8
TORSDOF 1
ENDMDL
