MODEL 1
REMARK minimizedAffinity -2.86803579
REMARK minimizedRMSD -1
REMARK  1 active torsions:
REMARK  status: ('A' for Active; 'I' for Inactive)
REMARK    1  A    between atoms: C1_2  and  C2_3 
ROOT
ATOM      1  C2  UNL d   1       5.600   3.247   4.129  0.00  0.00    -0.073 A 
ATOM      2  C3  UNL d   1       4.856   2.842   3.015  0.00  0.00    -0.002 A 
ATOM      3  C4  UNL d   1       4.490   1.504   2.861  0.00  0.00     0.004 A 
ATOM      4  C5  UNL d   1       4.856   0.561   3.822  0.00  0.00    -0.004 A 
ATOM      5  C6  UNL d   1       5.589   0.949   4.948  0.00  0.00    -0.075 A 
ATOM      6  C7  UNL d   1       5.993  -0.053   5.989  0.00  0.00     0.076 C 
ATOM      7  C8  UNL d   1       5.956   2.294   5.093  0.00  0.00     0.001 A 
ENDROOT
BRANCH   1   8
ATOM      8  C1  UNL d   1       5.992   4.692   4.302  0.00  0.00     0.053 C 
ATOM      9  C   UNL d   1       5.990   5.446   2.981  0.00  0.00     0.018 C 
ENDBRANCH   1   8
TORSDOF 1
ENDMDL
