MODEL 1
REMARK minimizedAffinity -4.70928764
REMARK minimizedRMSD -1
REMARK  1 active torsions:
REMARK  status: ('A' for Active; 'I' for Inactive)
REMARK    1  A    between atoms: C1_2  and  C2_3 
ROOT
ATOM      1  C2  UNL d   1       5.754   0.299   5.149  0.00  0.00    -0.073 A 
ATOM      2  C3  UNL d   1       5.634   0.409   3.759  0.00  0.00    -0.002 A 
ATOM      3  C4  UNL d   1       5.401  -0.725   2.979  0.00  0.00     0.004 A 
ATOM      4  C5  UNL d   1       5.277  -1.977   3.581  0.00  0.00    -0.004 A 
ATOM      5  C6  UNL d   1       5.382  -2.106   4.970  0.00  0.00    -0.075 A 
ATOM      6  C7  UNL d   1       5.254  -3.446   5.632  0.00  0.00     0.076 C 
ATOM      7  C8  UNL d   1       5.620  -0.963   5.745  0.00  0.00     0.001 A 
ENDROOT
BRANCH   1   8
ATOM      8  C1  UNL d   1       6.000   1.521   5.995  0.00  0.00     0.053 C 
ATOM      9  C   UNL d   1       5.971   2.799   5.172  0.00  0.00     0.018 C 
ENDBRANCH   1   8
TORSDOF 1
ENDMDL
