MODEL 1
REMARK minimizedAffinity -1.80445325
REMARK minimizedRMSD -1
REMARK  1 active torsions:
REMARK  status: ('A' for Active; 'I' for Inactive)
REMARK    1  A    between atoms: C1_2  and  C2_3 
ROOT
ATOM      1  C2  UNL d   1       5.817   1.632   4.845  0.00  0.00    -0.073 A 
ATOM      2  C3  UNL d   1       5.510   1.152   3.567  0.00  0.00    -0.002 A 
ATOM      3  C4  UNL d   1       5.355   2.038   2.500  0.00  0.00     0.004 A 
ATOM      4  C5  UNL d   1       5.511   3.409   2.698  0.00  0.00    -0.004 A 
ATOM      5  C6  UNL d   1       5.830   3.907   3.965  0.00  0.00    -0.075 A 
ATOM      6  C7  UNL d   1       6.000   5.380   4.195  0.00  0.00     0.076 C 
ATOM      7  C8  UNL d   1       5.982   3.012   5.032  0.00  0.00     0.001 A 
ENDROOT
BRANCH   1   8
ATOM      8  C1  UNL d   1       5.992   0.679   5.999  0.00  0.00     0.053 C 
ATOM      9  C   UNL d   1       5.818  -0.771   5.573  0.00  0.00     0.018 C 
ENDBRANCH   1   8
TORSDOF 1
ENDMDL
