MODEL 1
REMARK minimizedAffinity -4.17465925
REMARK minimizedRMSD -1
REMARK  1 active torsions:
REMARK  status: ('A' for Active; 'I' for Inactive)
REMARK    1  A    between atoms: C1_2  and  C2_3 
ROOT
ATOM      1  C2  UNL d   1       5.980   1.263   4.712  0.00  0.00    -0.073 A 
ATOM      2  C3  UNL d   1       5.990   1.039   3.331  0.00  0.00    -0.002 A 
ATOM      3  C4  UNL d   1       5.996   2.116   2.442  0.00  0.00     0.004 A 
ATOM      4  C5  UNL d   1       5.998   3.424   2.925  0.00  0.00    -0.004 A 
ATOM      5  C6  UNL d   1       6.000   3.668   4.302  0.00  0.00    -0.075 A 
ATOM      6  C7  UNL d   1       6.000   5.070   4.837  0.00  0.00     0.076 C 
ATOM      7  C8  UNL d   1       5.991   2.582   5.188  0.00  0.00     0.001 A 
ENDROOT
BRANCH   1   8
ATOM      8  C1  UNL d   1       5.980   0.104   5.675  0.00  0.00     0.053 C 
ATOM      9  C   UNL d   1       5.244  -1.102   5.116  0.00  0.00     0.018 C 
ENDBRANCH   1   8
TORSDOF 1
ENDMDL
