MODEL 1
REMARK minimizedAffinity -1.02229989
REMARK minimizedRMSD -1
REMARK  1 active torsions:
REMARK  status: ('A' for Active; 'I' for Inactive)
REMARK    1  A    between atoms: C1_2  and  C2_3 
ROOT
ATOM      1  C2  UNL d   1       5.976   3.208   4.513  0.00  0.00    -0.073 A 
ATOM      2  C3  UNL d   1       5.978   2.920   3.144  0.00  0.00    -0.002 A 
ATOM      3  C4  UNL d   1       5.992   1.596   2.702  0.00  0.00     0.004 A 
ATOM      4  C5  UNL d   1       5.999   0.549   3.623  0.00  0.00    -0.004 A 
ATOM      5  C6  UNL d   1       5.986   0.817   4.996  0.00  0.00    -0.075 A 
ATOM      6  C7  UNL d   1       5.994  -0.299   6.000  0.00  0.00     0.076 C 
ATOM      7  C8  UNL d   1       5.974   2.148   5.432  0.00  0.00     0.001 A 
ENDROOT
BRANCH   1   8
ATOM      8  C1  UNL d   1       5.954   4.636   4.995  0.00  0.00     0.053 C 
ATOM      9  C   UNL d   1       5.611   5.609   3.879  0.00  0.00     0.018 C 
ENDBRANCH   1   8
TORSDOF 1
ENDMDL
