MODEL 1
REMARK minimizedAffinity -4.03151941
REMARK minimizedRMSD -1
REMARK  1 active torsions:
REMARK  status: ('A' for Active; 'I' for Inactive)
REMARK    1  A    between atoms: C1_2  and  C2_3 
ROOT
ATOM      1  C2  UNL d   1       5.877   2.187   4.597  0.00  0.00    -0.073 A 
ATOM      2  C3  UNL d   1       5.671   1.784   3.273  0.00  0.00    -0.002 A 
ATOM      3  C4  UNL d   1       5.565   2.734   2.256  0.00  0.00     0.004 A 
ATOM      4  C5  UNL d   1       5.670   4.093   2.550  0.00  0.00    -0.004 A 
ATOM      5  C6  UNL d   1       5.887   4.515   3.866  0.00  0.00    -0.075 A 
ATOM      6  C7  UNL d   1       6.000   5.973   4.200  0.00  0.00     0.076 C 
ATOM      7  C8  UNL d   1       5.990   3.555   4.882  0.00  0.00     0.001 A 
ENDROOT
BRANCH   1   8
ATOM      8  C1  UNL d   1       5.999   1.165   5.698  0.00  0.00     0.053 C 
ATOM      9  C   UNL d   1       5.885  -0.257   5.171  0.00  0.00     0.018 C 
ENDBRANCH   1   8
TORSDOF 1
ENDMDL
