MODEL 1
REMARK minimizedAffinity -2.26923823
REMARK minimizedRMSD -1
REMARK  1 active torsions:
REMARK  status: ('A' for Active; 'I' for Inactive)
REMARK    1  A    between atoms: C1_2  and  C2_3 
ROOT
ATOM      1  C2  UNL d   1       5.471   2.566   3.242  0.00  0.00    -0.073 A 
ATOM      2  C3  UNL d   1       4.479   3.005   4.125  0.00  0.00    -0.002 A 
ATOM      3  C4  UNL d   1       3.988   4.309   4.041  0.00  0.00     0.004 A 
ATOM      4  C5  UNL d   1       4.478   5.183   3.071  0.00  0.00    -0.004 A 
ATOM      5  C6  UNL d   1       5.461   4.758   2.171  0.00  0.00    -0.075 A 
ATOM      6  C7  UNL d   1       6.000   5.686   1.123  0.00  0.00     0.076 C 
ATOM      7  C8  UNL d   1       5.951   3.448   2.263  0.00  0.00     0.001 A 
ENDROOT
BRANCH   1   8
ATOM      8  C1  UNL d   1       6.000   1.157   3.324  0.00  0.00     0.053 C 
ATOM      9  C   UNL d   1       5.352   0.370   4.452  0.00  0.00     0.018 C 
ENDBRANCH   1   8
TORSDOF 1
ENDMDL
