MODEL 1
REMARK minimizedAffinity -2.16453171
REMARK minimizedRMSD -1
REMARK  1 active torsions:
REMARK  status: ('A' for Active; 'I' for Inactive)
REMARK    1  A    between atoms: C1_2  and  C2_3 
ROOT
ATOM      1  C2  UNL d   1      -1.807   1.867  -1.390  0.00  0.00    -0.076 A 
ATOM      2  C3  UNL d   1      -2.065   0.738  -0.594  0.00  0.00     0.004 A 
ATOM      3  C4  UNL d   1      -1.658   0.691   0.738  0.00  0.00    -0.003 A 
ATOM      4  C5  UNL d   1      -0.987   1.773   1.296  0.00  0.00     0.000 A 
ATOM      5  C6  UNL d   1      -0.738   2.909   0.526  0.00  0.00     0.000 A 
ATOM      6  C7  UNL d   1      -1.156   2.979  -0.814  0.00  0.00    -0.073 A 
ATOM      7  C8  UNL d   1      -0.856   4.226  -1.599  0.00  0.00     0.078 C 
ENDROOT
BRANCH   1   8
ATOM      8  C1  UNL d   1      -2.248   1.850  -2.836  0.00  0.00     0.053 C 
ATOM      9  C   UNL d   1      -3.465   0.966  -3.064  0.00  0.00     0.018 C 
ENDBRANCH   1   8
TORSDOF 1
ENDMDL
