MODEL 1
REMARK minimizedAffinity -4.73432446
REMARK minimizedRMSD -1
REMARK  1 active torsions:
REMARK  status: ('A' for Active; 'I' for Inactive)
REMARK    1  A    between atoms: C1_2  and  C2_3 
ROOT
ATOM      1  C2  UNL d   1      -0.274   0.085   0.610  0.00  0.00    -0.076 A 
ATOM      2  C3  UNL d   1      -0.828  -1.007   1.301  0.00  0.00     0.004 A 
ATOM      3  C4  UNL d   1      -0.041  -2.097   1.669  0.00  0.00    -0.003 A 
ATOM      4  C5  UNL d   1       1.313  -2.112   1.353  0.00  0.00     0.000 A 
ATOM      5  C6  UNL d   1       1.883  -1.029   0.684  0.00  0.00     0.000 A 
ATOM      6  C7  UNL d   1       1.107   0.085   0.320  0.00  0.00    -0.073 A 
ATOM      7  C8  UNL d   1       1.772   1.222  -0.405  0.00  0.00     0.078 C 
ENDROOT
BRANCH   1   8
ATOM      8  C1  UNL d   1      -1.183   1.227   0.213  0.00  0.00     0.053 C 
ATOM      9  C   UNL d   1      -1.580   1.171  -1.254  0.00  0.00     0.018 C 
ENDBRANCH   1   8
TORSDOF 1
ENDMDL
