MODEL 1
REMARK minimizedAffinity 4.11119032
REMARK minimizedRMSD -1
REMARK  1 active torsions:
REMARK  status: ('A' for Active; 'I' for Inactive)
REMARK    1  A    between atoms: C1_2  and  C2_3 
ROOT
ATOM      1  C2  UNL d   1      -2.866  -0.004  -0.781  0.00  0.00    -0.076 A 
ATOM      2  C3  UNL d   1      -2.871   0.985   0.219  0.00  0.00     0.004 A 
ATOM      3  C4  UNL d   1      -2.590   0.664   1.546  0.00  0.00    -0.003 A 
ATOM      4  C5  UNL d   1      -2.300  -0.651   1.895  0.00  0.00     0.000 A 
ATOM      5  C6  UNL d   1      -2.273  -1.641   0.913  0.00  0.00     0.000 A 
ATOM      6  C7  UNL d   1      -2.538  -1.331  -0.432  0.00  0.00    -0.073 A 
ATOM      7  C8  UNL d   1      -2.501  -2.439  -1.448  0.00  0.00     0.078 C 
ENDROOT
BRANCH   1   8
ATOM      8  C1  UNL d   1      -3.204   0.399  -2.199  0.00  0.00     0.053 C 
ATOM      9  C   UNL d   1      -3.045   1.893  -2.434  0.00  0.00     0.018 C 
ENDBRANCH   1   8
TORSDOF 1
ENDMDL
