MODEL 1
REMARK minimizedAffinity 3.58263993
REMARK minimizedRMSD -1
REMARK  1 active torsions:
REMARK  status: ('A' for Active; 'I' for Inactive)
REMARK    1  A    between atoms: C1_2  and  C2_3 
ROOT
ATOM      1  C2  UNL d   1      -2.728   0.590  -0.499  0.00  0.00    -0.076 A 
ATOM      2  C3  UNL d   1      -2.200   0.735  -1.793  0.00  0.00     0.004 A 
ATOM      3  C4  UNL d   1      -2.904   1.417  -2.784  0.00  0.00    -0.003 A 
ATOM      4  C5  UNL d   1      -4.149   1.966  -2.496  0.00  0.00     0.000 A 
ATOM      5  C6  UNL d   1      -4.681   1.847  -1.212  0.00  0.00     0.000 A 
ATOM      6  C7  UNL d   1      -3.976   1.176  -0.198  0.00  0.00    -0.073 A 
ATOM      7  C8  UNL d   1      -4.600   1.072   1.167  0.00  0.00     0.078 C 
ENDROOT
BRANCH   1   8
ATOM      8  C1  UNL d   1      -1.931  -0.184   0.527  0.00  0.00     0.053 C 
ATOM      9  C   UNL d   1      -1.128   0.724   1.446  0.00  0.00     0.018 C 
ENDBRANCH   1   8
TORSDOF 1
ENDMDL
