MODEL 1
REMARK minimizedAffinity 3.83204174
REMARK minimizedRMSD -1
REMARK  1 active torsions:
REMARK  status: ('A' for Active; 'I' for Inactive)
REMARK    1  A    between atoms: C1_2  and  C2_3 
ROOT
ATOM      1  C2  UNL d   1       2.533  -1.414  -0.381  0.00  0.00    -0.076 A 
ATOM      2  C3  UNL d   1       2.086  -2.418  -1.257  0.00  0.00     0.004 A 
ATOM      3  C4  UNL d   1       1.532  -3.601  -0.770  0.00  0.00    -0.003 A 
ATOM      4  C5  UNL d   1       1.417  -3.799   0.601  0.00  0.00     0.000 A 
ATOM      5  C6  UNL d   1       1.839  -2.806   1.485  0.00  0.00     0.000 A 
ATOM      6  C7  UNL d   1       2.384  -1.601   1.010  0.00  0.00    -0.073 A 
ATOM      7  C8  UNL d   1       2.829  -0.567   2.008  0.00  0.00     0.078 C 
ENDROOT
BRANCH   1   8
ATOM      8  C1  UNL d   1       3.149  -0.164  -0.967  0.00  0.00     0.053 C 
ATOM      9  C   UNL d   1       3.990  -0.452  -2.201  0.00  0.00     0.018 C 
ENDBRANCH   1   8
TORSDOF 1
ENDMDL
