MODEL 1
REMARK minimizedAffinity 7.16444731
REMARK minimizedRMSD -1
REMARK  1 active torsions:
REMARK  status: ('A' for Active; 'I' for Inactive)
REMARK    1  A    between atoms: C1_2  and  C2_3 
ROOT
ATOM      1  C2  UNL d   1      -2.223   1.764  -0.034  0.00  0.00    -0.076 A 
ATOM      2  C3  UNL d   1      -1.444   2.848  -0.473  0.00  0.00     0.004 A 
ATOM      3  C4  UNL d   1      -1.358   3.167  -1.827  0.00  0.00    -0.003 A 
ATOM      4  C5  UNL d   1      -2.051   2.408  -2.764  0.00  0.00     0.000 A 
ATOM      5  C6  UNL d   1      -2.843   1.340  -2.344  0.00  0.00     0.000 A 
ATOM      6  C7  UNL d   1      -2.953   1.015  -0.981  0.00  0.00    -0.073 A 
ATOM      7  C8  UNL d   1      -3.816  -0.152  -0.585  0.00  0.00     0.078 C 
ENDROOT
BRANCH   1   8
ATOM      8  C1  UNL d   1      -2.257   1.449   1.445  0.00  0.00     0.053 C 
ATOM      9  C   UNL d   1      -1.376   0.263   1.808  0.00  0.00     0.018 C 
ENDBRANCH   1   8
TORSDOF 1
ENDMDL
