MODEL 1
REMARK minimizedAffinity 6.05263853
REMARK minimizedRMSD -1
REMARK  1 active torsions:
REMARK  status: ('A' for Active; 'I' for Inactive)
REMARK    1  A    between atoms: C1_2  and  C2_3 
ROOT
ATOM      1  C2  UNL d   1      -1.682  -2.083   0.117  0.00  0.00    -0.076 A 
ATOM      2  C3  UNL d   1      -1.152  -2.719   1.253  0.00  0.00     0.004 A 
ATOM      3  C4  UNL d   1      -0.793  -1.987   2.384  0.00  0.00    -0.003 A 
ATOM      4  C5  UNL d   1      -0.959  -0.607   2.397  0.00  0.00     0.000 A 
ATOM      5  C6  UNL d   1      -1.500   0.039   1.286  0.00  0.00     0.000 A 
ATOM      6  C7  UNL d   1      -1.882  -0.686   0.144  0.00  0.00    -0.073 A 
ATOM      7  C8  UNL d   1      -2.454   0.063  -1.029  0.00  0.00     0.078 C 
ENDROOT
BRANCH   1   8
ATOM      8  C1  UNL d   1      -2.028  -2.925  -1.090  0.00  0.00     0.053 C 
ATOM      9  C   UNL d   1      -0.794  -3.457  -1.802  0.00  0.00     0.018 C 
ENDBRANCH   1   8
TORSDOF 1
ENDMDL
