MODEL 1
REMARK minimizedAffinity 3.19396186
REMARK minimizedRMSD -1
REMARK  1 active torsions:
REMARK  status: ('A' for Active; 'I' for Inactive)
REMARK    1  A    between atoms: C1_2  and  C2_3 
ROOT
ATOM      1  C2  UNL d   1       2.218   0.159  -0.494  0.00  0.00    -0.076 A 
ATOM      2  C3  UNL d   1       2.797  -1.120  -0.580  0.00  0.00     0.004 A 
ATOM      3  C4  UNL d   1       2.357  -2.162   0.235  0.00  0.00    -0.003 A 
ATOM      4  C5  UNL d   1       1.331  -1.943   1.148  0.00  0.00     0.000 A 
ATOM      5  C6  UNL d   1       0.734  -0.686   1.234  0.00  0.00     0.000 A 
ATOM      6  C7  UNL d   1       1.154   0.371   0.408  0.00  0.00    -0.073 A 
ATOM      7  C8  UNL d   1       0.479   1.708   0.547  0.00  0.00     0.078 C 
ENDROOT
BRANCH   1   8
ATOM      8  C1  UNL d   1       2.754   1.257  -1.384  0.00  0.00     0.053 C 
ATOM      9  C   UNL d   1       4.023   0.847  -2.116  0.00  0.00     0.018 C 
ENDBRANCH   1   8
TORSDOF 1
ENDMDL
