MODEL 1
REMARK minimizedAffinity 3.3914783
REMARK minimizedRMSD -1
REMARK  1 active torsions:
REMARK  status: ('A' for Active; 'I' for Inactive)
REMARK    1  A    between atoms: C1_2  and  C2_3 
ROOT
ATOM      1  C2  UNL d   1      -4.509   0.989   0.387  0.00  0.00    -0.076 A 
ATOM      2  C3  UNL d   1      -4.817   2.361   0.371  0.00  0.00     0.004 A 
ATOM      3  C4  UNL d   1      -4.979   3.045  -0.832  0.00  0.00    -0.003 A 
ATOM      4  C5  UNL d   1      -4.837   2.369  -2.039  0.00  0.00     0.000 A 
ATOM      5  C6  UNL d   1      -4.549   1.005  -2.041  0.00  0.00     0.000 A 
ATOM      6  C7  UNL d   1      -4.398   0.296  -0.837  0.00  0.00    -0.073 A 
ATOM      7  C8  UNL d   1      -4.082  -1.173  -0.899  0.00  0.00     0.078 C 
ENDROOT
BRANCH   1   8
ATOM      8  C1  UNL d   1      -4.318   0.306   1.723  0.00  0.00     0.053 C 
ATOM      9  C   UNL d   1      -2.853   0.196   2.116  0.00  0.00     0.018 C 
ENDBRANCH   1   8
TORSDOF 1
ENDMDL
