MODEL 1
REMARK minimizedAffinity 2.04693174
REMARK minimizedRMSD -1
REMARK  1 active torsions:
REMARK  status: ('A' for Active; 'I' for Inactive)
REMARK    1  A    between atoms: C1_2  and  C2_3 
ROOT
ATOM      1  C2  UNL d   1       2.619  -0.728  -0.206  0.00  0.00    -0.076 A 
ATOM      2  C3  UNL d   1       3.454  -1.488  -1.045  0.00  0.00     0.004 A 
ATOM      3  C4  UNL d   1       4.004  -0.935  -2.200  0.00  0.00    -0.003 A 
ATOM      4  C5  UNL d   1       3.729   0.386  -2.535  0.00  0.00     0.000 A 
ATOM      5  C6  UNL d   1       2.918   1.159  -1.705  0.00  0.00     0.000 A 
ATOM      6  C7  UNL d   1       2.368   0.622  -0.529  0.00  0.00    -0.073 A 
ATOM      7  C8  UNL d   1       1.495   1.500   0.326  0.00  0.00     0.078 C 
ENDROOT
BRANCH   1   8
ATOM      8  C1  UNL d   1       2.029  -1.389   1.019  0.00  0.00     0.053 C 
ATOM      9  C   UNL d   1       1.530  -2.798   0.738  0.00  0.00     0.018 C 
ENDBRANCH   1   8
TORSDOF 1
ENDMDL
