MODEL 1
REMARK minimizedAffinity 7.2614584
REMARK minimizedRMSD -1
REMARK  1 active torsions:
REMARK  status: ('A' for Active; 'I' for Inactive)
REMARK    1  A    between atoms: C1_2  and  C2_3 
ROOT
ATOM      1  C2  UNL d   1      -2.738   1.448  -0.160  0.00  0.00    -0.076 A 
ATOM      2  C3  UNL d   1      -1.737   2.204  -0.794  0.00  0.00     0.004 A 
ATOM      3  C4  UNL d   1      -1.723   2.358  -2.179  0.00  0.00    -0.003 A 
ATOM      4  C5  UNL d   1      -2.710   1.759  -2.953  0.00  0.00     0.000 A 
ATOM      5  C6  UNL d   1      -3.721   1.020  -2.340  0.00  0.00     0.000 A 
ATOM      6  C7  UNL d   1      -3.759   0.869  -0.943  0.00  0.00    -0.073 A 
ATOM      7  C8  UNL d   1      -4.870   0.056  -0.335  0.00  0.00     0.078 C 
ENDROOT
BRANCH   1   8
ATOM      8  C1  UNL d   1      -2.687   1.293   1.343  0.00  0.00     0.053 C 
ATOM      9  C   UNL d   1      -1.624   0.301   1.791  0.00  0.00     0.018 C 
ENDBRANCH   1   8
TORSDOF 1
ENDMDL
