MODEL 1
REMARK minimizedAffinity 0.391851306
REMARK minimizedRMSD -1
REMARK  1 active torsions:
REMARK  status: ('A' for Active; 'I' for Inactive)
REMARK    1  A    between atoms: C1_2  and  C2_3 
ROOT
ATOM      1  C2  UNL d   1      -1.835   0.347  -1.207  0.00  0.00    -0.076 A 
ATOM      2  C3  UNL d   1      -2.693  -0.632  -1.738  0.00  0.00     0.004 A 
ATOM      3  C4  UNL d   1      -3.002  -1.783  -1.014  0.00  0.00    -0.003 A 
ATOM      4  C5  UNL d   1      -2.458  -1.972   0.252  0.00  0.00     0.000 A 
ATOM      5  C6  UNL d   1      -1.620  -1.003   0.800  0.00  0.00     0.000 A 
ATOM      6  C7  UNL d   1      -1.311   0.171   0.091  0.00  0.00    -0.073 A 
ATOM      7  C8  UNL d   1      -0.396   1.180   0.728  0.00  0.00     0.078 C 
ENDROOT
BRANCH   1   8
ATOM      8  C1  UNL d   1      -1.515   1.562  -2.049  0.00  0.00     0.053 C 
ATOM      9  C   UNL d   1      -2.479   1.735  -3.213  0.00  0.00     0.018 C 
ENDBRANCH   1   8
TORSDOF 1
ENDMDL
