MODEL 1
REMARK minimizedAffinity 7.21346045
REMARK minimizedRMSD -1
REMARK  1 active torsions:
REMARK  status: ('A' for Active; 'I' for Inactive)
REMARK    1  A    between atoms: C1_2  and  C2_3 
ROOT
ATOM      1  C2  UNL d   1       1.636  -0.878   0.853  0.00  0.00    -0.076 A 
ATOM      2  C3  UNL d   1       2.013   0.288   0.164  0.00  0.00     0.004 A 
ATOM      3  C4  UNL d   1       2.867   0.226  -0.936  0.00  0.00    -0.003 A 
ATOM      4  C5  UNL d   1       3.358  -1.002  -1.365  0.00  0.00     0.000 A 
ATOM      5  C6  UNL d   1       2.980  -2.171  -0.704  0.00  0.00     0.000 A 
ATOM      6  C7  UNL d   1       2.107  -2.128   0.397  0.00  0.00    -0.073 A 
ATOM      7  C8  UNL d   1       1.738  -3.418   1.076  0.00  0.00     0.078 C 
ENDROOT
BRANCH   1   8
ATOM      8  C1  UNL d   1       0.729  -0.747   2.056  0.00  0.00     0.053 C 
ATOM      9  C   UNL d   1      -0.722  -0.510   1.667  0.00  0.00     0.018 C 
ENDBRANCH   1   8
TORSDOF 1
ENDMDL
