MODEL 1
REMARK minimizedAffinity 0.944833815
REMARK minimizedRMSD -1
REMARK  1 active torsions:
REMARK  status: ('A' for Active; 'I' for Inactive)
REMARK    1  A    between atoms: C1_2  and  C2_3 
ROOT
ATOM      1  C2  UNL d   1      -1.525   1.778   2.455  0.00  0.00    -0.077 A 
ATOM      2  C3  UNL d   1      -1.757   0.402   2.317  0.00  0.00     0.002 A 
ATOM      3  C4  UNL d   1      -0.881  -0.390   1.572  0.00  0.00     0.002 A 
ATOM      4  C5  UNL d   1       0.234   0.184   0.964  0.00  0.00    -0.004 A 
ATOM      5  C6  UNL d   1       0.472   1.551   1.094  0.00  0.00     0.002 A 
ATOM      6  C7  UNL d   1      -0.404   2.345   1.837  0.00  0.00     0.002 A 
ENDROOT
BRANCH   1   7
ATOM      7  C1  UNL d   1      -2.442   2.625   3.299  0.00  0.00     0.055 C 
ATOM      8  C   UNL d   1      -3.590   1.802   3.866  0.00  0.00     0.019 C 
ENDBRANCH   1   7
TORSDOF 1
ENDMDL
