MODEL 1
REMARK minimizedAffinity -0.43673104
REMARK minimizedRMSD -1
REMARK  1 active torsions:
REMARK  status: ('A' for Active; 'I' for Inactive)
REMARK    1  A    between atoms: C1_2  and  C2_3 
ROOT
ATOM      1  C2  UNL d   1      -3.057   1.557   3.483  0.00  0.00    -0.077 A 
ATOM      2  C3  UNL d   1      -2.162   2.609   3.242  0.00  0.00     0.002 A 
ATOM      3  C4  UNL d   1      -0.964   2.376   2.566  0.00  0.00     0.002 A 
ATOM      4  C5  UNL d   1      -0.651   1.093   2.121  0.00  0.00    -0.004 A 
ATOM      5  C6  UNL d   1      -1.533   0.040   2.357  0.00  0.00     0.002 A 
ATOM      6  C7  UNL d   1      -2.731   0.270   3.035  0.00  0.00     0.002 A 
ENDROOT
BRANCH   1   7
ATOM      7  C1  UNL d   1      -4.373   1.815   4.169  0.00  0.00     0.055 C 
ATOM      8  C   UNL d   1      -4.180   2.605   5.456  0.00  0.00     0.019 C 
ENDBRANCH   1   7
TORSDOF 1
ENDMDL
