MODEL 1
REMARK minimizedAffinity -3.83681011
REMARK minimizedRMSD -1
REMARK  1 active torsions:
REMARK  status: ('A' for Active; 'I' for Inactive)
REMARK    1  A    between atoms: C1_2  and  C2_3 
ROOT
ATOM      1  C2  UNL d   1      -1.525   1.464   2.323  0.00  0.00    -0.077 A 
ATOM      2  C3  UNL d   1      -1.638   0.095   2.044  0.00  0.00     0.002 A 
ATOM      3  C4  UNL d   1      -0.641  -0.563   1.321  0.00  0.00     0.002 A 
ATOM      4  C5  UNL d   1       0.477   0.138   0.876  0.00  0.00    -0.004 A 
ATOM      5  C6  UNL d   1       0.598   1.500   1.147  0.00  0.00     0.002 A 
ATOM      6  C7  UNL d   1      -0.397   2.160   1.868  0.00  0.00     0.002 A 
ENDROOT
BRANCH   1   7
ATOM      7  C1  UNL d   1      -2.575   2.165   3.145  0.00  0.00     0.055 C 
ATOM      8  C   UNL d   1      -3.716   1.225   3.503  0.00  0.00     0.019 C 
ENDBRANCH   1   7
TORSDOF 1
ENDMDL
