MODEL 1
REMARK minimizedAffinity -4.35615158
REMARK minimizedRMSD -1
REMARK  1 active torsions:
REMARK  status: ('A' for Active; 'I' for Inactive)
REMARK    1  A    between atoms: C1_2  and  C2_3 
ROOT
ATOM      1  C2  UNL d   1       0.245   0.921   1.011  0.00  0.00    -0.077 A 
ATOM      2  C3  UNL d   1      -0.420  -0.280   0.724  0.00  0.00     0.002 A 
ATOM      3  C4  UNL d   1      -1.632  -0.583   1.348  0.00  0.00     0.002 A 
ATOM      4  C5  UNL d   1      -2.192   0.312   2.258  0.00  0.00    -0.004 A 
ATOM      5  C6  UNL d   1      -1.537   1.508   2.551  0.00  0.00     0.002 A 
ATOM      6  C7  UNL d   1      -0.325   1.811   1.929  0.00  0.00     0.002 A 
ENDROOT
BRANCH   1   7
ATOM      7  C1  UNL d   1       1.527   1.271   0.302  0.00  0.00     0.055 C 
ATOM      8  C   UNL d   1       2.248   0.024  -0.188  0.00  0.00     0.019 C 
ENDBRANCH   1   7
TORSDOF 1
ENDMDL
