MODEL 1
REMARK minimizedAffinity -3.48292208
REMARK minimizedRMSD -1
REMARK  1 active torsions:
REMARK  status: ('A' for Active; 'I' for Inactive)
REMARK    1  A    between atoms: C1_2  and  C2_3 
ROOT
ATOM      1  C2  UNL d   1      -1.772   1.365   1.664  0.00  0.00    -0.077 A 
ATOM      2  C3  UNL d   1      -1.768  -0.009   1.385  0.00  0.00     0.002 A 
ATOM      3  C4  UNL d   1      -0.568  -0.673   1.123  0.00  0.00     0.002 A 
ATOM      4  C5  UNL d   1       0.636   0.027   1.143  0.00  0.00    -0.004 A 
ATOM      5  C6  UNL d   1       0.643   1.394   1.417  0.00  0.00     0.002 A 
ATOM      6  C7  UNL d   1      -0.555   2.060   1.677  0.00  0.00     0.002 A 
ENDROOT
BRANCH   1   7
ATOM      7  C1  UNL d   1      -3.059   2.074   1.994  0.00  0.00     0.055 C 
ATOM      8  C   UNL d   1      -3.915   1.252   2.947  0.00  0.00     0.019 C 
ENDBRANCH   1   7
TORSDOF 1
ENDMDL
