MODEL 1
REMARK minimizedAffinity 1.08319354
REMARK minimizedRMSD -1
REMARK  1 active torsions:
REMARK  status: ('A' for Active; 'I' for Inactive)
REMARK    1  A    between atoms: C1_2  and  C2_3 
ROOT
ATOM      1  C2  UNL d   1      -1.340   1.392   2.135  0.00  0.00    -0.077 A 
ATOM      2  C3  UNL d   1      -1.733   0.086   2.460  0.00  0.00     0.002 A 
ATOM      3  C4  UNL d   1      -0.902  -0.996   2.161  0.00  0.00     0.002 A 
ATOM      4  C5  UNL d   1       0.327  -0.783   1.541  0.00  0.00    -0.004 A 
ATOM      5  C6  UNL d   1       0.726   0.512   1.213  0.00  0.00     0.002 A 
ATOM      6  C7  UNL d   1      -0.103   1.595   1.510  0.00  0.00     0.002 A 
ENDROOT
BRANCH   1   7
ATOM      7  C1  UNL d   1      -2.212   2.565   2.501  0.00  0.00     0.055 C 
ATOM      8  C   UNL d   1      -3.226   2.188   3.571  0.00  0.00     0.019 C 
ENDBRANCH   1   7
TORSDOF 1
ENDMDL
