MODEL 1
REMARK minimizedAffinity -2.37856317
REMARK minimizedRMSD -1
REMARK  1 active torsions:
REMARK  status: ('A' for Active; 'I' for Inactive)
REMARK    1  A    between atoms: C1_2  and  C2_3 
ROOT
ATOM      1  C2  UNL d   1       0.558   0.916   1.236  0.00  0.00    -0.077 A 
ATOM      2  C3  UNL d   1       0.001   1.977   1.964  0.00  0.00     0.002 A 
ATOM      3  C4  UNL d   1      -1.194   1.802   2.664  0.00  0.00     0.002 A 
ATOM      4  C5  UNL d   1      -1.840   0.568   2.646  0.00  0.00    -0.004 A 
ATOM      5  C6  UNL d   1      -1.295  -0.493   1.924  0.00  0.00     0.002 A 
ATOM      6  C7  UNL d   1      -0.101  -0.320   1.223  0.00  0.00     0.002 A 
ENDROOT
BRANCH   1   7
ATOM      7  C1  UNL d   1       1.873   1.088   0.521  0.00  0.00     0.055 C 
ATOM      8  C   UNL d   1       2.885   0.040   0.963  0.00  0.00     0.019 C 
ENDBRANCH   1   7
TORSDOF 1
ENDMDL
