MODEL 1
REMARK minimizedAffinity 1.44534242
REMARK minimizedRMSD -1
REMARK  1 active torsions:
REMARK  status: ('A' for Active; 'I' for Inactive)
REMARK    1  A    between atoms: C1_2  and  C2_3 
ROOT
ATOM      1  C2  UNL d   1      -3.163   1.695   2.943  0.00  0.00    -0.077 A 
ATOM      2  C3  UNL d   1      -2.592   2.878   2.453  0.00  0.00     0.002 A 
ATOM      3  C4  UNL d   1      -1.423   2.835   1.692  0.00  0.00     0.002 A 
ATOM      4  C5  UNL d   1      -0.817   1.613   1.411  0.00  0.00    -0.004 A 
ATOM      5  C6  UNL d   1      -1.375   0.431   1.895  0.00  0.00     0.002 A 
ATOM      6  C7  UNL d   1      -2.544   0.471   2.657  0.00  0.00     0.002 A 
ENDROOT
BRANCH   1   7
ATOM      7  C1  UNL d   1      -4.451   1.734   3.723  0.00  0.00     0.055 C 
ATOM      8  C   UNL d   1      -4.379   2.742   4.861  0.00  0.00     0.019 C 
ENDBRANCH   1   7
TORSDOF 1
ENDMDL
