MODEL 1
REMARK minimizedAffinity 1.93364608
REMARK minimizedRMSD -1
REMARK  1 active torsions:
REMARK  status: ('A' for Active; 'I' for Inactive)
REMARK    1  A    between atoms: C1_2  and  C2_3 
ROOT
ATOM      1  C2  UNL d   1       1.761   0.543   0.305  0.00  0.00    -0.077 A 
ATOM      2  C3  UNL d   1       1.153  -0.310   1.236  0.00  0.00     0.002 A 
ATOM      3  C4  UNL d   1       0.004   0.094   1.918  0.00  0.00     0.002 A 
ATOM      4  C5  UNL d   1      -0.550   1.348   1.672  0.00  0.00    -0.004 A 
ATOM      5  C6  UNL d   1       0.049   2.205   0.749  0.00  0.00     0.002 A 
ATOM      6  C7  UNL d   1       1.198   1.803   0.067  0.00  0.00     0.002 A 
ENDROOT
BRANCH   1   7
ATOM      7  C1  UNL d   1       2.973   0.090  -0.468  0.00  0.00     0.055 C 
ATOM      8  C   UNL d   1       2.977   0.664  -1.877  0.00  0.00     0.019 C 
ENDBRANCH   1   7
TORSDOF 1
ENDMDL
