MODEL 1
REMARK minimizedAffinity -0.942461967
REMARK minimizedRMSD -1
REMARK  1 active torsions:
REMARK  status: ('A' for Active; 'I' for Inactive)
REMARK    1  A    between atoms: C1_2  and  C2_3 
ROOT
ATOM      1  C2  UNL d   1       0.689   0.644   0.942  0.00  0.00    -0.077 A 
ATOM      2  C3  UNL d   1       0.389  -0.709   1.153  0.00  0.00     0.002 A 
ATOM      3  C4  UNL d   1      -0.817  -1.080   1.752  0.00  0.00     0.002 A 
ATOM      4  C5  UNL d   1      -1.733  -0.104   2.139  0.00  0.00    -0.004 A 
ATOM      5  C6  UNL d   1      -1.443   1.244   1.935  0.00  0.00     0.002 A 
ATOM      6  C7  UNL d   1      -0.237   1.616   1.338  0.00  0.00     0.002 A 
ENDROOT
BRANCH   1   7
ATOM      7  C1  UNL d   1       1.968   1.043   0.252  0.00  0.00     0.055 C 
ATOM      8  C   UNL d   1       2.903  -0.146   0.089  0.00  0.00     0.019 C 
ENDBRANCH   1   7
TORSDOF 1
ENDMDL
