MODEL 1
REMARK minimizedAffinity -2.78140903
REMARK minimizedRMSD -1
REMARK  1 active torsions:
REMARK  status: ('A' for Active; 'I' for Inactive)
REMARK    1  A    between atoms: C1_2  and  C2_3 
ROOT
ATOM      1  C2  UNL d   1       1.773   0.206   0.384  0.00  0.00    -0.077 A 
ATOM      2  C3  UNL d   1       1.159  -0.658   1.302  0.00  0.00     0.002 A 
ATOM      3  C4  UNL d   1      -0.029  -0.287   1.935  0.00  0.00     0.002 A 
ATOM      4  C5  UNL d   1      -0.614   0.946   1.654  0.00  0.00    -0.004 A 
ATOM      5  C6  UNL d   1      -0.010   1.813   0.745  0.00  0.00     0.002 A 
ATOM      6  C7  UNL d   1       1.178   1.444   0.112  0.00  0.00     0.002 A 
ENDROOT
BRANCH   1   7
ATOM      7  C1  UNL d   1       3.028  -0.213  -0.336  0.00  0.00     0.055 C 
ATOM      8  C   UNL d   1       3.056   0.328  -1.759  0.00  0.00     0.019 C 
ENDBRANCH   1   7
TORSDOF 1
ENDMDL
