MODEL 1
REMARK minimizedAffinity -5.04698944
REMARK minimizedRMSD -1
REMARK  1 active torsions:
REMARK  status: ('A' for Active; 'I' for Inactive)
REMARK    1  A    between atoms: C1_2  and  C2_3 
ROOT
ATOM      1  C2  UNL d   1       0.455   0.788   1.290  0.00  0.00    -0.077 A 
ATOM      2  C3  UNL d   1      -0.341  -0.350   1.103  0.00  0.00     0.002 A 
ATOM      3  C4  UNL d   1      -1.657  -0.377   1.570  0.00  0.00     0.002 A 
ATOM      4  C5  UNL d   1      -2.188   0.733   2.223  0.00  0.00    -0.004 A 
ATOM      5  C6  UNL d   1      -1.404   1.869   2.416  0.00  0.00     0.002 A 
ATOM      6  C7  UNL d   1      -0.088   1.897   1.951  0.00  0.00     0.002 A 
ENDROOT
BRANCH   1   7
ATOM      7  C1  UNL d   1       1.858   0.837   0.743  0.00  0.00     0.055 C 
ATOM      8  C   UNL d   1       1.954   0.127  -0.599  0.00  0.00     0.019 C 
ENDBRANCH   1   7
TORSDOF 1
ENDMDL
