MODEL 1
REMARK minimizedAffinity 11.8654509
REMARK minimizedRMSD -1
REMARK  0 active torsions:
REMARK  status: ('A' for Active; 'I' for Inactive)
ROOT
ATOM      1  C   UNL d   1       1.405  -2.667   3.635  0.00  0.00     0.077 C 
ATOM      2  C1  UNL d   1       0.164  -2.423   2.830  0.00  0.00    -0.074 A 
ATOM      3  C2  UNL d   1      -0.139  -3.215   1.718  0.00  0.00    -0.005 A 
ATOM      4  C3  UNL d   1      -1.302  -2.982   0.984  0.00  0.00     0.006 A 
ATOM      5  C4  UNL d   1      -2.173  -1.956   1.355  0.00  0.00    -0.005 A 
ATOM      6  C5  UNL d   1      -1.887  -1.155   2.465  0.00  0.00    -0.074 A 
ATOM      7  C6  UNL d   1      -2.818  -0.055   2.883  0.00  0.00     0.077 C 
ATOM      8  C7  UNL d   1      -0.720  -1.400   3.201  0.00  0.00    -0.001 A 
ENDROOT
TORSDOF 0
ENDMDL
