MODEL 1
REMARK minimizedAffinity 13.4619293
REMARK minimizedRMSD -1
REMARK  0 active torsions:
REMARK  status: ('A' for Active; 'I' for Inactive)
ROOT
ATOM      1  C   UNL d   1       5.790   5.395  -1.042  0.00  0.00     0.077 C 
ATOM      2  C1  UNL d   1       5.269   4.720  -2.277  0.00  0.00    -0.074 A 
ATOM      3  C2  UNL d   1       5.995   4.748  -3.471  0.00  0.00    -0.005 A 
ATOM      4  C3  UNL d   1       5.503   4.108  -4.609  0.00  0.00     0.006 A 
ATOM      5  C4  UNL d   1       4.281   3.435  -4.563  0.00  0.00    -0.005 A 
ATOM      6  C5  UNL d   1       3.541   3.396  -3.377  0.00  0.00    -0.074 A 
ATOM      7  C6  UNL d   1       2.231   2.669  -3.308  0.00  0.00     0.077 C 
ATOM      8  C7  UNL d   1       4.046   4.036  -2.236  0.00  0.00    -0.001 A 
ENDROOT
TORSDOF 0
ENDMDL
