MODEL 1
REMARK minimizedAffinity 18.6802273
REMARK minimizedRMSD -1
REMARK  0 active torsions:
REMARK  status: ('A' for Active; 'I' for Inactive)
ROOT
ATOM      1  C   UNL d   1      -3.818  -4.355   1.740  0.00  0.00     0.077 C 
ATOM      2  C1  UNL d   1      -3.006  -3.126   1.461  0.00  0.00    -0.074 A 
ATOM      3  C2  UNL d   1      -3.444  -2.169   0.539  0.00  0.00    -0.005 A 
ATOM      4  C3  UNL d   1      -2.682  -1.026   0.296  0.00  0.00     0.006 A 
ATOM      5  C4  UNL d   1      -1.477  -0.828   0.972  0.00  0.00    -0.005 A 
ATOM      6  C5  UNL d   1      -1.024  -1.773   1.898  0.00  0.00    -0.074 A 
ATOM      7  C6  UNL d   1       0.263  -1.570   2.641  0.00  0.00     0.077 C 
ATOM      8  C7  UNL d   1      -1.799  -2.915   2.142  0.00  0.00    -0.001 A 
ENDROOT
TORSDOF 0
ENDMDL
