MODEL 1
REMARK minimizedAffinity 14.6089392
REMARK minimizedRMSD -1
REMARK  0 active torsions:
REMARK  status: ('A' for Active; 'I' for Inactive)
ROOT
ATOM      1  C   UNL d   1       2.523  -5.439   1.263  0.00  0.00     0.077 C 
ATOM      2  C1  UNL d   1       3.653  -4.691   0.618  0.00  0.00    -0.074 A 
ATOM      3  C2  UNL d   1       4.961  -5.181   0.670  0.00  0.00    -0.005 A 
ATOM      4  C3  UNL d   1       6.000  -4.480   0.057  0.00  0.00     0.006 A 
ATOM      5  C4  UNL d   1       5.741  -3.283  -0.612  0.00  0.00    -0.005 A 
ATOM      6  C5  UNL d   1       4.438  -2.778  -0.675  0.00  0.00    -0.074 A 
ATOM      7  C6  UNL d   1       4.141  -1.498  -1.398  0.00  0.00     0.077 C 
ATOM      8  C7  UNL d   1       3.399  -3.492  -0.063  0.00  0.00    -0.001 A 
ENDROOT
TORSDOF 0
ENDMDL
