MODEL 1
REMARK minimizedAffinity 4.8915
REMARK minimizedRMSD -1
REMARK  0 active torsions:
REMARK  status: ('A' for Active; 'I' for Inactive)
ROOT
ATOM      1  C   UNL d   1      -0.753  -4.496  -1.360  0.00  0.00     0.077 C 
ATOM      2  C1  UNL d   1      -0.324  -5.001  -2.705  0.00  0.00    -0.074 A 
ATOM      3  C2  UNL d   1       1.026  -5.238  -2.986  0.00  0.00    -0.005 A 
ATOM      4  C3  UNL d   1       1.409  -5.717  -4.239  0.00  0.00     0.006 A 
ATOM      5  C4  UNL d   1       0.450  -5.963  -5.222  0.00  0.00    -0.005 A 
ATOM      6  C5  UNL d   1      -0.904  -5.732  -4.958  0.00  0.00    -0.074 A 
ATOM      7  C6  UNL d   1      -1.950  -6.000  -6.000  0.00  0.00     0.077 C 
ATOM      8  C7  UNL d   1      -1.283  -5.257  -3.695  0.00  0.00    -0.001 A 
ENDROOT
TORSDOF 0
ENDMDL
