MODEL 1
REMARK minimizedAffinity 5.14239073
REMARK minimizedRMSD -1
REMARK  0 active torsions:
REMARK  status: ('A' for Active; 'I' for Inactive)
ROOT
ATOM      1  C   UNL d   1      -1.458   4.346  -4.972  0.00  0.00     0.077 C 
ATOM      2  C1  UNL d   1      -0.343   4.334  -3.969  0.00  0.00    -0.074 A 
ATOM      3  C2  UNL d   1      -0.104   5.441  -3.148  0.00  0.00    -0.005 A 
ATOM      4  C3  UNL d   1       0.930   5.412  -2.212  0.00  0.00     0.006 A 
ATOM      5  C4  UNL d   1       1.735   4.278  -2.089  0.00  0.00    -0.005 A 
ATOM      6  C5  UNL d   1       1.510   3.162  -2.901  0.00  0.00    -0.074 A 
ATOM      7  C6  UNL d   1       2.359   1.932  -2.775  0.00  0.00     0.077 C 
ATOM      8  C7  UNL d   1       0.464   3.196  -3.834  0.00  0.00    -0.001 A 
ENDROOT
TORSDOF 0
ENDMDL
