MODEL 1
REMARK minimizedAffinity 14.166379
REMARK minimizedRMSD -1
REMARK  0 active torsions:
REMARK  status: ('A' for Active; 'I' for Inactive)
ROOT
ATOM      1  C   UNL d   1       5.994   4.498  -0.963  0.00  0.00     0.077 C 
ATOM      2  C1  UNL d   1       5.308   4.082  -2.231  0.00  0.00    -0.074 A 
ATOM      3  C2  UNL d   1       6.000   4.054  -3.446  0.00  0.00    -0.005 A 
ATOM      4  C3  UNL d   1       5.351   3.656  -4.615  0.00  0.00     0.006 A 
ATOM      5  C4  UNL d   1       4.007   3.283  -4.581  0.00  0.00    -0.005 A 
ATOM      6  C5  UNL d   1       3.299   3.305  -3.375  0.00  0.00    -0.074 A 
ATOM      7  C6  UNL d   1       1.857   2.898  -3.319  0.00  0.00     0.077 C 
ATOM      8  C7  UNL d   1       3.960   3.699  -2.203  0.00  0.00    -0.001 A 
ENDROOT
TORSDOF 0
ENDMDL
