MODEL 1
REMARK minimizedAffinity 18.9995136
REMARK minimizedRMSD -1
REMARK  0 active torsions:
REMARK  status: ('A' for Active; 'I' for Inactive)
ROOT
ATOM      1  C   UNL d   1      -5.996  -1.745  -3.118  0.00  0.00     0.077 C 
ATOM      2  C1  UNL d   1      -5.636  -0.538  -2.305  0.00  0.00    -0.074 A 
ATOM      3  C2  UNL d   1      -5.887   0.752  -2.783  0.00  0.00    -0.005 A 
ATOM      4  C3  UNL d   1      -5.555   1.866  -2.012  0.00  0.00     0.006 A 
ATOM      5  C4  UNL d   1      -4.969   1.701  -0.756  0.00  0.00    -0.005 A 
ATOM      6  C5  UNL d   1      -4.711   0.419  -0.261  0.00  0.00    -0.074 A 
ATOM      7  C6  UNL d   1      -4.092   0.223   1.091  0.00  0.00     0.077 C 
ATOM      8  C7  UNL d   1      -5.054  -0.695  -1.039  0.00  0.00    -0.001 A 
ENDROOT
TORSDOF 0
ENDMDL
