MODEL 1
REMARK minimizedAffinity 12.632678
REMARK minimizedRMSD -1
REMARK  0 active torsions:
REMARK  status: ('A' for Active; 'I' for Inactive)
ROOT
ATOM      1  C   UNL d   1      -1.691  -1.347   0.562  0.00  0.00     0.077 C 
ATOM      2  C1  UNL d   1      -1.094  -1.135   1.922  0.00  0.00    -0.074 A 
ATOM      3  C2  UNL d   1      -1.463  -0.038   2.706  0.00  0.00    -0.005 A 
ATOM      4  C3  UNL d   1      -0.907   0.141   3.972  0.00  0.00     0.006 A 
ATOM      5  C4  UNL d   1       0.023  -0.774   4.467  0.00  0.00    -0.005 A 
ATOM      6  C5  UNL d   1       0.404  -1.879   3.697  0.00  0.00    -0.074 A 
ATOM      7  C6  UNL d   1       1.394  -2.877   4.218  0.00  0.00     0.077 C 
ATOM      8  C7  UNL d   1      -0.165  -2.055   2.429  0.00  0.00    -0.001 A 
ENDROOT
TORSDOF 0
ENDMDL
