MODEL 1
REMARK minimizedAffinity 12.5948601
REMARK minimizedRMSD -1
REMARK  0 active torsions:
REMARK  status: ('A' for Active; 'I' for Inactive)
ROOT
ATOM      1  C   UNL d   1       5.420   5.868  -2.318  0.00  0.00     0.077 C 
ATOM      2  C1  UNL d   1       4.730   4.841  -3.166  0.00  0.00    -0.074 A 
ATOM      3  C2  UNL d   1       5.108   4.635  -4.496  0.00  0.00    -0.005 A 
ATOM      4  C3  UNL d   1       4.463   3.669  -5.269  0.00  0.00     0.006 A 
ATOM      5  C4  UNL d   1       3.435   2.902  -4.721  0.00  0.00    -0.005 A 
ATOM      6  C5  UNL d   1       3.044   3.093  -3.392  0.00  0.00    -0.074 A 
ATOM      7  C6  UNL d   1       1.947   2.270  -2.784  0.00  0.00     0.077 C 
ATOM      8  C7  UNL d   1       3.701   4.060  -2.619  0.00  0.00    -0.001 A 
ENDROOT
TORSDOF 0
ENDMDL
