MODEL 1
REMARK minimizedAffinity 16.5883808
REMARK minimizedRMSD -1
REMARK  0 active torsions:
REMARK  status: ('A' for Active; 'I' for Inactive)
ROOT
ATOM      1  C   UNL d   1       5.224   3.126   1.826  0.00  0.00     0.077 C 
ATOM      2  C1  UNL d   1       4.085   2.354   1.231  0.00  0.00    -0.074 A 
ATOM      3  C2  UNL d   1       2.845   2.960   1.006  0.00  0.00    -0.005 A 
ATOM      4  C3  UNL d   1       1.797   2.232   0.443  0.00  0.00     0.006 A 
ATOM      5  C4  UNL d   1       1.979   0.891   0.100  0.00  0.00    -0.005 A 
ATOM      6  C5  UNL d   1       3.212   0.268   0.317  0.00  0.00    -0.074 A 
ATOM      7  C6  UNL d   1       3.426  -1.169  -0.055  0.00  0.00     0.077 C 
ATOM      8  C7  UNL d   1       4.262   1.009   0.877  0.00  0.00    -0.001 A 
ENDROOT
TORSDOF 0
ENDMDL
