MODEL 1
REMARK minimizedAffinity 18.1281452
REMARK minimizedRMSD -1
REMARK  0 active torsions:
REMARK  status: ('A' for Active; 'I' for Inactive)
ROOT
ATOM      1  C   UNL d   1      -0.734  -3.372  -2.969  0.00  0.00     0.077 C 
ATOM      2  C1  UNL d   1      -1.272  -4.284  -4.031  0.00  0.00    -0.074 A 
ATOM      3  C2  UNL d   1      -0.423  -5.138  -4.743  0.00  0.00    -0.005 A 
ATOM      4  C3  UNL d   1      -0.940  -5.987  -5.722  0.00  0.00     0.006 A 
ATOM      5  C4  UNL d   1      -2.307  -5.990  -5.999  0.00  0.00    -0.005 A 
ATOM      6  C5  UNL d   1      -3.171  -5.144  -5.297  0.00  0.00    -0.074 A 
ATOM      7  C6  UNL d   1      -4.645  -5.142  -5.575  0.00  0.00     0.077 C 
ATOM      8  C7  UNL d   1      -2.646  -4.299  -4.310  0.00  0.00    -0.001 A 
ENDROOT
TORSDOF 0
ENDMDL
