MODEL 1
REMARK minimizedAffinity 14.6649971
REMARK minimizedRMSD -1
REMARK  0 active torsions:
REMARK  status: ('A' for Active; 'I' for Inactive)
ROOT
ATOM      1  C   UNL d   1       1.818   2.790  -3.282  0.00  0.00     0.077 C 
ATOM      2  C1  UNL d   1       3.101   3.528  -3.529  0.00  0.00    -0.074 A 
ATOM      3  C2  UNL d   1       3.786   3.393  -4.741  0.00  0.00    -0.005 A 
ATOM      4  C3  UNL d   1       4.972   4.094  -4.960  0.00  0.00     0.006 A 
ATOM      5  C4  UNL d   1       5.484   4.934  -3.971  0.00  0.00    -0.005 A 
ATOM      6  C5  UNL d   1       4.812   5.083  -2.753  0.00  0.00    -0.074 A 
ATOM      7  C6  UNL d   1       5.344   5.990  -1.684  0.00  0.00     0.077 C 
ATOM      8  C7  UNL d   1       3.617   4.381  -2.544  0.00  0.00    -0.001 A 
ENDROOT
TORSDOF 0
ENDMDL
