MODEL 1
REMARK minimizedAffinity 10.0816917
REMARK minimizedRMSD -1
REMARK  0 active torsions:
REMARK  status: ('A' for Active; 'I' for Inactive)
ROOT
ATOM      1  C   UNL d   1       1.978   2.813  -2.862  0.00  0.00     0.077 C 
ATOM      2  C1  UNL d   1       3.276   3.477  -3.215  0.00  0.00    -0.074 A 
ATOM      3  C2  UNL d   1       3.861   3.290  -4.471  0.00  0.00    -0.005 A 
ATOM      4  C3  UNL d   1       5.063   3.922  -4.788  0.00  0.00     0.006 A 
ATOM      5  C4  UNL d   1       5.692   4.746  -3.854  0.00  0.00    -0.005 A 
ATOM      6  C5  UNL d   1       5.121   4.946  -2.593  0.00  0.00    -0.074 A 
ATOM      7  C6  UNL d   1       5.778   5.836  -1.580  0.00  0.00     0.077 C 
ATOM      8  C7  UNL d   1       3.909   4.313  -2.284  0.00  0.00    -0.001 A 
ENDROOT
TORSDOF 0
ENDMDL
