MODEL 1
REMARK minimizedAffinity 15.2244339
REMARK minimizedRMSD -1
REMARK  0 active torsions:
REMARK  status: ('A' for Active; 'I' for Inactive)
ROOT
ATOM      1  C   UNL d   1      -3.516  -6.000  -5.901  0.00  0.00     0.077 C 
ATOM      2  C1  UNL d   1      -2.331  -5.532  -5.109  0.00  0.00    -0.074 A 
ATOM      3  C2  UNL d   1      -1.044  -5.998  -5.397  0.00  0.00    -0.005 A 
ATOM      4  C3  UNL d   1       0.049  -5.546  -4.658  0.00  0.00     0.006 A 
ATOM      5  C4  UNL d   1      -0.133  -4.625  -3.625  0.00  0.00    -0.005 A 
ATOM      6  C5  UNL d   1      -1.412  -4.147  -3.324  0.00  0.00    -0.074 A 
ATOM      7  C6  UNL d   1      -1.624  -3.150  -2.223  0.00  0.00     0.077 C 
ATOM      8  C7  UNL d   1      -2.505  -4.601  -4.075  0.00  0.00    -0.001 A 
ENDROOT
TORSDOF 0
ENDMDL
