MODEL 1
REMARK minimizedAffinity 12.1995993
REMARK minimizedRMSD -1
REMARK  0 active torsions:
REMARK  status: ('A' for Active; 'I' for Inactive)
ROOT
ATOM      1  C   UNL d   1      -6.000  -1.109  -2.836  0.00  0.00     0.077 C 
ATOM      2  C1  UNL d   1      -5.835   0.026  -1.871  0.00  0.00    -0.074 A 
ATOM      3  C2  UNL d   1      -5.923   1.354  -2.301  0.00  0.00    -0.005 A 
ATOM      4  C3  UNL d   1      -5.777   2.400  -1.390  0.00  0.00     0.006 A 
ATOM      5  C4  UNL d   1      -5.541   2.129  -0.041  0.00  0.00    -0.005 A 
ATOM      6  C5  UNL d   1      -5.451   0.808   0.408  0.00  0.00    -0.074 A 
ATOM      7  C6  UNL d   1      -5.208   0.499   1.855  0.00  0.00     0.077 C 
ATOM      8  C7  UNL d   1      -5.606  -0.238  -0.513  0.00  0.00    -0.001 A 
ENDROOT
TORSDOF 0
ENDMDL
