MODEL 1
REMARK minimizedAffinity 12.4589615
REMARK minimizedRMSD -1
REMARK  0 active torsions:
REMARK  status: ('A' for Active; 'I' for Inactive)
ROOT
ATOM      1  C   UNL d   1      -4.233  -4.426   1.651  0.00  0.00     0.077 C 
ATOM      2  C1  UNL d   1      -3.224  -3.317   1.658  0.00  0.00    -0.074 A 
ATOM      3  C2  UNL d   1      -3.574  -2.022   1.262  0.00  0.00    -0.005 A 
ATOM      4  C3  UNL d   1      -2.627  -0.999   1.283  0.00  0.00     0.006 A 
ATOM      5  C4  UNL d   1      -1.321  -1.259   1.701  0.00  0.00    -0.005 A 
ATOM      6  C5  UNL d   1      -0.952  -2.547   2.102  0.00  0.00    -0.074 A 
ATOM      7  C6  UNL d   1       0.444  -2.841   2.563  0.00  0.00     0.077 C 
ATOM      8  C7  UNL d   1      -1.912  -3.568   2.084  0.00  0.00    -0.001 A 
ENDROOT
TORSDOF 0
ENDMDL
