MODEL 1
REMARK minimizedAffinity 6.80221653
REMARK minimizedRMSD -1
REMARK  0 active torsions:
REMARK  status: ('A' for Active; 'I' for Inactive)
ROOT
ATOM      1  O1  BZF d   1       4.787  -5.952  -0.518  0.00  0.00    -0.204 OA
ATOM      2  C2  BZF d   1       3.681  -5.925   0.309  0.00  0.00     0.174 A 
ATOM      3  C3  BZF d   1       2.544  -5.874  -0.414  0.00  0.00    -0.012 A 
ATOM      4  C3A BZF d   1       2.962  -5.962  -1.780  0.00  0.00    -0.107 A 
ATOM      5  C4  BZF d   1       2.290  -5.979  -2.968  0.00  0.00     0.055 A 
ATOM      6  C5  BZF d   1       2.998  -6.000  -4.128  0.00  0.00    -0.016 A 
ATOM      7  C6  BZF d   1       4.378  -5.999  -4.135  0.00  0.00     0.022 A 
ATOM      8  C7  BZF d   1       5.089  -5.987  -2.981  0.00  0.00     0.029 A 
ATOM      9  C7A BZF d   1       4.375  -6.000  -1.808  0.00  0.00     0.058 A 
ENDROOT
TORSDOF 0
ENDMDL
