MODEL 1
REMARK minimizedAffinity 3.72358441
REMARK minimizedRMSD -1
REMARK  0 active torsions:
REMARK  status: ('A' for Active; 'I' for Inactive)
ROOT
ATOM      1  O1  BZF d   1       2.815  -5.965  -5.356  0.00  0.00    -0.204 OA
ATOM      2  C2  BZF d   1       4.047  -5.987  -5.981  0.00  0.00     0.174 A 
ATOM      3  C3  BZF d   1       5.044  -5.949  -5.073  0.00  0.00    -0.012 A 
ATOM      4  C3A BZF d   1       4.396  -5.992  -3.799  0.00  0.00    -0.107 A 
ATOM      5  C4  BZF d   1       4.853  -5.997  -2.512  0.00  0.00     0.055 A 
ATOM      6  C5  BZF d   1       3.956  -5.969  -1.492  0.00  0.00    -0.016 A 
ATOM      7  C6  BZF d   1       2.596  -5.931  -1.722  0.00  0.00     0.022 A 
ATOM      8  C7  BZF d   1       2.095  -5.930  -2.981  0.00  0.00     0.029 A 
ATOM      9  C7A BZF d   1       2.998  -5.991  -4.014  0.00  0.00     0.058 A 
ENDROOT
TORSDOF 0
ENDMDL
