MODEL 1
REMARK minimizedAffinity 0.0462910384
REMARK minimizedRMSD -1
REMARK  0 active torsions:
REMARK  status: ('A' for Active; 'I' for Inactive)
ROOT
ATOM      1  O1  BZF d   1       1.398  -1.139   4.036  0.00  0.00    -0.204 OA
ATOM      2  C2  BZF d   1       1.511  -0.914   2.678  0.00  0.00     0.174 A 
ATOM      3  C3  BZF d   1       1.965  -2.016   2.047  0.00  0.00    -0.012 A 
ATOM      4  C3A BZF d   1       2.059  -3.019   3.062  0.00  0.00    -0.107 A 
ATOM      5  C4  BZF d   1       2.435  -4.332   3.053  0.00  0.00     0.055 A 
ATOM      6  C5  BZF d   1       2.486  -5.013   4.229  0.00  0.00    -0.016 A 
ATOM      7  C6  BZF d   1       2.173  -4.411   5.430  0.00  0.00     0.022 A 
ATOM      8  C7  BZF d   1       1.790  -3.113   5.489  0.00  0.00     0.029 A 
ATOM      9  C7A BZF d   1       1.706  -2.431   4.299  0.00  0.00     0.058 A 
ENDROOT
TORSDOF 0
ENDMDL
