MODEL 1
REMARK minimizedAffinity 1.38863707
REMARK minimizedRMSD -1
REMARK  0 active torsions:
REMARK  status: ('A' for Active; 'I' for Inactive)
ROOT
ATOM      1  O1  BZF d   1       3.700  -0.632   1.498  0.00  0.00    -0.204 OA
ATOM      2  C2  BZF d   1       2.802   0.328   1.072  0.00  0.00     0.174 A 
ATOM      3  C3  BZF d   1       1.576   0.098   1.585  0.00  0.00    -0.012 A 
ATOM      4  C3A BZF d   1       1.737  -1.026   2.456  0.00  0.00    -0.107 A 
ATOM      5  C4  BZF d   1       0.882  -1.717   3.265  0.00  0.00     0.055 A 
ATOM      6  C5  BZF d   1       1.339  -2.812   3.928  0.00  0.00    -0.016 A 
ATOM      7  C6  BZF d   1       2.643  -3.245   3.802  0.00  0.00     0.022 A 
ATOM      8  C7  BZF d   1       3.530  -2.589   3.015  0.00  0.00     0.029 A 
ATOM      9  C7A BZF d   1       3.079  -1.464   2.369  0.00  0.00     0.058 A 
ENDROOT
TORSDOF 0
ENDMDL
