MODEL 1
REMARK minimizedAffinity 7.10111952
REMARK minimizedRMSD -1
REMARK  0 active torsions:
REMARK  status: ('A' for Active; 'I' for Inactive)
ROOT
ATOM      1  O1  BZF d   1       3.744  -5.994  -5.153  0.00  0.00    -0.204 OA
ATOM      2  C2  BZF d   1       2.424  -5.976  -5.558  0.00  0.00     0.174 A 
ATOM      3  C3  BZF d   1       1.596  -5.999  -4.493  0.00  0.00    -0.012 A 
ATOM      4  C3A BZF d   1       2.454  -5.941  -3.349  0.00  0.00    -0.107 A 
ATOM      5  C4  BZF d   1       2.223  -5.917  -2.003  0.00  0.00     0.055 A 
ATOM      6  C5  BZF d   1       3.282  -5.934  -1.151  0.00  0.00    -0.016 A 
ATOM      7  C6  BZF d   1       4.582  -5.980  -1.610  0.00  0.00     0.022 A 
ATOM      8  C7  BZF d   1       4.861  -6.000  -2.936  0.00  0.00     0.029 A 
ATOM      9  C7A BZF d   1       3.794  -5.950  -3.800  0.00  0.00     0.058 A 
ENDROOT
TORSDOF 0
ENDMDL
