MODEL 1
REMARK minimizedAffinity 3.34222746
REMARK minimizedRMSD -1
REMARK  0 active torsions:
REMARK  status: ('A' for Active; 'I' for Inactive)
ROOT
ATOM      1  O1  BZF d   1       1.599  -0.775   3.535  0.00  0.00    -0.204 OA
ATOM      2  C2  BZF d   1       1.461  -1.773   2.590  0.00  0.00     0.174 A 
ATOM      3  C3  BZF d   1       1.955  -1.377   1.400  0.00  0.00    -0.012 A 
ATOM      4  C3A BZF d   1       2.514  -0.082   1.637  0.00  0.00    -0.107 A 
ATOM      5  C4  BZF d   1       3.165   0.819   0.844  0.00  0.00     0.055 A 
ATOM      6  C5  BZF d   1       3.519   2.024   1.365  0.00  0.00    -0.016 A 
ATOM      7  C6  BZF d   1       3.233   2.362   2.671  0.00  0.00     0.022 A 
ATOM      8  C7  BZF d   1       2.593   1.499   3.498  0.00  0.00     0.029 A 
ATOM      9  C7A BZF d   1       2.264   0.269   2.984  0.00  0.00     0.058 A 
ENDROOT
TORSDOF 0
ENDMDL
