MODEL 1
REMARK minimizedAffinity 12.1513882
REMARK minimizedRMSD -1
REMARK  0 active torsions:
REMARK  status: ('A' for Active; 'I' for Inactive)
ROOT
ATOM      1  O1  BZF d   1      -4.212   3.492  -0.645  0.00  0.00    -0.204 OA
ATOM      2  C2  BZF d   1      -5.181   4.356  -0.173  0.00  0.00     0.174 A 
ATOM      3  C3  BZF d   1      -6.000   4.748  -1.171  0.00  0.00    -0.012 A 
ATOM      4  C3A BZF d   1      -5.568   4.015  -2.322  0.00  0.00    -0.107 A 
ATOM      5  C4  BZF d   1      -6.000   3.960  -3.616  0.00  0.00     0.055 A 
ATOM      6  C5  BZF d   1      -5.315   3.198  -4.509  0.00  0.00    -0.016 A 
ATOM      7  C6  BZF d   1      -4.193   2.483  -4.143  0.00  0.00     0.022 A 
ATOM      8  C7  BZF d   1      -3.730   2.502  -2.870  0.00  0.00     0.029 A 
ATOM      9  C7A BZF d   1      -4.439   3.245  -1.958  0.00  0.00     0.058 A 
ENDROOT
TORSDOF 0
ENDMDL
