MODEL 1
REMARK minimizedAffinity 7.29880428
REMARK minimizedRMSD -1
REMARK  0 active torsions:
REMARK  status: ('A' for Active; 'I' for Inactive)
ROOT
ATOM      1  O1  BZF d   1       1.274  -5.994  -3.909  0.00  0.00    -0.204 OA
ATOM      2  C2  BZF d   1       0.898  -5.976  -2.580  0.00  0.00     0.174 A 
ATOM      3  C3  BZF d   1       1.980  -6.000  -1.776  0.00  0.00    -0.012 A 
ATOM      4  C3A BZF d   1       3.105  -5.941  -2.658  0.00  0.00    -0.107 A 
ATOM      5  C4  BZF d   1       4.456  -5.917  -2.456  0.00  0.00     0.055 A 
ATOM      6  C5  BZF d   1       5.285  -5.934  -3.533  0.00  0.00    -0.016 A 
ATOM      7  C6  BZF d   1       4.798  -5.979  -4.823  0.00  0.00     0.022 A 
ATOM      8  C7  BZF d   1       3.466  -5.999  -5.073  0.00  0.00     0.029 A 
ATOM      9  C7A BZF d   1       2.626  -5.950  -3.988  0.00  0.00     0.058 A 
ENDROOT
TORSDOF 0
ENDMDL
