MODEL 1
REMARK minimizedAffinity 4.08864403
REMARK minimizedRMSD -1
REMARK  0 active torsions:
REMARK  status: ('A' for Active; 'I' for Inactive)
ROOT
ATOM      1  O1  BZF d   1      -2.420   0.303  -2.282  0.00  0.00    -0.204 OA
ATOM      2  C2  BZF d   1      -3.009   0.784  -3.436  0.00  0.00     0.174 A 
ATOM      3  C3  BZF d   1      -3.647   1.948  -3.198  0.00  0.00    -0.012 A 
ATOM      4  C3A BZF d   1      -3.366   2.258  -1.829  0.00  0.00    -0.107 A 
ATOM      5  C4  BZF d   1      -3.708   3.298  -1.013  0.00  0.00     0.055 A 
ATOM      6  C5  BZF d   1      -3.334   3.263   0.293  0.00  0.00    -0.016 A 
ATOM      7  C6  BZF d   1      -2.621   2.204   0.816  0.00  0.00     0.022 A 
ATOM      8  C7  BZF d   1      -2.254   1.153   0.044  0.00  0.00     0.029 A 
ATOM      9  C7A BZF d   1      -2.603   1.200  -1.284  0.00  0.00     0.058 A 
ENDROOT
TORSDOF 0
ENDMDL
