MODEL 1
REMARK minimizedAffinity 0.0385057367
REMARK minimizedRMSD -1
REMARK  0 active torsions:
REMARK  status: ('A' for Active; 'I' for Inactive)
ROOT
ATOM      1  C   UNL d   1       0.268  -5.644   5.696  0.00  0.00     0.077 C 
ATOM      2  C1  UNL d   1       1.148  -4.507   5.269  0.00  0.00    -0.074 A 
ATOM      3  C2  UNL d   1       2.292  -4.170   6.000  0.00  0.00    -0.005 A 
ATOM      4  C3  UNL d   1       3.106  -3.116   5.585  0.00  0.00     0.006 A 
ATOM      5  C4  UNL d   1       2.785  -2.390   4.438  0.00  0.00    -0.005 A 
ATOM      6  C5  UNL d   1       1.645  -2.713   3.694  0.00  0.00    -0.074 A 
ATOM      7  C6  UNL d   1       1.291  -1.948   2.454  0.00  0.00     0.077 C 
ATOM      8  C7  UNL d   1       0.836  -3.778   4.114  0.00  0.00    -0.001 A 
ENDROOT
TORSDOF 0
ENDMDL
