MODEL 1
REMARK minimizedAffinity -3.71319103
REMARK minimizedRMSD -1
REMARK  0 active torsions:
REMARK  status: ('A' for Active; 'I' for Inactive)
ROOT
ATOM      1  C   UNL d   1       4.847  -6.000  -5.475  0.00  0.00     0.077 C 
ATOM      2  C1  UNL d   1       3.585  -5.992  -4.666  0.00  0.00    -0.074 A 
ATOM      3  C2  UNL d   1       2.332  -5.998  -5.288  0.00  0.00    -0.005 A 
ATOM      4  C3  UNL d   1       1.166  -6.000  -4.521  0.00  0.00     0.006 A 
ATOM      5  C4  UNL d   1       1.242  -5.997  -3.128  0.00  0.00    -0.005 A 
ATOM      6  C5  UNL d   1       2.485  -5.992  -2.489  0.00  0.00    -0.074 A 
ATOM      7  C6  UNL d   1       2.584  -5.999  -0.992  0.00  0.00     0.077 C 
ATOM      8  C7  UNL d   1       3.652  -5.997  -3.265  0.00  0.00    -0.001 A 
ENDROOT
TORSDOF 0
ENDMDL
