MODEL 1
REMARK minimizedAffinity 7.41720963
REMARK minimizedRMSD -1
REMARK  0 active torsions:
REMARK  status: ('A' for Active; 'I' for Inactive)
ROOT
ATOM      1  C   UNL d   1       5.259  -2.692   5.105  0.00  0.00     0.077 C 
ATOM      2  C1  UNL d   1       4.000  -2.824   4.300  0.00  0.00    -0.074 A 
ATOM      3  C2  UNL d   1       3.388  -4.068   4.121  0.00  0.00    -0.005 A 
ATOM      4  C3  UNL d   1       2.212  -4.173   3.377  0.00  0.00     0.006 A 
ATOM      5  C4  UNL d   1       1.638  -3.037   2.807  0.00  0.00    -0.005 A 
ATOM      6  C5  UNL d   1       2.235  -1.784   2.977  0.00  0.00    -0.074 A 
ATOM      7  C6  UNL d   1       1.625  -0.551   2.379  0.00  0.00     0.077 C 
ATOM      8  C7  UNL d   1       3.412  -1.685   3.731  0.00  0.00    -0.001 A 
ENDROOT
TORSDOF 0
ENDMDL
