MODEL 1
REMARK minimizedAffinity 3.6731112
REMARK minimizedRMSD -1
REMARK  0 active torsions:
REMARK  status: ('A' for Active; 'I' for Inactive)
ROOT
ATOM      1  C   UNL d   1       6.000  -3.043   4.130  0.00  0.00     0.077 C 
ATOM      2  C1  UNL d   1       4.528  -3.236   3.917  0.00  0.00    -0.074 A 
ATOM      3  C2  UNL d   1       3.921  -4.470   4.170  0.00  0.00    -0.005 A 
ATOM      4  C3  UNL d   1       2.549  -4.632   3.975  0.00  0.00     0.006 A 
ATOM      5  C4  UNL d   1       1.772  -3.563   3.527  0.00  0.00    -0.005 A 
ATOM      6  C5  UNL d   1       2.362  -2.322   3.269  0.00  0.00    -0.074 A 
ATOM      7  C6  UNL d   1       1.539  -1.160   2.796  0.00  0.00     0.077 C 
ATOM      8  C7  UNL d   1       3.739  -2.165   3.474  0.00  0.00    -0.001 A 
ENDROOT
TORSDOF 0
ENDMDL
