MODEL 1
REMARK minimizedAffinity 7.40470314
REMARK minimizedRMSD -1
REMARK  0 active torsions:
REMARK  status: ('A' for Active; 'I' for Inactive)
ROOT
ATOM      1  C   UNL d   1       1.913  -0.655   2.351  0.00  0.00     0.077 C 
ATOM      2  C1  UNL d   1       2.187  -2.036   2.869  0.00  0.00    -0.074 A 
ATOM      3  C2  UNL d   1       3.468  -2.404   3.292  0.00  0.00    -0.005 A 
ATOM      4  C3  UNL d   1       3.706  -3.689   3.780  0.00  0.00     0.006 A 
ATOM      5  C4  UNL d   1       2.666  -4.617   3.851  0.00  0.00    -0.005 A 
ATOM      6  C5  UNL d   1       1.378  -4.267   3.434  0.00  0.00    -0.074 A 
ATOM      7  C6  UNL d   1       0.247  -5.249   3.512  0.00  0.00     0.077 C 
ATOM      8  C7  UNL d   1       1.146  -2.972   2.951  0.00  0.00    -0.001 A 
ENDROOT
TORSDOF 0
ENDMDL
