MODEL 1
REMARK minimizedAffinity 2.3342011
REMARK minimizedRMSD -1
REMARK  0 active torsions:
REMARK  status: ('A' for Active; 'I' for Inactive)
ROOT
ATOM      1  C   UNL d   1       2.029  -5.999  -5.996  0.00  0.00     0.077 C 
ATOM      2  C1  UNL d   1       3.213  -6.000  -5.075  0.00  0.00    -0.074 A 
ATOM      3  C2  UNL d   1       4.517  -5.987  -5.580  0.00  0.00    -0.005 A 
ATOM      4  C3  UNL d   1       5.608  -5.978  -4.711  0.00  0.00     0.006 A 
ATOM      5  C4  UNL d   1       5.406  -5.983  -3.330  0.00  0.00    -0.005 A 
ATOM      6  C5  UNL d   1       4.109  -5.995  -2.807  0.00  0.00    -0.074 A 
ATOM      7  C6  UNL d   1       3.875  -5.991  -1.325  0.00  0.00     0.077 C 
ATOM      8  C7  UNL d   1       3.018  -5.997  -3.687  0.00  0.00    -0.001 A 
ENDROOT
TORSDOF 0
ENDMDL
