MODEL 1
REMARK minimizedAffinity -2.2731607
REMARK minimizedRMSD -1
REMARK  0 active torsions:
REMARK  status: ('A' for Active; 'I' for Inactive)
ROOT
ATOM      1  C   UNL d   1      -2.568  -0.655  -1.330  0.00  0.00     0.078 C 
ATOM      2  C1  UNL d   1      -1.174  -0.306  -0.899  0.00  0.00    -0.077 A 
ATOM      3  C2  UNL d   1      -0.234   0.175  -1.819  0.00  0.00    -0.001 A 
ATOM      4  C3  UNL d   1       1.062   0.487  -1.406  0.00  0.00     0.003 A 
ATOM      5  C4  UNL d   1       1.430   0.320  -0.072  0.00  0.00    -0.005 A 
ATOM      6  C5  UNL d   1       0.502  -0.160   0.850  0.00  0.00     0.003 A 
ATOM      7  C6  UNL d   1      -0.794  -0.472   0.439  0.00  0.00    -0.001 A 
ENDROOT
TORSDOF 0
ENDMDL
