MODEL 1
REMARK minimizedAffinity -4.32305431
REMARK minimizedRMSD -1
REMARK  0 active torsions:
REMARK  status: ('A' for Active; 'I' for Inactive)
ROOT
ATOM      1  C   UNL d   1       1.484   0.753  -0.152  0.00  0.00     0.078 C 
ATOM      2  C1  UNL d   1       0.133   0.157  -0.411  0.00  0.00    -0.077 A 
ATOM      3  C2  UNL d   1      -0.704   0.674  -1.408  0.00  0.00    -0.001 A 
ATOM      4  C3  UNL d   1      -1.963   0.114  -1.632  0.00  0.00     0.003 A 
ATOM      5  C4  UNL d   1      -2.397  -0.964  -0.863  0.00  0.00    -0.005 A 
ATOM      6  C5  UNL d   1      -1.571  -1.484   0.132  0.00  0.00     0.003 A 
ATOM      7  C6  UNL d   1      -0.312  -0.926   0.358  0.00  0.00    -0.001 A 
ENDROOT
TORSDOF 0
ENDMDL
