MODEL 1
REMARK minimizedAffinity -2.14836383
REMARK minimizedRMSD -1
REMARK  0 active torsions:
REMARK  status: ('A' for Active; 'I' for Inactive)
ROOT
ATOM      1  C   UNL d   1      -2.971  -1.481  -0.614  0.00  0.00     0.078 C 
ATOM      2  C1  UNL d   1      -1.576  -0.969  -0.414  0.00  0.00    -0.077 A 
ATOM      3  C2  UNL d   1      -1.040   0.013  -1.257  0.00  0.00    -0.001 A 
ATOM      4  C3  UNL d   1       0.264   0.473  -1.065  0.00  0.00     0.003 A 
ATOM      5  C4  UNL d   1       1.043  -0.042  -0.031  0.00  0.00    -0.005 A 
ATOM      6  C5  UNL d   1       0.519  -1.021   0.812  0.00  0.00     0.003 A 
ATOM      7  C6  UNL d   1      -0.784  -1.483   0.621  0.00  0.00    -0.001 A 
ENDROOT
TORSDOF 0
ENDMDL
