MODEL 1
REMARK minimizedAffinity -3.1931777
REMARK minimizedRMSD -1
REMARK  0 active torsions:
REMARK  status: ('A' for Active; 'I' for Inactive)
ROOT
ATOM      1  C   UNL d   1      -0.212   1.005  -2.627  0.00  0.00     0.078 C 
ATOM      2  C1  UNL d   1      -0.606   0.164  -1.450  0.00  0.00    -0.077 A 
ATOM      3  C2  UNL d   1      -1.873  -0.430  -1.379  0.00  0.00    -0.001 A 
ATOM      4  C3  UNL d   1      -2.229  -1.203  -0.273  0.00  0.00     0.003 A 
ATOM      5  C4  UNL d   1      -1.326  -1.388   0.772  0.00  0.00    -0.005 A 
ATOM      6  C5  UNL d   1      -0.065  -0.800   0.711  0.00  0.00     0.003 A 
ATOM      7  C6  UNL d   1       0.294  -0.027  -0.394  0.00  0.00    -0.001 A 
ENDROOT
TORSDOF 0
ENDMDL
