MODEL 1
REMARK minimizedAffinity -1.70274699
REMARK minimizedRMSD -1
REMARK  0 active torsions:
REMARK  status: ('A' for Active; 'I' for Inactive)
ROOT
ATOM      1  C   UNL d   1      -0.319  -2.531   1.706  0.00  0.00     0.078 C 
ATOM      2  C1  UNL d   1      -0.234  -1.367   0.764  0.00  0.00    -0.077 A 
ATOM      3  C2  UNL d   1      -1.254  -1.110  -0.160  0.00  0.00    -0.001 A 
ATOM      4  C3  UNL d   1      -1.157  -0.029  -1.036  0.00  0.00     0.003 A 
ATOM      5  C4  UNL d   1      -0.041   0.804  -0.999  0.00  0.00    -0.005 A 
ATOM      6  C5  UNL d   1       0.981   0.555  -0.085  0.00  0.00     0.003 A 
ATOM      7  C6  UNL d   1       0.886  -0.526   0.793  0.00  0.00    -0.001 A 
ENDROOT
TORSDOF 0
ENDMDL
