MODEL 1
REMARK minimizedAffinity -3.27928448
REMARK minimizedRMSD -1
REMARK  0 active torsions:
REMARK  status: ('A' for Active; 'I' for Inactive)
ROOT
ATOM      1  C   UNL d   1       0.473   0.024  -0.645  0.00  0.00     0.078 C 
ATOM      2  C1  UNL d   1       1.274   0.583   0.493  0.00  0.00    -0.077 A 
ATOM      3  C2  UNL d   1       1.670   1.926   0.505  0.00  0.00    -0.001 A 
ATOM      4  C3  UNL d   1       2.424   2.430   1.566  0.00  0.00     0.003 A 
ATOM      5  C4  UNL d   1       2.789   1.598   2.622  0.00  0.00    -0.005 A 
ATOM      6  C5  UNL d   1       2.402   0.259   2.618  0.00  0.00     0.003 A 
ATOM      7  C6  UNL d   1       1.648  -0.247   1.558  0.00  0.00    -0.001 A 
ENDROOT
TORSDOF 0
ENDMDL
