MODEL 1
REMARK minimizedAffinity -2.97519946
REMARK minimizedRMSD -1
REMARK  0 active torsions:
REMARK  status: ('A' for Active; 'I' for Inactive)
ROOT
ATOM      1  C   UNL d   1       2.921   1.499   0.135  0.00  0.00     0.078 C 
ATOM      2  C1  UNL d   1       1.849   0.490   0.423  0.00  0.00    -0.077 A 
ATOM      3  C2  UNL d   1       0.551   0.655  -0.075  0.00  0.00    -0.001 A 
ATOM      4  C3  UNL d   1      -0.439  -0.287   0.209  0.00  0.00     0.003 A 
ATOM      5  C4  UNL d   1      -0.141  -1.400   0.993  0.00  0.00    -0.005 A 
ATOM      6  C5  UNL d   1       1.148  -1.571   1.495  0.00  0.00     0.003 A 
ATOM      7  C6  UNL d   1       2.139  -0.630   1.212  0.00  0.00    -0.001 A 
ENDROOT
TORSDOF 0
ENDMDL
