MODEL 1
REMARK minimizedAffinity -2.56695938
REMARK minimizedRMSD -1
REMARK  0 active torsions:
REMARK  status: ('A' for Active; 'I' for Inactive)
ROOT
ATOM      1  C   UNL d   1       0.360  -0.243   0.583  0.00  0.00     0.078 C 
ATOM      2  C1  UNL d   1       1.422   0.808   0.715  0.00  0.00    -0.077 A 
ATOM      3  C2  UNL d   1       1.352   1.782   1.718  0.00  0.00    -0.001 A 
ATOM      4  C3  UNL d   1       2.342   2.760   1.823  0.00  0.00     0.003 A 
ATOM      5  C4  UNL d   1       3.409   2.774   0.927  0.00  0.00    -0.005 A 
ATOM      6  C5  UNL d   1       3.486   1.810  -0.076  0.00  0.00     0.003 A 
ATOM      7  C6  UNL d   1       2.497   0.831  -0.182  0.00  0.00    -0.001 A 
ENDROOT
TORSDOF 0
ENDMDL
