MODEL 1
REMARK minimizedAffinity 8.28238773
REMARK minimizedRMSD -1
REMARK  0 active torsions:
REMARK  status: ('A' for Active; 'I' for Inactive)
ROOT
ATOM      1  C   UNL d   1       3.947   3.904   0.627  0.00  0.00     0.078 C 
ATOM      2  C1  UNL d   1       3.498   2.794   1.530  0.00  0.00    -0.077 A 
ATOM      3  C2  UNL d   1       4.424   2.036   2.256  0.00  0.00    -0.001 A 
ATOM      4  C3  UNL d   1       3.993   0.999   3.085  0.00  0.00     0.003 A 
ATOM      5  C4  UNL d   1       2.634   0.711   3.196  0.00  0.00    -0.005 A 
ATOM      6  C5  UNL d   1       1.705   1.459   2.477  0.00  0.00     0.003 A 
ATOM      7  C6  UNL d   1       2.134   2.496   1.647  0.00  0.00    -0.001 A 
ENDROOT
TORSDOF 0
ENDMDL
