MODEL 1
REMARK minimizedAffinity 1.09069264
REMARK minimizedRMSD -1
REMARK  0 active torsions:
REMARK  status: ('A' for Active; 'I' for Inactive)
ROOT
ATOM      1  C   UNL d   1      -1.228  -2.376   1.995  0.00  0.00     0.078 C 
ATOM      2  C1  UNL d   1      -1.561  -1.644   0.729  0.00  0.00    -0.077 A 
ATOM      3  C2  UNL d   1      -2.856  -1.677   0.197  0.00  0.00    -0.001 A 
ATOM      4  C3  UNL d   1      -3.150  -0.999  -0.987  0.00  0.00     0.003 A 
ATOM      5  C4  UNL d   1      -2.154  -0.285  -1.650  0.00  0.00    -0.005 A 
ATOM      6  C5  UNL d   1      -0.862  -0.248  -1.129  0.00  0.00     0.003 A 
ATOM      7  C6  UNL d   1      -0.566  -0.925   0.055  0.00  0.00    -0.001 A 
ENDROOT
TORSDOF 0
ENDMDL
