MODEL 1
REMARK minimizedAffinity -3.09619427
REMARK minimizedRMSD -1
REMARK  0 active torsions:
REMARK  status: ('A' for Active; 'I' for Inactive)
ROOT
ATOM      1  C   UNL d   1       1.737   1.275   0.357  0.00  0.00     0.078 C 
ATOM      2  C1  UNL d   1       0.526   0.514  -0.093  0.00  0.00    -0.077 A 
ATOM      3  C2  UNL d   1       0.181  -0.708   0.497  0.00  0.00    -0.001 A 
ATOM      4  C3  UNL d   1      -0.943  -1.411   0.061  0.00  0.00     0.003 A 
ATOM      5  C4  UNL d   1      -1.732  -0.899  -0.968  0.00  0.00    -0.005 A 
ATOM      6  C5  UNL d   1      -1.396   0.315  -1.562  0.00  0.00     0.003 A 
ATOM      7  C6  UNL d   1      -0.272   1.019  -1.128  0.00  0.00    -0.001 A 
ENDROOT
TORSDOF 0
ENDMDL
