MODEL 1
REMARK minimizedAffinity -4.05536652
REMARK minimizedRMSD -1
REMARK  0 active torsions:
REMARK  status: ('A' for Active; 'I' for Inactive)
ROOT
ATOM      1  C   UNL d   1       1.290   0.730   0.356  0.00  0.00     0.078 C 
ATOM      2  C1  UNL d   1       0.037   0.145  -0.224  0.00  0.00    -0.077 A 
ATOM      3  C2  UNL d   1      -0.431  -1.108   0.189  0.00  0.00    -0.001 A 
ATOM      4  C3  UNL d   1      -1.594  -1.645  -0.367  0.00  0.00     0.003 A 
ATOM      5  C4  UNL d   1      -2.297  -0.936  -1.339  0.00  0.00    -0.005 A 
ATOM      6  C5  UNL d   1      -1.837   0.311  -1.758  0.00  0.00     0.003 A 
ATOM      7  C6  UNL d   1      -0.674   0.849  -1.203  0.00  0.00    -0.001 A 
ENDROOT
TORSDOF 0
ENDMDL
