MODEL 1
REMARK minimizedAffinity -3.29823685
REMARK minimizedRMSD -1
REMARK  0 active torsions:
REMARK  status: ('A' for Active; 'I' for Inactive)
ROOT
ATOM      1  C   UNL d   1       0.718  -0.366  -0.416  0.00  0.00     0.078 C 
ATOM      2  C1  UNL d   1       1.540   0.818  -0.003  0.00  0.00    -0.077 A 
ATOM      3  C2  UNL d   1       1.240   1.533   1.163  0.00  0.00    -0.001 A 
ATOM      4  C3  UNL d   1       2.008   2.639   1.530  0.00  0.00     0.003 A 
ATOM      5  C4  UNL d   1       3.080   3.041   0.736  0.00  0.00    -0.005 A 
ATOM      6  C5  UNL d   1       3.384   2.338  -0.427  0.00  0.00     0.003 A 
ATOM      7  C6  UNL d   1       2.618   1.231  -0.796  0.00  0.00    -0.001 A 
ENDROOT
TORSDOF 0
ENDMDL
