MODEL 1
REMARK minimizedAffinity -1.79589117
REMARK minimizedRMSD -1
REMARK  0 active torsions:
REMARK  status: ('A' for Active; 'I' for Inactive)
ROOT
ATOM      1  C   UNL d   1      -2.892  -1.249  -0.702  0.00  0.00     0.078 C 
ATOM      2  C1  UNL d   1      -1.524  -0.912  -0.186  0.00  0.00    -0.077 A 
ATOM      3  C2  UNL d   1      -0.753   0.089  -0.789  0.00  0.00    -0.001 A 
ATOM      4  C3  UNL d   1       0.522   0.385  -0.305  0.00  0.00     0.003 A 
ATOM      5  C4  UNL d   1       1.038  -0.316   0.783  0.00  0.00    -0.005 A 
ATOM      6  C5  UNL d   1       0.279  -1.316   1.388  0.00  0.00     0.003 A 
ATOM      7  C6  UNL d   1      -0.997  -1.614   0.905  0.00  0.00    -0.001 A 
ENDROOT
TORSDOF 0
ENDMDL
