MODEL 1
REMARK minimizedAffinity -2.62772417
REMARK minimizedRMSD -1
REMARK  0 active torsions:
REMARK  status: ('A' for Active; 'I' for Inactive)
ROOT
ATOM      1  C   UNL d   1       1.202   0.489   0.033  0.00  0.00     0.078 C 
ATOM      2  C1  UNL d   1      -0.108  -0.154  -0.311  0.00  0.00    -0.077 A 
ATOM      3  C2  UNL d   1      -0.477  -1.384   0.247  0.00  0.00    -0.001 A 
ATOM      4  C3  UNL d   1      -1.695  -1.976  -0.090  0.00  0.00     0.003 A 
ATOM      5  C4  UNL d   1      -2.554  -1.345  -0.988  0.00  0.00    -0.005 A 
ATOM      6  C5  UNL d   1      -2.196  -0.122  -1.550  0.00  0.00     0.003 A 
ATOM      7  C6  UNL d   1      -0.978   0.471  -1.214  0.00  0.00    -0.001 A 
ENDROOT
TORSDOF 0
ENDMDL
