MODEL 1
REMARK minimizedAffinity -4.31574011
REMARK minimizedRMSD -1
REMARK  0 active torsions:
REMARK  status: ('A' for Active; 'I' for Inactive)
ROOT
ATOM      1  C   UNL d   1       1.433  -0.244   0.582  0.00  0.00     0.078 C 
ATOM      2  C1  UNL d   1       1.773   1.212   0.696  0.00  0.00    -0.077 A 
ATOM      3  C2  UNL d   1       1.106   2.039   1.609  0.00  0.00    -0.001 A 
ATOM      4  C3  UNL d   1       1.427   3.395   1.697  0.00  0.00     0.003 A 
ATOM      5  C4  UNL d   1       2.413   3.936   0.875  0.00  0.00    -0.005 A 
ATOM      6  C5  UNL d   1       3.080   3.121  -0.037  0.00  0.00     0.003 A 
ATOM      7  C6  UNL d   1       2.761   1.765  -0.128  0.00  0.00    -0.001 A 
ENDROOT
TORSDOF 0
ENDMDL
