MODEL 1
REMARK minimizedAffinity -4.11851883
REMARK minimizedRMSD -1
REMARK  0 active torsions:
REMARK  status: ('A' for Active; 'I' for Inactive)
ROOT
ATOM      1  C   UNL d   1       1.143   0.414   0.362  0.00  0.00     0.078 C 
ATOM      2  C1  UNL d   1      -0.193  -0.041  -0.145  0.00  0.00    -0.077 A 
ATOM      3  C2  UNL d   1      -0.793  -1.207   0.346  0.00  0.00    -0.001 A 
ATOM      4  C3  UNL d   1      -2.032  -1.624  -0.143  0.00  0.00     0.003 A 
ATOM      5  C4  UNL d   1      -2.682  -0.880  -1.126  0.00  0.00    -0.005 A 
ATOM      6  C5  UNL d   1      -2.093   0.281  -1.622  0.00  0.00     0.003 A 
ATOM      7  C6  UNL d   1      -0.853   0.699  -1.134  0.00  0.00    -0.001 A 
ENDROOT
TORSDOF 0
ENDMDL
