MODEL 1
REMARK minimizedAffinity -3.29206491
REMARK minimizedRMSD -1
REMARK  0 active torsions:
REMARK  status: ('A' for Active; 'I' for Inactive)
ROOT
ATOM      1  C   UNL d   1      -1.712  -0.551  -1.128  0.00  0.00     0.078 C 
ATOM      2  C1  UNL d   1      -0.544   0.147  -0.498  0.00  0.00    -0.077 A 
ATOM      3  C2  UNL d   1       0.756  -0.357  -0.634  0.00  0.00    -0.001 A 
ATOM      4  C3  UNL d   1       1.833   0.297  -0.034  0.00  0.00     0.003 A 
ATOM      5  C4  UNL d   1       1.621   1.458   0.708  0.00  0.00    -0.005 A 
ATOM      6  C5  UNL d   1       0.332   1.965   0.851  0.00  0.00     0.003 A 
ATOM      7  C6  UNL d   1      -0.747   1.312   0.251  0.00  0.00    -0.001 A 
ENDROOT
TORSDOF 0
ENDMDL
