MODEL 1
REMARK minimizedAffinity -1.41736794
REMARK minimizedRMSD -1
REMARK  0 active torsions:
REMARK  status: ('A' for Active; 'I' for Inactive)
ROOT
ATOM      1  C   UNL d   1       0.311   0.366  -0.042  0.00  0.00     0.078 C 
ATOM      2  C1  UNL d   1       1.301   1.338   0.526  0.00  0.00    -0.077 A 
ATOM      3  C2  UNL d   1       0.968   2.154   1.614  0.00  0.00    -0.001 A 
ATOM      4  C3  UNL d   1       1.897   3.062   2.126  0.00  0.00     0.003 A 
ATOM      5  C4  UNL d   1       3.164   3.163   1.556  0.00  0.00    -0.005 A 
ATOM      6  C5  UNL d   1       3.504   2.357   0.471  0.00  0.00     0.003 A 
ATOM      7  C6  UNL d   1       2.576   1.449  -0.042  0.00  0.00    -0.001 A 
ENDROOT
TORSDOF 0
ENDMDL
