MODEL 1
REMARK minimizedAffinity 17.4777412
REMARK minimizedRMSD -1
REMARK  0 active torsions:
REMARK  status: ('A' for Active; 'I' for Inactive)
ROOT
ATOM      1  C   UNL d   1       4.603   1.554   1.876  0.00  0.00    -0.002 A 
ATOM      2  C1  UNL d   1       4.137   2.152   0.714  0.00  0.00     0.010 A 
ATOM      3  C2  UNL d   1       3.900   3.527   0.669  0.00  0.00     0.041 A 
ATOM      4  C3  UNL d   1       4.144   4.299   1.822  0.00  0.00    -0.075 A 
ATOM      5  S   UNL d   1       3.926   6.000   1.999  0.00  0.00     0.015 SA
ATOM      6  C4  UNL d   1       4.448   5.973   3.621  0.00  0.00     0.022 A 
ATOM      7  C5  UNL d   1       4.784   4.705   4.034  0.00  0.00     0.026 A 
ATOM      8  C6  UNL d   1       4.615   3.720   3.004  0.00  0.00    -0.082 A 
ATOM      9  C7  UNL d   1       4.844   2.323   3.018  0.00  0.00     0.045 A 
ENDROOT
TORSDOF 0
ENDMDL
