MODEL 1
REMARK minimizedAffinity 14.9912405
REMARK minimizedRMSD -1
REMARK  0 active torsions:
REMARK  status: ('A' for Active; 'I' for Inactive)
ROOT
ATOM      1  C   UNL d   1       4.794   5.952   1.569  0.00  0.00    -0.002 A 
ATOM      2  C1  UNL d   1       5.687   5.967   2.631  0.00  0.00     0.010 A 
ATOM      3  C2  UNL d   1       5.989   4.792   3.322  0.00  0.00     0.041 A 
ATOM      4  C3  UNL d   1       5.374   3.589   2.923  0.00  0.00    -0.075 A 
ATOM      5  S   UNL d   1       5.592   2.028   3.621  0.00  0.00     0.015 SA
ATOM      6  C4  UNL d   1       4.506   1.304   2.525  0.00  0.00     0.022 A 
ATOM      7  C5  UNL d   1       3.980   2.216   1.641  0.00  0.00     0.026 A 
ATOM      8  C6  UNL d   1       4.472   3.548   1.855  0.00  0.00    -0.082 A 
ATOM      9  C7  UNL d   1       4.186   4.757   1.175  0.00  0.00     0.045 A 
ENDROOT
TORSDOF 0
ENDMDL
