MODEL 1
REMARK minimizedAffinity 21.5524902
REMARK minimizedRMSD -1
REMARK  0 active torsions:
REMARK  status: ('A' for Active; 'I' for Inactive)
ROOT
ATOM      1  C   UNL d   1       1.219  -0.325   2.943  0.00  0.00    -0.002 A 
ATOM      2  C1  UNL d   1       1.151  -1.543   3.605  0.00  0.00     0.010 A 
ATOM      3  C2  UNL d   1      -0.062  -2.225   3.714  0.00  0.00     0.041 A 
ATOM      4  C3  UNL d   1      -1.217  -1.657   3.140  0.00  0.00    -0.075 A 
ATOM      5  S   UNL d   1      -2.812  -2.313   3.149  0.00  0.00     0.015 SA
ATOM      6  C4  UNL d   1      -3.440  -0.992   2.274  0.00  0.00     0.022 A 
ATOM      7  C5  UNL d   1      -2.471  -0.064   1.975  0.00  0.00     0.026 A 
ATOM      8  C6  UNL d   1      -1.174  -0.432   2.469  0.00  0.00    -0.082 A 
ATOM      9  C7  UNL d   1       0.072   0.235   2.376  0.00  0.00     0.045 A 
ENDROOT
TORSDOF 0
ENDMDL
