MODEL 1
REMARK minimizedAffinity 14.3104677
REMARK minimizedRMSD -1
REMARK  0 active torsions:
REMARK  status: ('A' for Active; 'I' for Inactive)
ROOT
ATOM      1  C   UNL d   1       0.435  -1.481   2.141  0.00  0.00    -0.002 A 
ATOM      2  C1  UNL d   1       1.338  -1.587   3.189  0.00  0.00     0.010 A 
ATOM      3  C2  UNL d   1       1.483  -0.548   4.110  0.00  0.00     0.041 A 
ATOM      4  C3  UNL d   1       0.696   0.611   3.960  0.00  0.00    -0.075 A 
ATOM      5  S   UNL d   1       0.702   2.010   4.967  0.00  0.00     0.015 SA
ATOM      6  C4  UNL d   1      -0.495   2.781   4.031  0.00  0.00     0.022 A 
ATOM      7  C5  UNL d   1      -0.901   2.005   2.972  0.00  0.00     0.026 A 
ATOM      8  C6  UNL d   1      -0.222   0.741   2.913  0.00  0.00    -0.082 A 
ATOM      9  C7  UNL d   1      -0.345  -0.330   1.995  0.00  0.00     0.045 A 
ENDROOT
TORSDOF 0
ENDMDL
