MODEL 1
REMARK minimizedAffinity -3.18646955
REMARK minimizedRMSD -1
REMARK  1 active torsions:
REMARK  status: ('A' for Active; 'I' for Inactive)
REMARK    1  A    between atoms: C1_2  and  C2_3 
ROOT
ATOM      1  C2  UNL d   1      -1.648   0.215   1.943  0.00  0.00    -0.073 A 
ATOM      2  C3  UNL d   1      -0.857   1.098   2.687  0.00  0.00    -0.002 A 
ATOM      3  C4  UNL d   1       0.397   1.488   2.217  0.00  0.00     0.004 A 
ATOM      4  C5  UNL d   1       0.871   1.005   0.997  0.00  0.00    -0.004 A 
ATOM      5  C6  UNL d   1       0.091   0.131   0.234  0.00  0.00    -0.075 A 
ATOM      6  C7  UNL d   1       0.587  -0.400  -1.079  0.00  0.00     0.076 C 
ATOM      7  C8  UNL d   1      -1.167  -0.258   0.714  0.00  0.00     0.001 A 
ENDROOT
BRANCH   1   8
ATOM      8  C1  UNL d   1      -3.006  -0.204   2.444  0.00  0.00     0.053 C 
ATOM      9  C   UNL d   1      -2.913  -1.295   3.498  0.00  0.00     0.018 C 
ENDBRANCH   1   8
TORSDOF 1
ENDMDL
