MODEL 1
REMARK minimizedAffinity 1.80042243
REMARK minimizedRMSD -1
REMARK  1 active torsions:
REMARK  status: ('A' for Active; 'I' for Inactive)
REMARK    1  A    between atoms: N_2  and  C1_3 
ROOT
ATOM      1  C1  UNL d   1       5.068   4.912  -4.517  0.00  0.00     0.143 A 
ATOM      2  C2  UNL d   1       3.914   5.598  -4.126  0.00  0.00    -0.057 A 
ATOM      3  C3  UNL d   1       3.717   5.991  -2.797  0.00  0.00     0.033 A 
ATOM      4  C4  UNL d   1       4.662   5.678  -1.826  0.00  0.00    -0.042 A 
ATOM      5  C5  UNL d   1       5.806   4.974  -2.186  0.00  0.00     0.033 A 
ATOM      6  C6  UNL d   1       6.000   4.590  -3.517  0.00  0.00    -0.057 A 
ENDROOT
BRANCH   1   7
ATOM      7  N   UNL d   1       5.276   4.408  -5.803  0.00  0.00    -0.732 N 
ATOM      8  C   UNL d   1       5.942   3.138  -5.998  0.00  0.00     0.284 C 
ATOM      9  H3  UNL d   1       4.475   4.555  -6.412  0.00  0.00     0.395 HD
ENDBRANCH   1   7
TORSDOF 1
ENDMDL
