MODEL 1
REMARK minimizedAffinity 3.50681019
REMARK minimizedRMSD -1
REMARK  1 active torsions:
REMARK  status: ('A' for Active; 'I' for Inactive)
REMARK    1  A    between atoms: N_2  and  C1_3 
ROOT
ATOM      1  C1  UNL d   1       5.415   5.334  -2.867  0.00  0.00     0.143 A 
ATOM      2  C2  UNL d   1       5.887   4.122  -3.382  0.00  0.00    -0.057 A 
ATOM      3  C3  UNL d   1       5.200   3.450  -4.401  0.00  0.00     0.033 A 
ATOM      4  C4  UNL d   1       4.010   3.967  -4.904  0.00  0.00    -0.042 A 
ATOM      5  C5  UNL d   1       3.510   5.157  -4.389  0.00  0.00     0.033 A 
ATOM      6  C6  UNL d   1       4.204   5.827  -3.376  0.00  0.00    -0.057 A 
ENDROOT
BRANCH   1   7
ATOM      7  N   UNL d   1       6.000   6.000  -1.786  0.00  0.00    -0.732 N 
ATOM      8  C   UNL d   1       5.996   5.407  -0.466  0.00  0.00     0.284 C 
ATOM      9  H3  UNL d   1       6.876   6.452  -2.037  0.00  0.00     0.395 HD
ENDBRANCH   1   7
TORSDOF 1
ENDMDL
