MODEL 1
REMARK minimizedAffinity 3.99327588
REMARK minimizedRMSD -1
REMARK  1 active torsions:
REMARK  status: ('A' for Active; 'I' for Inactive)
REMARK    1  A    between atoms: N_2  and  C1_3 
ROOT
ATOM      1  C1  UNL d   1       4.282  -3.283   5.232  0.00  0.00     0.143 A 
ATOM      2  C2  UNL d   1       4.090  -3.357   3.848  0.00  0.00    -0.057 A 
ATOM      3  C3  UNL d   1       3.454  -2.326   3.146  0.00  0.00     0.033 A 
ATOM      4  C4  UNL d   1       2.971  -1.211   3.823  0.00  0.00    -0.042 A 
ATOM      5  C5  UNL d   1       3.128  -1.127   5.202  0.00  0.00     0.033 A 
ATOM      6  C6  UNL d   1       3.770  -2.157   5.896  0.00  0.00    -0.057 A 
ENDROOT
BRANCH   1   7
ATOM      7  N   UNL d   1       4.819  -4.319   6.000  0.00  0.00    -0.732 N 
ATOM      8  C   UNL d   1       4.206  -5.630   6.000  0.00  0.00     0.284 C 
ATOM      9  H3  UNL d   1       5.836  -4.335   5.974  0.00  0.00     0.395 HD
ENDBRANCH   1   7
TORSDOF 1
ENDMDL
