MODEL 1
REMARK minimizedAffinity -1.62332857
REMARK minimizedRMSD -1
REMARK  1 active torsions:
REMARK  status: ('A' for Active; 'I' for Inactive)
REMARK    1  A    between atoms: N_2  and  C1_3 
ROOT
ATOM      1  C1  UNL d   1       4.816  -3.666   5.516  0.00  0.00     0.143 A 
ATOM      2  C2  UNL d   1       5.900  -2.865   5.891  0.00  0.00    -0.057 A 
ATOM      3  C3  UNL d   1       5.775  -1.474   5.992  0.00  0.00     0.033 A 
ATOM      4  C4  UNL d   1       4.566  -0.855   5.691  0.00  0.00    -0.042 A 
ATOM      5  C5  UNL d   1       3.482  -1.629   5.293  0.00  0.00     0.033 A 
ATOM      6  C6  UNL d   1       3.612  -3.018   5.199  0.00  0.00    -0.057 A 
ENDROOT
BRANCH   1   7
ATOM      7  N   UNL d   1       4.904  -5.044   5.301  0.00  0.00    -0.732 N 
ATOM      8  C   UNL d   1       5.999  -5.808   5.859  0.00  0.00     0.284 C 
ATOM      9  H3  UNL d   1       3.999  -5.505   5.366  0.00  0.00     0.395 HD
ENDBRANCH   1   7
TORSDOF 1
ENDMDL
