MODEL 1
REMARK minimizedAffinity 5.72852612
REMARK minimizedRMSD -1
REMARK  1 active torsions:
REMARK  status: ('A' for Active; 'I' for Inactive)
REMARK    1  A    between atoms: N_2  and  C1_3 
ROOT
ATOM      1  C1  UNL d   1      -0.057  -2.554  -2.298  0.00  0.00     0.143 A 
ATOM      2  C2  UNL d   1      -1.181  -3.273  -2.720  0.00  0.00    -0.057 A 
ATOM      3  C3  UNL d   1      -1.067  -4.332  -3.629  0.00  0.00     0.033 A 
ATOM      4  C4  UNL d   1       0.174  -4.673  -4.156  0.00  0.00    -0.042 A 
ATOM      5  C5  UNL d   1       1.302  -3.956  -3.770  0.00  0.00     0.033 A 
ATOM      6  C6  UNL d   1       1.182  -2.904  -2.857  0.00  0.00    -0.057 A 
ENDROOT
BRANCH   1   7
ATOM      7  N   UNL d   1      -0.118  -1.429  -1.473  0.00  0.00    -0.732 N 
ATOM      8  C   UNL d   1      -0.501  -1.553  -0.083  0.00  0.00     0.284 C 
ATOM      9  H3  UNL d   1       0.653  -0.785  -1.636  0.00  0.00     0.395 HD
ENDBRANCH   1   7
TORSDOF 1
ENDMDL
