MODEL 1
REMARK minimizedAffinity 1.17905021
REMARK minimizedRMSD -1
REMARK  1 active torsions:
REMARK  status: ('A' for Active; 'I' for Inactive)
REMARK    1  A    between atoms: N_2  and  C1_3 
ROOT
ATOM      1  C1  UNL d   1       0.057  -3.326  -3.649  0.00  0.00     0.143 A 
ATOM      2  C2  UNL d   1       0.482  -3.952  -2.472  0.00  0.00    -0.057 A 
ATOM      3  C3  UNL d   1       0.136  -5.279  -2.190  0.00  0.00     0.033 A 
ATOM      4  C4  UNL d   1      -0.668  -5.996  -3.069  0.00  0.00    -0.042 A 
ATOM      5  C5  UNL d   1      -1.122  -5.387  -4.233  0.00  0.00     0.033 A 
ATOM      6  C6  UNL d   1      -0.768  -4.063  -4.513  0.00  0.00    -0.057 A 
ENDROOT
BRANCH   1   7
ATOM      7  N   UNL d   1       0.286  -1.979  -3.940  0.00  0.00    -0.732 N 
ATOM      8  C   UNL d   1       0.683  -1.569  -5.270  0.00  0.00     0.284 C 
ATOM      9  H3  UNL d   1      -0.399  -1.366  -3.503  0.00  0.00     0.395 HD
ENDBRANCH   1   7
TORSDOF 1
ENDMDL
