MODEL 1
REMARK minimizedAffinity 2.29510713
REMARK minimizedRMSD -1
REMARK  1 active torsions:
REMARK  status: ('A' for Active; 'I' for Inactive)
REMARK    1  A    between atoms: N_2  and  C1_3 
ROOT
ATOM      1  C1  UNL d   1       5.663   4.678  -2.864  0.00  0.00     0.143 A 
ATOM      2  C2  UNL d   1       4.891   3.671  -3.453  0.00  0.00    -0.057 A 
ATOM      3  C3  UNL d   1       4.510   3.741  -4.798  0.00  0.00     0.033 A 
ATOM      4  C4  UNL d   1       4.871   4.839  -5.573  0.00  0.00    -0.042 A 
ATOM      5  C5  UNL d   1       5.616   5.864  -5.001  0.00  0.00     0.033 A 
ATOM      6  C6  UNL d   1       5.999   5.785  -3.659  0.00  0.00    -0.057 A 
ENDROOT
BRANCH   1   7
ATOM      7  N   UNL d   1       5.990   4.713  -1.506  0.00  0.00    -0.732 N 
ATOM      8  C   UNL d   1       5.999   5.967  -0.782  0.00  0.00     0.284 C 
ATOM      9  H3  UNL d   1       5.583   3.937  -0.988  0.00  0.00     0.395 HD
ENDBRANCH   1   7
TORSDOF 1
ENDMDL
