MODEL 1
REMARK minimizedAffinity -2.02740812
REMARK minimizedRMSD -1
REMARK  1 active torsions:
REMARK  status: ('A' for Active; 'I' for Inactive)
REMARK    1  A    between atoms: N_2  and  C1_3 
ROOT
ATOM      1  C1  UNL d   1       5.273  -2.247   3.221  0.00  0.00     0.143 A 
ATOM      2  C2  UNL d   1       4.504  -1.206   3.752  0.00  0.00    -0.057 A 
ATOM      3  C3  UNL d   1       4.495  -0.936   5.125  0.00  0.00     0.033 A 
ATOM      4  C4  UNL d   1       5.236  -1.724   6.000  0.00  0.00    -0.042 A 
ATOM      5  C5  UNL d   1       5.989  -2.780   5.498  0.00  0.00     0.033 A 
ATOM      6  C6  UNL d   1       5.999  -3.040   4.124  0.00  0.00    -0.057 A 
ENDROOT
BRANCH   1   7
ATOM      7  N   UNL d   1       5.247  -2.627   1.877  0.00  0.00    -0.732 N 
ATOM      8  C   UNL d   1       4.925  -1.665   0.845  0.00  0.00     0.284 C 
ATOM      9  H3  UNL d   1       6.010  -3.255   1.636  0.00  0.00     0.395 HD
ENDBRANCH   1   7
TORSDOF 1
ENDMDL
