MODEL 1
REMARK minimizedAffinity 1.89773405
REMARK minimizedRMSD -1
REMARK  1 active torsions:
REMARK  status: ('A' for Active; 'I' for Inactive)
REMARK    1  A    between atoms: N_2  and  C1_3 
ROOT
ATOM      1  C1  UNL d   1       1.222  -2.079  -2.417  0.00  0.00     0.143 A 
ATOM      2  C2  UNL d   1       1.120  -1.859  -1.039  0.00  0.00    -0.057 A 
ATOM      3  C3  UNL d   1       0.119  -2.476  -0.279  0.00  0.00     0.033 A 
ATOM      4  C4  UNL d   1      -0.818  -3.302  -0.890  0.00  0.00    -0.042 A 
ATOM      5  C5  UNL d   1      -0.751  -3.515  -2.262  0.00  0.00     0.033 A 
ATOM      6  C6  UNL d   1       0.255  -2.902  -3.016  0.00  0.00    -0.057 A 
ENDROOT
BRANCH   1   7
ATOM      7  N   UNL d   1       2.134  -1.418  -3.244  0.00  0.00    -0.732 N 
ATOM      8  C   UNL d   1       3.559  -1.570  -3.040  0.00  0.00     0.284 C 
ATOM      9  H3  UNL d   1       1.851  -1.428  -4.221  0.00  0.00     0.395 HD
ENDBRANCH   1   7
TORSDOF 1
ENDMDL
