MODEL 1
REMARK minimizedAffinity 1.54225361
REMARK minimizedRMSD -1
REMARK  1 active torsions:
REMARK  status: ('A' for Active; 'I' for Inactive)
REMARK    1  A    between atoms: N_2  and  C1_3 
ROOT
ATOM      1  C1  UNL d   1      -0.488  -2.593  -1.970  0.00  0.00     0.143 A 
ATOM      2  C2  UNL d   1      -1.124  -3.750  -2.432  0.00  0.00    -0.057 A 
ATOM      3  C3  UNL d   1      -0.886  -4.244  -3.721  0.00  0.00     0.033 A 
ATOM      4  C4  UNL d   1      -0.028  -3.570  -4.583  0.00  0.00    -0.042 A 
ATOM      5  C5  UNL d   1       0.596  -2.404  -4.154  0.00  0.00     0.033 A 
ATOM      6  C6  UNL d   1       0.359  -1.919  -2.864  0.00  0.00    -0.057 A 
ENDROOT
BRANCH   1   7
ATOM      7  N   UNL d   1      -0.758  -1.997  -0.736  0.00  0.00    -0.732 N 
ATOM      8  C   UNL d   1      -1.505  -2.709   0.279  0.00  0.00     0.284 C 
ATOM      9  H3  UNL d   1       0.036  -1.473  -0.376  0.00  0.00     0.395 HD
ENDBRANCH   1   7
TORSDOF 1
ENDMDL
