MODEL 1
REMARK minimizedAffinity 5.34294415
REMARK minimizedRMSD -1
REMARK  1 active torsions:
REMARK  status: ('A' for Active; 'I' for Inactive)
REMARK    1  A    between atoms: N_2  and  C1_3 
ROOT
ATOM      1  C1  UNL d   1      -0.436  -2.550  -2.626  0.00  0.00     0.143 A 
ATOM      2  C2  UNL d   1       0.521  -3.384  -2.038  0.00  0.00    -0.057 A 
ATOM      3  C3  UNL d   1       0.474  -3.693  -0.673  0.00  0.00     0.033 A 
ATOM      4  C4  UNL d   1      -0.518  -3.149   0.136  0.00  0.00    -0.042 A 
ATOM      5  C5  UNL d   1      -1.465  -2.298  -0.422  0.00  0.00     0.033 A 
ATOM      6  C6  UNL d   1      -1.417  -1.998  -1.787  0.00  0.00    -0.057 A 
ENDROOT
BRANCH   1   7
ATOM      7  N   UNL d   1      -0.386  -2.126  -3.956  0.00  0.00    -0.732 N 
ATOM      8  C   UNL d   1      -0.500  -3.079  -5.039  0.00  0.00     0.284 C 
ATOM      9  H3  UNL d   1      -0.900  -1.261  -4.107  0.00  0.00     0.395 HD
ENDBRANCH   1   7
TORSDOF 1
ENDMDL
