MODEL 1
REMARK minimizedAffinity -1.87479925
REMARK minimizedRMSD -1
REMARK  1 active torsions:
REMARK  status: ('A' for Active; 'I' for Inactive)
REMARK    1  A    between atoms: N_2  and  C1_3 
ROOT
ATOM      1  C1  UNL d   1       4.770   4.891  -4.670  0.00  0.00     0.143 A 
ATOM      2  C2  UNL d   1       3.587   5.085  -3.948  0.00  0.00    -0.057 A 
ATOM      3  C3  UNL d   1       3.603   5.647  -2.666  0.00  0.00     0.033 A 
ATOM      4  C4  UNL d   1       4.810   5.998  -2.069  0.00  0.00    -0.042 A 
ATOM      5  C5  UNL d   1       6.000   5.791  -2.758  0.00  0.00     0.033 A 
ATOM      6  C6  UNL d   1       5.976   5.236  -4.041  0.00  0.00    -0.057 A 
ENDROOT
BRANCH   1   7
ATOM      7  N   UNL d   1       4.828   4.247  -5.908  0.00  0.00    -0.732 N 
ATOM      8  C   UNL d   1       5.237   2.862  -6.000  0.00  0.00     0.284 C 
ATOM      9  H3  UNL d   1       4.044   4.490  -6.509  0.00  0.00     0.395 HD
ENDBRANCH   1   7
TORSDOF 1
ENDMDL
