MODEL 1
REMARK minimizedAffinity -1.09850812
REMARK minimizedRMSD -1
REMARK  1 active torsions:
REMARK  status: ('A' for Active; 'I' for Inactive)
REMARK    1  A    between atoms: N_2  and  C1_3 
ROOT
ATOM      1  C1  UNL d   1       4.839  -1.888   3.172  0.00  0.00     0.143 A 
ATOM      2  C2  UNL d   1       6.000  -1.672   3.923  0.00  0.00    -0.057 A 
ATOM      3  C3  UNL d   1       5.979  -1.721   5.322  0.00  0.00     0.033 A 
ATOM      4  C4  UNL d   1       4.788  -1.959   5.998  0.00  0.00    -0.042 A 
ATOM      5  C5  UNL d   1       3.617  -2.151   5.274  0.00  0.00     0.033 A 
ATOM      6  C6  UNL d   1       3.644  -2.108   3.877  0.00  0.00    -0.057 A 
ENDROOT
BRANCH   1   7
ATOM      7  N   UNL d   1       4.775  -1.754   1.783  0.00  0.00    -0.732 N 
ATOM      8  C   UNL d   1       5.938  -2.016   0.963  0.00  0.00     0.284 C 
ATOM      9  H3  UNL d   1       3.905  -2.115   1.398  0.00  0.00     0.395 HD
ENDBRANCH   1   7
TORSDOF 1
ENDMDL
