MODEL 1
REMARK minimizedAffinity -2.80923533
REMARK minimizedRMSD -1
REMARK  3 active torsions:
REMARK  status: ('A' for Active; 'I' for Inactive)
REMARK    1  A    between atoms: C3'_2  and  C2'_3 
REMARK    2  A    between atoms: C2'_3  and  C1'_4 
REMARK    3  A    between atoms: C1'_4  and  C1_5 
ROOT
ATOM      1  C1  N4B d   1       0.051  -0.728  -0.227  0.00  0.00    -0.075 A 
ATOM      2  C2  N4B d   1       0.349  -1.658  -1.247  0.00  0.00     0.002 A 
ATOM      3  C3  N4B d   1       1.598  -1.676  -1.817  0.00  0.00     0.002 A 
ATOM      4  C4  N4B d   1       2.555  -0.764  -1.400  0.00  0.00    -0.004 A 
ATOM      5  C5  N4B d   1       2.268   0.115  -0.396  0.00  0.00     0.002 A 
ATOM      6  C6  N4B d   1       1.018   0.141   0.189  0.00  0.00     0.002 A 
ENDROOT
BRANCH   1   7
ATOM      7  C1' N4B d   1      -1.326  -0.614   0.367  0.00  0.00     0.057 C 
BRANCH   7   8
ATOM      8  C2' N4B d   1      -1.389   0.628   1.251  0.00  0.00     0.009 C 
BRANCH   8   9
ATOM      9  C3' N4B d   1      -2.524   0.553   2.258  0.00  0.00     0.004 C 
ATOM     10  C4' N4B d   1      -2.068   0.793   3.666  0.00  0.00     0.003 C 
ENDBRANCH   8   9
ENDBRANCH   7   8
ENDBRANCH   1   7
TORSDOF 3
ENDMDL
