MODEL 1
REMARK minimizedAffinity -4.10342693
REMARK minimizedRMSD -1
REMARK  3 active torsions:
REMARK  status: ('A' for Active; 'I' for Inactive)
REMARK    1  A    between atoms: C3'_2  and  C2'_3 
REMARK    2  A    between atoms: C2'_3  and  C1'_4 
REMARK    3  A    between atoms: C1'_4  and  C1_5 
ROOT
ATOM      1  C1  N4B d   1      -0.102   0.459  -0.323  0.00  0.00    -0.075 A 
ATOM      2  C2  N4B d   1       0.092   1.614  -1.113  0.00  0.00     0.002 A 
ATOM      3  C3  N4B d   1       1.363   2.074  -1.355  0.00  0.00     0.002 A 
ATOM      4  C4  N4B d   1       2.449   1.409  -0.805  0.00  0.00    -0.004 A 
ATOM      5  C5  N4B d   1       2.254   0.280  -0.065  0.00  0.00     0.002 A 
ATOM      6  C6  N4B d   1       0.983  -0.196   0.183  0.00  0.00     0.002 A 
ENDROOT
BRANCH   1   7
ATOM      7  C1' N4B d   1      -1.477  -0.032   0.040  0.00  0.00     0.057 C 
BRANCH   7   8
ATOM      8  C2' N4B d   1      -1.613  -0.062   1.560  0.00  0.00     0.009 C 
BRANCH   8   9
ATOM      9  C3' N4B d   1      -1.820   1.327   2.139  0.00  0.00     0.004 C 
ATOM     10  C4' N4B d   1      -2.549   1.307   3.449  0.00  0.00     0.003 C 
ENDBRANCH   8   9
ENDBRANCH   7   8
ENDBRANCH   1   7
TORSDOF 3
ENDMDL
