MODEL 1
REMARK minimizedAffinity -3.35396957
REMARK minimizedRMSD -1
REMARK  3 active torsions:
REMARK  status: ('A' for Active; 'I' for Inactive)
REMARK    1  A    between atoms: C3'_2  and  C2'_3 
REMARK    2  A    between atoms: C2'_3  and  C1'_4 
REMARK    3  A    between atoms: C1'_4  and  C1_5 
ROOT
ATOM      1  C1  N4B d   1      -0.034  -0.015   0.020  0.00  0.00    -0.075 A 
ATOM      2  C2  N4B d   1       0.286  -0.932   1.045  0.00  0.00     0.002 A 
ATOM      3  C3  N4B d   1       1.438  -1.676   0.966  0.00  0.00     0.002 A 
ATOM      4  C4  N4B d   1       2.273  -1.533  -0.132  0.00  0.00    -0.004 A 
ATOM      5  C5  N4B d   1       1.969  -0.627  -1.106  0.00  0.00     0.002 A 
ATOM      6  C6  N4B d   1       0.817   0.130  -1.038  0.00  0.00     0.002 A 
ENDROOT
BRANCH   1   7
ATOM      7  C1' N4B d   1      -1.325   0.757   0.019  0.00  0.00     0.057 C 
BRANCH   7   8
ATOM      8  C2' N4B d   1      -2.070   0.487   1.323  0.00  0.00     0.009 C 
BRANCH   8   9
ATOM      9  C3' N4B d   1      -1.828   1.577   2.353  0.00  0.00     0.004 C 
ATOM     10  C4' N4B d   1      -1.825   1.057   3.759  0.00  0.00     0.003 C 
ENDBRANCH   8   9
ENDBRANCH   7   8
ENDBRANCH   1   7
TORSDOF 3
ENDMDL
