MODEL 1
REMARK minimizedAffinity -6.373528
REMARK minimizedRMSD -1
REMARK  3 active torsions:
REMARK  status: ('A' for Active; 'I' for Inactive)
REMARK    1  A    between atoms: C3'_2  and  C2'_3 
REMARK    2  A    between atoms: C2'_3  and  C1'_4 
REMARK    3  A    between atoms: C1'_4  and  C1_5 
ROOT
ATOM      1  C1  N4B d   1       0.792   0.374  -0.913  0.00  0.00    -0.075 A 
ATOM      2  C2  N4B d   1       0.858  -1.031  -1.044  0.00  0.00     0.002 A 
ATOM      3  C3  N4B d   1       1.991  -1.621  -1.549  0.00  0.00     0.002 A 
ATOM      4  C4  N4B d   1       3.059  -0.829  -1.944  0.00  0.00    -0.004 A 
ATOM      5  C5  N4B d   1       2.997   0.526  -1.791  0.00  0.00     0.002 A 
ATOM      6  C6  N4B d   1       1.866   1.132  -1.282  0.00  0.00     0.002 A 
ENDROOT
BRANCH   1   7
ATOM      7  C1' N4B d   1      -0.458   1.070  -0.448  0.00  0.00     0.057 C 
BRANCH   7   8
ATOM      8  C2' N4B d   1      -0.995   0.359   0.791  0.00  0.00     0.009 C 
BRANCH   8   9
ATOM      9  C3' N4B d   1      -1.478   1.340   1.845  0.00  0.00     0.004 C 
ATOM     10  C4' N4B d   1      -2.203   0.670   2.973  0.00  0.00     0.003 C 
ENDBRANCH   8   9
ENDBRANCH   7   8
ENDBRANCH   1   7
TORSDOF 3
ENDMDL
