MODEL 1
REMARK minimizedAffinity -1.32011247
REMARK minimizedRMSD -1
REMARK  3 active torsions:
REMARK  status: ('A' for Active; 'I' for Inactive)
REMARK    1  A    between atoms: C3'_2  and  C2'_3 
REMARK    2  A    between atoms: C2'_3  and  C1'_4 
REMARK    3  A    between atoms: C1'_4  and  C1_5 
ROOT
ATOM      1  C1  N4B d   1       0.289  -0.356   0.065  0.00  0.00    -0.075 A 
ATOM      2  C2  N4B d   1       0.504  -1.616  -0.534  0.00  0.00     0.002 A 
ATOM      3  C3  N4B d   1       1.562  -1.797  -1.391  0.00  0.00     0.002 A 
ATOM      4  C4  N4B d   1       2.402  -0.732  -1.678  0.00  0.00    -0.004 A 
ATOM      5  C5  N4B d   1       2.203   0.475  -1.075  0.00  0.00     0.002 A 
ATOM      6  C6  N4B d   1       1.146   0.670  -0.208  0.00  0.00     0.002 A 
ENDROOT
BRANCH   1   7
ATOM      7  C1' N4B d   1      -0.904  -0.086   0.942  0.00  0.00     0.057 C 
BRANCH   7   8
ATOM      8  C2' N4B d   1      -0.631  -0.632   2.340  0.00  0.00     0.009 C 
BRANCH   8   9
ATOM      9  C3' N4B d   1      -1.758  -0.310   3.306  0.00  0.00     0.004 C 
ATOM     10  C4' N4B d   1      -1.898   1.160   3.567  0.00  0.00     0.003 C 
ENDBRANCH   8   9
ENDBRANCH   7   8
ENDBRANCH   1   7
TORSDOF 3
ENDMDL
