MODEL 1
REMARK minimizedAffinity -3.06836462
REMARK minimizedRMSD -1
REMARK  3 active torsions:
REMARK  status: ('A' for Active; 'I' for Inactive)
REMARK    1  A    between atoms: C3'_2  and  C2'_3 
REMARK    2  A    between atoms: C2'_3  and  C1'_4 
REMARK    3  A    between atoms: C1'_4  and  C1_5 
ROOT
ATOM      1  C1  N4B d   1      -1.237   0.578   1.205  0.00  0.00    -0.075 A 
ATOM      2  C2  N4B d   1      -2.248  -0.204   1.805  0.00  0.00     0.002 A 
ATOM      3  C3  N4B d   1      -2.825   0.205   2.982  0.00  0.00     0.002 A 
ATOM      4  C4  N4B d   1      -2.396   1.378   3.585  0.00  0.00    -0.004 A 
ATOM      5  C5  N4B d   1      -1.437   2.141   2.985  0.00  0.00     0.002 A 
ATOM      6  C6  N4B d   1      -0.851   1.744   1.800  0.00  0.00     0.002 A 
ENDROOT
BRANCH   1   7
ATOM      7  C1' N4B d   1      -0.516   0.129  -0.037  0.00  0.00     0.057 C 
BRANCH   7   8
ATOM      8  C2' N4B d   1       0.977   0.028   0.259  0.00  0.00     0.009 C 
BRANCH   8   9
ATOM      9  C3' N4B d   1       1.820   0.591  -0.872  0.00  0.00     0.004 C 
ATOM     10  C4' N4B d   1       2.720  -0.436  -1.492  0.00  0.00     0.003 C 
ENDBRANCH   8   9
ENDBRANCH   7   8
ENDBRANCH   1   7
TORSDOF 3
ENDMDL
