MODEL 1
REMARK minimizedAffinity -4.17809391
REMARK minimizedRMSD -1
REMARK  3 active torsions:
REMARK  status: ('A' for Active; 'I' for Inactive)
REMARK    1  A    between atoms: C3'_2  and  C2'_3 
REMARK    2  A    between atoms: C2'_3  and  C1'_4 
REMARK    3  A    between atoms: C1'_4  and  C1_5 
ROOT
ATOM      1  C1  N4B d   1       0.207   0.076   0.473  0.00  0.00    -0.075 A 
ATOM      2  C2  N4B d   1       1.492   0.354  -0.043  0.00  0.00     0.002 A 
ATOM      3  C3  N4B d   1       2.059  -0.491  -0.965  0.00  0.00     0.002 A 
ATOM      4  C4  N4B d   1       1.371  -1.625  -1.370  0.00  0.00    -0.004 A 
ATOM      5  C5  N4B d   1       0.120  -1.873  -0.886  0.00  0.00     0.002 A 
ATOM      6  C6  N4B d   1      -0.464  -1.030   0.038  0.00  0.00     0.002 A 
ENDROOT
BRANCH   1   7
ATOM      7  C1' N4B d   1      -0.418   0.924   1.547  0.00  0.00     0.057 C 
BRANCH   7   8
ATOM      8  C2' N4B d   1      -1.167   0.023   2.524  0.00  0.00     0.009 C 
BRANCH   8   9
ATOM      9  C3' N4B d   1      -1.853   0.820   3.620  0.00  0.00     0.004 C 
ATOM     10  C4' N4B d   1      -1.235   2.169   3.831  0.00  0.00     0.003 C 
ENDBRANCH   8   9
ENDBRANCH   7   8
ENDBRANCH   1   7
TORSDOF 3
ENDMDL
