MODEL 1
REMARK minimizedAffinity -5.95659828
REMARK minimizedRMSD -1
REMARK  3 active torsions:
REMARK  status: ('A' for Active; 'I' for Inactive)
REMARK    1  A    between atoms: C3'_2  and  C2'_3 
REMARK    2  A    between atoms: C2'_3  and  C1'_4 
REMARK    3  A    between atoms: C1'_4  and  C1_5 
ROOT
ATOM      1  C1  N4B d   1       0.203   0.455   0.087  0.00  0.00    -0.075 A 
ATOM      2  C2  N4B d   1       1.469   1.058  -0.082  0.00  0.00     0.002 A 
ATOM      3  C3  N4B d   1       2.509   0.335  -0.612  0.00  0.00     0.002 A 
ATOM      4  C4  N4B d   1       2.313  -0.993  -0.962  0.00  0.00    -0.004 A 
ATOM      5  C5  N4B d   1       1.081  -1.561  -0.819  0.00  0.00     0.002 A 
ATOM      6  C6  N4B d   1       0.025  -0.845  -0.292  0.00  0.00     0.002 A 
ENDROOT
BRANCH   1   7
ATOM      7  C1' N4B d   1      -0.941   1.179   0.741  0.00  0.00     0.057 C 
BRANCH   7   8
ATOM      8  C2' N4B d   1      -1.971   0.160   1.219  0.00  0.00     0.009 C 
BRANCH   8   9
ATOM      9  C3' N4B d   1      -2.678   0.617   2.484  0.00  0.00     0.004 C 
ATOM     10  C4' N4B d   1      -2.105   1.884   3.044  0.00  0.00     0.003 C 
ENDBRANCH   8   9
ENDBRANCH   7   8
ENDBRANCH   1   7
TORSDOF 3
ENDMDL
