MODEL 1
REMARK minimizedAffinity -1.23858881
REMARK minimizedRMSD -1
REMARK  0 active torsions:
REMARK  status: ('A' for Active; 'I' for Inactive)
ROOT
ATOM      1  C1  BNZ d   1       3.628   5.991  -5.121  0.00  0.00     0.000 A 
ATOM      2  C2  BNZ d   1       3.136   4.900  -4.454  0.00  0.00     0.000 A 
ATOM      3  C3  BNZ d   1       3.904   3.783  -4.277  0.00  0.00     0.000 A 
ATOM      4  C4  BNZ d   1       5.146   3.743  -4.800  0.00  0.00     0.000 A 
ATOM      5  C5  BNZ d   1       5.653   4.831  -5.482  0.00  0.00     0.000 A 
ATOM      6  C6  BNZ d   1       4.892   5.968  -5.625  0.00  0.00     0.000 A 
ENDROOT
TORSDOF 0
ENDMDL
