MODEL 1
REMARK minimizedAffinity 4.69271469
REMARK minimizedRMSD -1
REMARK  0 active torsions:
REMARK  status: ('A' for Active; 'I' for Inactive)
ROOT
ATOM      1  C1  BNZ d   1      -5.825  -4.941  -3.887  0.00  0.00     0.000 A 
ATOM      2  C2  BNZ d   1      -4.724  -5.736  -3.710  0.00  0.00     0.000 A 
ATOM      3  C3  BNZ d   1      -3.693  -5.334  -2.908  0.00  0.00     0.000 A 
ATOM      4  C4  BNZ d   1      -3.745  -4.123  -2.317  0.00  0.00     0.000 A 
ATOM      5  C5  BNZ d   1      -4.844  -3.306  -2.493  0.00  0.00     0.000 A 
ATOM      6  C6  BNZ d   1      -5.898  -3.730  -3.270  0.00  0.00     0.000 A 
ENDROOT
TORSDOF 0
ENDMDL
