MODEL 1
REMARK minimizedAffinity 7.43456697
REMARK minimizedRMSD -1
REMARK  0 active torsions:
REMARK  status: ('A' for Active; 'I' for Inactive)
ROOT
ATOM      1  C1  BNZ d   1       0.049   3.342   1.408  0.00  0.00     0.000 A 
ATOM      2  C2  BNZ d   1      -0.695   2.689   2.355  0.00  0.00     0.000 A 
ATOM      3  C3  BNZ d   1      -0.297   1.477   2.845  0.00  0.00     0.000 A 
ATOM      4  C4  BNZ d   1       0.822   0.901   2.360  0.00  0.00     0.000 A 
ATOM      5  C5  BNZ d   1       1.578   1.542   1.399  0.00  0.00     0.000 A 
ATOM      6  C6  BNZ d   1       1.195   2.780   0.936  0.00  0.00     0.000 A 
ENDROOT
TORSDOF 0
ENDMDL
