MODEL 1
REMARK minimizedAffinity 0.232613549
REMARK minimizedRMSD -1
REMARK  0 active torsions:
REMARK  status: ('A' for Active; 'I' for Inactive)
ROOT
ATOM      1  C1  BNZ d   1      -0.215  -3.818   0.234  0.00  0.00     0.000 A 
ATOM      2  C2  BNZ d   1      -1.020  -4.702  -0.434  0.00  0.00     0.000 A 
ATOM      3  C3  BNZ d   1      -2.130  -4.269  -1.105  0.00  0.00     0.000 A 
ATOM      4  C4  BNZ d   1      -2.455  -2.960  -1.074  0.00  0.00     0.000 A 
ATOM      5  C5  BNZ d   1      -1.659  -2.058  -0.397  0.00  0.00     0.000 A 
ATOM      6  C6  BNZ d   1      -0.521  -2.492   0.245  0.00  0.00     0.000 A 
ENDROOT
TORSDOF 0
ENDMDL
