MODEL 1
REMARK minimizedAffinity 3.28447032
REMARK minimizedRMSD -1
REMARK  0 active torsions:
REMARK  status: ('A' for Active; 'I' for Inactive)
ROOT
ATOM      1  C1  BNZ d   1       1.631   0.237  -0.281  0.00  0.00     0.000 A 
ATOM      2  C2  BNZ d   1       1.636   1.504  -0.802  0.00  0.00     0.000 A 
ATOM      3  C3  BNZ d   1       0.805   1.840  -1.834  0.00  0.00     0.000 A 
ATOM      4  C4  BNZ d   1      -0.001   0.900  -2.369  0.00  0.00     0.000 A 
ATOM      5  C5  BNZ d   1      -0.011  -0.384  -1.861  0.00  0.00     0.000 A 
ATOM      6  C6  BNZ d   1       0.799  -0.708  -0.797  0.00  0.00     0.000 A 
ENDROOT
TORSDOF 0
ENDMDL
