MODEL 1
REMARK minimizedAffinity 0.841363549
REMARK minimizedRMSD -1
REMARK  0 active torsions:
REMARK  status: ('A' for Active; 'I' for Inactive)
ROOT
ATOM      1  C1  BNZ d   1       2.990   0.605  -1.329  0.00  0.00     0.000 A 
ATOM      2  C2  BNZ d   1       2.074   1.562  -0.983  0.00  0.00     0.000 A 
ATOM      3  C3  BNZ d   1       1.916   1.941   0.321  0.00  0.00     0.000 A 
ATOM      4  C4  BNZ d   1       2.644   1.335   1.280  0.00  0.00     0.000 A 
ATOM      5  C5  BNZ d   1       3.565   0.360   0.949  0.00  0.00     0.000 A 
ATOM      6  C6  BNZ d   1       3.749   0.009  -0.369  0.00  0.00     0.000 A 
ENDROOT
TORSDOF 0
ENDMDL
