MODEL 1
REMARK minimizedAffinity -2.58799601
REMARK minimizedRMSD -1
REMARK  0 active torsions:
REMARK  status: ('A' for Active; 'I' for Inactive)
ROOT
ATOM      1  C1  BNZ d   1      -4.869   1.657   6.000  0.00  0.00     0.000 A 
ATOM      2  C2  BNZ d   1      -4.436   2.214   4.826  0.00  0.00     0.000 A 
ATOM      3  C3  BNZ d   1      -4.601   1.559   3.638  0.00  0.00     0.000 A 
ATOM      4  C4  BNZ d   1      -5.161   0.333   3.629  0.00  0.00     0.000 A 
ATOM      5  C5  BNZ d   1      -5.595  -0.246   4.805  0.00  0.00     0.000 A 
ATOM      6  C6  BNZ d   1      -5.463   0.433   5.995  0.00  0.00     0.000 A 
ENDROOT
TORSDOF 0
ENDMDL
