MODEL 1
REMARK minimizedAffinity -0.565887809
REMARK minimizedRMSD -1
REMARK  0 active torsions:
REMARK  status: ('A' for Active; 'I' for Inactive)
ROOT
ATOM      1  C1  BNZ d   1       1.605  -0.770   0.026  0.00  0.00     0.000 A 
ATOM      2  C2  BNZ d   1       1.794   0.522   0.439  0.00  0.00     0.000 A 
ATOM      3  C3  BNZ d   1       1.151   1.004   1.545  0.00  0.00     0.000 A 
ATOM      4  C4  BNZ d   1       0.289   0.208   2.211  0.00  0.00     0.000 A 
ATOM      5  C5  BNZ d   1       0.080  -1.094   1.800  0.00  0.00     0.000 A 
ATOM      6  C6  BNZ d   1       0.759  -1.588   0.711  0.00  0.00     0.000 A 
ENDROOT
TORSDOF 0
ENDMDL
