MODEL 1
REMARK minimizedAffinity 0.399872392
REMARK minimizedRMSD -1
REMARK  0 active torsions:
REMARK  status: ('A' for Active; 'I' for Inactive)
ROOT
ATOM      1  C1  BNZ d   1       1.819  -0.561  -1.175  0.00  0.00     0.000 A 
ATOM      2  C2  BNZ d   1       0.804  -0.474  -2.090  0.00  0.00     0.000 A 
ATOM      3  C3  BNZ d   1       0.487   0.721  -2.672  0.00  0.00     0.000 A 
ATOM      4  C4  BNZ d   1       1.157   1.834  -2.309  0.00  0.00     0.000 A 
ATOM      5  C5  BNZ d   1       2.177   1.764  -1.381  0.00  0.00     0.000 A 
ATOM      6  C6  BNZ d   1       2.519   0.552  -0.826  0.00  0.00     0.000 A 
ENDROOT
TORSDOF 0
ENDMDL
