MODEL 1
REMARK minimizedAffinity 4.23424292
REMARK minimizedRMSD -1
REMARK  0 active torsions:
REMARK  status: ('A' for Active; 'I' for Inactive)
ROOT
ATOM      1  C1  BNZ d   1       0.525   3.522   1.486  0.00  0.00     0.000 A 
ATOM      2  C2  BNZ d   1      -0.094   2.652   2.343  0.00  0.00     0.000 A 
ATOM      3  C3  BNZ d   1       0.515   1.487   2.718  0.00  0.00     0.000 A 
ATOM      4  C4  BNZ d   1       1.722   1.174   2.205  0.00  0.00     0.000 A 
ATOM      5  C5  BNZ d   1       2.355   2.037   1.332  0.00  0.00     0.000 A 
ATOM      6  C6  BNZ d   1       1.757   3.227   0.987  0.00  0.00     0.000 A 
ENDROOT
TORSDOF 0
ENDMDL
