MODEL 1
REMARK minimizedAffinity 5.03878498
REMARK minimizedRMSD -1
REMARK  0 active torsions:
REMARK  status: ('A' for Active; 'I' for Inactive)
ROOT
ATOM      1  C1  BNZ d   1       0.739  -0.580  -1.817  0.00  0.00     0.000 A 
ATOM      2  C2  BNZ d   1       1.522  -0.784  -0.711  0.00  0.00     0.000 A 
ATOM      3  C3  BNZ d   1       2.062   0.271  -0.031  0.00  0.00     0.000 A 
ATOM      4  C4  BNZ d   1       1.852   1.526  -0.479  0.00  0.00     0.000 A 
ATOM      5  C5  BNZ d   1       1.074   1.748  -1.597  0.00  0.00     0.000 A 
ATOM      6  C6  BNZ d   1       0.500   0.685  -2.257  0.00  0.00     0.000 A 
ENDROOT
TORSDOF 0
ENDMDL
