MODEL 1
REMARK minimizedAffinity 6.53214407
REMARK minimizedRMSD -1
REMARK  0 active torsions:
REMARK  status: ('A' for Active; 'I' for Inactive)
ROOT
ATOM      1  C1  BNZ d   1       5.279   3.252  -3.699  0.00  0.00     0.000 A 
ATOM      2  C2  BNZ d   1       6.000   3.758  -4.748  0.00  0.00     0.000 A 
ATOM      3  C3  BNZ d   1       5.997   5.098  -5.017  0.00  0.00     0.000 A 
ATOM      4  C4  BNZ d   1       5.243   5.924  -4.263  0.00  0.00     0.000 A 
ATOM      5  C5  BNZ d   1       4.503   5.428  -3.208  0.00  0.00     0.000 A 
ATOM      6  C6  BNZ d   1       4.539   4.083  -2.916  0.00  0.00     0.000 A 
ENDROOT
TORSDOF 0
ENDMDL
