MODEL 1
REMARK minimizedAffinity 3.19774961
REMARK minimizedRMSD -1
REMARK  0 active torsions:
REMARK  status: ('A' for Active; 'I' for Inactive)
ROOT
ATOM      1  C1  BNZ d   1       0.039   0.303  -3.328  0.00  0.00     0.000 A 
ATOM      2  C2  BNZ d   1       0.679  -0.527  -2.447  0.00  0.00     0.000 A 
ATOM      3  C3  BNZ d   1       1.707  -0.066  -1.672  0.00  0.00     0.000 A 
ATOM      4  C4  BNZ d   1       2.118   1.211  -1.807  0.00  0.00     0.000 A 
ATOM      5  C5  BNZ d   1       1.488   2.058  -2.697  0.00  0.00     0.000 A 
ATOM      6  C6  BNZ d   1       0.429   1.602  -3.448  0.00  0.00     0.000 A 
ENDROOT
TORSDOF 0
ENDMDL
