MODEL 1
REMARK minimizedAffinity -1.44529545
REMARK minimizedRMSD -1
REMARK  0 active torsions:
REMARK  status: ('A' for Active; 'I' for Inactive)
ROOT
ATOM      1  C1  BNZ d   1      -3.044  -4.492  -1.281  0.00  0.00     0.000 A 
ATOM      2  C2  BNZ d   1      -2.762  -4.729   0.038  0.00  0.00     0.000 A 
ATOM      3  C3  BNZ d   1      -1.669  -5.466   0.399  0.00  0.00     0.000 A 
ATOM      4  C4  BNZ d   1      -0.883  -5.998  -0.559  0.00  0.00     0.000 A 
ATOM      5  C5  BNZ d   1      -1.160  -5.777  -1.893  0.00  0.00     0.000 A 
ATOM      6  C6  BNZ d   1      -2.239  -5.002  -2.252  0.00  0.00     0.000 A 
ENDROOT
TORSDOF 0
ENDMDL
