MODEL 1
REMARK minimizedAffinity 1.67011452
REMARK minimizedRMSD -1
REMARK  0 active torsions:
REMARK  status: ('A' for Active; 'I' for Inactive)
ROOT
ATOM      1  C1  BNZ d   1       1.144   1.599  -2.664  0.00  0.00     0.000 A 
ATOM      2  C2  BNZ d   1       1.945   1.425  -1.567  0.00  0.00     0.000 A 
ATOM      3  C3  BNZ d   1       2.408   0.184  -1.228  0.00  0.00     0.000 A 
ATOM      4  C4  BNZ d   1       2.036  -0.885  -1.961  0.00  0.00     0.000 A 
ATOM      5  C5  BNZ d   1       1.220  -0.727  -3.064  0.00  0.00     0.000 A 
ATOM      6  C6  BNZ d   1       0.789   0.528  -3.425  0.00  0.00     0.000 A 
ENDROOT
TORSDOF 0
ENDMDL
