MODEL 1
REMARK minimizedAffinity 4.89485168
REMARK minimizedRMSD -1
REMARK  0 active torsions:
REMARK  status: ('A' for Active; 'I' for Inactive)
ROOT
ATOM      1  C1  DEN d   1       3.501   0.982  -3.071  0.00  0.00     0.130 A 
ATOM      2  C2  DEN d   1       4.814   1.569  -2.818  0.00  0.00    -0.031 A 
ATOM      3  C3  DEN d   1       5.015   1.624  -1.356  0.00  0.00     0.027 A 
ATOM      4  C4  DEN d   1       3.431   0.856   0.529  0.00  0.00     0.027 A 
ATOM      5  C5  DEN d   1       2.199   0.305   0.806  0.00  0.00    -0.003 A 
ATOM      6  C6  DEN d   1       1.309  -0.025  -0.181  0.00  0.00     0.001 A 
ATOM      7  C7  DEN d   1       1.655   0.151  -1.495  0.00  0.00     0.017 A 
ATOM      8  C8  DEN d   1       2.892   0.713  -1.781  0.00  0.00    -0.094 A 
ATOM      9  C9  DEN d   1       3.783   1.029  -0.770  0.00  0.00    -0.072 A 
ENDROOT
TORSDOF 0
ENDMDL
