MODEL 1
REMARK minimizedAffinity 8.18389225
REMARK minimizedRMSD -1
REMARK  0 active torsions:
REMARK  status: ('A' for Active; 'I' for Inactive)
ROOT
ATOM      1  C1  DEN d   1       2.437   0.186   0.259  0.00  0.00     0.130 A 
ATOM      2  C2  DEN d   1       3.017   1.163   1.177  0.00  0.00    -0.031 A 
ATOM      3  C3  DEN d   1       2.195   2.388   1.118  0.00  0.00     0.027 A 
ATOM      4  C4  DEN d   1       0.090   2.864  -0.294  0.00  0.00     0.027 A 
ATOM      5  C5  DEN d   1      -0.774   2.343  -1.232  0.00  0.00    -0.003 A 
ATOM      6  C6  DEN d   1      -0.610   1.089  -1.759  0.00  0.00     0.001 A 
ATOM      7  C7  DEN d   1       0.416   0.296  -1.319  0.00  0.00     0.017 A 
ATOM      8  C8  DEN d   1       1.296   0.818  -0.379  0.00  0.00    -0.094 A 
ATOM      9  C9  DEN d   1       1.106   2.083   0.151  0.00  0.00    -0.072 A 
ENDROOT
TORSDOF 0
ENDMDL
