MODEL 1
REMARK minimizedAffinity 5.89768791
REMARK minimizedRMSD -1
REMARK  0 active torsions:
REMARK  status: ('A' for Active; 'I' for Inactive)
ROOT
ATOM      1  C1  DEN d   1       3.763   0.983  -2.295  0.00  0.00     0.130 A 
ATOM      2  C2  DEN d   1       4.985   1.579  -1.763  0.00  0.00    -0.031 A 
ATOM      3  C3  DEN d   1       4.908   1.536  -0.288  0.00  0.00     0.027 A 
ATOM      4  C4  DEN d   1       3.029   0.605   1.213  0.00  0.00     0.027 A 
ATOM      5  C5  DEN d   1       1.787   0.009   1.217  0.00  0.00    -0.003 A 
ATOM      6  C6  DEN d   1       1.107  -0.271   0.061  0.00  0.00     0.001 A 
ATOM      7  C7  DEN d   1       1.686   0.005  -1.150  0.00  0.00     0.017 A 
ATOM      8  C8  DEN d   1       2.934   0.612  -1.162  0.00  0.00    -0.094 A 
ATOM      9  C9  DEN d   1       3.611   0.876   0.017  0.00  0.00    -0.072 A 
ENDROOT
TORSDOF 0
ENDMDL
