MODEL 1
REMARK minimizedAffinity 8.59535503
REMARK minimizedRMSD -1
REMARK  0 active torsions:
REMARK  status: ('A' for Active; 'I' for Inactive)
ROOT
ATOM      1  C1  DEN d   1       2.015   2.454   1.893  0.00  0.00     0.130 A 
ATOM      2  C2  DEN d   1       2.864   1.296   2.160  0.00  0.00    -0.031 A 
ATOM      3  C3  DEN d   1       2.502   0.234   1.200  0.00  0.00     0.027 A 
ATOM      4  C4  DEN d   1       0.721   0.271  -0.666  0.00  0.00     0.027 A 
ATOM      5  C5  DEN d   1      -0.257   1.030  -1.268  0.00  0.00    -0.003 A 
ATOM      6  C6  DEN d   1      -0.568   2.294  -0.841  0.00  0.00     0.001 A 
ATOM      7  C7  DEN d   1       0.138   2.854   0.190  0.00  0.00     0.017 A 
ATOM      8  C8  DEN d   1       1.121   2.092   0.808  0.00  0.00    -0.094 A 
ATOM      9  C9  DEN d   1       1.429   0.821   0.354  0.00  0.00    -0.072 A 
ENDROOT
TORSDOF 0
ENDMDL
