MODEL 1
REMARK minimizedAffinity 3.26426363
REMARK minimizedRMSD -1
REMARK  0 active torsions:
REMARK  status: ('A' for Active; 'I' for Inactive)
ROOT
ATOM      1  C1  DEN d   1       0.153   3.939   1.109  0.00  0.00     0.130 A 
ATOM      2  C2  DEN d   1      -1.200   4.470   0.968  0.00  0.00    -0.031 A 
ATOM      3  C3  DEN d   1      -1.949   3.576   0.062  0.00  0.00     0.027 A 
ATOM      4  C4  DEN d   1      -1.151   1.430  -1.125  0.00  0.00     0.027 A 
ATOM      5  C5  DEN d   1      -0.078   0.588  -1.321  0.00  0.00    -0.003 A 
ATOM      6  C6  DEN d   1       1.146   0.820  -0.752  0.00  0.00     0.001 A 
ATOM      7  C7  DEN d   1       1.315   1.898   0.077  0.00  0.00     0.017 A 
ATOM      8  C8  DEN d   1       0.241   2.755   0.273  0.00  0.00    -0.094 A 
ATOM      9  C9  DEN d   1      -0.992   2.496  -0.301  0.00  0.00    -0.072 A 
ENDROOT
TORSDOF 0
ENDMDL
