MODEL 1
REMARK minimizedAffinity -1.70183647
REMARK minimizedRMSD -1
REMARK  1 active torsions:
REMARK  status: ('A' for Active; 'I' for Inactive)
REMARK    1  A    between atoms: C3_4  and  O_7 
ROOT
ATOM      1  C   UNL d   1      -5.100  -1.218   3.664  0.00  0.00    -0.033 A 
ATOM      2  C1  UNL d   1      -4.917  -0.951   5.022  0.00  0.00     0.039 A 
ATOM      3  C2  UNL d   1      -4.157   0.149   5.423  0.00  0.00    -0.080 A 
ATOM      4  C3  UNL d   1      -3.586   0.974   4.457  0.00  0.00     0.150 A 
ATOM      5  C4  UNL d   1      -3.767   0.716   3.102  0.00  0.00    -0.007 A 
ATOM      6  C5  UNL d   1      -4.526  -0.384   2.704  0.00  0.00     0.039 A 
ENDROOT
BRANCH   4   7
ATOM      7  O   UNL d   1      -2.831   2.056   4.800  0.00  0.00    -0.526 OA
ATOM      8  H5  UNL d   1      -2.769   2.093   5.769  0.00  0.00     0.418 HD
ENDBRANCH   4   7
TORSDOF 1
ENDMDL
