MODEL 1
REMARK minimizedAffinity 7.26221323
REMARK minimizedRMSD -1
REMARK  1 active torsions:
REMARK  status: ('A' for Active; 'I' for Inactive)
REMARK    1  A    between atoms: C3_4  and  O_7 
ROOT
ATOM      1  C   UNL d   1      -5.388  -1.901   2.803  0.00  0.00    -0.033 A 
ATOM      2  C1  UNL d   1      -4.793  -0.686   2.459  0.00  0.00     0.039 A 
ATOM      3  C2  UNL d   1      -4.615   0.305   3.427  0.00  0.00    -0.080 A 
ATOM      4  C3  UNL d   1      -5.035   0.067   4.733  0.00  0.00     0.150 A 
ATOM      5  C4  UNL d   1      -5.624  -1.143   5.083  0.00  0.00    -0.007 A 
ATOM      6  C5  UNL d   1      -5.802  -2.131   4.115  0.00  0.00     0.039 A 
ENDROOT
BRANCH   4   7
ATOM      7  O   UNL d   1      -4.886   1.005   5.711  0.00  0.00    -0.526 OA
ATOM      8  H5  UNL d   1      -4.491   1.800   5.317  0.00  0.00     0.418 HD
ENDBRANCH   4   7
TORSDOF 1
ENDMDL
