MODEL 1
REMARK minimizedAffinity 3.47202516
REMARK minimizedRMSD -1
REMARK  1 active torsions:
REMARK  status: ('A' for Active; 'I' for Inactive)
REMARK    1  A    between atoms: C3_4  and  O_7 
ROOT
ATOM      1  C   UNL d   1      -3.970  -0.245   2.548  0.00  0.00    -0.033 A 
ATOM      2  C1  UNL d   1      -4.356  -1.538   2.187  0.00  0.00     0.039 A 
ATOM      3  C2  UNL d   1      -4.934  -2.385   3.134  0.00  0.00    -0.080 A 
ATOM      4  C3  UNL d   1      -5.122  -1.928   4.436  0.00  0.00     0.150 A 
ATOM      5  C4  UNL d   1      -4.743  -0.640   4.801  0.00  0.00    -0.007 A 
ATOM      6  C5  UNL d   1      -4.165   0.204   3.854  0.00  0.00     0.039 A 
ENDROOT
BRANCH   4   7
ATOM      7  O   UNL d   1      -5.678  -2.720   5.396  0.00  0.00    -0.526 OA
ATOM      8  H5  UNL d   1      -5.863  -3.591   5.007  0.00  0.00     0.418 HD
ENDBRANCH   4   7
TORSDOF 1
ENDMDL
