MODEL 1
REMARK minimizedAffinity 8.66185188
REMARK minimizedRMSD -1
REMARK  1 active torsions:
REMARK  status: ('A' for Active; 'I' for Inactive)
REMARK    1  A    between atoms: C3_4  and  O_7 
ROOT
ATOM      1  C   UNL d   1      -1.470  -1.264   2.077  0.00  0.00    -0.033 A 
ATOM      2  C1  UNL d   1      -1.920  -2.292   1.246  0.00  0.00     0.039 A 
ATOM      3  C2  UNL d   1      -1.080  -3.366   0.945  0.00  0.00    -0.080 A 
ATOM      4  C3  UNL d   1       0.204  -3.401   1.481  0.00  0.00     0.150 A 
ATOM      5  C4  UNL d   1       0.657  -2.382   2.313  0.00  0.00    -0.007 A 
ATOM      6  C5  UNL d   1      -0.182  -1.310   2.611  0.00  0.00     0.039 A 
ENDROOT
BRANCH   4   7
ATOM      7  O   UNL d   1       1.061  -4.427   1.212  0.00  0.00    -0.526 OA
ATOM      8  H5  UNL d   1       0.622  -5.043   0.602  0.00  0.00     0.418 HD
ENDBRANCH   4   7
TORSDOF 1
ENDMDL
