MODEL 1
REMARK minimizedAffinity -1.69430888
REMARK minimizedRMSD -1
REMARK  1 active torsions:
REMARK  status: ('A' for Active; 'I' for Inactive)
REMARK    1  A    between atoms: C3_4  and  O_7 
ROOT
ATOM      1  C   UNL d   1       2.005  -3.046   0.676  0.00  0.00    -0.033 A 
ATOM      2  C1  UNL d   1       2.879  -4.069   0.305  0.00  0.00     0.039 A 
ATOM      3  C2  UNL d   1       3.644  -3.949  -0.857  0.00  0.00    -0.080 A 
ATOM      4  C3  UNL d   1       3.525  -2.803  -1.638  0.00  0.00     0.150 A 
ATOM      5  C4  UNL d   1       2.659  -1.778  -1.272  0.00  0.00    -0.007 A 
ATOM      6  C5  UNL d   1       1.896  -1.899  -0.112  0.00  0.00     0.039 A 
ENDROOT
BRANCH   4   7
ATOM      7  O   UNL d   1       4.247  -2.643  -2.783  0.00  0.00    -0.526 OA
ATOM      8  H5  UNL d   1       4.781  -3.443  -2.925  0.00  0.00     0.418 HD
ENDBRANCH   4   7
TORSDOF 1
ENDMDL
