MODEL 1
REMARK minimizedAffinity -3.19700646
REMARK minimizedRMSD -1
REMARK  1 active torsions:
REMARK  status: ('A' for Active; 'I' for Inactive)
REMARK    1  A    between atoms: C3_4  and  O_7 
ROOT
ATOM      1  C   UNL d   1       3.904  -2.849  -2.057  0.00  0.00    -0.033 A 
ATOM      2  C1  UNL d   1       5.279  -2.988  -2.250  0.00  0.00     0.039 A 
ATOM      3  C2  UNL d   1       6.000  -3.921  -1.502  0.00  0.00    -0.080 A 
ATOM      4  C3  UNL d   1       5.334  -4.709  -0.567  0.00  0.00     0.150 A 
ATOM      5  C4  UNL d   1       3.962  -4.578  -0.373  0.00  0.00    -0.007 A 
ATOM      6  C5  UNL d   1       3.245  -3.645  -1.120  0.00  0.00     0.039 A 
ENDROOT
BRANCH   4   7
ATOM      7  O   UNL d   1       5.995  -5.630   0.189  0.00  0.00    -0.526 OA
ATOM      8  H5  UNL d   1       6.940  -5.589  -0.033  0.00  0.00     0.418 HD
ENDBRANCH   4   7
TORSDOF 1
ENDMDL
