MODEL 1
REMARK minimizedAffinity 5.7177701
REMARK minimizedRMSD -1
REMARK  1 active torsions:
REMARK  status: ('A' for Active; 'I' for Inactive)
REMARK    1  A    between atoms: C3_4  and  O_7 
ROOT
ATOM      1  C   UNL d   1      -0.948  -0.562   2.141  0.00  0.00    -0.033 A 
ATOM      2  C1  UNL d   1       0.155  -1.385   1.906  0.00  0.00     0.039 A 
ATOM      3  C2  UNL d   1      -0.013  -2.613   1.263  0.00  0.00    -0.080 A 
ATOM      4  C3  UNL d   1      -1.286  -3.004   0.859  0.00  0.00     0.150 A 
ATOM      5  C4  UNL d   1      -2.389  -2.187   1.087  0.00  0.00    -0.007 A 
ATOM      6  C5  UNL d   1      -2.220  -0.962   1.730  0.00  0.00     0.039 A 
ENDROOT
BRANCH   4   7
ATOM      7  O   UNL d   1      -1.500  -4.196   0.232  0.00  0.00    -0.526 OA
ATOM      8  H5  UNL d   1      -0.653  -4.666   0.168  0.00  0.00     0.418 HD
ENDBRANCH   4   7
TORSDOF 1
ENDMDL
