MODEL 1
REMARK minimizedAffinity -2.44358158
REMARK minimizedRMSD -1
REMARK  1 active torsions:
REMARK  status: ('A' for Active; 'I' for Inactive)
REMARK    1  A    between atoms: C3_4  and  O_7 
ROOT
ATOM      1  C   UNL d   1       4.988  -4.166  -1.580  0.00  0.00    -0.033 A 
ATOM      2  C1  UNL d   1       4.209  -3.149  -2.134  0.00  0.00     0.039 A 
ATOM      3  C2  UNL d   1       3.080  -2.684  -1.458  0.00  0.00    -0.080 A 
ATOM      4  C3  UNL d   1       2.741  -3.244  -0.229  0.00  0.00     0.150 A 
ATOM      5  C4  UNL d   1       3.515  -4.255   0.331  0.00  0.00    -0.007 A 
ATOM      6  C5  UNL d   1       4.642  -4.718  -0.346  0.00  0.00     0.039 A 
ENDROOT
BRANCH   4   7
ATOM      7  O   UNL d   1       1.645  -2.826   0.466  0.00  0.00    -0.526 OA
ATOM      8  H5  UNL d   1       1.191  -2.144  -0.056  0.00  0.00     0.418 HD
ENDBRANCH   4   7
TORSDOF 1
ENDMDL
