MODEL 1
REMARK minimizedAffinity -2.28748417
REMARK minimizedRMSD -1
REMARK  1 active torsions:
REMARK  status: ('A' for Active; 'I' for Inactive)
REMARK    1  A    between atoms: C3_4  and  O_7 
ROOT
ATOM      1  C   UNL d   1       2.431  -3.510  -0.440  0.00  0.00    -0.033 A 
ATOM      2  C1  UNL d   1       1.591  -4.230   0.411  0.00  0.00     0.039 A 
ATOM      3  C2  UNL d   1       0.614  -3.568   1.156  0.00  0.00    -0.080 A 
ATOM      4  C3  UNL d   1       0.486  -2.186   1.040  0.00  0.00     0.150 A 
ATOM      5  C4  UNL d   1       1.317  -1.462   0.191  0.00  0.00    -0.007 A 
ATOM      6  C5  UNL d   1       2.293  -2.126  -0.551  0.00  0.00     0.039 A 
ENDROOT
BRANCH   4   7
ATOM      7  O   UNL d   1      -0.450  -1.495   1.751  0.00  0.00    -0.526 OA
ATOM      8  H5  UNL d   1      -0.932  -2.122   2.316  0.00  0.00     0.418 HD
ENDBRANCH   4   7
TORSDOF 1
ENDMDL
