MODEL 1
REMARK minimizedAffinity -3.08068848
REMARK minimizedRMSD -1
REMARK  1 active torsions:
REMARK  status: ('A' for Active; 'I' for Inactive)
REMARK    1  A    between atoms: C3_4  and  O_7 
ROOT
ATOM      1  C   UNL d   1       2.522  -2.996  -0.347  0.00  0.00    -0.033 A 
ATOM      2  C1  UNL d   1       2.881  -2.609  -1.639  0.00  0.00     0.039 A 
ATOM      3  C2  UNL d   1       4.049  -3.107  -2.220  0.00  0.00    -0.080 A 
ATOM      4  C3  UNL d   1       4.847  -3.991  -1.500  0.00  0.00     0.150 A 
ATOM      5  C4  UNL d   1       4.493  -4.384  -0.213  0.00  0.00    -0.007 A 
ATOM      6  C5  UNL d   1       3.327  -3.885   0.366  0.00  0.00     0.039 A 
ENDROOT
BRANCH   4   7
ATOM      7  O   UNL d   1       5.999  -4.500  -2.023  0.00  0.00    -0.526 OA
ATOM      8  H5  UNL d   1       6.130  -4.118  -2.907  0.00  0.00     0.418 HD
ENDBRANCH   4   7
TORSDOF 1
ENDMDL
