MODEL 1
REMARK minimizedAffinity -2.81568074
REMARK minimizedRMSD -1
REMARK  1 active torsions:
REMARK  status: ('A' for Active; 'I' for Inactive)
REMARK    1  A    between atoms: C3_4  and  O_7 
ROOT
ATOM      1  C   UNL d   1       2.928  -1.824  -0.259  0.00  0.00    -0.033 A 
ATOM      2  C1  UNL d   1       2.538  -3.063  -0.770  0.00  0.00     0.039 A 
ATOM      3  C2  UNL d   1       3.449  -4.121  -0.815  0.00  0.00    -0.080 A 
ATOM      4  C3  UNL d   1       4.745  -3.926  -0.345  0.00  0.00     0.150 A 
ATOM      5  C4  UNL d   1       5.140  -2.695   0.169  0.00  0.00    -0.007 A 
ATOM      6  C5  UNL d   1       4.229  -1.641   0.212  0.00  0.00     0.039 A 
ENDROOT
BRANCH   4   7
ATOM      7  O   UNL d   1       5.670  -4.927  -0.373  0.00  0.00    -0.526 OA
ATOM      8  H5  UNL d   1       5.265  -5.710  -0.781  0.00  0.00     0.418 HD
ENDBRANCH   4   7
TORSDOF 1
ENDMDL
