MODEL 1
REMARK minimizedAffinity -1.78220439
REMARK minimizedRMSD -1
REMARK  1 active torsions:
REMARK  status: ('A' for Active; 'I' for Inactive)
REMARK    1  A    between atoms: C3_4  and  O_7 
ROOT
ATOM      1  C   UNL d   1       5.655  -5.998  -1.809  0.00  0.00    -0.033 A 
ATOM      2  C1  UNL d   1       6.000  -5.047  -0.846  0.00  0.00     0.039 A 
ATOM      3  C2  UNL d   1       5.224  -3.897  -0.690  0.00  0.00    -0.080 A 
ATOM      4  C3  UNL d   1       4.108  -3.710  -1.501  0.00  0.00     0.150 A 
ATOM      5  C4  UNL d   1       3.757  -4.655  -2.459  0.00  0.00    -0.007 A 
ATOM      6  C5  UNL d   1       4.533  -5.803  -2.614  0.00  0.00     0.039 A 
ENDROOT
BRANCH   4   7
ATOM      7  O   UNL d   1       3.324  -2.600  -1.389  0.00  0.00    -0.526 OA
ATOM      8  H5  UNL d   1       3.704  -2.022  -0.706  0.00  0.00     0.418 HD
ENDBRANCH   4   7
TORSDOF 1
ENDMDL
