MODEL 1
REMARK minimizedAffinity 7.76217508
REMARK minimizedRMSD -1
REMARK  1 active torsions:
REMARK  status: ('A' for Active; 'I' for Inactive)
REMARK    1  A    between atoms: C3_4  and  O_7 
ROOT
ATOM      1  C   UNL d   1       5.983  -5.201  -0.840  0.00  0.00    -0.033 A 
ATOM      2  C1  UNL d   1       4.767  -4.945  -1.476  0.00  0.00     0.039 A 
ATOM      3  C2  UNL d   1       3.564  -5.207  -0.817  0.00  0.00    -0.080 A 
ATOM      4  C3  UNL d   1       3.591  -5.724   0.476  0.00  0.00     0.150 A 
ATOM      5  C4  UNL d   1       4.800  -5.978   1.116  0.00  0.00    -0.007 A 
ATOM      6  C5  UNL d   1       6.000  -5.716   0.456  0.00  0.00     0.039 A 
ENDROOT
BRANCH   4   7
ATOM      7  O   UNL d   1       2.444  -6.000   1.157  0.00  0.00    -0.526 OA
ATOM      8  H5  UNL d   1       1.688  -5.802   0.580  0.00  0.00     0.418 HD
ENDBRANCH   4   7
TORSDOF 1
ENDMDL
