MODEL 1
REMARK minimizedAffinity 3.36090636
REMARK minimizedRMSD -1
REMARK  1 active torsions:
REMARK  status: ('A' for Active; 'I' for Inactive)
REMARK    1  A    between atoms: C3_4  and  O_7 
ROOT
ATOM      1  C   UNL d   1       5.994   5.999   0.843  0.00  0.00    -0.033 A 
ATOM      2  C1  UNL d   1       5.155   6.000  -0.273  0.00  0.00     0.039 A 
ATOM      3  C2  UNL d   1       3.769   5.990  -0.107  0.00  0.00    -0.080 A 
ATOM      4  C3  UNL d   1       3.235   5.982   1.179  0.00  0.00     0.150 A 
ATOM      5  C4  UNL d   1       4.065   5.985   2.295  0.00  0.00    -0.007 A 
ATOM      6  C5  UNL d   1       5.449   5.993   2.127  0.00  0.00     0.039 A 
ENDROOT
BRANCH   4   7
ATOM      7  O   UNL d   1       1.888   5.967   1.392  0.00  0.00    -0.526 OA
ATOM      8  H5  UNL d   1       1.441   5.937   0.529  0.00  0.00     0.418 HD
ENDBRANCH   4   7
TORSDOF 1
ENDMDL
