MODEL 1
REMARK minimizedAffinity -3.78209996
REMARK minimizedRMSD -1
REMARK  0 active torsions:
REMARK  status: ('A' for Active; 'I' for Inactive)
ROOT
ATOM      1  C   UNL d   1       0.227   1.993   0.893  0.00  0.00     0.077 C 
ATOM      2  C1  UNL d   1       1.132   0.801   0.795  0.00  0.00    -0.074 A 
ATOM      3  C2  UNL d   1       2.405   0.815   1.375  0.00  0.00    -0.005 A 
ATOM      4  C3  UNL d   1       3.232  -0.304   1.283  0.00  0.00     0.006 A 
ATOM      5  C4  UNL d   1       2.796  -1.447   0.612  0.00  0.00    -0.005 A 
ATOM      6  C5  UNL d   1       1.526  -1.480   0.027  0.00  0.00    -0.074 A 
ATOM      7  C6  UNL d   1       1.038  -2.704  -0.689  0.00  0.00     0.077 C 
ATOM      8  C7  UNL d   1       0.698  -0.354   0.129  0.00  0.00    -0.001 A 
ENDROOT
TORSDOF 0
ENDMDL
