MODEL 1
REMARK minimizedAffinity -2.89547062
REMARK minimizedRMSD -1
REMARK  0 active torsions:
REMARK  status: ('A' for Active; 'I' for Inactive)
ROOT
ATOM      1  C   UNL d   1      -3.873   3.000  -3.002  0.00  0.00     0.077 C 
ATOM      2  C1  UNL d   1      -3.355   1.629  -2.685  0.00  0.00    -0.074 A 
ATOM      3  C2  UNL d   1      -3.477   0.583  -3.606  0.00  0.00    -0.005 A 
ATOM      4  C3  UNL d   1      -2.982  -0.684  -3.300  0.00  0.00     0.006 A 
ATOM      5  C4  UNL d   1      -2.360  -0.919  -2.073  0.00  0.00    -0.005 A 
ATOM      6  C5  UNL d   1      -2.229   0.114  -1.140  0.00  0.00    -0.074 A 
ATOM      7  C6  UNL d   1      -1.555  -0.119   0.180  0.00  0.00     0.077 C 
ATOM      8  C7  UNL d   1      -2.723   1.387  -1.457  0.00  0.00    -0.001 A 
ENDROOT
TORSDOF 0
ENDMDL
