MODEL 1
REMARK minimizedAffinity -5.18035984
REMARK minimizedRMSD -1
REMARK  0 active torsions:
REMARK  status: ('A' for Active; 'I' for Inactive)
ROOT
ATOM      1  C   UNL d   1       1.109   2.785  -0.083  0.00  0.00     0.077 C 
ATOM      2  C1  UNL d   1       0.763   1.424   0.442  0.00  0.00    -0.074 A 
ATOM      3  C2  UNL d   1      -0.484   0.847   0.179  0.00  0.00    -0.005 A 
ATOM      4  C3  UNL d   1      -0.788  -0.424   0.666  0.00  0.00     0.006 A 
ATOM      5  C4  UNL d   1       0.149  -1.129   1.422  0.00  0.00    -0.005 A 
ATOM      6  C5  UNL d   1       1.401  -0.569   1.695  0.00  0.00    -0.074 A 
ATOM      7  C6  UNL d   1       2.424  -1.318   2.496  0.00  0.00     0.077 C 
ATOM      8  C7  UNL d   1       1.702   0.705   1.195  0.00  0.00    -0.001 A 
ENDROOT
TORSDOF 0
ENDMDL
