MODEL 1
REMARK minimizedAffinity -4.01479053
REMARK minimizedRMSD -1
REMARK  0 active torsions:
REMARK  status: ('A' for Active; 'I' for Inactive)
ROOT
ATOM      1  C   UNL d   1       3.238  -0.515   0.987  0.00  0.00     0.077 C 
ATOM      2  C1  UNL d   1       2.090   0.349   0.558  0.00  0.00    -0.074 A 
ATOM      3  C2  UNL d   1       2.209   1.742   0.536  0.00  0.00    -0.005 A 
ATOM      4  C3  UNL d   1       1.135   2.533   0.125  0.00  0.00     0.006 A 
ATOM      5  C4  UNL d   1      -0.066   1.939  -0.266  0.00  0.00    -0.005 A 
ATOM      6  C5  UNL d   1      -0.202   0.548  -0.251  0.00  0.00    -0.074 A 
ATOM      7  C6  UNL d   1      -1.482  -0.107  -0.678  0.00  0.00     0.077 C 
ATOM      8  C7  UNL d   1       0.883  -0.240   0.156  0.00  0.00    -0.001 A 
ENDROOT
TORSDOF 0
ENDMDL
