MODEL 1
REMARK minimizedAffinity -5.23156738
REMARK minimizedRMSD -1
REMARK  0 active torsions:
REMARK  status: ('A' for Active; 'I' for Inactive)
ROOT
ATOM      1  C   UNL d   1       3.020  -0.141   0.351  0.00  0.00     0.077 C 
ATOM      2  C1  UNL d   1       1.554   0.175   0.356  0.00  0.00    -0.074 A 
ATOM      3  C2  UNL d   1       0.602  -0.828   0.145  0.00  0.00    -0.005 A 
ATOM      4  C3  UNL d   1      -0.759  -0.521   0.163  0.00  0.00     0.006 A 
ATOM      5  C4  UNL d   1      -1.181   0.789   0.391  0.00  0.00    -0.005 A 
ATOM      6  C5  UNL d   1      -0.243   1.805   0.605  0.00  0.00    -0.074 A 
ATOM      7  C6  UNL d   1      -0.680   3.217   0.862  0.00  0.00     0.077 C 
ATOM      8  C7  UNL d   1       1.122   1.487   0.593  0.00  0.00    -0.001 A 
ENDROOT
TORSDOF 0
ENDMDL
