MODEL 1
REMARK minimizedAffinity -5.3897109
REMARK minimizedRMSD -1
REMARK  0 active torsions:
REMARK  status: ('A' for Active; 'I' for Inactive)
ROOT
ATOM      1  C   UNL d   1      -0.283   2.974   0.296  0.00  0.00     0.077 C 
ATOM      2  C1  UNL d   1       0.075   1.524   0.428  0.00  0.00    -0.074 A 
ATOM      3  C2  UNL d   1      -0.913   0.535   0.410  0.00  0.00    -0.005 A 
ATOM      4  C3  UNL d   1      -0.564  -0.811   0.524  0.00  0.00     0.006 A 
ATOM      5  C4  UNL d   1       0.775  -1.180   0.656  0.00  0.00    -0.005 A 
ATOM      6  C5  UNL d   1       1.778  -0.205   0.675  0.00  0.00    -0.074 A 
ATOM      7  C6  UNL d   1       3.222  -0.586   0.806  0.00  0.00     0.077 C 
ATOM      8  C7  UNL d   1       1.419   1.144   0.553  0.00  0.00    -0.001 A 
ENDROOT
TORSDOF 0
ENDMDL
