MODEL 1
REMARK minimizedAffinity -4.8764081
REMARK minimizedRMSD -1
REMARK  0 active torsions:
REMARK  status: ('A' for Active; 'I' for Inactive)
ROOT
ATOM      1  C   UNL d   1      -2.576  -1.506  -3.830  0.00  0.00     0.077 C 
ATOM      2  C1  UNL d   1      -2.564  -0.420  -2.795  0.00  0.00    -0.074 A 
ATOM      3  C2  UNL d   1      -3.398   0.696  -2.916  0.00  0.00    -0.005 A 
ATOM      4  C3  UNL d   1      -3.384   1.693  -1.941  0.00  0.00     0.006 A 
ATOM      5  C4  UNL d   1      -2.537   1.584  -0.837  0.00  0.00    -0.005 A 
ATOM      6  C5  UNL d   1      -1.697   0.475  -0.699  0.00  0.00    -0.074 A 
ATOM      7  C6  UNL d   1      -0.788   0.337   0.486  0.00  0.00     0.077 C 
ATOM      8  C7  UNL d   1      -1.722  -0.526  -1.680  0.00  0.00    -0.001 A 
ENDROOT
TORSDOF 0
ENDMDL
