MODEL 1
REMARK minimizedAffinity -5.21990299
REMARK minimizedRMSD -1
REMARK  0 active torsions:
REMARK  status: ('A' for Active; 'I' for Inactive)
ROOT
ATOM      1  C   UNL d   1       1.117  -3.454   1.779  0.00  0.00     0.077 C 
ATOM      2  C1  UNL d   1       1.507  -2.069   1.357  0.00  0.00    -0.074 A 
ATOM      3  C2  UNL d   1       2.791  -1.575   1.610  0.00  0.00    -0.005 A 
ATOM      4  C3  UNL d   1       3.143  -0.288   1.203  0.00  0.00     0.006 A 
ATOM      5  C4  UNL d   1       2.216   0.517   0.539  0.00  0.00    -0.005 A 
ATOM      6  C5  UNL d   1       0.928   0.040   0.276  0.00  0.00    -0.074 A 
ATOM      7  C6  UNL d   1      -0.077   0.888  -0.445  0.00  0.00     0.077 C 
ATOM      8  C7  UNL d   1       0.584  -1.257   0.682  0.00  0.00    -0.001 A 
ENDROOT
TORSDOF 0
ENDMDL
