MODEL 1
REMARK minimizedAffinity -4.99767017
REMARK minimizedRMSD -1
REMARK  0 active torsions:
REMARK  status: ('A' for Active; 'I' for Inactive)
ROOT
ATOM      1  C   UNL d   1      -1.550  -0.025  -0.541  0.00  0.00     0.077 C 
ATOM      2  C1  UNL d   1      -0.479  -0.572   0.356  0.00  0.00    -0.074 A 
ATOM      3  C2  UNL d   1      -0.702  -1.720   1.123  0.00  0.00    -0.005 A 
ATOM      4  C3  UNL d   1       0.306  -2.223   1.945  0.00  0.00     0.006 A 
ATOM      5  C4  UNL d   1       1.545  -1.585   2.008  0.00  0.00    -0.005 A 
ATOM      6  C5  UNL d   1       1.787  -0.436   1.247  0.00  0.00    -0.074 A 
ATOM      7  C6  UNL d   1       3.116   0.256   1.296  0.00  0.00     0.077 C 
ATOM      8  C7  UNL d   1       0.771   0.059   0.418  0.00  0.00    -0.001 A 
ENDROOT
TORSDOF 0
ENDMDL
