MODEL 1
REMARK minimizedAffinity 5.57412767
REMARK minimizedRMSD -1
REMARK  0 active torsions:
REMARK  status: ('A' for Active; 'I' for Inactive)
ROOT
ATOM      1  C1  DEN d   1      -1.526  -0.761   0.779  0.00  0.00     0.130 A 
ATOM      2  C2  DEN d   1      -1.019   0.371   0.010  0.00  0.00    -0.031 A 
ATOM      3  C3  DEN d   1       0.335   0.690   0.505  0.00  0.00     0.027 A 
ATOM      4  C4  DEN d   1       1.690  -0.456   2.377  0.00  0.00     0.027 A 
ATOM      5  C5  DEN d   1       1.672  -1.455   3.325  0.00  0.00    -0.003 A 
ATOM      6  C6  DEN d   1       0.583  -2.265   3.512  0.00  0.00     0.001 A 
ATOM      7  C7  DEN d   1      -0.518  -2.118   2.710  0.00  0.00     0.017 A 
ATOM      8  C8  DEN d   1      -0.510  -1.108   1.757  0.00  0.00    -0.094 A 
ATOM      9  C9  DEN d   1       0.605  -0.308   1.574  0.00  0.00    -0.072 A 
ENDROOT
TORSDOF 0
ENDMDL
