MODEL 1
REMARK minimizedAffinity 3.1052475
REMARK minimizedRMSD -1
REMARK  0 active torsions:
REMARK  status: ('A' for Active; 'I' for Inactive)
ROOT
ATOM      1  C1  DEN d   1       1.457  -1.210  -0.702  0.00  0.00     0.130 A 
ATOM      2  C2  DEN d   1       2.860  -1.033  -1.067  0.00  0.00    -0.031 A 
ATOM      3  C3  DEN d   1       3.617  -0.730   0.164  0.00  0.00     0.027 A 
ATOM      4  C4  DEN d   1       2.759  -0.523   2.587  0.00  0.00     0.027 A 
ATOM      5  C5  DEN d   1       1.642  -0.578   3.391  0.00  0.00    -0.003 A 
ATOM      6  C6  DEN d   1       0.390  -0.812   2.886  0.00  0.00     0.001 A 
ATOM      7  C7  DEN d   1       0.231  -1.045   1.546  0.00  0.00     0.017 A 
ATOM      8  C8  DEN d   1       1.352  -0.984   0.728  0.00  0.00    -0.094 A 
ATOM      9  C9  DEN d   1       2.611  -0.758   1.259  0.00  0.00    -0.072 A 
ENDROOT
TORSDOF 0
ENDMDL
