MODEL 1
REMARK minimizedAffinity -4.15758276
REMARK minimizedRMSD -1
REMARK  0 active torsions:
REMARK  status: ('A' for Active; 'I' for Inactive)
ROOT
ATOM      1  C1  DEN d   1       2.321  -1.786  -1.041  0.00  0.00     0.130 A 
ATOM      2  C2  DEN d   1       2.796  -2.604   0.071  0.00  0.00    -0.031 A 
ATOM      3  C3  DEN d   1       1.966  -2.295   1.253  0.00  0.00     0.027 A 
ATOM      4  C4  DEN d   1      -0.000  -0.639   1.466  0.00  0.00     0.027 A 
ATOM      5  C5  DEN d   1      -0.763   0.291   0.794  0.00  0.00    -0.003 A 
ATOM      6  C6  DEN d   1      -0.530   0.616  -0.516  0.00  0.00     0.001 A 
ATOM      7  C7  DEN d   1       0.461  -0.027  -1.209  0.00  0.00     0.017 A 
ATOM      8  C8  DEN d   1       1.238  -0.960  -0.537  0.00  0.00    -0.094 A 
ATOM      9  C9  DEN d   1       0.980  -1.284   0.784  0.00  0.00    -0.072 A 
ENDROOT
TORSDOF 0
ENDMDL
