MODEL 1
REMARK minimizedAffinity 8.54977608
REMARK minimizedRMSD -1
REMARK  0 active torsions:
REMARK  status: ('A' for Active; 'I' for Inactive)
ROOT
ATOM      1  C1  DEN d   1      -2.002   4.164  -4.069  0.00  0.00     0.130 A 
ATOM      2  C2  DEN d   1      -2.981   3.400  -3.301  0.00  0.00    -0.031 A 
ATOM      3  C3  DEN d   1      -2.249   2.406  -2.490  0.00  0.00     0.027 A 
ATOM      4  C4  DEN d   1       0.291   1.983  -2.345  0.00  0.00     0.027 A 
ATOM      5  C5  DEN d   1       1.523   2.374  -2.821  0.00  0.00    -0.003 A 
ATOM      6  C6  DEN d   1       1.663   3.358  -3.763  0.00  0.00     0.001 A 
ATOM      7  C7  DEN d   1       0.555   4.016  -4.227  0.00  0.00     0.017 A 
ATOM      8  C8  DEN d   1      -0.692   3.622  -3.758  0.00  0.00    -0.094 A 
ATOM      9  C9  DEN d   1      -0.811   2.634  -2.796  0.00  0.00    -0.072 A 
ENDROOT
TORSDOF 0
ENDMDL
