MODEL 1
REMARK minimizedAffinity -3.64859867
REMARK minimizedRMSD -1
REMARK  0 active torsions:
REMARK  status: ('A' for Active; 'I' for Inactive)
ROOT
ATOM      1  C1  DEN d   1      -0.937   3.460  -1.486  0.00  0.00     0.130 A 
ATOM      2  C2  DEN d   1      -1.087   3.242  -2.922  0.00  0.00    -0.031 A 
ATOM      3  C3  DEN d   1      -1.035   1.788  -3.172  0.00  0.00     0.027 A 
ATOM      4  C4  DEN d   1      -0.744  -0.139  -1.482  0.00  0.00     0.027 A 
ATOM      5  C5  DEN d   1      -0.567  -0.448  -0.151  0.00  0.00    -0.003 A 
ATOM      6  C6  DEN d   1      -0.467   0.518   0.816  0.00  0.00     0.001 A 
ATOM      7  C7  DEN d   1      -0.590   1.838   0.471  0.00  0.00     0.017 A 
ATOM      8  C8  DEN d   1      -0.761   2.158  -0.869  0.00  0.00    -0.094 A 
ATOM      9  C9  DEN d   1      -0.872   1.167  -1.830  0.00  0.00    -0.072 A 
ENDROOT
TORSDOF 0
ENDMDL
