MODEL 1
REMARK minimizedAffinity 0.450259775
REMARK minimizedRMSD -1
REMARK  0 active torsions:
REMARK  status: ('A' for Active; 'I' for Inactive)
ROOT
ATOM      1  C   UNL d   1       0.582  -4.131   2.843  0.00  0.00    -0.002 A 
ATOM      2  C1  UNL d   1       1.474  -4.018   1.786  0.00  0.00     0.010 A 
ATOM      3  C2  UNL d   1       1.443  -2.902   0.947  0.00  0.00     0.041 A 
ATOM      4  C3  UNL d   1       0.492  -1.891   1.192  0.00  0.00    -0.075 A 
ATOM      5  S   UNL d   1       0.270  -0.434   0.297  0.00  0.00     0.015 SA
ATOM      6  C4  UNL d   1      -1.014   0.072   1.298  0.00  0.00     0.022 A 
ATOM      7  C5  UNL d   1      -1.279  -0.836   2.295  0.00  0.00     0.026 A 
ATOM      8  C6  UNL d   1      -0.415  -1.983   2.251  0.00  0.00    -0.082 A 
ATOM      9  C7  UNL d   1      -0.359  -3.127   3.083  0.00  0.00     0.045 A 
ENDROOT
TORSDOF 0
ENDMDL
