MODEL 1
REMARK minimizedAffinity 11.4448156
REMARK minimizedRMSD -1
REMARK  0 active torsions:
REMARK  status: ('A' for Active; 'I' for Inactive)
ROOT
ATOM      1  C   UNL d   1      -0.397  -3.791   3.352  0.00  0.00    -0.002 A 
ATOM      2  C1  UNL d   1      -1.491  -3.009   3.693  0.00  0.00     0.010 A 
ATOM      3  C2  UNL d   1      -1.689  -1.763   3.093  0.00  0.00     0.041 A 
ATOM      4  C3  UNL d   1      -0.760  -1.314   2.134  0.00  0.00    -0.075 A 
ATOM      5  S   UNL d   1      -0.799   0.176   1.268  0.00  0.00     0.015 SA
ATOM      6  C4  UNL d   1       0.636  -0.191   0.424  0.00  0.00     0.022 A 
ATOM      7  C5  UNL d   1       1.145  -1.417   0.782  0.00  0.00     0.026 A 
ATOM      8  C6  UNL d   1       0.349  -2.084   1.773  0.00  0.00    -0.082 A 
ATOM      9  C7  UNL d   1       0.522  -3.342   2.400  0.00  0.00     0.045 A 
ENDROOT
TORSDOF 0
ENDMDL
