MODEL 1
REMARK minimizedAffinity 4.53727674
REMARK minimizedRMSD -1
REMARK  0 active torsions:
REMARK  status: ('A' for Active; 'I' for Inactive)
ROOT
ATOM      1  C   UNL d   1       0.238  -2.339   3.003  0.00  0.00    -0.002 A 
ATOM      2  C1  UNL d   1       1.187  -2.691   2.054  0.00  0.00     0.010 A 
ATOM      3  C2  UNL d   1       1.098  -2.206   0.748  0.00  0.00     0.041 A 
ATOM      4  C3  UNL d   1       0.029  -1.353   0.408  0.00  0.00    -0.075 A 
ATOM      5  S   UNL d   1      -0.282  -0.638  -1.129  0.00  0.00     0.015 SA
ATOM      6  C4  UNL d   1      -1.683   0.151  -0.562  0.00  0.00     0.022 A 
ATOM      7  C5  UNL d   1      -1.922  -0.114   0.766  0.00  0.00     0.026 A 
ATOM      8  C6  UNL d   1      -0.939  -0.985   1.347  0.00  0.00    -0.082 A 
ATOM      9  C7  UNL d   1      -0.821  -1.493   2.663  0.00  0.00     0.045 A 
ENDROOT
TORSDOF 0
ENDMDL
