MODEL 1
REMARK minimizedAffinity 1.2361424
REMARK minimizedRMSD -1
REMARK  3 active torsions:
REMARK  status: ('A' for Active; 'I' for Inactive)
REMARK    1  A    between atoms: C3'_2  and  C2'_3 
REMARK    2  A    between atoms: C2'_3  and  C1'_4 
REMARK    3  A    between atoms: C1'_4  and  C1_5 
ROOT
ATOM      1  C1  N4B d   1      -0.374   0.023  -0.020  0.00  0.00    -0.075 A 
ATOM      2  C2  N4B d   1      -0.468  -1.259   0.565  0.00  0.00     0.002 A 
ATOM      3  C3  N4B d   1       0.637  -1.833   1.144  0.00  0.00     0.002 A 
ATOM      4  C4  N4B d   1       1.847  -1.155   1.133  0.00  0.00    -0.004 A 
ATOM      5  C5  N4B d   1       1.924   0.094   0.588  0.00  0.00     0.002 A 
ATOM      6  C6  N4B d   1       0.820   0.685   0.007  0.00  0.00     0.002 A 
ENDROOT
BRANCH   1   7
ATOM      7  C1' N4B d   1      -1.534   0.655  -0.740  0.00  0.00     0.057 C 
BRANCH   7   8
ATOM      8  C2' N4B d   1      -1.916  -0.216  -1.933  0.00  0.00     0.009 C 
BRANCH   8   9
ATOM      9  C3' N4B d   1      -2.452   0.610  -3.090  0.00  0.00     0.004 C 
ATOM     10  C4' N4B d   1      -2.527  -0.166  -4.371  0.00  0.00     0.003 C 
ENDBRANCH   8   9
ENDBRANCH   7   8
ENDBRANCH   1   7
TORSDOF 3
ENDMDL
