MODEL 1
REMARK minimizedAffinity -4.96740627
REMARK minimizedRMSD -1
REMARK  3 active torsions:
REMARK  status: ('A' for Active; 'I' for Inactive)
REMARK    1  A    between atoms: C3'_2  and  C2'_3 
REMARK    2  A    between atoms: C2'_3  and  C1'_4 
REMARK    3  A    between atoms: C1'_4  and  C1_5 
ROOT
ATOM      1  C1  N4B d   1       0.797   0.034   0.595  0.00  0.00    -0.075 A 
ATOM      2  C2  N4B d   1       1.821   0.680  -0.131  0.00  0.00     0.002 A 
ATOM      3  C3  N4B d   1       3.136   0.485   0.214  0.00  0.00     0.002 A 
ATOM      4  C4  N4B d   1       3.448  -0.333   1.290  0.00  0.00    -0.004 A 
ATOM      5  C5  N4B d   1       2.455  -0.974   1.970  0.00  0.00     0.002 A 
ATOM      6  C6  N4B d   1       1.129  -0.790   1.632  0.00  0.00     0.002 A 
ENDROOT
BRANCH   1   7
ATOM      7  C1' N4B d   1      -0.658   0.283   0.309  0.00  0.00     0.057 C 
BRANCH   7   8
ATOM      8  C2' N4B d   1      -0.949  -0.063  -1.148  0.00  0.00     0.009 C 
BRANCH   8   9
ATOM      9  C3' N4B d   1      -2.365   0.311  -1.550  0.00  0.00     0.004 C 
ATOM     10  C4' N4B d   1      -2.726  -0.171  -2.924  0.00  0.00     0.003 C 
ENDBRANCH   8   9
ENDBRANCH   7   8
ENDBRANCH   1   7
TORSDOF 3
ENDMDL
