MODEL 1
REMARK minimizedAffinity -4.16793203
REMARK minimizedRMSD -1
REMARK  3 active torsions:
REMARK  status: ('A' for Active; 'I' for Inactive)
REMARK    1  A    between atoms: C3'_2  and  C2'_3 
REMARK    2  A    between atoms: C2'_3  and  C1'_4 
REMARK    3  A    between atoms: C1'_4  and  C1_5 
ROOT
ATOM      1  C1  N4B d   1       0.672   0.152  -0.102  0.00  0.00    -0.075 A 
ATOM      2  C2  N4B d   1       1.763  -0.710   0.142  0.00  0.00     0.002 A 
ATOM      3  C3  N4B d   1       2.698  -0.382   1.093  0.00  0.00     0.002 A 
ATOM      4  C4  N4B d   1       2.574   0.807   1.796  0.00  0.00    -0.004 A 
ATOM      5  C5  N4B d   1       1.503   1.622   1.572  0.00  0.00     0.002 A 
ATOM      6  C6  N4B d   1       0.553   1.303   0.623  0.00  0.00     0.002 A 
ENDROOT
BRANCH   1   7
ATOM      7  C1' N4B d   1      -0.329  -0.122  -1.191  0.00  0.00     0.057 C 
BRANCH   7   8
ATOM      8  C2' N4B d   1      -1.702   0.372  -0.745  0.00  0.00     0.009 C 
BRANCH   8   9
ATOM      9  C3' N4B d   1      -2.652   0.546  -1.918  0.00  0.00     0.004 C 
ATOM     10  C4' N4B d   1      -2.436  -0.474  -2.996  0.00  0.00     0.003 C 
ENDBRANCH   8   9
ENDBRANCH   7   8
ENDBRANCH   1   7
TORSDOF 3
ENDMDL
