MODEL 1
REMARK minimizedAffinity -4.54354143
REMARK minimizedRMSD -1
REMARK  3 active torsions:
REMARK  status: ('A' for Active; 'I' for Inactive)
REMARK    1  A    between atoms: C3'_2  and  C2'_3 
REMARK    2  A    between atoms: C2'_3  and  C1'_4 
REMARK    3  A    between atoms: C1'_4  and  C1_5 
ROOT
ATOM      1  C1  N4B d   1       0.241  -0.128   0.248  0.00  0.00    -0.075 A 
ATOM      2  C2  N4B d   1       1.043  -1.280   0.093  0.00  0.00     0.002 A 
ATOM      3  C3  N4B d   1       2.402  -1.200   0.278  0.00  0.00     0.002 A 
ATOM      4  C4  N4B d   1       2.979   0.019   0.600  0.00  0.00    -0.004 A 
ATOM      5  C5  N4B d   1       2.194   1.121   0.773  0.00  0.00     0.002 A 
ATOM      6  C6  N4B d   1       0.827   1.055   0.593  0.00  0.00     0.002 A 
ENDROOT
BRANCH   1   7
ATOM      7  C1' N4B d   1      -1.238  -0.148  -0.029  0.00  0.00     0.057 C 
BRANCH   7   8
ATOM      8  C2' N4B d   1      -1.475  -0.656  -1.448  0.00  0.00     0.009 C 
BRANCH   8   9
ATOM      9  C3' N4B d   1      -2.515   0.174  -2.182  0.00  0.00     0.004 C 
ATOM     10  C4' N4B d   1      -2.301   0.191  -3.666  0.00  0.00     0.003 C 
ENDBRANCH   8   9
ENDBRANCH   7   8
ENDBRANCH   1   7
TORSDOF 3
ENDMDL
