MODEL 1
REMARK minimizedAffinity -6.01124382
REMARK minimizedRMSD -1
REMARK  3 active torsions:
REMARK  status: ('A' for Active; 'I' for Inactive)
REMARK    1  A    between atoms: C3'_2  and  C2'_3 
REMARK    2  A    between atoms: C2'_3  and  C1'_4 
REMARK    3  A    between atoms: C1'_4  and  C1_5 
ROOT
ATOM      1  C1  N4B d   1       1.071  -0.118   0.755  0.00  0.00    -0.075 A 
ATOM      2  C2  N4B d   1       0.765  -1.183   1.630  0.00  0.00     0.002 A 
ATOM      3  C3  N4B d   1       1.774  -1.961   2.142  0.00  0.00     0.002 A 
ATOM      4  C4  N4B d   1       3.088  -1.707   1.780  0.00  0.00    -0.004 A 
ATOM      5  C5  N4B d   1       3.377  -0.660   0.954  0.00  0.00     0.002 A 
ATOM      6  C6  N4B d   1       2.374   0.133   0.435  0.00  0.00     0.002 A 
ENDROOT
BRANCH   1   7
ATOM      7  C1' N4B d   1      -0.005   0.707   0.102  0.00  0.00     0.057 C 
BRANCH   7   8
ATOM      8  C2' N4B d   1      -0.489  -0.007  -1.157  0.00  0.00     0.009 C 
BRANCH   8   9
ATOM      9  C3' N4B d   1      -2.005  -0.072  -1.226  0.00  0.00     0.004 C 
ATOM     10  C4' N4B d   1      -2.523  -0.059  -2.633  0.00  0.00     0.003 C 
ENDBRANCH   8   9
ENDBRANCH   7   8
ENDBRANCH   1   7
TORSDOF 3
ENDMDL
