MODEL 1
REMARK minimizedAffinity -3.26210904
REMARK minimizedRMSD -1
REMARK  3 active torsions:
REMARK  status: ('A' for Active; 'I' for Inactive)
REMARK    1  A    between atoms: C3'_2  and  C2'_3 
REMARK    2  A    between atoms: C2'_3  and  C1'_4 
REMARK    3  A    between atoms: C1'_4  and  C1_5 
ROOT
ATOM      1  C1  N4B d   1      -0.497   0.330  -0.319  0.00  0.00    -0.075 A 
ATOM      2  C2  N4B d   1       0.481   1.344  -0.412  0.00  0.00     0.002 A 
ATOM      3  C3  N4B d   1       1.626   1.266   0.342  0.00  0.00     0.002 A 
ATOM      4  C4  N4B d   1       1.806   0.196   1.206  0.00  0.00    -0.004 A 
ATOM      5  C5  N4B d   1       0.869  -0.793   1.271  0.00  0.00     0.002 A 
ATOM      6  C6  N4B d   1      -0.285  -0.729   0.516  0.00  0.00     0.002 A 
ENDROOT
BRANCH   1   7
ATOM      7  C1' N4B d   1      -1.804   0.416  -1.059  0.00  0.00     0.057 C 
BRANCH   7   8
ATOM      8  C2' N4B d   1      -1.813  -0.618  -2.181  0.00  0.00     0.009 C 
BRANCH   8   9
ATOM      9  C3' N4B d   1      -2.139   0.006  -3.527  0.00  0.00     0.004 C 
ATOM     10  C4' N4B d   1      -2.422   1.476  -3.431  0.00  0.00     0.003 C 
ENDBRANCH   8   9
ENDBRANCH   7   8
ENDBRANCH   1   7
TORSDOF 3
ENDMDL
