MODEL 1
REMARK minimizedAffinity -2.2726438
REMARK minimizedRMSD -1
REMARK  0 active torsions:
REMARK  status: ('A' for Active; 'I' for Inactive)
ROOT
ATOM      1  C   UNL d   1       3.484  -0.468  -1.576  0.00  0.00     0.077 C 
ATOM      2  C1  UNL d   1       2.107  -0.801  -1.085  0.00  0.00    -0.074 A 
ATOM      3  C2  UNL d   1       1.572  -2.082  -1.259  0.00  0.00    -0.005 A 
ATOM      4  C3  UNL d   1       0.293  -2.380  -0.788  0.00  0.00     0.006 A 
ATOM      5  C4  UNL d   1      -0.462  -1.402  -0.139  0.00  0.00    -0.005 A 
ATOM      6  C5  UNL d   1       0.057  -0.117   0.045  0.00  0.00    -0.074 A 
ATOM      7  C6  UNL d   1      -0.738   0.943   0.749  0.00  0.00     0.077 C 
ATOM      8  C7  UNL d   1       1.345   0.173  -0.425  0.00  0.00    -0.001 A 
ENDROOT
TORSDOF 0
ENDMDL
