MODEL 1
REMARK minimizedAffinity -5.99414587
REMARK minimizedRMSD -1
REMARK  0 active torsions:
REMARK  status: ('A' for Active; 'I' for Inactive)
ROOT
ATOM      1  C   UNL d   1       1.937   1.211  -2.846  0.00  0.00     0.077 C 
ATOM      2  C1  UNL d   1       1.440   0.258  -1.800  0.00  0.00    -0.074 A 
ATOM      3  C2  UNL d   1       1.917  -1.055  -1.739  0.00  0.00    -0.005 A 
ATOM      4  C3  UNL d   1       1.453  -1.927  -0.754  0.00  0.00     0.006 A 
ATOM      5  C4  UNL d   1       0.509  -1.496   0.178  0.00  0.00    -0.005 A 
ATOM      6  C5  UNL d   1       0.022  -0.186   0.134  0.00  0.00    -0.074 A 
ATOM      7  C6  UNL d   1      -0.986   0.297   1.135  0.00  0.00     0.077 C 
ATOM      8  C7  UNL d   1       0.498   0.686  -0.854  0.00  0.00    -0.001 A 
ENDROOT
TORSDOF 0
ENDMDL
