MODEL 1
REMARK minimizedAffinity -3.87767601
REMARK minimizedRMSD -1
REMARK  0 active torsions:
REMARK  status: ('A' for Active; 'I' for Inactive)
ROOT
ATOM      1  C   UNL d   1      -2.204   0.815   3.676  0.00  0.00     0.077 C 
ATOM      2  C1  UNL d   1      -1.710   0.553   2.285  0.00  0.00    -0.074 A 
ATOM      3  C2  UNL d   1      -2.172   1.310   1.203  0.00  0.00    -0.005 A 
ATOM      4  C3  UNL d   1      -1.696   1.062  -0.084  0.00  0.00     0.006 A 
ATOM      5  C4  UNL d   1      -0.754   0.056  -0.303  0.00  0.00    -0.005 A 
ATOM      6  C5  UNL d   1      -0.279  -0.711   0.766  0.00  0.00    -0.074 A 
ATOM      7  C6  UNL d   1       0.740  -1.789   0.550  0.00  0.00     0.077 C 
ATOM      8  C7  UNL d   1      -0.758  -0.450   2.058  0.00  0.00    -0.001 A 
ENDROOT
TORSDOF 0
ENDMDL
