MODEL 1
REMARK minimizedAffinity -4.78553867
REMARK minimizedRMSD -1
REMARK  0 active torsions:
REMARK  status: ('A' for Active; 'I' for Inactive)
ROOT
ATOM      1  C   UNL d   1      -0.518  -2.465   0.628  0.00  0.00     0.077 C 
ATOM      2  C1  UNL d   1       0.062  -1.242  -0.017  0.00  0.00    -0.074 A 
ATOM      3  C2  UNL d   1      -0.654  -0.041  -0.055  0.00  0.00    -0.005 A 
ATOM      4  C3  UNL d   1      -0.097   1.091  -0.650  0.00  0.00     0.006 A 
ATOM      5  C4  UNL d   1       1.179   1.034  -1.211  0.00  0.00    -0.005 A 
ATOM      6  C5  UNL d   1       1.911  -0.157  -1.181  0.00  0.00    -0.074 A 
ATOM      7  C6  UNL d   1       3.287  -0.233  -1.772  0.00  0.00     0.077 C 
ATOM      8  C7  UNL d   1       1.347  -1.289  -0.576  0.00  0.00    -0.001 A 
ENDROOT
TORSDOF 0
ENDMDL
