MODEL 1
REMARK minimizedAffinity -5.25861263
REMARK minimizedRMSD -1
REMARK  0 active torsions:
REMARK  status: ('A' for Active; 'I' for Inactive)
ROOT
ATOM      1  C   UNL d   1      -1.052  -3.115  -0.257  0.00  0.00     0.077 C 
ATOM      2  C1  UNL d   1      -0.340  -1.796  -0.296  0.00  0.00    -0.074 A 
ATOM      3  C2  UNL d   1      -1.023  -0.602  -0.040  0.00  0.00    -0.005 A 
ATOM      4  C3  UNL d   1      -0.345   0.616  -0.071  0.00  0.00     0.006 A 
ATOM      5  C4  UNL d   1       1.021   0.654  -0.358  0.00  0.00    -0.005 A 
ATOM      6  C5  UNL d   1       1.720  -0.530  -0.615  0.00  0.00    -0.074 A 
ATOM      7  C6  UNL d   1       3.190  -0.508  -0.915  0.00  0.00     0.077 C 
ATOM      8  C7  UNL d   1       1.033  -1.751  -0.575  0.00  0.00    -0.001 A 
ENDROOT
TORSDOF 0
ENDMDL
