MODEL 1
REMARK minimizedAffinity -3.98348784
REMARK minimizedRMSD -1
REMARK  0 active torsions:
REMARK  status: ('A' for Active; 'I' for Inactive)
ROOT
ATOM      1  C   UNL d   1       1.919  -2.552  -1.412  0.00  0.00     0.077 C 
ATOM      2  C1  UNL d   1       1.409  -1.197  -1.022  0.00  0.00    -0.074 A 
ATOM      3  C2  UNL d   1       2.052  -0.034  -1.458  0.00  0.00    -0.005 A 
ATOM      4  C3  UNL d   1       1.560   1.220  -1.096  0.00  0.00     0.006 A 
ATOM      5  C4  UNL d   1       0.422   1.323  -0.295  0.00  0.00    -0.005 A 
ATOM      6  C5  UNL d   1      -0.235   0.172   0.149  0.00  0.00    -0.074 A 
ATOM      7  C6  UNL d   1      -1.466   0.266   1.001  0.00  0.00     0.077 C 
ATOM      8  C7  UNL d   1       0.261  -1.084  -0.225  0.00  0.00    -0.001 A 
ENDROOT
TORSDOF 0
ENDMDL
