MODEL 1
REMARK minimizedAffinity -4.04227591
REMARK minimizedRMSD -1
REMARK  0 active torsions:
REMARK  status: ('A' for Active; 'I' for Inactive)
ROOT
ATOM      1  C   UNL d   1      -0.600  -3.045  -0.008  0.00  0.00     0.077 C 
ATOM      2  C1  UNL d   1      -0.083  -1.640  -0.088  0.00  0.00    -0.074 A 
ATOM      3  C2  UNL d   1      -0.903  -0.553   0.234  0.00  0.00    -0.005 A 
ATOM      4  C3  UNL d   1      -0.405   0.748   0.165  0.00  0.00     0.006 A 
ATOM      5  C4  UNL d   1       0.915   0.976  -0.226  0.00  0.00    -0.005 A 
ATOM      6  C5  UNL d   1       1.750  -0.098  -0.551  0.00  0.00    -0.074 A 
ATOM      7  C6  UNL d   1       3.174   0.128  -0.964  0.00  0.00     0.077 C 
ATOM      8  C7  UNL d   1       1.244  -1.403  -0.472  0.00  0.00    -0.001 A 
ENDROOT
TORSDOF 0
ENDMDL
