MODEL 1
REMARK minimizedAffinity -3.81437802
REMARK minimizedRMSD -1
REMARK  0 active torsions:
REMARK  status: ('A' for Active; 'I' for Inactive)
ROOT
ATOM      1  C   UNL d   1       2.621  -1.107  -0.789  0.00  0.00     0.077 C 
ATOM      2  C1  UNL d   1       1.507  -0.114  -0.637  0.00  0.00    -0.074 A 
ATOM      3  C2  UNL d   1       1.439   1.020  -1.453  0.00  0.00    -0.005 A 
ATOM      4  C3  UNL d   1       0.392   1.930  -1.306  0.00  0.00     0.006 A 
ATOM      5  C4  UNL d   1      -0.595   1.716  -0.343  0.00  0.00    -0.005 A 
ATOM      6  C5  UNL d   1      -0.543   0.588   0.481  0.00  0.00    -0.074 A 
ATOM      7  C6  UNL d   1      -1.602   0.338   1.514  0.00  0.00     0.077 C 
ATOM      8  C7  UNL d   1       0.508  -0.326   0.323  0.00  0.00    -0.001 A 
ENDROOT
TORSDOF 0
ENDMDL
