MODEL 1
REMARK minimizedAffinity -1.79681969
REMARK minimizedRMSD -1
REMARK  0 active torsions:
REMARK  status: ('A' for Active; 'I' for Inactive)
ROOT
ATOM      1  C   UNL d   1      -0.666   0.715   0.553  0.00  0.00     0.077 C 
ATOM      2  C1  UNL d   1       0.143  -0.270  -0.237  0.00  0.00    -0.074 A 
ATOM      3  C2  UNL d   1       0.172  -1.623   0.114  0.00  0.00    -0.005 A 
ATOM      4  C3  UNL d   1       0.922  -2.529  -0.636  0.00  0.00     0.006 A 
ATOM      5  C4  UNL d   1       1.650  -2.092  -1.743  0.00  0.00    -0.005 A 
ATOM      6  C5  UNL d   1       1.633  -0.742  -2.110  0.00  0.00    -0.074 A 
ATOM      7  C6  UNL d   1       2.401  -0.257  -3.303  0.00  0.00     0.077 C 
ATOM      8  C7  UNL d   1       0.871   0.161  -1.356  0.00  0.00    -0.001 A 
ENDROOT
TORSDOF 0
ENDMDL
