MODEL 1
REMARK minimizedAffinity -2.41896033
REMARK minimizedRMSD -1
REMARK  0 active torsions:
REMARK  status: ('A' for Active; 'I' for Inactive)
ROOT
ATOM      1  C   UNL d   1      -2.868   1.128   3.438  0.00  0.00     0.077 C 
ATOM      2  C1  UNL d   1      -1.726   1.091   2.466  0.00  0.00    -0.074 A 
ATOM      3  C2  UNL d   1      -1.007   2.249   2.158  0.00  0.00    -0.005 A 
ATOM      4  C3  UNL d   1       0.059   2.197   1.259  0.00  0.00     0.006 A 
ATOM      5  C4  UNL d   1       0.415   0.988   0.661  0.00  0.00    -0.005 A 
ATOM      6  C5  UNL d   1      -0.293  -0.181   0.958  0.00  0.00    -0.074 A 
ATOM      7  C6  UNL d   1       0.083  -1.491   0.331  0.00  0.00     0.077 C 
ATOM      8  C7  UNL d   1      -1.358  -0.122   1.867  0.00  0.00    -0.001 A 
ENDROOT
TORSDOF 0
ENDMDL
