MODEL 1
REMARK minimizedAffinity -2.96588087
REMARK minimizedRMSD -1
REMARK  0 active torsions:
REMARK  status: ('A' for Active; 'I' for Inactive)
ROOT
ATOM      1  C   UNL d   1      -0.901   0.707   0.867  0.00  0.00     0.077 C 
ATOM      2  C1  UNL d   1      -0.102  -0.194  -0.027  0.00  0.00    -0.074 A 
ATOM      3  C2  UNL d   1      -0.302  -1.578  -0.015  0.00  0.00    -0.005 A 
ATOM      4  C3  UNL d   1       0.442  -2.403  -0.859  0.00  0.00     0.006 A 
ATOM      5  C4  UNL d   1       1.391  -1.853  -1.722  0.00  0.00    -0.005 A 
ATOM      6  C5  UNL d   1       1.603  -0.471  -1.748  0.00  0.00    -0.074 A 
ATOM      7  C6  UNL d   1       2.612   0.137  -2.677  0.00  0.00     0.077 C 
ATOM      8  C7  UNL d   1       0.847   0.352  -0.902  0.00  0.00    -0.001 A 
ENDROOT
TORSDOF 0
ENDMDL
