MODEL 1
REMARK minimizedAffinity -3.11232305
REMARK minimizedRMSD -1
REMARK  0 active torsions:
REMARK  status: ('A' for Active; 'I' for Inactive)
ROOT
ATOM      1  C   UNL d   1       0.386  -1.751   0.294  0.00  0.00     0.077 C 
ATOM      2  C1  UNL d   1       1.074  -1.083  -0.859  0.00  0.00    -0.074 A 
ATOM      3  C2  UNL d   1       2.106  -1.726  -1.550  0.00  0.00    -0.005 A 
ATOM      4  C3  UNL d   1       2.730  -1.096  -2.627  0.00  0.00     0.006 A 
ATOM      5  C4  UNL d   1       2.329   0.181  -3.023  0.00  0.00    -0.005 A 
ATOM      6  C5  UNL d   1       1.298   0.838  -2.344  0.00  0.00    -0.074 A 
ATOM      7  C6  UNL d   1       0.848   2.206  -2.763  0.00  0.00     0.077 C 
ATOM      8  C7  UNL d   1       0.671   0.196  -1.268  0.00  0.00    -0.001 A 
ENDROOT
TORSDOF 0
ENDMDL
