MODEL 1
REMARK minimizedAffinity -3.14684725
REMARK minimizedRMSD -1
REMARK  0 active torsions:
REMARK  status: ('A' for Active; 'I' for Inactive)
ROOT
ATOM      1  C   UNL d   1      -1.093   0.765   4.005  0.00  0.00     0.077 C 
ATOM      2  C1  UNL d   1      -1.140   0.528   2.524  0.00  0.00    -0.074 A 
ATOM      3  C2  UNL d   1      -2.205   1.005   1.753  0.00  0.00    -0.005 A 
ATOM      4  C3  UNL d   1      -2.230   0.785   0.376  0.00  0.00     0.006 A 
ATOM      5  C4  UNL d   1      -1.192   0.087  -0.243  0.00  0.00    -0.005 A 
ATOM      6  C5  UNL d   1      -0.119  -0.397   0.512  0.00  0.00    -0.074 A 
ATOM      7  C6  UNL d   1       1.010  -1.140  -0.139  0.00  0.00     0.077 C 
ATOM      8  C7  UNL d   1      -0.097  -0.166   1.894  0.00  0.00    -0.001 A 
ENDROOT
TORSDOF 0
ENDMDL
