MODEL 1
REMARK minimizedAffinity -3.27670836
REMARK minimizedRMSD -1
REMARK  0 active torsions:
REMARK  status: ('A' for Active; 'I' for Inactive)
ROOT
ATOM      1  C   UNL d   1      -1.445   0.680   0.642  0.00  0.00     0.077 C 
ATOM      2  C1  UNL d   1      -0.521  -0.346   0.058  0.00  0.00    -0.074 A 
ATOM      3  C2  UNL d   1      -0.704  -1.708   0.316  0.00  0.00    -0.005 A 
ATOM      4  C3  UNL d   1       0.159  -2.651  -0.243  0.00  0.00     0.006 A 
ATOM      5  C4  UNL d   1       1.211  -2.243  -1.063  0.00  0.00    -0.005 A 
ATOM      6  C5  UNL d   1       1.409  -0.885  -1.333  0.00  0.00    -0.074 A 
ATOM      7  C6  UNL d   1       2.529  -0.429  -2.220  0.00  0.00     0.077 C 
ATOM      8  C7  UNL d   1       0.534   0.056  -0.774  0.00  0.00    -0.001 A 
ENDROOT
TORSDOF 0
ENDMDL
