MODEL 1
REMARK minimizedAffinity -6.06607533
REMARK minimizedRMSD -1
REMARK  0 active torsions:
REMARK  status: ('A' for Active; 'I' for Inactive)
ROOT
ATOM      1  C   UNL d   1       2.999   0.590  -2.561  0.00  0.00     0.077 C 
ATOM      2  C1  UNL d   1       2.010  -0.177  -1.735  0.00  0.00    -0.074 A 
ATOM      3  C2  UNL d   1       2.114  -1.564  -1.593  0.00  0.00    -0.005 A 
ATOM      4  C3  UNL d   1       1.192  -2.263  -0.814  0.00  0.00     0.006 A 
ATOM      5  C4  UNL d   1       0.158  -1.583  -0.169  0.00  0.00    -0.005 A 
ATOM      6  C5  UNL d   1       0.038  -0.196  -0.299  0.00  0.00    -0.074 A 
ATOM      7  C6  UNL d   1      -1.061   0.552   0.395  0.00  0.00     0.077 C 
ATOM      8  C7  UNL d   1       0.973   0.500  -1.078  0.00  0.00    -0.001 A 
ENDROOT
TORSDOF 0
ENDMDL
