MODEL 1
REMARK minimizedAffinity -2.58033299
REMARK minimizedRMSD -1
REMARK  0 active torsions:
REMARK  status: ('A' for Active; 'I' for Inactive)
ROOT
ATOM      1  C   UNL d   1       0.168  -0.072  -0.393  0.00  0.00     0.172 C 
ATOM      2  N   UNL d   1      -0.557   0.142   0.837  0.00  0.00    -0.070 N 
ATOM      3  C1  UNL d   1      -1.911   0.015   0.998  0.00  0.00    -0.004 A 
ATOM      4  C2  UNL d   1      -2.209   0.301   2.313  0.00  0.00    -0.047 A 
ATOM      5  C3  UNL d   1      -0.992   0.612   2.964  0.00  0.00    -0.047 A 
ATOM      6  C4  UNL d   1       0.015   0.505   2.027  0.00  0.00    -0.004 A 
ENDROOT
TORSDOF 0
ENDMDL
