MODEL 1
REMARK minimizedAffinity -3.6573205
REMARK minimizedRMSD -1
REMARK  0 active torsions:
REMARK  status: ('A' for Active; 'I' for Inactive)
ROOT
ATOM      1  C   UNL d   1       0.304  -0.304  -1.116  0.00  0.00     0.172 C 
ATOM      2  N   UNL d   1      -0.160   0.147   0.176  0.00  0.00    -0.070 N 
ATOM      3  C1  UNL d   1       0.606   0.253   1.306  0.00  0.00    -0.004 A 
ATOM      4  C2  UNL d   1      -0.202   0.717   2.321  0.00  0.00    -0.047 A 
ATOM      5  C3  UNL d   1      -1.499   0.894   1.783  0.00  0.00    -0.047 A 
ATOM      6  C4  UNL d   1      -1.444   0.533   0.453  0.00  0.00    -0.004 A 
ENDROOT
TORSDOF 0
ENDMDL
