MODEL 1
REMARK minimizedAffinity -3.27825522
REMARK minimizedRMSD -1
REMARK  0 active torsions:
REMARK  status: ('A' for Active; 'I' for Inactive)
ROOT
ATOM      1  C   UNL d   1      -1.834   0.553   0.107  0.00  0.00     0.172 C 
ATOM      2  N   UNL d   1      -0.966   0.554   1.261  0.00  0.00    -0.070 N 
ATOM      3  C1  UNL d   1       0.394   0.399   1.236  0.00  0.00    -0.004 A 
ATOM      4  C2  UNL d   1       0.850   0.459   2.536  0.00  0.00    -0.047 A 
ATOM      5  C3  UNL d   1      -0.276   0.656   3.370  0.00  0.00    -0.047 A 
ATOM      6  C4  UNL d   1      -1.387   0.711   2.555  0.00  0.00    -0.004 A 
ENDROOT
TORSDOF 0
ENDMDL
