MODEL 1
REMARK minimizedAffinity -3.1924057
REMARK minimizedRMSD -1
REMARK  0 active torsions:
REMARK  status: ('A' for Active; 'I' for Inactive)
ROOT
ATOM      1  C   UNL d   1       0.422  -0.585  -1.044  0.00  0.00     0.172 C 
ATOM      2  N   UNL d   1      -0.051   0.103   0.134  0.00  0.00    -0.070 N 
ATOM      3  C1  UNL d   1       0.712   0.878   0.966  0.00  0.00    -0.004 A 
ATOM      4  C2  UNL d   1      -0.106   1.354   1.968  0.00  0.00    -0.047 A 
ATOM      5  C3  UNL d   1      -1.406   0.847   1.730  0.00  0.00    -0.047 A 
ATOM      6  C4  UNL d   1      -1.343   0.076   0.588  0.00  0.00    -0.004 A 
ENDROOT
TORSDOF 0
ENDMDL
