MODEL 1
REMARK minimizedAffinity -4.12303734
REMARK minimizedRMSD -1
REMARK  0 active torsions:
REMARK  status: ('A' for Active; 'I' for Inactive)
ROOT
ATOM      1  C   UNL d   1       1.771  -0.599   2.993  0.00  0.00     0.172 C 
ATOM      2  N   UNL d   1       0.648   0.213   2.587  0.00  0.00    -0.070 N 
ATOM      3  C1  UNL d   1      -0.209   0.868   3.430  0.00  0.00    -0.004 A 
ATOM      4  C2  UNL d   1      -1.140   1.527   2.657  0.00  0.00    -0.047 A 
ATOM      5  C3  UNL d   1      -0.832   1.258   1.302  0.00  0.00    -0.047 A 
ATOM      6  C4  UNL d   1       0.279   0.442   1.288  0.00  0.00    -0.004 A 
ENDROOT
TORSDOF 0
ENDMDL
