MODEL 1
REMARK minimizedAffinity -3.97981095
REMARK minimizedRMSD -1
REMARK  0 active torsions:
REMARK  status: ('A' for Active; 'I' for Inactive)
ROOT
ATOM      1  C   UNL d   1      -1.747   1.151   1.178  0.00  0.00     0.172 C 
ATOM      2  N   UNL d   1      -0.569   0.719   1.894  0.00  0.00    -0.070 N 
ATOM      3  C1  UNL d   1      -0.357   0.859   3.240  0.00  0.00    -0.004 A 
ATOM      4  C2  UNL d   1       0.879   0.322   3.530  0.00  0.00    -0.047 A 
ATOM      5  C3  UNL d   1       1.429  -0.155   2.316  0.00  0.00    -0.047 A 
ATOM      6  C4  UNL d   1       0.511   0.104   1.320  0.00  0.00    -0.004 A 
ENDROOT
TORSDOF 0
ENDMDL
