MODEL 1
REMARK minimizedAffinity -2.99357867
REMARK minimizedRMSD -1
REMARK  0 active torsions:
REMARK  status: ('A' for Active; 'I' for Inactive)
ROOT
ATOM      1  C   UNL d   1       0.756   0.346   3.376  0.00  0.00     0.172 C 
ATOM      2  N   UNL d   1      -0.014   0.322   2.154  0.00  0.00    -0.070 N 
ATOM      3  C1  UNL d   1      -1.329   0.681   2.032  0.00  0.00    -0.004 A 
ATOM      4  C2  UNL d   1      -1.691   0.518   0.712  0.00  0.00    -0.047 A 
ATOM      5  C3  UNL d   1      -0.553   0.045   0.017  0.00  0.00    -0.047 A 
ATOM      6  C4  UNL d   1       0.471  -0.068   0.933  0.00  0.00    -0.004 A 
ENDROOT
TORSDOF 0
ENDMDL
