MODEL 1
REMARK minimizedAffinity -3.34976506
REMARK minimizedRMSD -1
REMARK  0 active torsions:
REMARK  status: ('A' for Active; 'I' for Inactive)
ROOT
ATOM      1  C   UNL d   1       0.382  -0.595  -1.203  0.00  0.00     0.172 C 
ATOM      2  N   UNL d   1      -0.113  -0.168   0.085  0.00  0.00    -0.070 N 
ATOM      3  C1  UNL d   1       0.650   0.057   1.199  0.00  0.00    -0.004 A 
ATOM      4  C2  UNL d   1      -0.193   0.451   2.216  0.00  0.00    -0.047 A 
ATOM      5  C3  UNL d   1      -1.509   0.462   1.695  0.00  0.00    -0.047 A 
ATOM      6  C4  UNL d   1      -1.430   0.075   0.373  0.00  0.00    -0.004 A 
ENDROOT
TORSDOF 0
ENDMDL
