MODEL 1
REMARK minimizedAffinity 12.5177994
REMARK minimizedRMSD -1
REMARK  0 active torsions:
REMARK  status: ('A' for Active; 'I' for Inactive)
ROOT
ATOM      1  C   UNL d   1      -1.512  -2.911  -3.533  0.00  0.00     0.077 C 
ATOM      2  C1  UNL d   1      -0.531  -3.380  -2.500  0.00  0.00    -0.074 A 
ATOM      3  C2  UNL d   1      -0.345  -4.743  -2.251  0.00  0.00    -0.005 A 
ATOM      4  C3  UNL d   1       0.578  -5.164  -1.293  0.00  0.00     0.006 A 
ATOM      5  C4  UNL d   1       1.323  -4.227  -0.577  0.00  0.00    -0.005 A 
ATOM      6  C5  UNL d   1       1.152  -2.859  -0.813  0.00  0.00    -0.074 A 
ATOM      7  C6  UNL d   1       1.953  -1.840  -0.059  0.00  0.00     0.077 C 
ATOM      8  C7  UNL d   1       0.228  -2.445  -1.781  0.00  0.00    -0.001 A 
ENDROOT
TORSDOF 0
ENDMDL
