MODEL 1
REMARK minimizedAffinity 7.49826384
REMARK minimizedRMSD -1
REMARK  0 active torsions:
REMARK  status: ('A' for Active; 'I' for Inactive)
ROOT
ATOM      1  C   UNL d   1      -1.438  -4.507  -3.512  0.00  0.00     0.077 C 
ATOM      2  C1  UNL d   1      -0.213  -4.827  -2.708  0.00  0.00    -0.074 A 
ATOM      3  C2  UNL d   1       0.751  -5.718  -3.192  0.00  0.00    -0.005 A 
ATOM      4  C3  UNL d   1       1.890  -5.999  -2.437  0.00  0.00     0.006 A 
ATOM      5  C4  UNL d   1       2.076  -5.393  -1.194  0.00  0.00    -0.005 A 
ATOM      6  C5  UNL d   1       1.123  -4.499  -0.695  0.00  0.00    -0.074 A 
ATOM      7  C6  UNL d   1       1.313  -3.832   0.635  0.00  0.00     0.077 C 
ATOM      8  C7  UNL d   1      -0.015  -4.217  -1.462  0.00  0.00    -0.001 A 
ENDROOT
TORSDOF 0
ENDMDL
