MODEL 1
REMARK minimizedAffinity 6.9348259
REMARK minimizedRMSD -1
REMARK  0 active torsions:
REMARK  status: ('A' for Active; 'I' for Inactive)
ROOT
ATOM      1  C   UNL d   1      -0.753   5.999  -4.276  0.00  0.00     0.077 C 
ATOM      2  C1  UNL d   1      -0.630   5.441  -2.889  0.00  0.00    -0.074 A 
ATOM      3  C2  UNL d   1       0.291   4.429  -2.601  0.00  0.00    -0.005 A 
ATOM      4  C3  UNL d   1       0.401   3.926  -1.305  0.00  0.00     0.006 A 
ATOM      5  C4  UNL d   1      -0.408   4.428  -0.285  0.00  0.00    -0.005 A 
ATOM      6  C5  UNL d   1      -1.334   5.441  -0.554  0.00  0.00    -0.074 A 
ATOM      7  C6  UNL d   1      -2.205   6.000   0.532  0.00  0.00     0.077 C 
ATOM      8  C7  UNL d   1      -1.434   5.946  -1.858  0.00  0.00    -0.001 A 
ENDROOT
TORSDOF 0
ENDMDL
