MODEL 1
REMARK minimizedAffinity 9.8104372
REMARK minimizedRMSD -1
REMARK  0 active torsions:
REMARK  status: ('A' for Active; 'I' for Inactive)
ROOT
ATOM      1  C   UNL d   1      -0.701   4.322  -1.266  0.00  0.00     0.077 C 
ATOM      2  C1  UNL d   1       0.062   3.842  -0.068  0.00  0.00    -0.074 A 
ATOM      3  C2  UNL d   1       1.442   4.048   0.036  0.00  0.00    -0.005 A 
ATOM      4  C3  UNL d   1       2.136   3.605   1.161  0.00  0.00     0.006 A 
ATOM      5  C4  UNL d   1       1.460   2.952   2.192  0.00  0.00    -0.005 A 
ATOM      6  C5  UNL d   1       0.081   2.737   2.107  0.00  0.00    -0.074 A 
ATOM      7  C6  UNL d   1      -0.663   2.046   3.210  0.00  0.00     0.077 C 
ATOM      8  C7  UNL d   1      -0.612   3.192   0.976  0.00  0.00    -0.001 A 
ENDROOT
TORSDOF 0
ENDMDL
