MODEL 1
REMARK minimizedAffinity -1.20887959
REMARK minimizedRMSD -1
REMARK  0 active torsions:
REMARK  status: ('A' for Active; 'I' for Inactive)
ROOT
ATOM      1  C   UNL d   1      -0.012   2.270   3.659  0.00  0.00     0.077 C 
ATOM      2  C1  UNL d   1       0.552   2.984   2.467  0.00  0.00    -0.074 A 
ATOM      3  C2  UNL d   1       1.888   3.398   2.442  0.00  0.00    -0.005 A 
ATOM      4  C3  UNL d   1       2.401   4.052   1.322  0.00  0.00     0.006 A 
ATOM      5  C4  UNL d   1       1.585   4.299   0.217  0.00  0.00    -0.005 A 
ATOM      6  C5  UNL d   1       0.247   3.891   0.224  0.00  0.00    -0.074 A 
ATOM      7  C6  UNL d   1      -0.641   4.140  -0.959  0.00  0.00     0.077 C 
ATOM      8  C7  UNL d   1      -0.259   3.228   1.350  0.00  0.00    -0.001 A 
ENDROOT
TORSDOF 0
ENDMDL
