MODEL 1
REMARK minimizedAffinity 9.56686211
REMARK minimizedRMSD -1
REMARK  0 active torsions:
REMARK  status: ('A' for Active; 'I' for Inactive)
ROOT
ATOM      1  C   UNL d   1       2.304  -0.908   0.133  0.00  0.00     0.077 C 
ATOM      2  C1  UNL d   1       2.957   0.388  -0.249  0.00  0.00    -0.074 A 
ATOM      3  C2  UNL d   1       2.748   1.548   0.504  0.00  0.00    -0.005 A 
ATOM      4  C3  UNL d   1       3.369   2.743   0.142  0.00  0.00     0.006 A 
ATOM      5  C4  UNL d   1       4.206   2.790  -0.974  0.00  0.00    -0.005 A 
ATOM      6  C5  UNL d   1       4.428   1.640  -1.738  0.00  0.00    -0.074 A 
ATOM      7  C6  UNL d   1       5.331   1.671  -2.935  0.00  0.00     0.077 C 
ATOM      8  C7  UNL d   1       3.805   0.441  -1.364  0.00  0.00    -0.001 A 
ENDROOT
TORSDOF 0
ENDMDL
