MODEL 1
REMARK minimizedAffinity 8.60544968
REMARK minimizedRMSD -1
REMARK  0 active torsions:
REMARK  status: ('A' for Active; 'I' for Inactive)
ROOT
ATOM      1  C   UNL d   1      -4.300   0.934   1.367  0.00  0.00     0.077 C 
ATOM      2  C1  UNL d   1      -4.487   0.577  -0.078  0.00  0.00    -0.074 A 
ATOM      3  C2  UNL d   1      -5.767   0.442  -0.625  0.00  0.00    -0.005 A 
ATOM      4  C3  UNL d   1      -5.925   0.119  -1.973  0.00  0.00     0.006 A 
ATOM      5  C4  UNL d   1      -4.807  -0.073  -2.785  0.00  0.00    -0.005 A 
ATOM      6  C5  UNL d   1      -3.519   0.058  -2.256  0.00  0.00    -0.074 A 
ATOM      7  C6  UNL d   1      -2.307  -0.135  -3.117  0.00  0.00     0.077 C 
ATOM      8  C7  UNL d   1      -3.368   0.390  -0.902  0.00  0.00    -0.001 A 
ENDROOT
TORSDOF 0
ENDMDL
