MODEL 1
REMARK minimizedAffinity 7.2238903
REMARK minimizedRMSD -1
REMARK  0 active torsions:
REMARK  status: ('A' for Active; 'I' for Inactive)
ROOT
ATOM      1  C   UNL d   1       3.928   2.100  -1.507  0.00  0.00     0.077 C 
ATOM      2  C1  UNL d   1       3.426   0.728  -1.166  0.00  0.00    -0.074 A 
ATOM      3  C2  UNL d   1       3.121   0.382   0.154  0.00  0.00    -0.005 A 
ATOM      4  C3  UNL d   1       2.646  -0.895   0.455  0.00  0.00     0.006 A 
ATOM      5  C4  UNL d   1       2.472  -1.837  -0.560  0.00  0.00    -0.005 A 
ATOM      6  C5  UNL d   1       2.772  -1.509  -1.886  0.00  0.00    -0.074 A 
ATOM      7  C6  UNL d   1       2.581  -2.506  -2.990  0.00  0.00     0.077 C 
ATOM      8  C7  UNL d   1       3.242  -0.222  -2.181  0.00  0.00    -0.001 A 
ENDROOT
TORSDOF 0
ENDMDL
