MODEL 1
REMARK minimizedAffinity 5.26521063
REMARK minimizedRMSD -1
REMARK  0 active torsions:
REMARK  status: ('A' for Active; 'I' for Inactive)
ROOT
ATOM      1  C   UNL d   1       2.996  -1.838   1.224  0.00  0.00     0.077 C 
ATOM      2  C1  UNL d   1       2.929  -0.642   0.321  0.00  0.00    -0.074 A 
ATOM      3  C2  UNL d   1       1.836  -0.442  -0.528  0.00  0.00    -0.005 A 
ATOM      4  C3  UNL d   1       1.784   0.680  -1.355  0.00  0.00     0.006 A 
ATOM      5  C4  UNL d   1       2.822   1.612  -1.341  0.00  0.00    -0.005 A 
ATOM      6  C5  UNL d   1       3.922   1.430  -0.498  0.00  0.00    -0.074 A 
ATOM      7  C6  UNL d   1       5.042   2.427  -0.463  0.00  0.00     0.077 C 
ATOM      8  C7  UNL d   1       3.964   0.303   0.335  0.00  0.00    -0.001 A 
ENDROOT
TORSDOF 0
ENDMDL
