MODEL 1
REMARK minimizedAffinity 10.6180935
REMARK minimizedRMSD -1
REMARK  0 active torsions:
REMARK  status: ('A' for Active; 'I' for Inactive)
ROOT
ATOM      1  C   UNL d   1       0.655  -2.072  -2.324  0.00  0.00     0.077 C 
ATOM      2  C1  UNL d   1       1.611  -1.434  -1.360  0.00  0.00    -0.074 A 
ATOM      3  C2  UNL d   1       2.142  -2.159  -0.288  0.00  0.00    -0.005 A 
ATOM      4  C3  UNL d   1       3.036  -1.556   0.595  0.00  0.00     0.006 A 
ATOM      5  C4  UNL d   1       3.409  -0.223   0.416  0.00  0.00    -0.005 A 
ATOM      6  C5  UNL d   1       2.889   0.518  -0.650  0.00  0.00    -0.074 A 
ATOM      7  C6  UNL d   1       3.287   1.948  -0.863  0.00  0.00     0.077 C 
ATOM      8  C7  UNL d   1       1.996  -0.098  -1.537  0.00  0.00    -0.001 A 
ENDROOT
TORSDOF 0
ENDMDL
