MODEL 1
REMARK minimizedAffinity 11.6451025
REMARK minimizedRMSD -1
REMARK  0 active torsions:
REMARK  status: ('A' for Active; 'I' for Inactive)
ROOT
ATOM      1  C   UNL d   1      -5.235   2.354   1.665  0.00  0.00     0.077 C 
ATOM      2  C1  UNL d   1      -5.383   3.632   2.437  0.00  0.00    -0.074 A 
ATOM      3  C2  UNL d   1      -5.859   4.793   1.820  0.00  0.00    -0.005 A 
ATOM      4  C3  UNL d   1      -6.000   5.971   2.553  0.00  0.00     0.006 A 
ATOM      5  C4  UNL d   1      -5.667   6.000   3.908  0.00  0.00    -0.005 A 
ATOM      6  C5  UNL d   1      -5.191   4.848   4.542  0.00  0.00    -0.074 A 
ATOM      7  C6  UNL d   1      -4.839   4.859   6.000  0.00  0.00     0.077 C 
ATOM      8  C7  UNL d   1      -5.059   3.666   3.800  0.00  0.00    -0.001 A 
ENDROOT
TORSDOF 0
ENDMDL
