MODEL 1
REMARK minimizedAffinity 9.72284794
REMARK minimizedRMSD -1
REMARK  0 active torsions:
REMARK  status: ('A' for Active; 'I' for Inactive)
ROOT
ATOM      1  C   UNL d   1      -5.296   5.790   0.661  0.00  0.00     0.077 C 
ATOM      2  C1  UNL d   1      -5.528   5.082   1.963  0.00  0.00    -0.074 A 
ATOM      3  C2  UNL d   1      -5.603   3.687   2.019  0.00  0.00    -0.005 A 
ATOM      4  C3  UNL d   1      -5.810   3.042   3.238  0.00  0.00     0.006 A 
ATOM      5  C4  UNL d   1      -5.942   3.784   4.412  0.00  0.00    -0.005 A 
ATOM      6  C5  UNL d   1      -5.869   5.180   4.376  0.00  0.00    -0.074 A 
ATOM      7  C6  UNL d   1      -6.000   5.993   5.630  0.00  0.00     0.077 C 
ATOM      8  C7  UNL d   1      -5.654   5.821   3.148  0.00  0.00    -0.001 A 
ENDROOT
TORSDOF 0
ENDMDL
