MODEL 1
REMARK minimizedAffinity 3.97362185
REMARK minimizedRMSD -1
REMARK  0 active torsions:
REMARK  status: ('A' for Active; 'I' for Inactive)
ROOT
ATOM      1  C   UNL d   1      -1.797   5.998   4.882  0.00  0.00     0.077 C 
ATOM      2  C1  UNL d   1      -3.261   5.674   4.895  0.00  0.00    -0.074 A 
ATOM      3  C2  UNL d   1      -4.060   6.000   5.996  0.00  0.00    -0.005 A 
ATOM      4  C3  UNL d   1      -5.422   5.700   5.990  0.00  0.00     0.006 A 
ATOM      5  C4  UNL d   1      -5.999   5.073   4.885  0.00  0.00    -0.005 A 
ATOM      6  C5  UNL d   1      -5.216   4.740   3.775  0.00  0.00    -0.074 A 
ATOM      7  C6  UNL d   1      -5.822   4.075   2.575  0.00  0.00     0.077 C 
ATOM      8  C7  UNL d   1      -3.850   5.051   3.786  0.00  0.00    -0.001 A 
ENDROOT
TORSDOF 0
ENDMDL
