MODEL 1
REMARK minimizedAffinity 18.1475296
REMARK minimizedRMSD -1
REMARK  0 active torsions:
REMARK  status: ('A' for Active; 'I' for Inactive)
ROOT
ATOM      1  C   UNL d   1       1.536  -3.205  -1.304  0.00  0.00     0.077 C 
ATOM      2  C1  UNL d   1       2.270  -2.192  -0.477  0.00  0.00    -0.074 A 
ATOM      3  C2  UNL d   1       2.735  -2.510   0.803  0.00  0.00    -0.005 A 
ATOM      4  C3  UNL d   1       3.424  -1.560   1.557  0.00  0.00     0.006 A 
ATOM      5  C4  UNL d   1       3.655  -0.285   1.039  0.00  0.00    -0.005 A 
ATOM      6  C5  UNL d   1       3.197   0.051  -0.239  0.00  0.00    -0.074 A 
ATOM      7  C6  UNL d   1       3.445   1.414  -0.814  0.00  0.00     0.077 C 
ATOM      8  C7  UNL d   1       2.512  -0.911  -0.993  0.00  0.00    -0.001 A 
ENDROOT
TORSDOF 0
ENDMDL
