MODEL 1
REMARK minimizedAffinity -5.30403757
REMARK minimizedRMSD -1
REMARK  0 active torsions:
REMARK  status: ('A' for Active; 'I' for Inactive)
ROOT
ATOM      1  C1  BNZ d   1      -0.649  -0.900   0.873  0.00  0.00     0.000 A 
ATOM      2  C2  BNZ d   1      -1.626  -0.492   0.004  0.00  0.00     0.000 A 
ATOM      3  C3  BNZ d   1      -2.789  -1.199  -0.124  0.00  0.00     0.000 A 
ATOM      4  C4  BNZ d   1      -2.957  -2.333   0.587  0.00  0.00     0.000 A 
ATOM      5  C5  BNZ d   1      -1.978  -2.762   1.461  0.00  0.00     0.000 A 
ATOM      6  C6  BNZ d   1      -0.825  -2.027   1.616  0.00  0.00     0.000 A 
ENDROOT
TORSDOF 0
ENDMDL
