MODEL 1
REMARK minimizedAffinity -4.87579298
REMARK minimizedRMSD -1
REMARK  0 active torsions:
REMARK  status: ('A' for Active; 'I' for Inactive)
ROOT
ATOM      1  C1  BNZ d   1       0.004  -0.694   0.065  0.00  0.00     0.000 A 
ATOM      2  C2  BNZ d   1      -1.295  -1.115   0.175  0.00  0.00     0.000 A 
ATOM      3  C3  BNZ d   1      -2.228  -0.755  -0.756  0.00  0.00     0.000 A 
ATOM      4  C4  BNZ d   1      -1.872   0.057  -1.772  0.00  0.00     0.000 A 
ATOM      5  C5  BNZ d   1      -0.569   0.498  -1.891  0.00  0.00     0.000 A 
ATOM      6  C6  BNZ d   1       0.377   0.102  -0.974  0.00  0.00     0.000 A 
ENDROOT
TORSDOF 0
ENDMDL
