MODEL 1
REMARK minimizedAffinity -4.13749361
REMARK minimizedRMSD -1
REMARK  0 active torsions:
REMARK  status: ('A' for Active; 'I' for Inactive)
ROOT
ATOM      1  C1  BNZ d   1      -2.236   0.052  -1.289  0.00  0.00     0.000 A 
ATOM      2  C2  BNZ d   1      -0.871   0.101  -1.383  0.00  0.00     0.000 A 
ATOM      3  C3  BNZ d   1      -0.089   0.019  -0.265  0.00  0.00     0.000 A 
ATOM      4  C4  BNZ d   1      -0.673  -0.071   0.948  0.00  0.00     0.000 A 
ATOM      5  C5  BNZ d   1      -2.048  -0.113   1.059  0.00  0.00     0.000 A 
ATOM      6  C6  BNZ d   1      -2.831  -0.070  -0.071  0.00  0.00     0.000 A 
ENDROOT
TORSDOF 0
ENDMDL
