MODEL 1
REMARK minimizedAffinity -4.32069492
REMARK minimizedRMSD -1
REMARK  0 active torsions:
REMARK  status: ('A' for Active; 'I' for Inactive)
ROOT
ATOM      1  C1  BNZ d   1       0.159  -0.021  -1.469  0.00  0.00     0.000 A 
ATOM      2  C2  BNZ d   1      -1.147  -0.214  -1.109  0.00  0.00     0.000 A 
ATOM      3  C3  BNZ d   1      -1.471  -0.633   0.152  0.00  0.00     0.000 A 
ATOM      4  C4  BNZ d   1      -0.488  -0.897   1.036  0.00  0.00     0.000 A 
ATOM      5  C5  BNZ d   1       0.835  -0.716   0.684  0.00  0.00     0.000 A 
ATOM      6  C6  BNZ d   1       1.156  -0.257  -0.572  0.00  0.00     0.000 A 
ENDROOT
TORSDOF 0
ENDMDL
