MODEL 1
REMARK minimizedAffinity -4.222188
REMARK minimizedRMSD -1
REMARK  0 active torsions:
REMARK  status: ('A' for Active; 'I' for Inactive)
ROOT
ATOM      1  C1  BNZ d   1      -2.029  -0.905  -1.235  0.00  0.00     0.000 A 
ATOM      2  C2  BNZ d   1      -0.812  -0.278  -1.249  0.00  0.00     0.000 A 
ATOM      3  C3  BNZ d   1      -0.345   0.369  -0.139  0.00  0.00     0.000 A 
ATOM      4  C4  BNZ d   1      -1.111   0.422   0.969  0.00  0.00     0.000 A 
ATOM      5  C5  BNZ d   1      -2.345  -0.198   0.996  0.00  0.00     0.000 A 
ATOM      6  C6  BNZ d   1      -2.795  -0.881  -0.110  0.00  0.00     0.000 A 
ENDROOT
TORSDOF 0
ENDMDL
