MODEL 1
REMARK minimizedAffinity -5.02986717
REMARK minimizedRMSD -1
REMARK  0 active torsions:
REMARK  status: ('A' for Active; 'I' for Inactive)
ROOT
ATOM      1  C1  BNZ d   1      -1.117  -0.872   1.287  0.00  0.00     0.000 A 
ATOM      2  C2  BNZ d   1       0.101  -0.602   0.723  0.00  0.00     0.000 A 
ATOM      3  C3  BNZ d   1       0.188  -0.006  -0.504  0.00  0.00     0.000 A 
ATOM      4  C4  BNZ d   1      -0.941   0.282  -1.182  0.00  0.00     0.000 A 
ATOM      5  C5  BNZ d   1      -2.177   0.007  -0.631  0.00  0.00     0.000 A 
ATOM      6  C6  BNZ d   1      -2.261  -0.557   0.621  0.00  0.00     0.000 A 
ENDROOT
TORSDOF 0
ENDMDL
