MODEL 1
REMARK minimizedAffinity -4.27338266
REMARK minimizedRMSD -1
REMARK  0 active torsions:
REMARK  status: ('A' for Active; 'I' for Inactive)
ROOT
ATOM      1  C1  BNZ d   1      -2.124  -0.767   0.775  0.00  0.00     0.000 A 
ATOM      2  C2  BNZ d   1      -0.911  -0.140   0.873  0.00  0.00     0.000 A 
ATOM      3  C3  BNZ d   1      -0.214   0.216  -0.248  0.00  0.00     0.000 A 
ATOM      4  C4  BNZ d   1      -0.713  -0.091  -1.463  0.00  0.00     0.000 A 
ATOM      5  C5  BNZ d   1      -1.930  -0.731  -1.579  0.00  0.00     0.000 A 
ATOM      6  C6  BNZ d   1      -2.646  -1.053  -0.449  0.00  0.00     0.000 A 
ENDROOT
TORSDOF 0
ENDMDL
