MODEL 1
REMARK minimizedAffinity -5.16938114
REMARK minimizedRMSD -1
REMARK  0 active torsions:
REMARK  status: ('A' for Active; 'I' for Inactive)
ROOT
ATOM      1  C1  BNZ d   1      -0.602   0.100  -1.051  0.00  0.00     0.000 A 
ATOM      2  C2  BNZ d   1      -1.927   0.222  -1.375  0.00  0.00     0.000 A 
ATOM      3  C3  BNZ d   1      -2.900  -0.202  -0.514  0.00  0.00     0.000 A 
ATOM      4  C4  BNZ d   1      -2.547  -0.785   0.650  0.00  0.00     0.000 A 
ATOM      5  C5  BNZ d   1      -1.215  -0.924   0.987  0.00  0.00     0.000 A 
ATOM      6  C6  BNZ d   1      -0.239  -0.460   0.135  0.00  0.00     0.000 A 
ENDROOT
TORSDOF 0
ENDMDL
