MODEL 1
REMARK minimizedAffinity -4.40632534
REMARK minimizedRMSD -1
REMARK  0 active torsions:
REMARK  status: ('A' for Active; 'I' for Inactive)
ROOT
ATOM      1  C1  BNZ d   1      -1.207  -1.337   1.347  0.00  0.00     0.000 A 
ATOM      2  C2  BNZ d   1      -0.742  -0.321   0.555  0.00  0.00     0.000 A 
ATOM      3  C3  BNZ d   1      -1.293  -0.083  -0.673  0.00  0.00     0.000 A 
ATOM      4  C4  BNZ d   1      -2.280  -0.884  -1.124  0.00  0.00     0.000 A 
ATOM      5  C5  BNZ d   1      -2.753  -1.919  -0.341  0.00  0.00     0.000 A 
ATOM      6  C6  BNZ d   1      -2.222  -2.131   0.911  0.00  0.00     0.000 A 
ENDROOT
TORSDOF 0
ENDMDL
