MODEL 1
REMARK minimizedAffinity -2.82954144
REMARK minimizedRMSD -1
REMARK  0 active torsions:
REMARK  status: ('A' for Active; 'I' for Inactive)
ROOT
ATOM      1  C1  BNZ d   1      -2.639  -2.551  -0.326  0.00  0.00     0.000 A 
ATOM      2  C2  BNZ d   1      -2.352  -1.441  -1.074  0.00  0.00     0.000 A 
ATOM      3  C3  BNZ d   1      -1.224  -0.707  -0.834  0.00  0.00     0.000 A 
ATOM      4  C4  BNZ d   1      -0.407  -1.060   0.179  0.00  0.00     0.000 A 
ATOM      5  C5  BNZ d   1      -0.687  -2.171   0.949  0.00  0.00     0.000 A 
ATOM      6  C6  BNZ d   1      -1.803  -2.930   0.679  0.00  0.00     0.000 A 
ENDROOT
TORSDOF 0
ENDMDL
