MODEL 1
REMARK minimizedAffinity -5.22390985
REMARK minimizedRMSD -1
REMARK  0 active torsions:
REMARK  status: ('A' for Active; 'I' for Inactive)
ROOT
ATOM      1  C1  BNZ d   1      -3.066  -0.999  -0.035  0.00  0.00     0.000 A 
ATOM      2  C2  BNZ d   1      -3.110  -2.207   0.609  0.00  0.00     0.000 A 
ATOM      3  C3  BNZ d   1      -2.126  -2.570   1.484  0.00  0.00     0.000 A 
ATOM      4  C4  BNZ d   1      -1.079  -1.743   1.685  0.00  0.00     0.000 A 
ATOM      5  C5  BNZ d   1      -1.015  -0.526   1.036  0.00  0.00     0.000 A 
ATOM      6  C6  BNZ d   1      -2.028  -0.147   0.185  0.00  0.00     0.000 A 
ENDROOT
TORSDOF 0
ENDMDL
