MODEL 1
REMARK minimizedAffinity -4.6098094
REMARK minimizedRMSD -1
REMARK  0 active torsions:
REMARK  status: ('A' for Active; 'I' for Inactive)
ROOT
ATOM      1  C1  BNZ d   1      -1.284  -1.722   0.674  0.00  0.00     0.000 A 
ATOM      2  C2  BNZ d   1       0.026  -1.772   1.072  0.00  0.00     0.000 A 
ATOM      3  C3  BNZ d   1       0.965  -0.965   0.494  0.00  0.00     0.000 A 
ATOM      4  C4  BNZ d   1       0.602  -0.138  -0.507  0.00  0.00     0.000 A 
ATOM      5  C5  BNZ d   1      -0.713  -0.082  -0.926  0.00  0.00     0.000 A 
ATOM      6  C6  BNZ d   1      -1.662  -0.868  -0.315  0.00  0.00     0.000 A 
ENDROOT
TORSDOF 0
ENDMDL
