MODEL 1
REMARK minimizedAffinity -4.57990885
REMARK minimizedRMSD -1
REMARK  0 active torsions:
REMARK  status: ('A' for Active; 'I' for Inactive)
ROOT
ATOM      1  C1  BNZ d   1       3.619   2.123  -1.482  0.00  0.00     0.000 A 
ATOM      2  C2  BNZ d   1       4.267   2.699  -2.541  0.00  0.00     0.000 A 
ATOM      3  C3  BNZ d   1       4.371   4.058  -2.643  0.00  0.00     0.000 A 
ATOM      4  C4  BNZ d   1       3.795   4.839  -1.707  0.00  0.00     0.000 A 
ATOM      5  C5  BNZ d   1       3.130   4.273  -0.637  0.00  0.00     0.000 A 
ATOM      6  C6  BNZ d   1       3.060   2.904  -0.518  0.00  0.00     0.000 A 
ENDROOT
TORSDOF 0
ENDMDL
