MODEL 1
REMARK minimizedAffinity -4.12312174
REMARK minimizedRMSD -1
REMARK  0 active torsions:
REMARK  status: ('A' for Active; 'I' for Inactive)
ROOT
ATOM      1  C1  BNZ d   1       2.333   3.904  -0.273  0.00  0.00     0.000 A 
ATOM      2  C2  BNZ d   1       2.998   4.532  -1.293  0.00  0.00     0.000 A 
ATOM      3  C3  BNZ d   1       3.725   3.814  -2.200  0.00  0.00     0.000 A 
ATOM      4  C4  BNZ d   1       3.820   2.475  -2.064  0.00  0.00     0.000 A 
ATOM      5  C5  BNZ d   1       3.163   1.829  -1.036  0.00  0.00     0.000 A 
ATOM      6  C6  BNZ d   1       2.399   2.551  -0.147  0.00  0.00     0.000 A 
ENDROOT
TORSDOF 0
ENDMDL
