MODEL 1
REMARK minimizedAffinity -2.55416465
REMARK minimizedRMSD -1
REMARK  0 active torsions:
REMARK  status: ('A' for Active; 'I' for Inactive)
ROOT
ATOM      1  C1  BNZ d   1       3.739   3.093  -0.531  0.00  0.00     0.000 A 
ATOM      2  C2  BNZ d   1       3.144   4.029   0.272  0.00  0.00     0.000 A 
ATOM      3  C3  BNZ d   1       2.134   3.680   1.125  0.00  0.00     0.000 A 
ATOM      4  C4  BNZ d   1       1.694   2.405   1.145  0.00  0.00     0.000 A 
ATOM      5  C5  BNZ d   1       2.278   1.451   0.334  0.00  0.00     0.000 A 
ATOM      6  C6  BNZ d   1       3.320   1.799  -0.494  0.00  0.00     0.000 A 
ENDROOT
TORSDOF 0
ENDMDL
