MODEL 1
REMARK minimizedAffinity -4.11833954
REMARK minimizedRMSD -1
REMARK  0 active torsions:
REMARK  status: ('A' for Active; 'I' for Inactive)
ROOT
ATOM      1  C1  BNZ d   1       2.708   3.865  -0.718  0.00  0.00     0.000 A 
ATOM      2  C2  BNZ d   1       2.689   4.395   0.544  0.00  0.00     0.000 A 
ATOM      3  C3  BNZ d   1       2.572   3.588   1.641  0.00  0.00     0.000 A 
ATOM      4  C4  BNZ d   1       2.435   2.257   1.473  0.00  0.00     0.000 A 
ATOM      5  C5  BNZ d   1       2.443   1.708   0.206  0.00  0.00     0.000 A 
ATOM      6  C6  BNZ d   1       2.600   2.520  -0.894  0.00  0.00     0.000 A 
ENDROOT
TORSDOF 0
ENDMDL
