MODEL 1
REMARK minimizedAffinity 2.11129785
REMARK minimizedRMSD -1
REMARK  0 active torsions:
REMARK  status: ('A' for Active; 'I' for Inactive)
ROOT
ATOM      1  C1  BNZ d   1       3.094   0.336   2.738  0.00  0.00     0.000 A 
ATOM      2  C2  BNZ d   1       2.583  -0.785   3.336  0.00  0.00     0.000 A 
ATOM      3  C3  BNZ d   1       1.752  -1.627   2.651  0.00  0.00     0.000 A 
ATOM      4  C4  BNZ d   1       1.401  -1.326   1.384  0.00  0.00     0.000 A 
ATOM      5  C5  BNZ d   1       1.901  -0.194   0.770  0.00  0.00     0.000 A 
ATOM      6  C6  BNZ d   1       2.768   0.630   1.450  0.00  0.00     0.000 A 
ENDROOT
TORSDOF 0
ENDMDL
