MODEL 1
REMARK minimizedAffinity 1.40473998
REMARK minimizedRMSD -1
REMARK  0 active torsions:
REMARK  status: ('A' for Active; 'I' for Inactive)
ROOT
ATOM      1  C1  BNZ d   1       1.619  -3.099   0.152  0.00  0.00     0.000 A 
ATOM      2  C2  BNZ d   1       2.128  -4.141   0.879  0.00  0.00     0.000 A 
ATOM      3  C3  BNZ d   1       2.468  -5.318   0.273  0.00  0.00     0.000 A 
ATOM      4  C4  BNZ d   1       2.261  -5.465  -1.051  0.00  0.00     0.000 A 
ATOM      5  C5  BNZ d   1       1.739  -4.427  -1.797  0.00  0.00     0.000 A 
ATOM      6  C6  BNZ d   1       1.435  -3.230  -1.190  0.00  0.00     0.000 A 
ENDROOT
TORSDOF 0
ENDMDL
