MODEL 1
REMARK minimizedAffinity 1.07956803
REMARK minimizedRMSD -1
REMARK  0 active torsions:
REMARK  status: ('A' for Active; 'I' for Inactive)
ROOT
ATOM      1  C1  BNZ d   1      -0.966  -1.403  -1.460  0.00  0.00     0.000 A 
ATOM      2  C2  BNZ d   1      -0.183  -2.077  -2.360  0.00  0.00     0.000 A 
ATOM      3  C3  BNZ d   1       0.968  -2.695  -1.961  0.00  0.00     0.000 A 
ATOM      4  C4  BNZ d   1       1.357  -2.605  -0.672  0.00  0.00     0.000 A 
ATOM      5  C5  BNZ d   1       0.584  -1.922   0.245  0.00  0.00     0.000 A 
ATOM      6  C6  BNZ d   1      -0.595  -1.333  -0.153  0.00  0.00     0.000 A 
ENDROOT
TORSDOF 0
ENDMDL
