MODEL 1
REMARK minimizedAffinity 1.25385368
REMARK minimizedRMSD -1
REMARK  0 active torsions:
REMARK  status: ('A' for Active; 'I' for Inactive)
ROOT
ATOM      1  C1  BNZ d   1       2.594   1.521   3.114  0.00  0.00     0.000 A 
ATOM      2  C2  BNZ d   1       2.102   0.334   3.588  0.00  0.00     0.000 A 
ATOM      3  C3  BNZ d   1       2.135  -0.794   2.818  0.00  0.00     0.000 A 
ATOM      4  C4  BNZ d   1       2.623  -0.726   1.562  0.00  0.00     0.000 A 
ATOM      5  C5  BNZ d   1       3.114   0.465   1.067  0.00  0.00     0.000 A 
ATOM      6  C6  BNZ d   1       3.115   1.590   1.859  0.00  0.00     0.000 A 
ENDROOT
TORSDOF 0
ENDMDL
