MODEL 1
REMARK minimizedAffinity 0.0671017691
REMARK minimizedRMSD -1
REMARK  0 active torsions:
REMARK  status: ('A' for Active; 'I' for Inactive)
ROOT
ATOM      1  C1  BNZ d   1      -1.370  -0.741   0.083  0.00  0.00     0.000 A 
ATOM      2  C2  BNZ d   1      -2.040  -0.847  -1.107  0.00  0.00     0.000 A 
ATOM      3  C3  BNZ d   1      -1.451  -1.433  -2.192  0.00  0.00     0.000 A 
ATOM      4  C4  BNZ d   1      -0.180  -1.875  -2.099  0.00  0.00     0.000 A 
ATOM      5  C5  BNZ d   1       0.512  -1.766  -0.909  0.00  0.00     0.000 A 
ATOM      6  C6  BNZ d   1      -0.098  -1.211   0.193  0.00  0.00     0.000 A 
ENDROOT
TORSDOF 0
ENDMDL
