MODEL 1
REMARK minimizedAffinity 1.97459376
REMARK minimizedRMSD -1
REMARK  0 active torsions:
REMARK  status: ('A' for Active; 'I' for Inactive)
ROOT
ATOM      1  C1  BNZ d   1       3.607   5.828  -3.752  0.00  0.00     0.000 A 
ATOM      2  C2  BNZ d   1       4.782   5.999  -4.434  0.00  0.00     0.000 A 
ATOM      3  C3  BNZ d   1       5.981   5.989  -3.776  0.00  0.00     0.000 A 
ATOM      4  C4  BNZ d   1       6.000   5.850  -2.435  0.00  0.00     0.000 A 
ATOM      5  C5  BNZ d   1       4.822   5.686  -1.732  0.00  0.00     0.000 A 
ATOM      6  C6  BNZ d   1       3.621   5.657  -2.402  0.00  0.00     0.000 A 
ENDROOT
TORSDOF 0
ENDMDL
