MODEL 1
REMARK minimizedAffinity -4.54224443
REMARK minimizedRMSD -1
REMARK  1 active torsions:
REMARK  status: ('A' for Active; 'I' for Inactive)
REMARK    1  A    between atoms: C3_4  and  O_7 
ROOT
ATOM      1  C   UNL d   1      -0.938   0.592  -0.124  0.00  0.00    -0.033 A 
ATOM      2  C1  UNL d   1      -1.548  -0.127   0.906  0.00  0.00     0.039 A 
ATOM      3  C2  UNL d   1      -1.377   0.269   2.233  0.00  0.00    -0.080 A 
ATOM      4  C3  UNL d   1      -0.595   1.385   2.518  0.00  0.00     0.150 A 
ATOM      5  C4  UNL d   1       0.012   2.109   1.497  0.00  0.00    -0.007 A 
ATOM      6  C5  UNL d   1      -0.159   1.711   0.172  0.00  0.00     0.039 A 
ENDROOT
BRANCH   4   7
ATOM      7  O   UNL d   1      -0.394   1.807   3.798  0.00  0.00    -0.526 OA
ATOM      8  H5  UNL d   1      -0.851   1.195   4.399  0.00  0.00     0.418 HD
ENDBRANCH   4   7
TORSDOF 1
ENDMDL
