MODEL 1
REMARK minimizedAffinity -4.36604309
REMARK minimizedRMSD -1
REMARK  1 active torsions:
REMARK  status: ('A' for Active; 'I' for Inactive)
REMARK    1  A    between atoms: C3_4  and  O_7 
ROOT
ATOM      1  C   UNL d   1       1.070   1.773   0.926  0.00  0.00    -0.033 A 
ATOM      2  C1  UNL d   1       0.503   0.657   0.309  0.00  0.00     0.039 A 
ATOM      3  C2  UNL d   1      -0.562  -0.012   0.915  0.00  0.00    -0.080 A 
ATOM      4  C3  UNL d   1      -1.051   0.446   2.136  0.00  0.00     0.150 A 
ATOM      5  C4  UNL d   1      -0.493   1.560   2.754  0.00  0.00    -0.007 A 
ATOM      6  C5  UNL d   1       0.572   2.226   2.147  0.00  0.00     0.039 A 
ENDROOT
BRANCH   4   7
ATOM      7  O   UNL d   1      -2.086  -0.176   2.768  0.00  0.00    -0.526 OA
ATOM      8  H5  UNL d   1      -2.351  -0.947   2.239  0.00  0.00     0.418 HD
ENDBRANCH   4   7
TORSDOF 1
ENDMDL
