MODEL 1
REMARK minimizedAffinity -5.48237991
REMARK minimizedRMSD -1
REMARK  1 active torsions:
REMARK  status: ('A' for Active; 'I' for Inactive)
REMARK    1  A    between atoms: C3_4  and  O_7 
ROOT
ATOM      1  C   UNL d   1      -0.311   1.443   2.504  0.00  0.00    -0.033 A 
ATOM      2  C1  UNL d   1      -0.108   1.328   1.127  0.00  0.00     0.039 A 
ATOM      3  C2  UNL d   1       0.899   0.496   0.635  0.00  0.00    -0.080 A 
ATOM      4  C3  UNL d   1       1.695  -0.215   1.529  0.00  0.00     0.150 A 
ATOM      5  C4  UNL d   1       1.495  -0.108   2.902  0.00  0.00    -0.007 A 
ATOM      6  C5  UNL d   1       0.490   0.724   3.391  0.00  0.00     0.039 A 
ENDROOT
BRANCH   4   7
ATOM      7  O   UNL d   1       2.693  -1.036   1.097  0.00  0.00    -0.526 OA
ATOM      8  H5  UNL d   1       2.733  -0.989   0.127  0.00  0.00     0.418 HD
ENDBRANCH   4   7
TORSDOF 1
ENDMDL
