MODEL 1
REMARK minimizedAffinity -4.27445412
REMARK minimizedRMSD -1
REMARK  1 active torsions:
REMARK  status: ('A' for Active; 'I' for Inactive)
REMARK    1  A    between atoms: C3_4  and  O_7 
ROOT
ATOM      1  C   UNL d   1       2.263   0.896   1.445  0.00  0.00    -0.033 A 
ATOM      2  C1  UNL d   1       2.255  -0.245   0.639  0.00  0.00     0.039 A 
ATOM      3  C2  UNL d   1       1.049  -0.744   0.145  0.00  0.00    -0.080 A 
ATOM      4  C3  UNL d   1      -0.141  -0.094   0.461  0.00  0.00     0.150 A 
ATOM      5  C4  UNL d   1      -0.140   1.045   1.260  0.00  0.00    -0.007 A 
ATOM      6  C5  UNL d   1       1.065   1.541   1.754  0.00  0.00     0.039 A 
ENDROOT
BRANCH   4   7
ATOM      7  O   UNL d   1      -1.343  -0.547   0.006  0.00  0.00    -0.526 OA
ATOM      8  H5  UNL d   1      -1.192  -1.357  -0.509  0.00  0.00     0.418 HD
ENDBRANCH   4   7
TORSDOF 1
ENDMDL
