MODEL 1
REMARK minimizedAffinity -2.61743808
REMARK minimizedRMSD -1
REMARK  1 active torsions:
REMARK  status: ('A' for Active; 'I' for Inactive)
REMARK    1  A    between atoms: C3_4  and  O_7 
ROOT
ATOM      1  C   UNL d   1       0.272   1.501   2.253  0.00  0.00    -0.033 A 
ATOM      2  C1  UNL d   1      -0.842   0.919   2.863  0.00  0.00     0.039 A 
ATOM      3  C2  UNL d   1      -1.714   0.126   2.115  0.00  0.00    -0.080 A 
ATOM      4  C3  UNL d   1      -1.461  -0.079   0.762  0.00  0.00     0.150 A 
ATOM      5  C4  UNL d   1      -0.352   0.494   0.149  0.00  0.00    -0.007 A 
ATOM      6  C5  UNL d   1       0.518   1.287   0.897  0.00  0.00     0.039 A 
ENDROOT
BRANCH   4   7
ATOM      7  O   UNL d   1      -2.287  -0.842  -0.010  0.00  0.00    -0.526 OA
ATOM      8  H5  UNL d   1      -3.026  -1.149   0.541  0.00  0.00     0.418 HD
ENDBRANCH   4   7
TORSDOF 1
ENDMDL
