MODEL 1
REMARK minimizedAffinity -1.71987855
REMARK minimizedRMSD -1
REMARK  1 active torsions:
REMARK  status: ('A' for Active; 'I' for Inactive)
REMARK    1  A    between atoms: C3_4  and  O_7 
ROOT
ATOM      1  C   UNL d   1      -1.588   0.311   2.165  0.00  0.00    -0.033 A 
ATOM      2  C1  UNL d   1      -0.727   1.050   2.979  0.00  0.00     0.039 A 
ATOM      3  C2  UNL d   1       0.544   1.398   2.520  0.00  0.00    -0.080 A 
ATOM      4  C3  UNL d   1       0.943   1.003   1.246  0.00  0.00     0.150 A 
ATOM      5  C4  UNL d   1       0.089   0.270   0.428  0.00  0.00    -0.007 A 
ATOM      6  C5  UNL d   1      -1.180  -0.078   0.889  0.00  0.00     0.039 A 
ENDROOT
BRANCH   4   7
ATOM      7  O   UNL d   1       2.176   1.315   0.756  0.00  0.00    -0.526 OA
ATOM      8  H5  UNL d   1       2.666   1.798   1.442  0.00  0.00     0.418 HD
ENDBRANCH   4   7
TORSDOF 1
ENDMDL
