MODEL 1
REMARK minimizedAffinity -3.64706683
REMARK minimizedRMSD -1
REMARK  1 active torsions:
REMARK  status: ('A' for Active; 'I' for Inactive)
REMARK    1  A    between atoms: C3_4  and  O_7 
ROOT
ATOM      1  C   UNL d   1       2.060   1.080   1.379  0.00  0.00    -0.033 A 
ATOM      2  C1  UNL d   1       1.457  -0.156   1.142  0.00  0.00     0.039 A 
ATOM      3  C2  UNL d   1       0.100  -0.337   1.418  0.00  0.00    -0.080 A 
ATOM      4  C3  UNL d   1      -0.641   0.725   1.928  0.00  0.00     0.150 A 
ATOM      5  C4  UNL d   1      -0.048   1.961   2.162  0.00  0.00    -0.007 A 
ATOM      6  C5  UNL d   1       1.307   2.139   1.887  0.00  0.00     0.039 A 
ENDROOT
BRANCH   4   7
ATOM      7  O   UNL d   1      -1.967   0.595   2.217  0.00  0.00    -0.526 OA
ATOM      8  H5  UNL d   1      -2.234  -0.321   2.032  0.00  0.00     0.418 HD
ENDBRANCH   4   7
TORSDOF 1
ENDMDL
