MODEL 1
REMARK minimizedAffinity -2.72430015
REMARK minimizedRMSD -1
REMARK  1 active torsions:
REMARK  status: ('A' for Active; 'I' for Inactive)
REMARK    1  A    between atoms: C3_4  and  O_7 
ROOT
ATOM      1  C   UNL d   1      -1.038   0.481   2.881  0.00  0.00    -0.033 A 
ATOM      2  C1  UNL d   1      -0.434   1.643   3.364  0.00  0.00     0.039 A 
ATOM      3  C2  UNL d   1       0.742   2.116   2.778  0.00  0.00    -0.080 A 
ATOM      4  C3  UNL d   1       1.302   1.420   1.711  0.00  0.00     0.150 A 
ATOM      5  C4  UNL d   1       0.703   0.264   1.221  0.00  0.00    -0.007 A 
ATOM      6  C5  UNL d   1      -0.471  -0.208   1.808  0.00  0.00     0.039 A 
ENDROOT
BRANCH   4   7
ATOM      7  O   UNL d   1       2.451   1.840   1.110  0.00  0.00    -0.526 OA
ATOM      8  H5  UNL d   1       2.767   2.635   1.572  0.00  0.00     0.418 HD
ENDBRANCH   4   7
TORSDOF 1
ENDMDL
