MODEL 1
REMARK minimizedAffinity 10.3950043
REMARK minimizedRMSD -1
REMARK  1 active torsions:
REMARK  status: ('A' for Active; 'I' for Inactive)
REMARK    1  A    between atoms: C1_2  and  C2_3 
ROOT
ATOM      1  C2  UNL d   1       4.856   1.958   0.843  0.00  0.00    -0.076 A 
ATOM      2  C3  UNL d   1       5.996   1.280   1.309  0.00  0.00     0.004 A 
ATOM      3  C4  UNL d   1       5.997  -0.106   1.453  0.00  0.00    -0.003 A 
ATOM      4  C5  UNL d   1       4.859  -0.837   1.133  0.00  0.00     0.000 A 
ATOM      5  C6  UNL d   1       3.725  -0.183   0.653  0.00  0.00     0.000 A 
ATOM      6  C7  UNL d   1       3.712   1.212   0.486  0.00  0.00    -0.073 A 
ATOM      7  C8  UNL d   1       2.460   1.867  -0.030  0.00  0.00     0.078 C 
ENDROOT
BRANCH   1   8
ATOM      8  C1  UNL d   1       4.905   3.465   0.733  0.00  0.00     0.053 C 
ATOM      9  C   UNL d   1       5.999   4.078   1.594  0.00  0.00     0.018 C 
ENDBRANCH   1   8
TORSDOF 1
ENDMDL
