MODEL 1
REMARK minimizedAffinity 13.6337023
REMARK minimizedRMSD -1
REMARK  1 active torsions:
REMARK  status: ('A' for Active; 'I' for Inactive)
REMARK    1  A    between atoms: C1_2  and  C2_3 
ROOT
ATOM      1  C2  UNL d   1       3.924   1.384   0.949  0.00  0.00    -0.076 A 
ATOM      2  C3  UNL d   1       4.941   2.035   1.669  0.00  0.00     0.004 A 
ATOM      3  C4  UNL d   1       5.970   1.311   2.271  0.00  0.00    -0.003 A 
ATOM      4  C5  UNL d   1       5.998  -0.074   2.161  0.00  0.00     0.000 A 
ATOM      5  C6  UNL d   1       5.008  -0.735   1.435  0.00  0.00     0.000 A 
ATOM      6  C7  UNL d   1       3.973  -0.020   0.809  0.00  0.00    -0.073 A 
ATOM      7  C8  UNL d   1       2.927  -0.784   0.044  0.00  0.00     0.078 C 
ENDROOT
BRANCH   1   8
ATOM      8  C1  UNL d   1       2.820   2.219   0.341  0.00  0.00     0.053 C 
ATOM      9  C   UNL d   1       1.435   1.713   0.714  0.00  0.00     0.018 C 
ENDBRANCH   1   8
TORSDOF 1
ENDMDL
