MODEL 1
REMARK minimizedAffinity 21.4542046
REMARK minimizedRMSD -1
REMARK  1 active torsions:
REMARK  status: ('A' for Active; 'I' for Inactive)
REMARK    1  A    between atoms: C1_2  and  C2_3 
ROOT
ATOM      1  C2  UNL d   1      -1.795  -2.838  -0.661  0.00  0.00    -0.076 A 
ATOM      2  C3  UNL d   1      -2.969  -3.329  -0.063  0.00  0.00     0.004 A 
ATOM      3  C4  UNL d   1      -2.928  -3.984   1.166  0.00  0.00    -0.003 A 
ATOM      4  C5  UNL d   1      -1.712  -4.158   1.819  0.00  0.00     0.000 A 
ATOM      5  C6  UNL d   1      -0.540  -3.662   1.248  0.00  0.00     0.000 A 
ATOM      6  C7  UNL d   1      -0.566  -2.985   0.017  0.00  0.00    -0.073 A 
ATOM      7  C8  UNL d   1       0.729  -2.477  -0.555  0.00  0.00     0.078 C 
ENDROOT
BRANCH   1   8
ATOM      8  C1  UNL d   1      -1.898  -2.161  -2.009  0.00  0.00     0.053 C 
ATOM      9  C   UNL d   1      -2.495  -3.068  -3.074  0.00  0.00     0.018 C 
ENDBRANCH   1   8
TORSDOF 1
ENDMDL
