MODEL 1
REMARK minimizedAffinity 7.36633158
REMARK minimizedRMSD -1
REMARK  1 active torsions:
REMARK  status: ('A' for Active; 'I' for Inactive)
REMARK    1  A    between atoms: C1_2  and  C2_3 
ROOT
ATOM      1  C2  UNL d   1      -2.773  -2.826  -2.225  0.00  0.00    -0.076 A 
ATOM      2  C3  UNL d   1      -4.145  -2.951  -1.949  0.00  0.00     0.004 A 
ATOM      3  C4  UNL d   1      -4.899  -3.980  -2.510  0.00  0.00    -0.003 A 
ATOM      4  C5  UNL d   1      -4.293  -4.902  -3.356  0.00  0.00     0.000 A 
ATOM      5  C6  UNL d   1      -2.928  -4.804  -3.626  0.00  0.00     0.000 A 
ATOM      6  C7  UNL d   1      -2.150  -3.782  -3.056  0.00  0.00    -0.073 A 
ATOM      7  C8  UNL d   1      -0.684  -3.721  -3.387  0.00  0.00     0.078 C 
ENDROOT
BRANCH   1   8
ATOM      8  C1  UNL d   1      -2.012  -1.673  -1.610  0.00  0.00     0.053 C 
ATOM      9  C   UNL d   1      -1.735  -1.883  -0.129  0.00  0.00     0.018 C 
ENDBRANCH   1   8
TORSDOF 1
ENDMDL
