MODEL 1
REMARK minimizedAffinity 6.81132507
REMARK minimizedRMSD -1
REMARK  1 active torsions:
REMARK  status: ('A' for Active; 'I' for Inactive)
REMARK    1  A    between atoms: C1_2  and  C2_3 
ROOT
ATOM      1  C2  UNL d   1      -2.321  -2.676  -1.873  0.00  0.00    -0.076 A 
ATOM      2  C3  UNL d   1      -2.554  -2.009  -0.658  0.00  0.00     0.004 A 
ATOM      3  C4  UNL d   1      -1.674  -2.143   0.415  0.00  0.00    -0.003 A 
ATOM      4  C5  UNL d   1      -0.547  -2.947   0.290  0.00  0.00     0.000 A 
ATOM      5  C6  UNL d   1      -0.290  -3.602  -0.914  0.00  0.00     0.000 A 
ATOM      6  C7  UNL d   1      -1.158  -3.464  -2.011  0.00  0.00    -0.073 A 
ATOM      7  C8  UNL d   1      -0.836  -4.198  -3.283  0.00  0.00     0.078 C 
ENDROOT
BRANCH   1   8
ATOM      8  C1  UNL d   1      -3.324  -2.514  -2.992  0.00  0.00     0.053 C 
ATOM      9  C   UNL d   1      -4.685  -3.099  -2.645  0.00  0.00     0.018 C 
ENDBRANCH   1   8
TORSDOF 1
ENDMDL
