MODEL 1
REMARK minimizedAffinity 8.22049522
REMARK minimizedRMSD -1
REMARK  1 active torsions:
REMARK  status: ('A' for Active; 'I' for Inactive)
REMARK    1  A    between atoms: C1_2  and  C2_3 
ROOT
ATOM      1  C2  UNL d   1       2.366   0.655   1.748  0.00  0.00    -0.076 A 
ATOM      2  C3  UNL d   1       3.360  -0.088   2.407  0.00  0.00     0.004 A 
ATOM      3  C4  UNL d   1       4.403  -0.679   1.696  0.00  0.00    -0.003 A 
ATOM      4  C5  UNL d   1       4.469  -0.535   0.315  0.00  0.00     0.000 A 
ATOM      5  C6  UNL d   1       3.501   0.214  -0.353  0.00  0.00     0.000 A 
ATOM      6  C7  UNL d   1       2.452   0.829   0.350  0.00  0.00    -0.073 A 
ATOM      7  C8  UNL d   1       1.431   1.621  -0.421  0.00  0.00     0.078 C 
ENDROOT
BRANCH   1   8
ATOM      8  C1  UNL d   1       1.243   1.250   2.569  0.00  0.00     0.053 C 
ATOM      9  C   UNL d   1       0.914   0.416   3.797  0.00  0.00     0.018 C 
ENDBRANCH   1   8
TORSDOF 1
ENDMDL
