MODEL 1
REMARK minimizedAffinity 9.71116543
REMARK minimizedRMSD -1
REMARK  1 active torsions:
REMARK  status: ('A' for Active; 'I' for Inactive)
REMARK    1  A    between atoms: C1_2  and  C2_3 
ROOT
ATOM      1  C2  UNL d   1      -4.845   2.813   5.058  0.00  0.00    -0.076 A 
ATOM      2  C3  UNL d   1      -5.656   2.151   5.996  0.00  0.00     0.004 A 
ATOM      3  C4  UNL d   1      -5.993   0.808   5.833  0.00  0.00    -0.003 A 
ATOM      4  C5  UNL d   1      -5.523   0.105   4.729  0.00  0.00     0.000 A 
ATOM      5  C6  UNL d   1      -4.703   0.741   3.798  0.00  0.00     0.000 A 
ATOM      6  C7  UNL d   1      -4.341   2.090   3.956  0.00  0.00    -0.073 A 
ATOM      7  C8  UNL d   1      -3.459   2.727   2.917  0.00  0.00     0.078 C 
ENDROOT
BRANCH   1   8
ATOM      8  C1  UNL d   1      -4.536   4.277   5.273  0.00  0.00     0.053 C 
ATOM      9  C   UNL d   1      -5.656   5.009   5.997  0.00  0.00     0.018 C 
ENDBRANCH   1   8
TORSDOF 1
ENDMDL
