MODEL 1
REMARK minimizedAffinity 13.7374659
REMARK minimizedRMSD -1
REMARK  1 active torsions:
REMARK  status: ('A' for Active; 'I' for Inactive)
REMARK    1  A    between atoms: C1_2  and  C2_3 
ROOT
ATOM      1  C2  UNL d   1      -2.661  -3.922  -0.060  0.00  0.00    -0.076 A 
ATOM      2  C3  UNL d   1      -3.355  -5.127   0.142  0.00  0.00     0.004 A 
ATOM      3  C4  UNL d   1      -3.007  -5.990   1.180  0.00  0.00    -0.003 A 
ATOM      4  C5  UNL d   1      -1.960  -5.660   2.034  0.00  0.00     0.000 A 
ATOM      5  C6  UNL d   1      -1.272  -4.460   1.859  0.00  0.00     0.000 A 
ATOM      6  C7  UNL d   1      -1.621  -3.572   0.827  0.00  0.00    -0.073 A 
ATOM      7  C8  UNL d   1      -0.841  -2.294   0.681  0.00  0.00     0.078 C 
ENDROOT
BRANCH   1   8
ATOM      8  C1  UNL d   1      -3.065  -3.039  -1.219  0.00  0.00     0.053 C 
ATOM      9  C   UNL d   1      -3.468  -3.839  -2.448  0.00  0.00     0.018 C 
ENDBRANCH   1   8
TORSDOF 1
ENDMDL
