MODEL 1
REMARK minimizedAffinity 5.26151752
REMARK minimizedRMSD -1
REMARK  1 active torsions:
REMARK  status: ('A' for Active; 'I' for Inactive)
REMARK    1  A    between atoms: C1_2  and  C2_3 
ROOT
ATOM      1  C2  UNL d   1      -1.449  -3.915  -3.267  0.00  0.00    -0.076 A 
ATOM      2  C3  UNL d   1      -0.212  -3.835  -2.604  0.00  0.00     0.004 A 
ATOM      3  C4  UNL d   1      -0.133  -3.393  -1.285  0.00  0.00    -0.003 A 
ATOM      4  C5  UNL d   1      -1.289  -3.024  -0.607  0.00  0.00     0.000 A 
ATOM      5  C6  UNL d   1      -2.527  -3.114  -1.244  0.00  0.00     0.000 A 
ATOM      6  C7  UNL d   1      -2.626  -3.573  -2.568  0.00  0.00    -0.073 A 
ATOM      7  C8  UNL d   1      -3.985  -3.645  -3.208  0.00  0.00     0.078 C 
ENDROOT
BRANCH   1   8
ATOM      8  C1  UNL d   1      -1.470  -4.377  -4.707  0.00  0.00     0.053 C 
ATOM      9  C   UNL d   1      -1.124  -3.261  -5.682  0.00  0.00     0.018 C 
ENDBRANCH   1   8
TORSDOF 1
ENDMDL
