MODEL 1
REMARK minimizedAffinity 3.9849329
REMARK minimizedRMSD -1
REMARK  1 active torsions:
REMARK  status: ('A' for Active; 'I' for Inactive)
REMARK    1  A    between atoms: C1_2  and  C2_3 
ROOT
ATOM      1  C2  UNL d   1       3.351   0.008   2.348  0.00  0.00    -0.076 A 
ATOM      2  C3  UNL d   1       2.319   0.739   2.963  0.00  0.00     0.004 A 
ATOM      3  C4  UNL d   1       1.423   1.491   2.205  0.00  0.00    -0.003 A 
ATOM      4  C5  UNL d   1       1.543   1.523   0.820  0.00  0.00     0.000 A 
ATOM      5  C6  UNL d   1       2.549   0.790   0.193  0.00  0.00     0.000 A 
ATOM      6  C7  UNL d   1       3.451   0.014   0.941  0.00  0.00    -0.073 A 
ATOM      7  C8  UNL d   1       4.521  -0.752   0.212  0.00  0.00     0.078 C 
ENDROOT
BRANCH   1   8
ATOM      8  C1  UNL d   1       4.309  -0.767   3.223  0.00  0.00     0.053 C 
ATOM      9  C   UNL d   1       5.023   0.119   4.233  0.00  0.00     0.018 C 
ENDBRANCH   1   8
TORSDOF 1
ENDMDL
