MODEL 1
REMARK minimizedAffinity 11.6950817
REMARK minimizedRMSD -1
REMARK  1 active torsions:
REMARK  status: ('A' for Active; 'I' for Inactive)
REMARK    1  A    between atoms: C1_2  and  C2_3 
ROOT
ATOM      1  C2  UNL d   1      -4.832   3.647   3.909  0.00  0.00    -0.076 A 
ATOM      2  C3  UNL d   1      -4.479   3.788   5.263  0.00  0.00     0.004 A 
ATOM      3  C4  UNL d   1      -4.826   4.933   5.978  0.00  0.00    -0.003 A 
ATOM      4  C5  UNL d   1      -5.531   5.955   5.352  0.00  0.00     0.000 A 
ATOM      5  C6  UNL d   1      -5.904   5.824   4.015  0.00  0.00     0.000 A 
ATOM      6  C7  UNL d   1      -5.577   4.669   3.284  0.00  0.00    -0.073 A 
ATOM      7  C8  UNL d   1      -5.999   4.583   1.843  0.00  0.00     0.078 C 
ENDROOT
BRANCH   1   8
ATOM      8  C1  UNL d   1      -4.405   2.394   3.177  0.00  0.00     0.053 C 
ATOM      9  C   UNL d   1      -4.343   1.179   4.089  0.00  0.00     0.018 C 
ENDBRANCH   1   8
TORSDOF 1
ENDMDL
