MODEL 1
REMARK minimizedAffinity 4.88663149
REMARK minimizedRMSD -1
REMARK  1 active torsions:
REMARK  status: ('A' for Active; 'I' for Inactive)
REMARK    1  A    between atoms: C1_2  and  C2_3 
ROOT
ATOM      1  C2  UNL d   1       1.186  -0.127   0.922  0.00  0.00    -0.076 A 
ATOM      2  C3  UNL d   1       2.113  -1.047   0.402  0.00  0.00     0.004 A 
ATOM      3  C4  UNL d   1       3.260  -0.614  -0.261  0.00  0.00    -0.003 A 
ATOM      4  C5  UNL d   1       3.500   0.747  -0.413  0.00  0.00     0.000 A 
ATOM      5  C6  UNL d   1       2.600   1.674   0.112  0.00  0.00     0.000 A 
ATOM      6  C7  UNL d   1       1.447   1.254   0.797  0.00  0.00    -0.073 A 
ATOM      7  C8  UNL d   1       0.508   2.298   1.338  0.00  0.00     0.078 C 
ENDROOT
BRANCH   1   8
ATOM      8  C1  UNL d   1      -0.053  -0.656   1.607  0.00  0.00     0.053 C 
ATOM      9  C   UNL d   1      -0.669  -1.835   0.869  0.00  0.00     0.018 C 
ENDBRANCH   1   8
TORSDOF 1
ENDMDL
