MODEL 1
REMARK minimizedAffinity -5.72398758
REMARK minimizedRMSD -1
REMARK  1 active torsions:
REMARK  status: ('A' for Active; 'I' for Inactive)
REMARK    1  A    between atoms: C1_2  and  C2_3 
ROOT
ATOM      1  C2  UNL d   1       0.629  -0.216   0.384  0.00  0.00    -0.081 A 
ATOM      2  C3  UNL d   1      -0.020   0.331  -0.730  0.00  0.00     0.006 A 
ATOM      3  C4  UNL d   1      -1.371   0.066  -0.963  0.00  0.00     0.002 A 
ATOM      4  C5  UNL d   1      -2.098  -0.743  -0.082  0.00  0.00    -0.080 A 
ATOM      5  C6  UNL d   1      -3.557  -1.011  -0.304  0.00  0.00     0.076 C 
ATOM      6  C7  UNL d   1      -1.446  -1.303   1.021  0.00  0.00     0.002 A 
ATOM      7  C8  UNL d   1      -0.094  -1.039   1.254  0.00  0.00     0.006 A 
ENDROOT
BRANCH   1   8
ATOM      8  C1  UNL d   1       2.070   0.120   0.673  0.00  0.00     0.054 C 
ATOM      9  C   UNL d   1       2.225   1.575   1.092  0.00  0.00     0.018 C 
ENDBRANCH   1   8
TORSDOF 1
ENDMDL
