MODEL 1
REMARK minimizedAffinity -5.43035984
REMARK minimizedRMSD -1
REMARK  1 active torsions:
REMARK  status: ('A' for Active; 'I' for Inactive)
REMARK    1  A    between atoms: C1_2  and  C2_3 
ROOT
ATOM      1  C2  UNL d   1       0.745   0.534   0.142  0.00  0.00    -0.081 A 
ATOM      2  C3  UNL d   1       0.070   0.702  -1.073  0.00  0.00     0.006 A 
ATOM      3  C4  UNL d   1      -1.232   0.221  -1.232  0.00  0.00     0.002 A 
ATOM      4  C5  UNL d   1      -1.882  -0.429  -0.178  0.00  0.00    -0.080 A 
ATOM      5  C6  UNL d   1      -3.291  -0.923  -0.327  0.00  0.00     0.076 C 
ATOM      6  C7  UNL d   1      -1.202  -0.613   1.030  0.00  0.00     0.002 A 
ATOM      7  C8  UNL d   1       0.100  -0.133   1.190  0.00  0.00     0.006 A 
ENDROOT
BRANCH   1   8
ATOM      8  C1  UNL d   1       2.125   1.108   0.338  0.00  0.00     0.054 C 
ATOM      9  C   UNL d   1       2.090   2.339   1.232  0.00  0.00     0.018 C 
ENDBRANCH   1   8
TORSDOF 1
ENDMDL
