MODEL 1
REMARK minimizedAffinity -5.83387709
REMARK minimizedRMSD -1
REMARK  1 active torsions:
REMARK  status: ('A' for Active; 'I' for Inactive)
REMARK    1  A    between atoms: C1_2  and  C2_3 
ROOT
ATOM      1  C2  UNL d   1       0.760   0.356  -0.241  0.00  0.00    -0.081 A 
ATOM      2  C3  UNL d   1       0.017   0.956  -1.266  0.00  0.00     0.006 A 
ATOM      3  C4  UNL d   1      -1.323   0.614  -1.462  0.00  0.00     0.002 A 
ATOM      4  C5  UNL d   1      -1.944  -0.327  -0.634  0.00  0.00    -0.080 A 
ATOM      5  C6  UNL d   1      -3.391  -0.681  -0.815  0.00  0.00     0.076 C 
ATOM      6  C7  UNL d   1      -1.198  -0.939   0.379  0.00  0.00     0.002 A 
ATOM      7  C8  UNL d   1       0.142  -0.598   0.575  0.00  0.00     0.006 A 
ENDROOT
BRANCH   1   8
ATOM      8  C1  UNL d   1       2.186   0.770   0.015  0.00  0.00     0.054 C 
ATOM      9  C   UNL d   1       2.258   1.929   0.999  0.00  0.00     0.018 C 
ENDBRANCH   1   8
TORSDOF 1
ENDMDL
