MODEL 1
REMARK minimizedAffinity -5.26425886
REMARK minimizedRMSD -1
REMARK  1 active torsions:
REMARK  status: ('A' for Active; 'I' for Inactive)
REMARK    1  A    between atoms: C1_2  and  C2_3 
ROOT
ATOM      1  C2  UNL d   1       0.783   0.008  -0.281  0.00  0.00    -0.081 A 
ATOM      2  C3  UNL d   1      -0.027   0.435  -1.341  0.00  0.00     0.006 A 
ATOM      3  C4  UNL d   1      -1.398   0.164  -1.338  0.00  0.00     0.002 A 
ATOM      4  C5  UNL d   1      -1.982  -0.529  -0.274  0.00  0.00    -0.080 A 
ATOM      5  C6  UNL d   1      -3.457  -0.800  -0.244  0.00  0.00     0.076 C 
ATOM      6  C7  UNL d   1      -1.171  -0.971   0.777  0.00  0.00     0.002 A 
ATOM      7  C8  UNL d   1       0.200  -0.702   0.775  0.00  0.00     0.006 A 
ENDROOT
BRANCH   1   8
ATOM      8  C1  UNL d   1       2.249   0.354  -0.249  0.00  0.00     0.054 C 
ATOM      9  C   UNL d   1       2.531   1.482   0.733  0.00  0.00     0.018 C 
ENDBRANCH   1   8
TORSDOF 1
ENDMDL
