MODEL 1
REMARK minimizedAffinity -2.62308764
REMARK minimizedRMSD -1
REMARK  1 active torsions:
REMARK  status: ('A' for Active; 'I' for Inactive)
REMARK    1  A    between atoms: C1_2  and  C2_3 
ROOT
ATOM      1  C2  UNL d   1       1.173   0.767   0.321  0.00  0.00    -0.081 A 
ATOM      2  C3  UNL d   1       0.224   1.424  -0.472  0.00  0.00     0.006 A 
ATOM      3  C4  UNL d   1      -0.989   0.806  -0.783  0.00  0.00     0.002 A 
ATOM      4  C5  UNL d   1      -1.277  -0.475  -0.300  0.00  0.00    -0.080 A 
ATOM      5  C6  UNL d   1      -2.588  -1.138  -0.601  0.00  0.00     0.076 C 
ATOM      6  C7  UNL d   1      -0.322  -1.139   0.478  0.00  0.00     0.002 A 
ATOM      7  C8  UNL d   1       0.891  -0.521   0.788  0.00  0.00     0.006 A 
ENDROOT
BRANCH   1   8
ATOM      8  C1  UNL d   1       2.455   1.457   0.712  0.00  0.00     0.054 C 
ATOM      9  C   UNL d   1       2.180   2.744   1.476  0.00  0.00     0.018 C 
ENDBRANCH   1   8
TORSDOF 1
ENDMDL
