MODEL 1
REMARK minimizedAffinity -5.52969456
REMARK minimizedRMSD -1
REMARK  1 active torsions:
REMARK  status: ('A' for Active; 'I' for Inactive)
REMARK    1  A    between atoms: C1_2  and  C2_3 
ROOT
ATOM      1  C2  UNL d   1       0.998   0.738  -0.168  0.00  0.00    -0.081 A 
ATOM      2  C3  UNL d   1       0.323   1.106  -1.338  0.00  0.00     0.006 A 
ATOM      3  C4  UNL d   1      -0.951   0.599  -1.609  0.00  0.00     0.002 A 
ATOM      4  C5  UNL d   1      -1.572  -0.277  -0.713  0.00  0.00    -0.080 A 
ATOM      5  C6  UNL d   1      -2.951  -0.804  -0.977  0.00  0.00     0.076 C 
ATOM      6  C7  UNL d   1      -0.890  -0.658   0.448  0.00  0.00     0.002 A 
ATOM      7  C8  UNL d   1       0.383  -0.152   0.719  0.00  0.00     0.006 A 
ENDROOT
BRANCH   1   8
ATOM      8  C1  UNL d   1       2.344   1.333   0.159  0.00  0.00     0.054 C 
ATOM      9  C   UNL d   1       2.238   2.360   1.277  0.00  0.00     0.018 C 
ENDBRANCH   1   8
TORSDOF 1
ENDMDL
