MODEL 1
REMARK minimizedAffinity -3.77044344
REMARK minimizedRMSD -1
REMARK  1 active torsions:
REMARK  status: ('A' for Active; 'I' for Inactive)
REMARK    1  A    between atoms: C1_2  and  C2_3 
ROOT
ATOM      1  C2  UNL d   1       0.697   0.340   0.003  0.00  0.00    -0.081 A 
ATOM      2  C3  UNL d   1       0.019   0.774  -1.143  0.00  0.00     0.006 A 
ATOM      3  C4  UNL d   1      -1.305   0.392  -1.369  0.00  0.00     0.002 A 
ATOM      4  C5  UNL d   1      -1.976  -0.423  -0.450  0.00  0.00    -0.080 A 
ATOM      5  C6  UNL d   1      -3.407  -0.815  -0.666  0.00  0.00     0.076 C 
ATOM      6  C7  UNL d   1      -1.293  -0.870   0.686  0.00  0.00     0.002 A 
ATOM      7  C8  UNL d   1       0.031  -0.489   0.912  0.00  0.00     0.006 A 
ENDROOT
BRANCH   1   8
ATOM      8  C1  UNL d   1       2.104   0.803   0.282  0.00  0.00     0.054 C 
ATOM      9  C   UNL d   1       2.118   1.986   1.240  0.00  0.00     0.018 C 
ENDBRANCH   1   8
TORSDOF 1
ENDMDL
