MODEL 1
REMARK minimizedAffinity -2.10056782
REMARK minimizedRMSD -1
REMARK  1 active torsions:
REMARK  status: ('A' for Active; 'I' for Inactive)
REMARK    1  A    between atoms: C1_2  and  C2_3 
ROOT
ATOM      1  C2  UNL d   1       0.750   0.335  -0.053  0.00  0.00    -0.081 A 
ATOM      2  C3  UNL d   1      -0.092   0.543  -1.152  0.00  0.00     0.006 A 
ATOM      3  C4  UNL d   1      -1.410   0.080  -1.132  0.00  0.00     0.002 A 
ATOM      4  C5  UNL d   1      -1.909  -0.591  -0.011  0.00  0.00    -0.080 A 
ATOM      5  C6  UNL d   1      -3.331  -1.067   0.036  0.00  0.00     0.076 C 
ATOM      6  C7  UNL d   1      -1.063  -0.814   1.080  0.00  0.00     0.002 A 
ATOM      7  C8  UNL d   1       0.255  -0.352   1.060  0.00  0.00     0.006 A 
ENDROOT
BRANCH   1   8
ATOM      8  C1  UNL d   1       2.152   0.890  -0.047  0.00  0.00     0.054 C 
ATOM      9  C   UNL d   1       2.241   2.158   0.790  0.00  0.00     0.018 C 
ENDBRANCH   1   8
TORSDOF 1
ENDMDL
