MODEL 1
REMARK minimizedAffinity -2.45642042
REMARK minimizedRMSD -1
REMARK  1 active torsions:
REMARK  status: ('A' for Active; 'I' for Inactive)
REMARK    1  A    between atoms: C1_2  and  C2_3 
ROOT
ATOM      1  C2  UNL d   1      -1.568  -1.138  -0.968  0.00  0.00    -0.081 A 
ATOM      2  C3  UNL d   1      -1.190  -1.172   0.380  0.00  0.00     0.006 A 
ATOM      3  C4  UNL d   1      -0.100  -0.423   0.828  0.00  0.00     0.002 A 
ATOM      4  C5  UNL d   1       0.624   0.379  -0.060  0.00  0.00    -0.080 A 
ATOM      5  C6  UNL d   1       1.778   1.212   0.414  0.00  0.00     0.076 C 
ATOM      6  C7  UNL d   1       0.257   0.400  -1.410  0.00  0.00     0.002 A 
ATOM      7  C8  UNL d   1      -0.832  -0.350  -1.859  0.00  0.00     0.006 A 
ENDROOT
BRANCH   1   8
ATOM      8  C1  UNL d   1      -2.783  -1.894  -1.443  0.00  0.00     0.054 C 
ATOM      9  C   UNL d   1      -2.540  -2.534  -2.802  0.00  0.00     0.018 C 
ENDBRANCH   1   8
TORSDOF 1
ENDMDL
