MODEL 1
REMARK minimizedAffinity -2.42475057
REMARK minimizedRMSD -1
REMARK  1 active torsions:
REMARK  status: ('A' for Active; 'I' for Inactive)
REMARK    1  A    between atoms: C1_2  and  C2_3 
ROOT
ATOM      1  C2  UNL d   1       1.322   0.084   0.317  0.00  0.00    -0.081 A 
ATOM      2  C3  UNL d   1       0.603   0.620  -0.759  0.00  0.00     0.006 A 
ATOM      3  C4  UNL d   1      -0.746   0.307  -0.935  0.00  0.00     0.002 A 
ATOM      4  C5  UNL d   1      -1.402  -0.540  -0.035  0.00  0.00    -0.080 A 
ATOM      5  C6  UNL d   1      -2.858  -0.861  -0.196  0.00  0.00     0.076 C 
ATOM      6  C7  UNL d   1      -0.679  -1.090   1.030  0.00  0.00     0.002 A 
ATOM      7  C8  UNL d   1       0.670  -0.777   1.206  0.00  0.00     0.006 A 
ENDROOT
BRANCH   1   8
ATOM      8  C1  UNL d   1       2.761   0.472   0.546  0.00  0.00     0.054 C 
ATOM      9  C   UNL d   1       2.883   1.936   0.943  0.00  0.00     0.018 C 
ENDBRANCH   1   8
TORSDOF 1
ENDMDL
