MODEL 1
REMARK minimizedAffinity -5.28429794
REMARK minimizedRMSD -1
REMARK  1 active torsions:
REMARK  status: ('A' for Active; 'I' for Inactive)
REMARK    1  A    between atoms: C1_2  and  C2_3 
ROOT
ATOM      1  C2  UNL d   1       0.849   0.451   0.072  0.00  0.00    -0.081 A 
ATOM      2  C3  UNL d   1       0.112   0.662  -1.100  0.00  0.00     0.006 A 
ATOM      3  C4  UNL d   1      -1.183   0.154  -1.224  0.00  0.00     0.002 A 
ATOM      4  C5  UNL d   1      -1.766  -0.567  -0.176  0.00  0.00    -0.080 A 
ATOM      5  C6  UNL d   1      -3.166  -1.092  -0.284  0.00  0.00     0.076 C 
ATOM      6  C7  UNL d   1      -1.023  -0.793   0.988  0.00  0.00     0.002 A 
ATOM      7  C8  UNL d   1       0.272  -0.285   1.112  0.00  0.00     0.006 A 
ENDROOT
BRANCH   1   8
ATOM      8  C1  UNL d   1       2.221   1.054   0.233  0.00  0.00     0.054 C 
ATOM      9  C   UNL d   1       2.216   2.173   1.264  0.00  0.00     0.018 C 
ENDBRANCH   1   8
TORSDOF 1
ENDMDL
