MODEL 1
REMARK minimizedAffinity -2.36974168
REMARK minimizedRMSD -1
REMARK  1 active torsions:
REMARK  status: ('A' for Active; 'I' for Inactive)
REMARK    1  A    between atoms: C1_2  and  C2_3 
ROOT
ATOM      1  C2  UNL d   1       0.050   0.329   0.120  0.00  0.00    -0.081 A 
ATOM      2  C3  UNL d   1       1.370  -0.101  -0.060  0.00  0.00     0.006 A 
ATOM      3  C4  UNL d   1       2.439   0.722   0.305  0.00  0.00     0.002 A 
ATOM      4  C5  UNL d   1       2.205   1.983   0.864  0.00  0.00    -0.080 A 
ATOM      5  C6  UNL d   1       3.342   2.864   1.288  0.00  0.00     0.076 C 
ATOM      6  C7  UNL d   1       0.885   2.419   1.027  0.00  0.00     0.002 A 
ATOM      7  C8  UNL d   1      -0.183   1.598   0.662  0.00  0.00     0.006 A 
ENDROOT
BRANCH   1   8
ATOM      8  C1  UNL d   1      -1.104  -0.582  -0.212  0.00  0.00     0.054 C 
ATOM      9  C   UNL d   1      -2.291  -0.330   0.706  0.00  0.00     0.018 C 
ENDBRANCH   1   8
TORSDOF 1
ENDMDL
