MODEL 1
REMARK minimizedAffinity -2.40991139
REMARK minimizedRMSD -1
REMARK  0 active torsions:
REMARK  status: ('A' for Active; 'I' for Inactive)
ROOT
ATOM      1  C2' OXE d   1       2.028  -4.867  -1.878  0.00  0.00     0.078 C 
ATOM      2  C1' OXE d   1      -0.748  -4.891  -2.296  0.00  0.00     0.078 C 
ATOM      3  C1  OXE d   1       0.141  -5.292  -3.447  0.00  0.00    -0.078 A 
ATOM      4  C2  OXE d   1       1.499  -5.233  -3.248  0.00  0.00    -0.078 A 
ATOM      5  C3  OXE d   1       2.363  -5.645  -4.259  0.00  0.00     0.003 A 
ATOM      6  C4  OXE d   1       1.866  -5.971  -5.526  0.00  0.00    -0.002 A 
ATOM      7  C5  OXE d   1       0.487  -6.000  -5.763  0.00  0.00    -0.002 A 
ATOM      8  C6  OXE d   1      -0.389  -5.705  -4.724  0.00  0.00     0.003 A 
ENDROOT
TORSDOF 0
ENDMDL
