MODEL 1
REMARK minimizedAffinity -1.58845007
REMARK minimizedRMSD -1
REMARK  0 active torsions:
REMARK  status: ('A' for Active; 'I' for Inactive)
ROOT
ATOM      1  C2' OXE d   1       2.045  -0.331   1.472  0.00  0.00     0.078 C 
ATOM      2  C1' OXE d   1      -0.676   0.154   0.981  0.00  0.00     0.078 C 
ATOM      3  C1  OXE d   1      -0.311  -0.604   2.233  0.00  0.00    -0.078 A 
ATOM      4  C2  OXE d   1       1.019  -0.877   2.442  0.00  0.00    -0.078 A 
ATOM      5  C3  OXE d   1       1.415  -1.525   3.608  0.00  0.00     0.003 A 
ATOM      6  C4  OXE d   1       0.459  -2.035   4.495  0.00  0.00    -0.002 A 
ATOM      7  C5  OXE d   1      -0.903  -1.803   4.281  0.00  0.00    -0.002 A 
ATOM      8  C6  OXE d   1      -1.302  -1.053   3.180  0.00  0.00     0.003 A 
ENDROOT
TORSDOF 0
ENDMDL
