MODEL 1
REMARK minimizedAffinity 2.87804341
REMARK minimizedRMSD -1
REMARK  0 active torsions:
REMARK  status: ('A' for Active; 'I' for Inactive)
ROOT
ATOM      1  C2' OXE d   1       2.250  -5.999  -2.259  0.00  0.00     0.078 C 
ATOM      2  C1' OXE d   1      -0.545  -5.735  -2.259  0.00  0.00     0.078 C 
ATOM      3  C1  OXE d   1       0.172  -5.625  -3.581  0.00  0.00    -0.078 A 
ATOM      4  C2  OXE d   1       1.543  -5.709  -3.566  0.00  0.00    -0.078 A 
ATOM      5  C3  OXE d   1       2.250  -5.668  -4.765  0.00  0.00     0.003 A 
ATOM      6  C4  OXE d   1       1.590  -5.390  -5.968  0.00  0.00    -0.002 A 
ATOM      7  C5  OXE d   1       0.197  -5.261  -6.000  0.00  0.00    -0.002 A 
ATOM      8  C6  OXE d   1      -0.529  -5.418  -4.825  0.00  0.00     0.003 A 
ENDROOT
TORSDOF 0
ENDMDL
