MODEL 1
REMARK minimizedAffinity 1.96928048
REMARK minimizedRMSD -1
REMARK  0 active torsions:
REMARK  status: ('A' for Active; 'I' for Inactive)
ROOT
ATOM      1  C2' OXE d   1      -0.478  -6.000  -2.401  0.00  0.00     0.078 C 
ATOM      2  C1' OXE d   1       1.951  -4.647  -2.012  0.00  0.00     0.078 C 
ATOM      3  C1  OXE d   1       1.556  -4.990  -3.427  0.00  0.00    -0.078 A 
ATOM      4  C2  OXE d   1       0.388  -5.693  -3.604  0.00  0.00    -0.078 A 
ATOM      5  C3  OXE d   1      -0.051  -5.987  -4.892  0.00  0.00     0.003 A 
ATOM      6  C4  OXE d   1       0.761  -5.709  -5.998  0.00  0.00    -0.002 A 
ATOM      7  C5  OXE d   1       1.973  -5.029  -5.837  0.00  0.00    -0.002 A 
ATOM      8  C6  OXE d   1       2.363  -4.625  -4.564  0.00  0.00     0.003 A 
ENDROOT
TORSDOF 0
ENDMDL
