MODEL 1
REMARK minimizedAffinity 2.16917801
REMARK minimizedRMSD -1
REMARK  0 active torsions:
REMARK  status: ('A' for Active; 'I' for Inactive)
ROOT
ATOM      1  C2' OXE d   1       1.606  -2.227   4.299  0.00  0.00     0.078 C 
ATOM      2  C1' OXE d   1      -1.064  -2.721   3.585  0.00  0.00     0.078 C 
ATOM      3  C1  OXE d   1      -0.295  -1.706   2.775  0.00  0.00    -0.078 A 
ATOM      4  C2  OXE d   1       0.996  -1.437   3.161  0.00  0.00    -0.078 A 
ATOM      5  C3  OXE d   1       1.767  -0.550   2.415  0.00  0.00     0.003 A 
ATOM      6  C4  OXE d   1       1.193   0.184   1.371  0.00  0.00    -0.002 A 
ATOM      7  C5  OXE d   1      -0.133  -0.046   0.987  0.00  0.00    -0.002 A 
ATOM      8  C6  OXE d   1      -0.876  -1.016   1.650  0.00  0.00     0.003 A 
ENDROOT
TORSDOF 0
ENDMDL
