MODEL 1
REMARK minimizedAffinity 0.596018314
REMARK minimizedRMSD -1
REMARK  0 active torsions:
REMARK  status: ('A' for Active; 'I' for Inactive)
ROOT
ATOM      1  C2' OXE d   1      -0.356  -5.724  -2.272  0.00  0.00     0.078 C 
ATOM      2  C1' OXE d   1       2.165  -4.489  -2.253  0.00  0.00     0.078 C 
ATOM      3  C1  OXE d   1       1.618  -4.952  -3.580  0.00  0.00    -0.078 A 
ATOM      4  C2  OXE d   1       0.405  -5.597  -3.574  0.00  0.00    -0.078 A 
ATOM      5  C3  OXE d   1      -0.170  -5.995  -4.778  0.00  0.00     0.003 A 
ATOM      6  C4  OXE d   1       0.545  -5.883  -5.976  0.00  0.00    -0.002 A 
ATOM      7  C5  OXE d   1       1.800  -5.265  -5.999  0.00  0.00    -0.002 A 
ATOM      8  C6  OXE d   1       2.331  -4.757  -4.819  0.00  0.00     0.003 A 
ENDROOT
TORSDOF 0
ENDMDL
