MODEL 1
REMARK minimizedAffinity 8.89643574
REMARK minimizedRMSD -1
REMARK  0 active torsions:
REMARK  status: ('A' for Active; 'I' for Inactive)
ROOT
ATOM      1  C2' OXE d   1       3.180  -2.317   4.931  0.00  0.00     0.078 C 
ATOM      2  C1' OXE d   1       1.162  -0.678   5.991  0.00  0.00     0.078 C 
ATOM      3  C1  OXE d   1       1.281  -0.767   4.490  0.00  0.00    -0.078 A 
ATOM      4  C2  OXE d   1       2.300  -1.534   3.980  0.00  0.00    -0.078 A 
ATOM      5  C3  OXE d   1       2.421  -1.694   2.603  0.00  0.00     0.003 A 
ATOM      6  C4  OXE d   1       1.610  -0.958   1.730  0.00  0.00    -0.002 A 
ATOM      7  C5  OXE d   1       0.591  -0.140   2.229  0.00  0.00    -0.002 A 
ATOM      8  C6  OXE d   1       0.386  -0.066   3.602  0.00  0.00     0.003 A 
ENDROOT
TORSDOF 0
ENDMDL
