MODEL 1
REMARK minimizedAffinity 4.38823462
REMARK minimizedRMSD -1
REMARK  2 active torsions:
REMARK  status: ('A' for Active; 'I' for Inactive)
REMARK    1  A    between atoms: C2'_3  and  C1'_4 
REMARK    2  A    between atoms: C1'_4  and  C1_5 
ROOT
ATOM      1  C1  I4B d   1       0.844  -0.812  -1.350  0.00  0.00    -0.075 A 
ATOM      2  C2  I4B d   1       0.506  -0.904  -2.677  0.00  0.00     0.003 A 
ATOM      3  C3  I4B d   1       0.612  -2.142  -3.356  0.00  0.00     0.002 A 
ATOM      4  C4  I4B d   1       1.105  -3.243  -2.686  0.00  0.00    -0.004 A 
ATOM      5  C5  I4B d   1       1.425  -3.154  -1.335  0.00  0.00     0.002 A 
ATOM      6  C6  I4B d   1       1.282  -1.934  -0.659  0.00  0.00     0.003 A 
ENDROOT
BRANCH   1   7
ATOM      7  C1' I4B d   1       0.751   0.519  -0.673  0.00  0.00     0.060 C 
BRANCH   7   8
ATOM      8  C2' I4B d   1      -0.504   0.524   0.176  0.00  0.00    -0.013 C 
ATOM      9  C4' I4B d   1      -0.242   1.122   1.533  0.00  0.00     0.013 C 
ATOM     10  C3' I4B d   1      -1.558   1.295  -0.562  0.00  0.00     0.013 C 
ENDBRANCH   7   8
ENDBRANCH   1   7
TORSDOF 2
ENDMDL
