MODEL 1
REMARK minimizedAffinity -3.84649706
REMARK minimizedRMSD -1
REMARK  2 active torsions:
REMARK  status: ('A' for Active; 'I' for Inactive)
REMARK    1  A    between atoms: C2'_3  and  C1'_4 
REMARK    2  A    between atoms: C1'_4  and  C1_5 
ROOT
ATOM      1  C1  I4B d   1       1.001  -1.808  -1.256  0.00  0.00    -0.075 A 
ATOM      2  C2  I4B d   1       1.351  -2.886  -0.483  0.00  0.00     0.003 A 
ATOM      3  C3  I4B d   1       1.042  -4.200  -0.912  0.00  0.00     0.002 A 
ATOM      4  C4  I4B d   1       0.343  -4.385  -2.086  0.00  0.00    -0.004 A 
ATOM      5  C5  I4B d   1       0.009  -3.292  -2.880  0.00  0.00     0.002 A 
ATOM      6  C6  I4B d   1       0.351  -1.995  -2.469  0.00  0.00     0.003 A 
ENDROOT
BRANCH   1   7
ATOM      7  C1' I4B d   1       1.313  -0.432  -0.758  0.00  0.00     0.060 C 
BRANCH   7   8
ATOM      8  C2' I4B d   1       0.002   0.298  -0.551  0.00  0.00    -0.013 C 
ATOM      9  C4' I4B d   1      -0.521   0.093   0.847  0.00  0.00     0.013 C 
ATOM     10  C3' I4B d   1       0.233   1.753  -0.834  0.00  0.00     0.013 C 
ENDBRANCH   7   8
ENDBRANCH   1   7
TORSDOF 2
ENDMDL
