MODEL 1
REMARK minimizedAffinity -5.32579279
REMARK minimizedRMSD -1
REMARK  2 active torsions:
REMARK  status: ('A' for Active; 'I' for Inactive)
REMARK    1  A    between atoms: C2'_3  and  C1'_4 
REMARK    2  A    between atoms: C1'_4  and  C1_5 
ROOT
ATOM      1  C1  I4B d   1       1.564  -4.013  -0.200  0.00  0.00    -0.075 A 
ATOM      2  C2  I4B d   1       1.621  -2.923  -1.032  0.00  0.00     0.003 A 
ATOM      3  C3  I4B d   1       0.660  -2.758  -2.058  0.00  0.00     0.002 A 
ATOM      4  C4  I4B d   1      -0.305  -3.726  -2.247  0.00  0.00    -0.004 A 
ATOM      5  C5  I4B d   1      -0.375  -4.819  -1.388  0.00  0.00     0.002 A 
ATOM      6  C6  I4B d   1       0.557  -4.958  -0.350  0.00  0.00     0.003 A 
ENDROOT
BRANCH   1   7
ATOM      7  C1' I4B d   1       2.615  -4.172   0.853  0.00  0.00     0.060 C 
BRANCH   7   8
ATOM      8  C2' I4B d   1       2.907  -5.652   1.000  0.00  0.00    -0.013 C 
ATOM      9  C4' I4B d   1       4.261  -5.999   0.438  0.00  0.00     0.013 C 
ATOM     10  C3' I4B d   1       2.820  -5.998   2.456  0.00  0.00     0.013 C 
ENDBRANCH   7   8
ENDBRANCH   1   7
TORSDOF 2
ENDMDL
