MODEL 1
REMARK minimizedAffinity -1.6974113
REMARK minimizedRMSD -1
REMARK  2 active torsions:
REMARK  status: ('A' for Active; 'I' for Inactive)
REMARK    1  A    between atoms: C2'_3  and  C1'_4 
REMARK    2  A    between atoms: C1'_4  and  C1_5 
ROOT
ATOM      1  C1  I4B d   1       0.837  -2.167  -0.807  0.00  0.00    -0.075 A 
ATOM      2  C2  I4B d   1       1.397  -3.317  -0.310  0.00  0.00     0.003 A 
ATOM      3  C3  I4B d   1       1.209  -4.550  -0.981  0.00  0.00     0.002 A 
ATOM      4  C4  I4B d   1       0.417  -4.595  -2.110  0.00  0.00    -0.004 A 
ATOM      5  C5  I4B d   1      -0.132  -3.424  -2.625  0.00  0.00     0.002 A 
ATOM      6  C6  I4B d   1       0.090  -2.200  -1.977  0.00  0.00     0.003 A 
ENDROOT
BRANCH   1   7
ATOM      7  C1' I4B d   1       1.029  -0.888  -0.055  0.00  0.00     0.060 C 
BRANCH   7   8
ATOM      8  C2' I4B d   1      -0.201  -0.030  -0.272  0.00  0.00    -0.013 C 
ATOM      9  C4' I4B d   1      -0.885   0.282   1.032  0.00  0.00     0.013 C 
ATOM     10  C3' I4B d   1       0.229   1.225  -0.972  0.00  0.00     0.013 C 
ENDBRANCH   7   8
ENDBRANCH   1   7
TORSDOF 2
ENDMDL
