MODEL 1
REMARK minimizedAffinity -4.23012352
REMARK minimizedRMSD -1
REMARK  2 active torsions:
REMARK  status: ('A' for Active; 'I' for Inactive)
REMARK    1  A    between atoms: C2'_3  and  C1'_4 
REMARK    2  A    between atoms: C1'_4  and  C1_5 
ROOT
ATOM      1  C1  I4B d   1       0.752  -1.412  -1.109  0.00  0.00    -0.075 A 
ATOM      2  C2  I4B d   1       1.079  -2.656  -0.628  0.00  0.00     0.003 A 
ATOM      3  C3  I4B d   1       0.802  -3.812  -1.396  0.00  0.00     0.002 A 
ATOM      4  C4  I4B d   1       0.155  -3.684  -2.608  0.00  0.00    -0.004 A 
ATOM      5  C5  I4B d   1      -0.155  -2.421  -3.104  0.00  0.00     0.002 A 
ATOM      6  C6  I4B d   1       0.156  -1.277  -2.356  0.00  0.00     0.003 A 
ENDROOT
BRANCH   1   7
ATOM      7  C1' I4B d   1       1.029  -0.214  -0.257  0.00  0.00     0.060 C 
BRANCH   7   8
ATOM      8  C2' I4B d   1      -0.238   0.614  -0.190  0.00  0.00    -0.013 C 
ATOM      9  C4' I4B d   1      -0.771   0.683   1.217  0.00  0.00     0.013 C 
ATOM     10  C3' I4B d   1       0.076   1.983  -0.717  0.00  0.00     0.013 C 
ENDBRANCH   7   8
ENDBRANCH   1   7
TORSDOF 2
ENDMDL
