MODEL 1
REMARK minimizedAffinity -3.37977505
REMARK minimizedRMSD -1
REMARK  2 active torsions:
REMARK  status: ('A' for Active; 'I' for Inactive)
REMARK    1  A    between atoms: C2'_3  and  C1'_4 
REMARK    2  A    between atoms: C1'_4  and  C1_5 
ROOT
ATOM      1  C1  I4B d   1      -0.680   0.345   0.294  0.00  0.00    -0.075 A 
ATOM      2  C2  I4B d   1      -1.705   1.165  -0.107  0.00  0.00     0.003 A 
ATOM      3  C3  I4B d   1      -2.253   2.113   0.791  0.00  0.00     0.002 A 
ATOM      4  C4  I4B d   1      -1.783   2.171   2.087  0.00  0.00    -0.004 A 
ATOM      5  C5  I4B d   1      -0.729   1.355   2.486  0.00  0.00     0.002 A 
ATOM      6  C6  I4B d   1      -0.165   0.444   1.580  0.00  0.00     0.003 A 
ENDROOT
BRANCH   1   7
ATOM      7  C1' I4B d   1      -0.147  -0.667  -0.670  0.00  0.00     0.060 C 
BRANCH   7   8
ATOM      8  C2' I4B d   1       1.365  -0.648  -0.578  0.00  0.00    -0.013 C 
ATOM      9  C4' I4B d   1       1.957  -1.945  -1.064  0.00  0.00     0.013 C 
ATOM     10  C3' I4B d   1       1.864   0.512  -1.387  0.00  0.00     0.013 C 
ENDBRANCH   7   8
ENDBRANCH   1   7
TORSDOF 2
ENDMDL
