MODEL 1
REMARK minimizedAffinity -5.38671112
REMARK minimizedRMSD -1
REMARK  2 active torsions:
REMARK  status: ('A' for Active; 'I' for Inactive)
REMARK    1  A    between atoms: C2'_3  and  C1'_4 
REMARK    2  A    between atoms: C1'_4  and  C1_5 
ROOT
ATOM      1  C1  I4B d   1      -0.390   1.359  -0.101  0.00  0.00    -0.075 A 
ATOM      2  C2  I4B d   1      -0.486   2.694  -0.406  0.00  0.00     0.003 A 
ATOM      3  C3  I4B d   1      -1.242   3.561   0.419  0.00  0.00     0.002 A 
ATOM      4  C4  I4B d   1      -1.923   3.046   1.503  0.00  0.00    -0.004 A 
ATOM      5  C5  I4B d   1      -1.806   1.697   1.824  0.00  0.00     0.002 A 
ATOM      6  C6  I4B d   1      -1.025   0.850   1.024  0.00  0.00     0.003 A 
ENDROOT
BRANCH   1   7
ATOM      7  C1' I4B d   1       0.390   0.466  -1.013  0.00  0.00     0.060 C 
BRANCH   7   8
ATOM      8  C2' I4B d   1       0.892  -0.708  -0.198  0.00  0.00    -0.013 C 
ATOM      9  C4' I4B d   1       1.030  -1.944  -1.048  0.00  0.00     0.013 C 
ATOM     10  C3' I4B d   1       2.207  -0.321   0.411  0.00  0.00     0.013 C 
ENDBRANCH   7   8
ENDBRANCH   1   7
TORSDOF 2
ENDMDL
