MODEL 1
REMARK minimizedAffinity 7.41961002
REMARK minimizedRMSD -1
REMARK  2 active torsions:
REMARK  status: ('A' for Active; 'I' for Inactive)
REMARK    1  A    between atoms: C2'_3  and  C1'_4 
REMARK    2  A    between atoms: C1'_4  and  C1_5 
ROOT
ATOM      1  C1  I4B d   1       0.578  -1.252  -0.169  0.00  0.00    -0.075 A 
ATOM      2  C2  I4B d   1      -0.691  -0.823  -0.469  0.00  0.00     0.003 A 
ATOM      3  C3  I4B d   1      -1.282   0.227   0.276  0.00  0.00     0.002 A 
ATOM      4  C4  I4B d   1      -0.593   0.780   1.336  0.00  0.00    -0.004 A 
ATOM      5  C5  I4B d   1       0.702   0.359   1.624  0.00  0.00     0.002 A 
ATOM      6  C6  I4B d   1       1.296  -0.655   0.859  0.00  0.00     0.003 A 
ENDROOT
BRANCH   1   7
ATOM      7  C1' I4B d   1       1.160  -2.385  -0.955  0.00  0.00     0.060 C 
BRANCH   7   8
ATOM      8  C2' I4B d   1       0.053  -3.385  -1.221  0.00  0.00    -0.013 C 
ATOM      9  C4' I4B d   1      -0.207  -3.530  -2.698  0.00  0.00     0.013 C 
ATOM     10  C3' I4B d   1       0.455  -4.694  -0.611  0.00  0.00     0.013 C 
ENDBRANCH   7   8
ENDBRANCH   1   7
TORSDOF 2
ENDMDL
