MODEL 1
REMARK minimizedAffinity 1.53535831
REMARK minimizedRMSD -1
REMARK  2 active torsions:
REMARK  status: ('A' for Active; 'I' for Inactive)
REMARK    1  A    between atoms: C2'_3  and  C1'_4 
REMARK    2  A    between atoms: C1'_4  and  C1_5 
ROOT
ATOM      1  C1  I4B d   1      -1.210  -1.088  -0.532  0.00  0.00    -0.075 A 
ATOM      2  C2  I4B d   1      -1.716  -0.502   0.602  0.00  0.00     0.003 A 
ATOM      3  C3  I4B d   1      -1.779   0.908   0.707  0.00  0.00     0.002 A 
ATOM      4  C4  I4B d   1      -1.283   1.690  -0.316  0.00  0.00    -0.004 A 
ATOM      5  C5  I4B d   1      -0.791   1.094  -1.474  0.00  0.00     0.002 A 
ATOM      6  C6  I4B d   1      -0.766  -0.303  -1.588  0.00  0.00     0.003 A 
ENDROOT
BRANCH   1   7
ATOM      7  C1' I4B d   1      -1.127  -2.580  -0.597  0.00  0.00     0.060 C 
BRANCH   7   8
ATOM      8  C2' I4B d   1       0.072  -2.945  -1.449  0.00  0.00    -0.013 C 
ATOM      9  C4' I4B d   1       0.906  -4.010  -0.788  0.00  0.00     0.013 C 
ATOM     10  C3' I4B d   1      -0.432  -3.402  -2.785  0.00  0.00     0.013 C 
ENDBRANCH   7   8
ENDBRANCH   1   7
TORSDOF 2
ENDMDL
