MODEL 1
REMARK minimizedAffinity 2.07153201
REMARK minimizedRMSD -1
REMARK  2 active torsions:
REMARK  status: ('A' for Active; 'I' for Inactive)
REMARK    1  A    between atoms: C2'_3  and  C1'_4 
REMARK    2  A    between atoms: C1'_4  and  C1_5 
ROOT
ATOM      1  C1  I4B d   1       0.559   1.207   0.685  0.00  0.00    -0.075 A 
ATOM      2  C2  I4B d   1       0.100   2.090   1.631  0.00  0.00     0.003 A 
ATOM      3  C3  I4B d   1      -0.620   1.618   2.756  0.00  0.00     0.002 A 
ATOM      4  C4  I4B d   1      -0.899   0.271   2.868  0.00  0.00    -0.004 A 
ATOM      5  C5  I4B d   1      -0.413  -0.624   1.920  0.00  0.00     0.002 A 
ATOM      6  C6  I4B d   1       0.332  -0.155   0.828  0.00  0.00     0.003 A 
ENDROOT
BRANCH   1   7
ATOM      7  C1' I4B d   1       1.287   1.743  -0.507  0.00  0.00     0.060 C 
BRANCH   7   8
ATOM      8  C2' I4B d   1       0.292   1.872  -1.642  0.00  0.00    -0.013 C 
ATOM      9  C4' I4B d   1       0.993   2.027  -2.966  0.00  0.00     0.013 C 
ATOM     10  C3' I4B d   1      -0.583   0.654  -1.632  0.00  0.00     0.013 C 
ENDBRANCH   7   8
ENDBRANCH   1   7
TORSDOF 2
ENDMDL
