MODEL 1
REMARK minimizedAffinity -3.80121851
REMARK minimizedRMSD -1
REMARK  2 active torsions:
REMARK  status: ('A' for Active; 'I' for Inactive)
REMARK    1  A    between atoms: C2'_3  and  C1'_4 
REMARK    2  A    between atoms: C1'_4  and  C1_5 
ROOT
ATOM      1  C1  I4B d   1      -1.293   1.070  -0.196  0.00  0.00    -0.075 A 
ATOM      2  C2  I4B d   1      -0.353   0.369   0.518  0.00  0.00     0.003 A 
ATOM      3  C3  I4B d   1      -0.227   0.564   1.915  0.00  0.00     0.002 A 
ATOM      4  C4  I4B d   1      -1.022   1.500   2.545  0.00  0.00    -0.004 A 
ATOM      5  C5  I4B d   1      -1.990   2.193   1.823  0.00  0.00     0.002 A 
ATOM      6  C6  I4B d   1      -2.135   1.968   0.447  0.00  0.00     0.003 A 
ENDROOT
BRANCH   1   7
ATOM      7  C1' I4B d   1      -1.376   0.864  -1.675  0.00  0.00     0.060 C 
BRANCH   7   8
ATOM      8  C2' I4B d   1      -0.651   2.012  -2.348  0.00  0.00    -0.013 C 
ATOM      9  C4' I4B d   1      -1.286   3.334  -2.004  0.00  0.00     0.013 C 
ATOM     10  C3' I4B d   1       0.784   1.972  -1.914  0.00  0.00     0.013 C 
ENDBRANCH   7   8
ENDBRANCH   1   7
TORSDOF 2
ENDMDL
