MODEL 1
REMARK minimizedAffinity 0.213452175
REMARK minimizedRMSD -1
REMARK  2 active torsions:
REMARK  status: ('A' for Active; 'I' for Inactive)
REMARK    1  A    between atoms: C2'_3  and  C1'_4 
REMARK    2  A    between atoms: C1'_4  and  C1_5 
ROOT
ATOM      1  C1  I4B d   1       0.203   0.030   0.172  0.00  0.00    -0.075 A 
ATOM      2  C2  I4B d   1      -0.456   0.982  -0.566  0.00  0.00     0.003 A 
ATOM      3  C3  I4B d   1      -1.372   1.861   0.060  0.00  0.00     0.002 A 
ATOM      4  C4  I4B d   1      -1.635   1.722   1.408  0.00  0.00    -0.004 A 
ATOM      5  C5  I4B d   1      -0.949   0.772   2.159  0.00  0.00     0.002 A 
ATOM      6  C6  I4B d   1      -0.014  -0.072   1.540  0.00  0.00     0.003 A 
ENDROOT
BRANCH   1   7
ATOM      7  C1' I4B d   1       1.140  -0.904  -0.528  0.00  0.00     0.060 C 
BRANCH   7   8
ATOM      8  C2' I4B d   1       0.359  -2.143  -0.916  0.00  0.00    -0.013 C 
ATOM      9  C4' I4B d   1      -0.075  -2.085  -2.357  0.00  0.00     0.013 C 
ATOM     10  C3' I4B d   1       1.230  -3.337  -0.660  0.00  0.00     0.013 C 
ENDBRANCH   7   8
ENDBRANCH   1   7
TORSDOF 2
ENDMDL
