MODEL 1
REMARK minimizedAffinity -5.95469618
REMARK minimizedRMSD -1
REMARK  2 active torsions:
REMARK  status: ('A' for Active; 'I' for Inactive)
REMARK    1  A    between atoms: C2'_3  and  C1'_4 
REMARK    2  A    between atoms: C1'_4  and  C1_5 
ROOT
ATOM      1  C1  I4B d   1      -0.042  -0.028  -0.709  0.00  0.00    -0.075 A 
ATOM      2  C2  I4B d   1      -1.166  -0.444  -0.041  0.00  0.00     0.003 A 
ATOM      3  C3  I4B d   1      -1.092  -0.793   1.330  0.00  0.00     0.002 A 
ATOM      4  C4  I4B d   1       0.127  -0.759   1.975  0.00  0.00    -0.004 A 
ATOM      5  C5  I4B d   1       1.262  -0.316   1.302  0.00  0.00     0.002 A 
ATOM      6  C6  I4B d   1       1.175   0.064  -0.046  0.00  0.00     0.003 A 
ENDROOT
BRANCH   1   7
ATOM      7  C1' I4B d   1      -0.149   0.300  -2.165  0.00  0.00     0.060 C 
BRANCH   7   8
ATOM      8  C2' I4B d   1       0.594  -0.768  -2.940  0.00  0.00    -0.013 C 
ATOM      9  C4' I4B d   1      -0.362  -1.706  -3.629  0.00  0.00     0.013 C 
ATOM     10  C3' I4B d   1       1.489  -0.083  -3.930  0.00  0.00     0.013 C 
ENDBRANCH   7   8
ENDBRANCH   1   7
TORSDOF 2
ENDMDL
