MODEL 1
REMARK minimizedAffinity -4.69242859
REMARK minimizedRMSD -1
REMARK  2 active torsions:
REMARK  status: ('A' for Active; 'I' for Inactive)
REMARK    1  A    between atoms: C2'_3  and  C1'_4 
REMARK    2  A    between atoms: C1'_4  and  C1_5 
ROOT
ATOM      1  C1  I4B d   1       0.465  -0.348  -1.387  0.00  0.00    -0.075 A 
ATOM      2  C2  I4B d   1       0.364   0.341  -2.570  0.00  0.00     0.003 A 
ATOM      3  C3  I4B d   1       0.698  -0.289  -3.793  0.00  0.00     0.002 A 
ATOM      4  C4  I4B d   1       1.173  -1.585  -3.782  0.00  0.00    -0.004 A 
ATOM      5  C5  I4B d   1       1.253  -2.289  -2.584  0.00  0.00     0.002 A 
ATOM      6  C6  I4B d   1       0.885  -1.671  -1.380  0.00  0.00     0.003 A 
ENDROOT
BRANCH   1   7
ATOM      7  C1' I4B d   1       0.135   0.359  -0.111  0.00  0.00     0.060 C 
BRANCH   7   8
ATOM      8  C2' I4B d   1      -1.025  -0.366   0.539  0.00  0.00    -0.013 C 
ATOM      9  C4' I4B d   1      -0.987  -0.224   2.038  0.00  0.00     0.013 C 
ATOM     10  C3' I4B d   1      -2.297   0.195  -0.026  0.00  0.00     0.013 C 
ENDBRANCH   7   8
ENDBRANCH   1   7
TORSDOF 2
ENDMDL
