MODEL 1
REMARK minimizedAffinity -1.42400324
REMARK minimizedRMSD -1
REMARK  2 active torsions:
REMARK  status: ('A' for Active; 'I' for Inactive)
REMARK    1  A    between atoms: C2'_3  and  C1'_4 
REMARK    2  A    between atoms: C1'_4  and  C1_5 
ROOT
ATOM      1  C1  I4B d   1      -0.123   0.222  -0.613  0.00  0.00    -0.075 A 
ATOM      2  C2  I4B d   1       1.050   0.025   0.072  0.00  0.00     0.003 A 
ATOM      3  C3  I4B d   1       1.070   0.099   1.486  0.00  0.00     0.002 A 
ATOM      4  C4  I4B d   1      -0.086   0.420   2.167  0.00  0.00    -0.004 A 
ATOM      5  C5  I4B d   1      -1.279   0.598   1.472  0.00  0.00     0.002 A 
ATOM      6  C6  I4B d   1      -1.301   0.486   0.074  0.00  0.00     0.003 A 
ENDROOT
BRANCH   1   7
ATOM      7  C1' I4B d   1      -0.102   0.169  -2.108  0.00  0.00     0.060 C 
BRANCH   7   8
ATOM      8  C2' I4B d   1       0.975  -0.811  -2.525  0.00  0.00    -0.013 C 
ATOM      9  C4' I4B d   1       0.387  -1.984  -3.266  0.00  0.00     0.013 C 
ATOM     10  C3' I4B d   1       1.967  -0.076  -3.376  0.00  0.00     0.013 C 
ENDBRANCH   7   8
ENDBRANCH   1   7
TORSDOF 2
ENDMDL
