MODEL 1
REMARK minimizedAffinity -3.99923635
REMARK minimizedRMSD -1
REMARK  2 active torsions:
REMARK  status: ('A' for Active; 'I' for Inactive)
REMARK    1  A    between atoms: C2'_3  and  C1'_4 
REMARK    2  A    between atoms: C1'_4  and  C1_5 
ROOT
ATOM      1  C1  I4B d   1       0.247  -0.213  -1.799  0.00  0.00    -0.075 A 
ATOM      2  C2  I4B d   1       1.407   0.194  -2.410  0.00  0.00     0.003 A 
ATOM      3  C3  I4B d   1       1.902  -0.506  -3.537  0.00  0.00     0.002 A 
ATOM      4  C4  I4B d   1       1.237  -1.629  -3.986  0.00  0.00    -0.004 A 
ATOM      5  C5  I4B d   1       0.049  -2.026  -3.379  0.00  0.00     0.002 A 
ATOM      6  C6  I4B d   1      -0.456  -1.307  -2.286  0.00  0.00     0.003 A 
ENDROOT
BRANCH   1   7
ATOM      7  C1' I4B d   1      -0.229   0.529  -0.591  0.00  0.00     0.060 C 
BRANCH   7   8
ATOM      8  C2' I4B d   1       0.848   0.433   0.471  0.00  0.00    -0.013 C 
ATOM      9  C4' I4B d   1       1.679   1.688   0.521  0.00  0.00     0.013 C 
ATOM     10  C3' I4B d   1       0.178   0.174   1.788  0.00  0.00     0.013 C 
ENDBRANCH   7   8
ENDBRANCH   1   7
TORSDOF 2
ENDMDL
