MODEL 1
REMARK minimizedAffinity -2.87488008
REMARK minimizedRMSD -1
REMARK  2 active torsions:
REMARK  status: ('A' for Active; 'I' for Inactive)
REMARK    1  A    between atoms: C2'_3  and  C1'_4 
REMARK    2  A    between atoms: C1'_4  and  C1_5 
ROOT
ATOM      1  C1  I4B d   1       1.075  -0.749  -0.992  0.00  0.00    -0.075 A 
ATOM      2  C2  I4B d   1       1.488  -0.785   0.316  0.00  0.00     0.003 A 
ATOM      3  C3  I4B d   1       0.775  -0.069   1.309  0.00  0.00     0.002 A 
ATOM      4  C4  I4B d   1      -0.307   0.705   0.943  0.00  0.00    -0.004 A 
ATOM      5  C5  I4B d   1      -0.738   0.722  -0.380  0.00  0.00     0.002 A 
ATOM      6  C6  I4B d   1      -0.051  -0.019  -1.352  0.00  0.00     0.003 A 
ENDROOT
BRANCH   1   7
ATOM      7  C1' I4B d   1       1.870  -1.490  -2.019  0.00  0.00     0.060 C 
BRANCH   7   8
ATOM      8  C2' I4B d   1       1.602  -0.852  -3.367  0.00  0.00    -0.013 C 
ATOM      9  C4' I4B d   1       2.794  -0.065  -3.844  0.00  0.00     0.013 C 
ATOM     10  C3' I4B d   1       1.251  -1.942  -4.335  0.00  0.00     0.013 C 
ENDBRANCH   7   8
ENDBRANCH   1   7
TORSDOF 2
ENDMDL
