MODEL 1
REMARK minimizedAffinity -3.16350913
REMARK minimizedRMSD -1
REMARK  2 active torsions:
REMARK  status: ('A' for Active; 'I' for Inactive)
REMARK    1  A    between atoms: C2'_3  and  C1'_4 
REMARK    2  A    between atoms: C1'_4  and  C1_5 
ROOT
ATOM      1  C1  I4B d   1       0.220   0.296  -0.179  0.00  0.00    -0.075 A 
ATOM      2  C2  I4B d   1      -0.799   0.691   0.651  0.00  0.00     0.003 A 
ATOM      3  C3  I4B d   1      -0.650   0.600   2.056  0.00  0.00     0.002 A 
ATOM      4  C4  I4B d   1       0.508   0.065   2.583  0.00  0.00    -0.004 A 
ATOM      5  C5  I4B d   1       1.549  -0.314   1.741  0.00  0.00     0.002 A 
ATOM      6  C6  I4B d   1       1.409  -0.186   0.351  0.00  0.00     0.003 A 
ENDROOT
BRANCH   1   7
ATOM      7  C1' I4B d   1       0.015   0.374  -1.659  0.00  0.00     0.060 C 
BRANCH   7   8
ATOM      8  C2' I4B d   1       1.148  -0.378  -2.327  0.00  0.00    -0.013 C 
ATOM      9  C4' I4B d   1       0.641  -1.595  -3.055  0.00  0.00     0.013 C 
ATOM     10  C3' I4B d   1       1.839   0.565  -3.266  0.00  0.00     0.013 C 
ENDBRANCH   7   8
ENDBRANCH   1   7
TORSDOF 2
ENDMDL
