MODEL 1
REMARK minimizedAffinity 4.22434473
REMARK minimizedRMSD -1
REMARK  2 active torsions:
REMARK  status: ('A' for Active; 'I' for Inactive)
REMARK    1  A    between atoms: C2'_3  and  C1'_4 
REMARK    2  A    between atoms: C1'_4  and  C1_5 
ROOT
ATOM      1  C1  I4B d   1       0.212   0.101   0.152  0.00  0.00    -0.075 A 
ATOM      2  C2  I4B d   1       0.812   1.136  -0.521  0.00  0.00     0.003 A 
ATOM      3  C3  I4B d   1       2.023   1.691  -0.041  0.00  0.00     0.002 A 
ATOM      4  C4  I4B d   1       2.569   1.218   1.135  0.00  0.00    -0.004 A 
ATOM      5  C5  I4B d   1       1.971   0.153   1.803  0.00  0.00     0.002 A 
ATOM      6  C6  I4B d   1       0.792  -0.417   1.303  0.00  0.00     0.003 A 
ENDROOT
BRANCH   1   7
ATOM      7  C1' I4B d   1      -1.084  -0.439  -0.365  0.00  0.00     0.060 C 
BRANCH   7   8
ATOM      8  C2' I4B d   1      -2.121   0.661  -0.266  0.00  0.00    -0.013 C 
ATOM      9  C4' I4B d   1      -3.369   0.303  -1.029  0.00  0.00     0.013 C 
ATOM     10  C3' I4B d   1      -2.419   0.887   1.186  0.00  0.00     0.013 C 
ENDBRANCH   7   8
ENDBRANCH   1   7
TORSDOF 2
ENDMDL
