MODEL 1
REMARK minimizedAffinity -7.02814579
REMARK minimizedRMSD -1
REMARK  2 active torsions:
REMARK  status: ('A' for Active; 'I' for Inactive)
REMARK    1  A    between atoms: C2'_3  and  C1'_4 
REMARK    2  A    between atoms: C1'_4  and  C1_5 
ROOT
ATOM      1  C1  I4B d   1      -0.609   0.163  -0.174  0.00  0.00    -0.075 A 
ATOM      2  C2  I4B d   1       0.498   0.173   0.637  0.00  0.00     0.003 A 
ATOM      3  C3  I4B d   1       0.371  -0.106   2.020  0.00  0.00     0.002 A 
ATOM      4  C4  I4B d   1      -0.880  -0.339   2.554  0.00  0.00    -0.004 A 
ATOM      5  C5  I4B d   1      -1.998  -0.372   1.725  0.00  0.00     0.002 A 
ATOM      6  C6  I4B d   1      -1.861  -0.132   0.351  0.00  0.00     0.003 A 
ENDROOT
BRANCH   1   7
ATOM      7  C1' I4B d   1      -0.443   0.494  -1.624  0.00  0.00     0.060 C 
BRANCH   7   8
ATOM      8  C2' I4B d   1       0.379  -0.606  -2.263  0.00  0.00    -0.013 C 
ATOM      9  C4' I4B d   1      -0.495  -1.568  -3.024  0.00  0.00     0.013 C 
ATOM     10  C3' I4B d   1       1.391   0.036  -3.165  0.00  0.00     0.013 C 
ENDBRANCH   7   8
ENDBRANCH   1   7
TORSDOF 2
ENDMDL
