MODEL 1
REMARK minimizedAffinity -0.191933364
REMARK minimizedRMSD -1
REMARK  2 active torsions:
REMARK  status: ('A' for Active; 'I' for Inactive)
REMARK    1  A    between atoms: C2'_3  and  C1'_4 
REMARK    2  A    between atoms: C1'_4  and  C1_5 
ROOT
ATOM      1  C1  I4B d   1      -0.616  -0.226   0.959  0.00  0.00    -0.075 A 
ATOM      2  C2  I4B d   1      -0.589   0.026   2.308  0.00  0.00     0.003 A 
ATOM      3  C3  I4B d   1      -1.719   0.585   2.952  0.00  0.00     0.002 A 
ATOM      4  C4  I4B d   1      -2.830   0.921   2.205  0.00  0.00    -0.004 A 
ATOM      5  C5  I4B d   1      -2.864   0.644   0.842  0.00  0.00     0.002 A 
ATOM      6  C6  I4B d   1      -1.756   0.056   0.216  0.00  0.00     0.003 A 
ENDROOT
BRANCH   1   7
ATOM      7  C1' I4B d   1       0.607  -0.786   0.305  0.00  0.00     0.060 C 
BRANCH   7   8
ATOM      8  C2' I4B d   1       1.376   0.365  -0.310  0.00  0.00    -0.013 C 
ATOM      9  C4' I4B d   1       0.492   1.198  -1.200  0.00  0.00     0.013 C 
ATOM     10  C3' I4B d   1       1.950   1.187   0.805  0.00  0.00     0.013 C 
ENDBRANCH   7   8
ENDBRANCH   1   7
TORSDOF 2
ENDMDL
