MODEL 1
REMARK minimizedAffinity -3.88142633
REMARK minimizedRMSD -1
REMARK  2 active torsions:
REMARK  status: ('A' for Active; 'I' for Inactive)
REMARK    1  A    between atoms: C2'_3  and  C1'_4 
REMARK    2  A    between atoms: C1'_4  and  C1_5 
ROOT
ATOM      1  C1  I4B d   1       0.178  -0.261  -1.490  0.00  0.00    -0.075 A 
ATOM      2  C2  I4B d   1       1.267  -0.064  -2.302  0.00  0.00     0.003 A 
ATOM      3  C3  I4B d   1       1.497  -0.921  -3.406  0.00  0.00     0.002 A 
ATOM      4  C4  I4B d   1       0.647  -1.984  -3.630  0.00  0.00    -0.004 A 
ATOM      5  C5  I4B d   1      -0.469  -2.169  -2.819  0.00  0.00     0.002 A 
ATOM      6  C6  I4B d   1      -0.712  -1.295  -1.749  0.00  0.00     0.003 A 
ENDROOT
BRANCH   1   7
ATOM      7  C1' I4B d   1      -0.016   0.642  -0.313  0.00  0.00     0.060 C 
BRANCH   7   8
ATOM      8  C2' I4B d   1       1.347   0.935   0.280  0.00  0.00    -0.013 C 
ATOM      9  C4' I4B d   1       1.275   2.055   1.284  0.00  0.00     0.013 C 
ATOM     10  C3' I4B d   1       1.857  -0.326   0.912  0.00  0.00     0.013 C 
ENDBRANCH   7   8
ENDBRANCH   1   7
TORSDOF 2
ENDMDL
