MODEL 1
REMARK minimizedAffinity 1.08395076
REMARK minimizedRMSD -1
REMARK  2 active torsions:
REMARK  status: ('A' for Active; 'I' for Inactive)
REMARK    1  A    between atoms: C2'_3  and  C1'_4 
REMARK    2  A    between atoms: C1'_4  and  C1_5 
ROOT
ATOM      1  C1  I4B d   1       0.577   0.276  -1.425  0.00  0.00    -0.075 A 
ATOM      2  C2  I4B d   1      -0.793   0.191  -1.415  0.00  0.00     0.003 A 
ATOM      3  C3  I4B d   1      -1.499   0.219  -0.188  0.00  0.00     0.002 A 
ATOM      4  C4  I4B d   1      -0.798   0.282   0.999  0.00  0.00    -0.004 A 
ATOM      5  C5  I4B d   1       0.590   0.391   0.985  0.00  0.00     0.002 A 
ATOM      6  C6  I4B d   1       1.281   0.401  -0.235  0.00  0.00     0.003 A 
ENDROOT
BRANCH   1   7
ATOM      7  C1' I4B d   1       1.293   0.211  -2.737  0.00  0.00     0.060 C 
BRANCH   7   8
ATOM      8  C2' I4B d   1       1.826  -1.197  -2.908  0.00  0.00    -0.013 C 
ATOM      9  C4' I4B d   1       1.022  -1.965  -3.924  0.00  0.00     0.013 C 
ATOM     10  C3' I4B d   1       3.265  -1.101  -3.318  0.00  0.00     0.013 C 
ENDBRANCH   7   8
ENDBRANCH   1   7
TORSDOF 2
ENDMDL
