MODEL 1
REMARK minimizedAffinity -0.676933646
REMARK minimizedRMSD -1
REMARK  2 active torsions:
REMARK  status: ('A' for Active; 'I' for Inactive)
REMARK    1  A    between atoms: C2'_3  and  C1'_4 
REMARK    2  A    between atoms: C1'_4  and  C1_5 
ROOT
ATOM      1  C1  I4B d   1       0.306   0.064  -0.259  0.00  0.00    -0.075 A 
ATOM      2  C2  I4B d   1       1.611  -0.115   0.129  0.00  0.00     0.003 A 
ATOM      3  C3  I4B d   1       1.949  -0.130   1.504  0.00  0.00     0.002 A 
ATOM      4  C4  I4B d   1       0.966   0.086   2.448  0.00  0.00    -0.004 A 
ATOM      5  C5  I4B d   1      -0.359   0.244   2.053  0.00  0.00     0.002 A 
ATOM      6  C6  I4B d   1      -0.694   0.221   0.692  0.00  0.00     0.003 A 
ENDROOT
BRANCH   1   7
ATOM      7  C1' I4B d   1      -0.011   0.107  -1.721  0.00  0.00     0.060 C 
BRANCH   7   8
ATOM      8  C2' I4B d   1       1.035  -0.711  -2.450  0.00  0.00    -0.013 C 
ATOM      9  C4' I4B d   1       0.398  -1.798  -3.276  0.00  0.00     0.013 C 
ATOM     10  C3' I4B d   1       1.837   0.221  -3.308  0.00  0.00     0.013 C 
ENDBRANCH   7   8
ENDBRANCH   1   7
TORSDOF 2
ENDMDL
