MODEL 1
REMARK minimizedAffinity -2.85288882
REMARK minimizedRMSD -1
REMARK  2 active torsions:
REMARK  status: ('A' for Active; 'I' for Inactive)
REMARK    1  A    between atoms: C2'_3  and  C1'_4 
REMARK    2  A    between atoms: C1'_4  and  C1_5 
ROOT
ATOM      1  C1  I4B d   1      -0.487   0.639   0.172  0.00  0.00    -0.075 A 
ATOM      2  C2  I4B d   1      -1.848   0.816   0.144  0.00  0.00     0.003 A 
ATOM      3  C3  I4B d   1      -2.590   0.830   1.350  0.00  0.00     0.002 A 
ATOM      4  C4  I4B d   1      -1.943   0.616   2.549  0.00  0.00    -0.004 A 
ATOM      5  C5  I4B d   1      -0.560   0.460   2.578  0.00  0.00     0.002 A 
ATOM      6  C6  I4B d   1       0.175   0.484   1.383  0.00  0.00     0.003 A 
ENDROOT
BRANCH   1   7
ATOM      7  C1' I4B d   1       0.261   0.596  -1.122  0.00  0.00     0.060 C 
BRANCH   7   8
ATOM      8  C2' I4B d   1       0.466  -0.858  -1.495  0.00  0.00    -0.013 C 
ATOM      9  C4' I4B d   1       0.825  -1.003  -2.950  0.00  0.00     0.013 C 
ATOM     10  C3' I4B d   1       1.545  -1.414  -0.614  0.00  0.00     0.013 C 
ENDBRANCH   7   8
ENDBRANCH   1   7
TORSDOF 2
ENDMDL
