MODEL 1
REMARK minimizedAffinity -4.09374475
REMARK minimizedRMSD -1
REMARK  2 active torsions:
REMARK  status: ('A' for Active; 'I' for Inactive)
REMARK    1  A    between atoms: C2'_3  and  C1'_4 
REMARK    2  A    between atoms: C1'_4  and  C1_5 
ROOT
ATOM      1  C1  I4B d   1      -1.757   0.479   0.782  0.00  0.00    -0.075 A 
ATOM      2  C2  I4B d   1      -1.502   0.758  -0.538  0.00  0.00     0.003 A 
ATOM      3  C3  I4B d   1      -0.169   0.812  -1.011  0.00  0.00     0.002 A 
ATOM      4  C4  I4B d   1       0.874   0.632  -0.126  0.00  0.00    -0.004 A 
ATOM      5  C5  I4B d   1       0.614   0.326   1.207  0.00  0.00     0.002 A 
ATOM      6  C6  I4B d   1      -0.710   0.237   1.661  0.00  0.00     0.003 A 
ENDROOT
BRANCH   1   7
ATOM      7  C1' I4B d   1      -3.176   0.462   1.254  0.00  0.00     0.060 C 
BRANCH   7   8
ATOM      8  C2' I4B d   1      -3.263   1.321   2.499  0.00  0.00    -0.013 C 
ATOM      9  C4' I4B d   1      -4.477   2.212   2.462  0.00  0.00     0.013 C 
ATOM     10  C3' I4B d   1      -3.296   0.410   3.689  0.00  0.00     0.013 C 
ENDBRANCH   7   8
ENDBRANCH   1   7
TORSDOF 2
ENDMDL
