MODEL 1
REMARK minimizedAffinity -2.45673275
REMARK minimizedRMSD -1
REMARK  1 active torsions:
REMARK  status: ('A' for Active; 'I' for Inactive)
REMARK    1  A    between atoms: C1_2  and  C2_3 
ROOT
ATOM      1  C2  UNL d   1       0.409   0.491   0.152  0.00  0.00    -0.073 A 
ATOM      2  C3  UNL d   1      -0.263   1.649   0.556  0.00  0.00    -0.002 A 
ATOM      3  C4  UNL d   1      -1.623   1.603   0.869  0.00  0.00     0.004 A 
ATOM      4  C5  UNL d   1      -2.321   0.398   0.787  0.00  0.00    -0.004 A 
ATOM      5  C6  UNL d   1      -1.664  -0.773   0.396  0.00  0.00    -0.075 A 
ATOM      6  C7  UNL d   1      -2.402  -2.076   0.301  0.00  0.00     0.076 C 
ATOM      7  C8  UNL d   1      -0.300  -0.718   0.082  0.00  0.00     0.001 A 
ENDROOT
BRANCH   1   8
ATOM      8  C1  UNL d   1       1.878   0.534  -0.180  0.00  0.00     0.053 C 
ATOM      9  C   UNL d   1       2.647  -0.596   0.485  0.00  0.00     0.018 C 
ENDBRANCH   1   8
TORSDOF 1
ENDMDL
