MODEL 1
REMARK minimizedAffinity -4.77142286
REMARK minimizedRMSD -1
REMARK  1 active torsions:
REMARK  status: ('A' for Active; 'I' for Inactive)
REMARK    1  A    between atoms: C1_2  and  C2_3 
ROOT
ATOM      1  C2  UNL d   1       0.369   1.286  -0.375  0.00  0.00    -0.073 A 
ATOM      2  C3  UNL d   1      -0.359   2.058   0.537  0.00  0.00    -0.002 A 
ATOM      3  C4  UNL d   1      -1.314   1.461   1.361  0.00  0.00     0.004 A 
ATOM      4  C5  UNL d   1      -1.546   0.088   1.286  0.00  0.00    -0.004 A 
ATOM      5  C6  UNL d   1      -0.820  -0.702   0.389  0.00  0.00    -0.075 A 
ATOM      6  C7  UNL d   1      -1.060  -2.181   0.294  0.00  0.00     0.076 C 
ATOM      7  C8  UNL d   1       0.135  -0.095  -0.437  0.00  0.00     0.001 A 
ENDROOT
BRANCH   1   8
ATOM      8  C1  UNL d   1       1.407   1.925  -1.262  0.00  0.00     0.053 C 
ATOM      9  C   UNL d   1       0.911   2.092  -2.690  0.00  0.00     0.018 C 
ENDBRANCH   1   8
TORSDOF 1
ENDMDL
