MODEL 1
REMARK minimizedAffinity -1.55442381
REMARK minimizedRMSD -1
REMARK  1 active torsions:
REMARK  status: ('A' for Active; 'I' for Inactive)
REMARK    1  A    between atoms: C1_2  and  C2_3 
ROOT
ATOM      1  C2  UNL d   1       0.176   1.640  -1.510  0.00  0.00    -0.073 A 
ATOM      2  C3  UNL d   1       1.339   1.083  -0.964  0.00  0.00    -0.002 A 
ATOM      3  C4  UNL d   1       1.260   0.214   0.126  0.00  0.00     0.004 A 
ATOM      4  C5  UNL d   1       0.020  -0.112   0.675  0.00  0.00    -0.004 A 
ATOM      5  C6  UNL d   1      -1.154   0.425   0.136  0.00  0.00    -0.075 A 
ATOM      6  C7  UNL d   1      -2.495   0.085   0.716  0.00  0.00     0.076 C 
ATOM      7  C8  UNL d   1      -1.066   1.299  -0.956  0.00  0.00     0.001 A 
ENDROOT
BRANCH   1   8
ATOM      8  C1  UNL d   1       0.256   2.573  -2.690  0.00  0.00     0.053 C 
ATOM      9  C   UNL d   1       1.572   2.434  -3.439  0.00  0.00     0.018 C 
ENDBRANCH   1   8
TORSDOF 1
ENDMDL
