MODEL 1
REMARK minimizedAffinity -3.97773385
REMARK minimizedRMSD -1
REMARK  1 active torsions:
REMARK  status: ('A' for Active; 'I' for Inactive)
REMARK    1  A    between atoms: C1_2  and  C2_3 
ROOT
ATOM      1  C2  UNL d   1       0.812   0.506  -0.730  0.00  0.00    -0.073 A 
ATOM      2  C3  UNL d   1       1.354  -0.774  -0.569  0.00  0.00    -0.002 A 
ATOM      3  C4  UNL d   1       0.613  -1.780   0.054  0.00  0.00     0.004 A 
ATOM      4  C5  UNL d   1      -0.677  -1.519   0.514  0.00  0.00    -0.004 A 
ATOM      5  C6  UNL d   1      -1.241  -0.249   0.352  0.00  0.00    -0.075 A 
ATOM      6  C7  UNL d   1      -2.627   0.049   0.844  0.00  0.00     0.076 C 
ATOM      7  C8  UNL d   1      -0.490   0.756  -0.272  0.00  0.00     0.001 A 
ENDROOT
BRANCH   1   8
ATOM      8  C1  UNL d   1       1.605   1.593  -1.408  0.00  0.00     0.053 C 
ATOM      9  C   UNL d   1       1.813   1.310  -2.887  0.00  0.00     0.018 C 
ENDBRANCH   1   8
TORSDOF 1
ENDMDL
