MODEL 1
REMARK minimizedAffinity -3.43907523
REMARK minimizedRMSD -1
REMARK  1 active torsions:
REMARK  status: ('A' for Active; 'I' for Inactive)
REMARK    1  A    between atoms: C1_2  and  C2_3 
ROOT
ATOM      1  C2  UNL d   1       0.074   0.384  -0.386  0.00  0.00    -0.073 A 
ATOM      2  C3  UNL d   1       1.274  -0.327  -0.278  0.00  0.00    -0.002 A 
ATOM      3  C4  UNL d   1       1.279  -1.629   0.226  0.00  0.00     0.004 A 
ATOM      4  C5  UNL d   1       0.085  -2.233   0.620  0.00  0.00    -0.004 A 
ATOM      5  C6  UNL d   1      -1.126  -1.543   0.508  0.00  0.00    -0.075 A 
ATOM      6  C7  UNL d   1      -2.418  -2.178   0.929  0.00  0.00     0.076 C 
ATOM      7  C8  UNL d   1      -1.122  -0.235   0.004  0.00  0.00     0.001 A 
ENDROOT
BRANCH   1   8
ATOM      8  C1  UNL d   1       0.063   1.787  -0.936  0.00  0.00     0.053 C 
ATOM      9  C   UNL d   1       0.604   1.848  -2.355  0.00  0.00     0.018 C 
ENDBRANCH   1   8
TORSDOF 1
ENDMDL
