MODEL 1
REMARK minimizedAffinity -3.95773864
REMARK minimizedRMSD -1
REMARK  1 active torsions:
REMARK  status: ('A' for Active; 'I' for Inactive)
REMARK    1  A    between atoms: C1_2  and  C2_3 
ROOT
ATOM      1  C2  UNL d   1       0.867   0.107   0.084  0.00  0.00    -0.073 A 
ATOM      2  C3  UNL d   1       1.527  -0.796   0.925  0.00  0.00    -0.002 A 
ATOM      3  C4  UNL d   1       0.812  -1.796   1.585  0.00  0.00     0.004 A 
ATOM      4  C5  UNL d   1      -0.567  -1.907   1.407  0.00  0.00    -0.004 A 
ATOM      5  C6  UNL d   1      -1.242  -1.021   0.561  0.00  0.00    -0.075 A 
ATOM      6  C7  UNL d   1      -2.726  -1.126   0.361  0.00  0.00     0.076 C 
ATOM      7  C8  UNL d   1      -0.518  -0.018  -0.096  0.00  0.00     0.001 A 
ENDROOT
BRANCH   1   8
ATOM      8  C1  UNL d   1       1.637   1.185  -0.636  0.00  0.00     0.053 C 
ATOM      9  C   UNL d   1       0.872   1.727  -1.833  0.00  0.00     0.018 C 
ENDBRANCH   1   8
TORSDOF 1
ENDMDL
