MODEL 1
REMARK minimizedAffinity -3.89110184
REMARK minimizedRMSD -1
REMARK  1 active torsions:
REMARK  status: ('A' for Active; 'I' for Inactive)
REMARK    1  A    between atoms: C1_2  and  C2_3 
ROOT
ATOM      1  C2  UNL d   1       0.085  -0.059   0.241  0.00  0.00    -0.073 A 
ATOM      2  C3  UNL d   1       1.328  -0.685   0.384  0.00  0.00    -0.002 A 
ATOM      3  C4  UNL d   1       1.408  -1.992   0.867  0.00  0.00     0.004 A 
ATOM      4  C5  UNL d   1       0.248  -2.688   1.205  0.00  0.00    -0.004 A 
ATOM      5  C6  UNL d   1      -1.005  -2.084   1.057  0.00  0.00    -0.075 A 
ATOM      6  C7  UNL d   1      -2.263  -2.818   1.418  0.00  0.00     0.076 C 
ATOM      7  C8  UNL d   1      -1.077  -0.770   0.574  0.00  0.00     0.001 A 
ENDROOT
BRANCH   1   8
ATOM      8  C1  UNL d   1      -0.007   1.349  -0.286  0.00  0.00     0.053 C 
ATOM      9  C   UNL d   1       1.106   1.662  -1.274  0.00  0.00     0.018 C 
ENDBRANCH   1   8
TORSDOF 1
ENDMDL
