MODEL 1
REMARK minimizedAffinity -0.521878958
REMARK minimizedRMSD -1
REMARK  1 active torsions:
REMARK  status: ('A' for Active; 'I' for Inactive)
REMARK    1  A    between atoms: C1_2  and  C2_3 
ROOT
ATOM      1  C2  UNL d   1       0.917   0.962  -0.963  0.00  0.00    -0.073 A 
ATOM      2  C3  UNL d   1       1.364  -0.327  -0.651  0.00  0.00    -0.002 A 
ATOM      3  C4  UNL d   1       0.586  -1.172   0.141  0.00  0.00     0.004 A 
ATOM      4  C5  UNL d   1      -0.649  -0.739   0.624  0.00  0.00    -0.004 A 
ATOM      5  C6  UNL d   1      -1.119   0.541   0.314  0.00  0.00    -0.075 A 
ATOM      6  C7  UNL d   1      -2.445   1.022   0.828  0.00  0.00     0.076 C 
ATOM      7  C8  UNL d   1      -0.330   1.384  -0.480  0.00  0.00     0.001 A 
ENDROOT
BRANCH   1   8
ATOM      8  C1  UNL d   1       1.751   1.875  -1.823  0.00  0.00     0.053 C 
ATOM      9  C   UNL d   1       1.183   2.012  -3.227  0.00  0.00     0.018 C 
ENDBRANCH   1   8
TORSDOF 1
ENDMDL
