MODEL 1
REMARK minimizedAffinity -4.53734875
REMARK minimizedRMSD -1
REMARK  1 active torsions:
REMARK  status: ('A' for Active; 'I' for Inactive)
REMARK    1  A    between atoms: C1_2  and  C2_3 
ROOT
ATOM      1  C2  UNL d   1       0.043   0.397  -1.128  0.00  0.00    -0.073 A 
ATOM      2  C3  UNL d   1       1.220   0.482  -0.375  0.00  0.00    -0.002 A 
ATOM      3  C4  UNL d   1       1.442  -0.395   0.688  0.00  0.00     0.004 A 
ATOM      4  C5  UNL d   1       0.494  -1.368   1.004  0.00  0.00    -0.004 A 
ATOM      5  C6  UNL d   1      -0.683  -1.477   0.256  0.00  0.00    -0.075 A 
ATOM      6  C7  UNL d   1      -1.713  -2.517   0.585  0.00  0.00     0.076 C 
ATOM      7  C8  UNL d   1      -0.899  -0.591  -0.808  0.00  0.00     0.001 A 
ENDROOT
BRANCH   1   8
ATOM      8  C1  UNL d   1      -0.198   1.337  -2.281  0.00  0.00     0.053 C 
ATOM      9  C   UNL d   1       1.078   1.629  -3.055  0.00  0.00     0.018 C 
ENDBRANCH   1   8
TORSDOF 1
ENDMDL
