MODEL 1
REMARK minimizedAffinity -5.9610281
REMARK minimizedRMSD -1
REMARK  1 active torsions:
REMARK  status: ('A' for Active; 'I' for Inactive)
REMARK    1  A    between atoms: C1_2  and  C2_3 
ROOT
ATOM      1  C2  UNL d   1      -0.205   0.451   0.696  0.00  0.00    -0.073 A 
ATOM      2  C3  UNL d   1      -1.247   1.210   1.241  0.00  0.00    -0.002 A 
ATOM      3  C4  UNL d   1      -2.358   0.581   1.803  0.00  0.00     0.004 A 
ATOM      4  C5  UNL d   1      -2.437  -0.811   1.833  0.00  0.00    -0.004 A 
ATOM      5  C6  UNL d   1      -1.401  -1.587   1.304  0.00  0.00    -0.075 A 
ATOM      6  C7  UNL d   1      -1.471  -3.086   1.326  0.00  0.00     0.076 C 
ATOM      7  C8  UNL d   1      -0.289  -0.949   0.738  0.00  0.00     0.001 A 
ENDROOT
BRANCH   1   8
ATOM      8  C1  UNL d   1       1.000   1.125   0.093  0.00  0.00     0.053 C 
ATOM      9  C   UNL d   1       0.697   1.719  -1.273  0.00  0.00     0.018 C 
ENDBRANCH   1   8
TORSDOF 1
ENDMDL
