MODEL 1
REMARK minimizedAffinity 4.83989477
REMARK minimizedRMSD -1
REMARK  1 active torsions:
REMARK  status: ('A' for Active; 'I' for Inactive)
REMARK    1  A    between atoms: C1_2  and  C2_3 
ROOT
ATOM      1  C2  UNL d   1       3.005  -2.905  -3.228  0.00  0.00    -0.076 A 
ATOM      2  C3  UNL d   1       3.498  -3.745  -4.241  0.00  0.00     0.004 A 
ATOM      3  C4  UNL d   1       4.835  -3.688  -4.633  0.00  0.00    -0.003 A 
ATOM      4  C5  UNL d   1       5.700  -2.790  -4.017  0.00  0.00     0.000 A 
ATOM      5  C6  UNL d   1       5.232  -1.962  -2.998  0.00  0.00     0.000 A 
ATOM      6  C7  UNL d   1       3.891  -2.018  -2.580  0.00  0.00    -0.073 A 
ATOM      7  C8  UNL d   1       3.438  -1.097  -1.480  0.00  0.00     0.078 C 
ENDROOT
BRANCH   1   8
ATOM      8  C1  UNL d   1       1.540  -2.992  -2.865  0.00  0.00     0.053 C 
ATOM      9  C   UNL d   1       1.292  -3.877  -1.653  0.00  0.00     0.018 C 
ENDBRANCH   1   8
TORSDOF 1
ENDMDL
