MODEL 1
REMARK minimizedAffinity 12.2575645
REMARK minimizedRMSD -1
REMARK  1 active torsions:
REMARK  status: ('A' for Active; 'I' for Inactive)
REMARK    1  A    between atoms: C1_2  and  C2_3 
ROOT
ATOM      1  C2  UNL d   1      -4.405   3.758  -4.866  0.00  0.00    -0.076 A 
ATOM      2  C3  UNL d   1      -4.543   2.938  -5.999  0.00  0.00     0.004 A 
ATOM      3  C4  UNL d   1      -4.140   1.604  -5.973  0.00  0.00    -0.003 A 
ATOM      4  C5  UNL d   1      -3.592   1.068  -4.813  0.00  0.00     0.000 A 
ATOM      5  C6  UNL d   1      -3.464   1.862  -3.674  0.00  0.00     0.000 A 
ATOM      6  C7  UNL d   1      -3.880   3.204  -3.678  0.00  0.00    -0.073 A 
ATOM      7  C8  UNL d   1      -3.713   4.016  -2.423  0.00  0.00     0.078 C 
ENDROOT
BRANCH   1   8
ATOM      8  C1  UNL d   1      -4.834   5.204  -4.961  0.00  0.00     0.053 C 
ATOM      9  C   UNL d   1      -3.995   5.997  -5.951  0.00  0.00     0.018 C 
ENDBRANCH   1   8
TORSDOF 1
ENDMDL
