MODEL 1
REMARK minimizedAffinity 13.1293583
REMARK minimizedRMSD -1
REMARK  1 active torsions:
REMARK  status: ('A' for Active; 'I' for Inactive)
REMARK    1  A    between atoms: C1_2  and  C2_3 
ROOT
ATOM      1  C2  UNL d   1       0.041   2.943  -0.596  0.00  0.00    -0.076 A 
ATOM      2  C3  UNL d   1       0.787   4.002  -0.050  0.00  0.00     0.004 A 
ATOM      3  C4  UNL d   1       0.925   5.210  -0.732  0.00  0.00    -0.003 A 
ATOM      4  C5  UNL d   1       0.319   5.378  -1.972  0.00  0.00     0.000 A 
ATOM      5  C6  UNL d   1      -0.439   4.345  -2.521  0.00  0.00     0.000 A 
ATOM      6  C7  UNL d   1      -0.602   3.127  -1.839  0.00  0.00    -0.073 A 
ATOM      7  C8  UNL d   1      -1.425   2.044  -2.481  0.00  0.00     0.078 C 
ENDROOT
BRANCH   1   8
ATOM      8  C1  UNL d   1      -0.051   1.647   0.177  0.00  0.00     0.053 C 
ATOM      9  C   UNL d   1       0.048   1.857   1.680  0.00  0.00     0.018 C 
ENDBRANCH   1   8
TORSDOF 1
ENDMDL
