MODEL 1
REMARK minimizedAffinity 20.4321575
REMARK minimizedRMSD -1
REMARK  1 active torsions:
REMARK  status: ('A' for Active; 'I' for Inactive)
REMARK    1  A    between atoms: C1_2  and  C2_3 
ROOT
ATOM      1  C2  UNL d   1      -0.772   4.422  -0.234  0.00  0.00    -0.076 A 
ATOM      2  C3  UNL d   1      -0.718   3.515   0.839  0.00  0.00     0.004 A 
ATOM      3  C4  UNL d   1      -0.423   2.170   0.626  0.00  0.00    -0.003 A 
ATOM      4  C5  UNL d   1      -0.176   1.709  -0.663  0.00  0.00     0.000 A 
ATOM      5  C6  UNL d   1      -0.208   2.599  -1.736  0.00  0.00     0.000 A 
ATOM      6  C7  UNL d   1      -0.488   3.962  -1.537  0.00  0.00    -0.073 A 
ATOM      7  C8  UNL d   1      -0.515   4.875  -2.732  0.00  0.00     0.078 C 
ENDROOT
BRANCH   1   8
ATOM      8  C1  UNL d   1      -1.124   5.864   0.055  0.00  0.00     0.053 C 
ATOM      9  C   UNL d   1      -2.192   6.000   1.129  0.00  0.00     0.018 C 
ENDBRANCH   1   8
TORSDOF 1
ENDMDL
