MODEL 1
REMARK minimizedAffinity 19.4436169
REMARK minimizedRMSD -1
REMARK  1 active torsions:
REMARK  status: ('A' for Active; 'I' for Inactive)
REMARK    1  A    between atoms: C1_2  and  C2_3 
ROOT
ATOM      1  C2  UNL d   1       1.207   1.998   1.410  0.00  0.00    -0.076 A 
ATOM      2  C3  UNL d   1       0.929   2.474   0.116  0.00  0.00     0.004 A 
ATOM      3  C4  UNL d   1      -0.383   2.589  -0.339  0.00  0.00    -0.003 A 
ATOM      4  C5  UNL d   1      -1.439   2.232   0.492  0.00  0.00     0.000 A 
ATOM      5  C6  UNL d   1      -1.183   1.774   1.784  0.00  0.00     0.000 A 
ATOM      6  C7  UNL d   1       0.133   1.667   2.264  0.00  0.00    -0.073 A 
ATOM      7  C8  UNL d   1       0.352   1.162   3.664  0.00  0.00     0.078 C 
ENDROOT
BRANCH   1   8
ATOM      8  C1  UNL d   1       2.651   1.868   1.839  0.00  0.00     0.053 C 
ATOM      9  C   UNL d   1       3.216   0.482   1.570  0.00  0.00     0.018 C 
ENDBRANCH   1   8
TORSDOF 1
ENDMDL
