MODEL 1
REMARK minimizedAffinity 9.76830673
REMARK minimizedRMSD -1
REMARK  1 active torsions:
REMARK  status: ('A' for Active; 'I' for Inactive)
REMARK    1  A    between atoms: C1_2  and  C2_3 
ROOT
ATOM      1  C2  UNL d   1       4.466  -1.916  -3.151  0.00  0.00    -0.076 A 
ATOM      2  C3  UNL d   1       3.607  -2.054  -2.047  0.00  0.00     0.004 A 
ATOM      3  C4  UNL d   1       2.301  -1.569  -2.088  0.00  0.00    -0.003 A 
ATOM      4  C5  UNL d   1       1.832  -0.939  -3.236  0.00  0.00     0.000 A 
ATOM      5  C6  UNL d   1       2.664  -0.810  -4.347  0.00  0.00     0.000 A 
ATOM      6  C7  UNL d   1       3.978  -1.308  -4.328  0.00  0.00    -0.073 A 
ATOM      7  C8  UNL d   1       4.834  -1.135  -5.553  0.00  0.00     0.078 C 
ENDROOT
BRANCH   1   8
ATOM      8  C1  UNL d   1       5.881  -2.437  -3.038  0.00  0.00     0.053 C 
ATOM      9  C   UNL d   1       5.997  -3.899  -3.441  0.00  0.00     0.018 C 
ENDBRANCH   1   8
TORSDOF 1
ENDMDL
