MODEL 1
REMARK minimizedAffinity 1.40181088
REMARK minimizedRMSD -1
REMARK  1 active torsions:
REMARK  status: ('A' for Active; 'I' for Inactive)
REMARK    1  A    between atoms: C1_2  and  C2_3 
ROOT
ATOM      1  C2  UNL d   1      -1.301  -0.875  -1.576  0.00  0.00    -0.076 A 
ATOM      2  C3  UNL d   1      -2.045  -1.478  -2.605  0.00  0.00     0.004 A 
ATOM      3  C4  UNL d   1      -2.762  -2.651  -2.379  0.00  0.00    -0.003 A 
ATOM      4  C5  UNL d   1      -2.748  -3.240  -1.119  0.00  0.00     0.000 A 
ATOM      5  C6  UNL d   1      -2.030  -2.646  -0.082  0.00  0.00     0.000 A 
ATOM      6  C7  UNL d   1      -1.315  -1.454  -0.289  0.00  0.00    -0.073 A 
ATOM      7  C8  UNL d   1      -0.553  -0.860   0.863  0.00  0.00     0.078 C 
ENDROOT
BRANCH   1   8
ATOM      8  C1  UNL d   1      -0.520   0.382  -1.888  0.00  0.00     0.053 C 
ATOM      9  C   UNL d   1       0.456   0.191  -3.039  0.00  0.00     0.018 C 
ENDBRANCH   1   8
TORSDOF 1
ENDMDL
