MODEL 1
REMARK minimizedAffinity 1.48473251
REMARK minimizedRMSD -1
REMARK  1 active torsions:
REMARK  status: ('A' for Active; 'I' for Inactive)
REMARK    1  A    between atoms: C1_2  and  C2_3 
ROOT
ATOM      1  C2  UNL d   1      -5.015   3.599   1.071  0.00  0.00    -0.076 A 
ATOM      2  C3  UNL d   1      -4.969   3.801   2.461  0.00  0.00     0.004 A 
ATOM      3  C4  UNL d   1      -5.422   4.991   3.029  0.00  0.00    -0.003 A 
ATOM      4  C5  UNL d   1      -5.929   5.998   2.215  0.00  0.00     0.000 A 
ATOM      5  C6  UNL d   1      -5.998   5.808   0.835  0.00  0.00     0.000 A 
ATOM      6  C7  UNL d   1      -5.561   4.608   0.248  0.00  0.00    -0.073 A 
ATOM      7  C8  UNL d   1      -5.654   4.459  -1.245  0.00  0.00     0.078 C 
ENDROOT
BRANCH   1   8
ATOM      8  C1  UNL d   1      -4.485   2.299   0.510  0.00  0.00     0.053 C 
ATOM      9  C   UNL d   1      -4.455   1.186   1.546  0.00  0.00     0.018 C 
ENDBRANCH   1   8
TORSDOF 1
ENDMDL
