MODEL 1
REMARK minimizedAffinity -4.99009418
REMARK minimizedRMSD -1
REMARK  1 active torsions:
REMARK  status: ('A' for Active; 'I' for Inactive)
REMARK    1  A    between atoms: C1_2  and  C2_3 
ROOT
ATOM      1  C2  UNL d   1       0.786  -0.247  -2.135  0.00  0.00    -0.076 A 
ATOM      2  C3  UNL d   1       2.145  -0.591  -2.239  0.00  0.00     0.004 A 
ATOM      3  C4  UNL d   1       2.791  -0.601  -3.474  0.00  0.00    -0.003 A 
ATOM      4  C5  UNL d   1       2.087  -0.267  -4.626  0.00  0.00     0.000 A 
ATOM      5  C6  UNL d   1       0.743   0.094  -4.540  0.00  0.00     0.000 A 
ATOM      6  C7  UNL d   1       0.082   0.125  -3.300  0.00  0.00    -0.073 A 
ATOM      7  C8  UNL d   1      -1.370   0.515  -3.266  0.00  0.00     0.078 C 
ENDROOT
BRANCH   1   8
ATOM      8  C1  UNL d   1       0.133  -0.280  -0.772  0.00  0.00     0.053 C 
ATOM      9  C   UNL d   1       0.430  -1.565  -0.014  0.00  0.00     0.018 C 
ENDBRANCH   1   8
TORSDOF 1
ENDMDL
