MODEL 1
REMARK minimizedAffinity -4.32880354
REMARK minimizedRMSD -1
REMARK  1 active torsions:
REMARK  status: ('A' for Active; 'I' for Inactive)
REMARK    1  A    between atoms: C1_2  and  C2_3 
ROOT
ATOM      1  C2  UNL d   1      -5.107   3.536   4.715  0.00  0.00    -0.076 A 
ATOM      2  C3  UNL d   1      -4.811   2.924   3.485  0.00  0.00     0.004 A 
ATOM      3  C4  UNL d   1      -5.025   3.592   2.281  0.00  0.00    -0.003 A 
ATOM      4  C5  UNL d   1      -5.538   4.885   2.287  0.00  0.00     0.000 A 
ATOM      5  C6  UNL d   1      -5.821   5.514   3.499  0.00  0.00     0.000 A 
ATOM      6  C7  UNL d   1      -5.595   4.860   4.722  0.00  0.00    -0.073 A 
ATOM      7  C8  UNL d   1      -5.923   5.584   5.999  0.00  0.00     0.078 C 
ENDROOT
BRANCH   1   8
ATOM      8  C1  UNL d   1      -4.879   2.752   5.988  0.00  0.00     0.053 C 
ATOM      9  C   UNL d   1      -3.537   2.037   5.999  0.00  0.00     0.018 C 
ENDBRANCH   1   8
TORSDOF 1
ENDMDL
