MODEL 1
REMARK minimizedAffinity 4.19305229
REMARK minimizedRMSD -1
REMARK  1 active torsions:
REMARK  status: ('A' for Active; 'I' for Inactive)
REMARK    1  A    between atoms: C1_2  and  C2_3 
ROOT
ATOM      1  C2  UNL d   1      -3.257  -3.295  -1.503  0.00  0.00    -0.076 A 
ATOM      2  C3  UNL d   1      -3.760  -3.743  -2.736  0.00  0.00     0.004 A 
ATOM      3  C4  UNL d   1      -3.251  -3.255  -3.939  0.00  0.00    -0.003 A 
ATOM      4  C5  UNL d   1      -2.230  -2.312  -3.927  0.00  0.00     0.000 A 
ATOM      5  C6  UNL d   1      -1.706  -1.870  -2.713  0.00  0.00     0.000 A 
ATOM      6  C7  UNL d   1      -2.197  -2.363  -1.492  0.00  0.00    -0.073 A 
ATOM      7  C8  UNL d   1      -1.599  -1.846  -0.212  0.00  0.00     0.078 C 
ENDROOT
BRANCH   1   8
ATOM      8  C1  UNL d   1      -3.866  -3.839  -0.231  0.00  0.00     0.053 C 
ATOM      9  C   UNL d   1      -5.300  -4.308  -0.426  0.00  0.00     0.018 C 
ENDBRANCH   1   8
TORSDOF 1
ENDMDL
