MODEL 1
REMARK minimizedAffinity 2.6639514
REMARK minimizedRMSD -1
REMARK  1 active torsions:
REMARK  status: ('A' for Active; 'I' for Inactive)
REMARK    1  A    between atoms: C1_2  and  C2_3 
ROOT
ATOM      1  C2  UNL d   1      -1.836  -1.236  -1.596  0.00  0.00    -0.076 A 
ATOM      2  C3  UNL d   1      -2.151  -0.745  -2.875  0.00  0.00     0.004 A 
ATOM      3  C4  UNL d   1      -2.644  -1.590  -3.867  0.00  0.00    -0.003 A 
ATOM      4  C5  UNL d   1      -2.831  -2.942  -3.596  0.00  0.00     0.000 A 
ATOM      5  C6  UNL d   1      -2.540  -3.443  -2.328  0.00  0.00     0.000 A 
ATOM      6  C7  UNL d   1      -2.057  -2.601  -1.312  0.00  0.00    -0.073 A 
ATOM      7  C8  UNL d   1      -1.754  -3.197   0.036  0.00  0.00     0.078 C 
ENDROOT
BRANCH   1   8
ATOM      8  C1  UNL d   1      -1.279  -0.277  -0.568  0.00  0.00     0.053 C 
ATOM      9  C   UNL d   1      -2.313   0.128   0.471  0.00  0.00     0.018 C 
ENDBRANCH   1   8
TORSDOF 1
ENDMDL
