MODEL 1
REMARK minimizedAffinity 2.59683967
REMARK minimizedRMSD -1
REMARK  1 active torsions:
REMARK  status: ('A' for Active; 'I' for Inactive)
REMARK    1  A    between atoms: C1_2  and  C2_3 
ROOT
ATOM      1  C2  UNL d   1       3.093   3.293   0.666  0.00  0.00    -0.076 A 
ATOM      2  C3  UNL d   1       4.395   3.814   0.578  0.00  0.00     0.004 A 
ATOM      3  C4  UNL d   1       4.949   4.156  -0.655  0.00  0.00    -0.003 A 
ATOM      4  C5  UNL d   1       4.209   3.983  -1.819  0.00  0.00     0.000 A 
ATOM      5  C6  UNL d   1       2.909   3.484  -1.749  0.00  0.00     0.000 A 
ATOM      6  C7  UNL d   1       2.330   3.149  -0.513  0.00  0.00    -0.073 A 
ATOM      7  C8  UNL d   1       0.926   2.609  -0.496  0.00  0.00     0.078 C 
ENDROOT
BRANCH   1   8
ATOM      8  C1  UNL d   1       2.555   2.914   2.027  0.00  0.00     0.053 C 
ATOM      9  C   UNL d   1       3.646   2.836   3.084  0.00  0.00     0.018 C 
ENDBRANCH   1   8
TORSDOF 1
ENDMDL
