MODEL 1
REMARK minimizedAffinity 0.467444628
REMARK minimizedRMSD -1
REMARK  1 active torsions:
REMARK  status: ('A' for Active; 'I' for Inactive)
REMARK    1  A    between atoms: C1_2  and  C2_3 
ROOT
ATOM      1  C2  UNL d   1      -4.018  -0.025   5.200  0.00  0.00    -0.076 A 
ATOM      2  C3  UNL d   1      -4.997  -0.697   5.952  0.00  0.00     0.004 A 
ATOM      3  C4  UNL d   1      -5.065  -2.089   5.960  0.00  0.00    -0.003 A 
ATOM      4  C5  UNL d   1      -4.154  -2.832   5.218  0.00  0.00     0.000 A 
ATOM      5  C6  UNL d   1      -3.165  -2.182   4.480  0.00  0.00     0.000 A 
ATOM      6  C7  UNL d   1      -3.073  -0.779   4.473  0.00  0.00    -0.073 A 
ATOM      7  C8  UNL d   1      -1.990  -0.131   3.655  0.00  0.00     0.078 C 
ENDROOT
BRANCH   1   8
ATOM      8  C1  UNL d   1      -4.011   1.487   5.207  0.00  0.00     0.053 C 
ATOM      9  C   UNL d   1      -2.841   2.061   5.991  0.00  0.00     0.018 C 
ENDBRANCH   1   8
TORSDOF 1
ENDMDL
