MODEL 1
REMARK minimizedAffinity 3.64107299
REMARK minimizedRMSD -1
REMARK  1 active torsions:
REMARK  status: ('A' for Active; 'I' for Inactive)
REMARK    1  A    between atoms: C1_2  and  C2_3 
ROOT
ATOM      1  C2  UNL d   1       3.304   3.872   1.047  0.00  0.00    -0.076 A 
ATOM      2  C3  UNL d   1       4.475   4.650   1.026  0.00  0.00     0.004 A 
ATOM      3  C4  UNL d   1       5.091   4.987  -0.178  0.00  0.00    -0.003 A 
ATOM      4  C5  UNL d   1       4.546   4.551  -1.381  0.00  0.00     0.000 A 
ATOM      5  C6  UNL d   1       3.375   3.794  -1.380  0.00  0.00     0.000 A 
ATOM      6  C7  UNL d   1       2.733   3.460  -0.175  0.00  0.00    -0.073 A 
ATOM      7  C8  UNL d   1       1.476   2.635  -0.233  0.00  0.00     0.078 C 
ENDROOT
BRANCH   1   8
ATOM      8  C1  UNL d   1       2.696   3.516   2.384  0.00  0.00     0.053 C 
ATOM      9  C   UNL d   1       3.161   2.160   2.893  0.00  0.00     0.018 C 
ENDBRANCH   1   8
TORSDOF 1
ENDMDL
