MODEL 1
REMARK minimizedAffinity 8.48376274
REMARK minimizedRMSD -1
REMARK  1 active torsions:
REMARK  status: ('A' for Active; 'I' for Inactive)
REMARK    1  A    between atoms: C1_2  and  C2_3 
ROOT
ATOM      1  C2  UNL d   1       0.065  -0.413   0.913  0.00  0.00    -0.076 A 
ATOM      2  C3  UNL d   1       0.715   0.071  -0.236  0.00  0.00     0.004 A 
ATOM      3  C4  UNL d   1      -0.010   0.616  -1.294  0.00  0.00    -0.003 A 
ATOM      4  C5  UNL d   1      -1.397   0.686  -1.221  0.00  0.00     0.000 A 
ATOM      5  C6  UNL d   1      -2.057   0.227  -0.081  0.00  0.00     0.000 A 
ATOM      6  C7  UNL d   1      -1.339  -0.310   1.002  0.00  0.00    -0.073 A 
ATOM      7  C8  UNL d   1      -2.102  -0.796   2.203  0.00  0.00     0.078 C 
ENDROOT
BRANCH   1   8
ATOM      8  C1  UNL d   1       0.902  -1.018   2.017  0.00  0.00     0.053 C 
ATOM      9  C   UNL d   1       1.313   0.005   3.065  0.00  0.00     0.018 C 
ENDBRANCH   1   8
TORSDOF 1
ENDMDL
