MODEL 1
REMARK minimizedAffinity 3.59652901
REMARK minimizedRMSD -1
REMARK  1 active torsions:
REMARK  status: ('A' for Active; 'I' for Inactive)
REMARK    1  A    between atoms: C1_2  and  C2_3 
ROOT
ATOM      1  C2  UNL d   1      -2.004   0.059   0.854  0.00  0.00    -0.076 A 
ATOM      2  C3  UNL d   1      -2.322  -1.308   0.934  0.00  0.00     0.004 A 
ATOM      3  C4  UNL d   1      -2.008  -2.180  -0.107  0.00  0.00    -0.003 A 
ATOM      4  C5  UNL d   1      -1.369  -1.700  -1.244  0.00  0.00     0.000 A 
ATOM      5  C6  UNL d   1      -1.029  -0.351  -1.334  0.00  0.00     0.000 A 
ATOM      6  C7  UNL d   1      -1.325   0.539  -0.286  0.00  0.00    -0.073 A 
ATOM      7  C8  UNL d   1      -0.941   1.985  -0.438  0.00  0.00     0.078 C 
ENDROOT
BRANCH   1   8
ATOM      8  C1  UNL d   1      -2.393   0.962   2.002  0.00  0.00     0.053 C 
ATOM      9  C   UNL d   1      -2.455   0.223   3.330  0.00  0.00     0.018 C 
ENDBRANCH   1   8
TORSDOF 1
ENDMDL
