MODEL 1
REMARK minimizedAffinity 3.32929444
REMARK minimizedRMSD -1
REMARK  1 active torsions:
REMARK  status: ('A' for Active; 'I' for Inactive)
REMARK    1  A    between atoms: C1_2  and  C2_3 
ROOT
ATOM      1  C2  UNL d   1      -3.710   3.299   3.397  0.00  0.00    -0.076 A 
ATOM      2  C3  UNL d   1      -4.372   3.740   2.237  0.00  0.00     0.004 A 
ATOM      3  C4  UNL d   1      -4.731   5.077   2.081  0.00  0.00    -0.003 A 
ATOM      4  C5  UNL d   1      -4.434   5.996   3.082  0.00  0.00     0.000 A 
ATOM      5  C6  UNL d   1      -3.763   5.580   4.231  0.00  0.00     0.000 A 
ATOM      6  C7  UNL d   1      -3.379   4.238   4.397  0.00  0.00    -0.073 A 
ATOM      7  C8  UNL d   1      -2.662   3.843   5.659  0.00  0.00     0.078 C 
ENDROOT
BRANCH   1   8
ATOM      8  C1  UNL d   1      -3.369   1.831   3.522  0.00  0.00     0.053 C 
ATOM      9  C   UNL d   1      -3.341   1.122   2.177  0.00  0.00     0.018 C 
ENDBRANCH   1   8
TORSDOF 1
ENDMDL
