MODEL 1
REMARK minimizedAffinity 5.72689867
REMARK minimizedRMSD -1
REMARK  1 active torsions:
REMARK  status: ('A' for Active; 'I' for Inactive)
REMARK    1  A    between atoms: C1_2  and  C2_3 
ROOT
ATOM      1  C2  UNL d   1      -1.810  -0.074  -0.255  0.00  0.00    -0.076 A 
ATOM      2  C3  UNL d   1      -3.038   0.429   0.209  0.00  0.00     0.004 A 
ATOM      3  C4  UNL d   1      -3.374   0.366   1.561  0.00  0.00    -0.003 A 
ATOM      4  C5  UNL d   1      -2.486  -0.200   2.470  0.00  0.00     0.000 A 
ATOM      5  C6  UNL d   1      -1.256  -0.687   2.029  0.00  0.00     0.000 A 
ATOM      6  C7  UNL d   1      -0.895  -0.617   0.673  0.00  0.00    -0.073 A 
ATOM      7  C8  UNL d   1       0.441  -1.163   0.252  0.00  0.00     0.078 C 
ENDROOT
BRANCH   1   8
ATOM      8  C1  UNL d   1      -1.511  -0.002  -1.736  0.00  0.00     0.053 C 
ATOM      9  C   UNL d   1      -2.358  -0.970  -2.548  0.00  0.00     0.018 C 
ENDBRANCH   1   8
TORSDOF 1
ENDMDL
