MODEL 1
REMARK minimizedAffinity 7.85028172
REMARK minimizedRMSD -1
REMARK  1 active torsions:
REMARK  status: ('A' for Active; 'I' for Inactive)
REMARK    1  A    between atoms: C1_2  and  C2_3 
ROOT
ATOM      1  C2  UNL d   1       2.476   2.626   2.627  0.00  0.00    -0.076 A 
ATOM      2  C3  UNL d   1       1.235   1.971   2.532  0.00  0.00     0.004 A 
ATOM      3  C4  UNL d   1       0.667   1.346   3.640  0.00  0.00    -0.003 A 
ATOM      4  C5  UNL d   1       1.328   1.367   4.863  0.00  0.00     0.000 A 
ATOM      5  C6  UNL d   1       2.551   2.027   4.981  0.00  0.00     0.000 A 
ATOM      6  C7  UNL d   1       3.131   2.676   3.877  0.00  0.00    -0.073 A 
ATOM      7  C8  UNL d   1       4.454   3.367   4.058  0.00  0.00     0.078 C 
ENDROOT
BRANCH   1   8
ATOM      8  C1  UNL d   1       3.056   3.262   1.385  0.00  0.00     0.053 C 
ATOM      9  C   UNL d   1       2.344   2.819   0.116  0.00  0.00     0.018 C 
ENDBRANCH   1   8
TORSDOF 1
ENDMDL
