MODEL 1
REMARK minimizedAffinity 3.11537457
REMARK minimizedRMSD -1
REMARK  1 active torsions:
REMARK  status: ('A' for Active; 'I' for Inactive)
REMARK    1  A    between atoms: C1_2  and  C2_3 
ROOT
ATOM      1  C2  UNL d   1       1.296   1.953   4.240  0.00  0.00    -0.076 A 
ATOM      2  C3  UNL d   1       1.484   3.085   3.429  0.00  0.00     0.004 A 
ATOM      3  C4  UNL d   1       2.754   3.440   2.976  0.00  0.00    -0.003 A 
ATOM      4  C5  UNL d   1       3.856   2.667   3.326  0.00  0.00     0.000 A 
ATOM      5  C6  UNL d   1       3.685   1.530   4.115  0.00  0.00     0.000 A 
ATOM      6  C7  UNL d   1       2.409   1.149   4.567  0.00  0.00    -0.073 A 
ATOM      7  C8  UNL d   1       2.284  -0.083   5.420  0.00  0.00     0.078 C 
ENDROOT
BRANCH   1   8
ATOM      8  C1  UNL d   1      -0.100   1.633   4.724  0.00  0.00     0.053 C 
ATOM      9  C   UNL d   1      -0.827   2.858   5.257  0.00  0.00     0.018 C 
ENDBRANCH   1   8
TORSDOF 1
ENDMDL
