MODEL 1
REMARK minimizedAffinity -4.68702364
REMARK minimizedRMSD -1
REMARK  1 active torsions:
REMARK  status: ('A' for Active; 'I' for Inactive)
REMARK    1  A    between atoms: C1_2  and  C2_3 
ROOT
ATOM      1  C2  UNL d   1      -4.505   2.905   3.561  0.00  0.00    -0.076 A 
ATOM      2  C3  UNL d   1      -4.439   3.869   2.540  0.00  0.00     0.004 A 
ATOM      3  C4  UNL d   1      -4.793   5.195   2.782  0.00  0.00    -0.003 A 
ATOM      4  C5  UNL d   1      -5.219   5.579   4.049  0.00  0.00     0.000 A 
ATOM      5  C6  UNL d   1      -5.274   4.639   5.078  0.00  0.00     0.000 A 
ATOM      6  C7  UNL d   1      -4.904   3.302   4.855  0.00  0.00    -0.073 A 
ATOM      7  C8  UNL d   1      -4.989   2.329   6.000  0.00  0.00     0.078 C 
ENDROOT
BRANCH   1   8
ATOM      8  C1  UNL d   1      -4.133   1.476   3.233  0.00  0.00     0.053 C 
ATOM      9  C   UNL d   1      -3.328   1.364   1.948  0.00  0.00     0.018 C 
ENDBRANCH   1   8
TORSDOF 1
ENDMDL
