MODEL 1
REMARK minimizedAffinity 2.16785264
REMARK minimizedRMSD -1
REMARK  1 active torsions:
REMARK  status: ('A' for Active; 'I' for Inactive)
REMARK    1  A    between atoms: C1_2  and  C2_3 
ROOT
ATOM      1  C2  UNL d   1      -3.683   1.643   2.406  0.00  0.00    -0.076 A 
ATOM      2  C3  UNL d   1      -3.980   1.518   3.774  0.00  0.00     0.004 A 
ATOM      3  C4  UNL d   1      -3.693   0.343   4.466  0.00  0.00    -0.003 A 
ATOM      4  C5  UNL d   1      -3.103  -0.727   3.802  0.00  0.00     0.000 A 
ATOM      5  C6  UNL d   1      -2.785  -0.614   2.448  0.00  0.00     0.000 A 
ATOM      6  C7  UNL d   1      -3.054   0.570   1.740  0.00  0.00    -0.073 A 
ATOM      7  C8  UNL d   1      -2.696   0.635   0.280  0.00  0.00     0.078 C 
ENDROOT
BRANCH   1   8
ATOM      8  C1  UNL d   1      -4.043   2.932   1.702  0.00  0.00     0.053 C 
ATOM      9  C   UNL d   1      -4.346   4.062   2.673  0.00  0.00     0.018 C 
ENDBRANCH   1   8
TORSDOF 1
ENDMDL
