MODEL 1
REMARK minimizedAffinity 2.0133543
REMARK minimizedRMSD -1
REMARK  0 active torsions:
REMARK  status: ('A' for Active; 'I' for Inactive)
ROOT
ATOM      1  C   UNL d   1      -2.065   3.196  -3.232  0.00  0.00     0.078 C 
ATOM      2  C1  UNL d   1      -0.983   3.509  -2.243  0.00  0.00    -0.077 A 
ATOM      3  C2  UNL d   1      -1.173   3.290  -0.873  0.00  0.00    -0.001 A 
ATOM      4  C3  UNL d   1      -0.160   3.596   0.038  0.00  0.00     0.003 A 
ATOM      5  C4  UNL d   1       1.049   4.123  -0.411  0.00  0.00    -0.005 A 
ATOM      6  C5  UNL d   1       1.247   4.346  -1.772  0.00  0.00     0.003 A 
ATOM      7  C6  UNL d   1       0.235   4.041  -2.685  0.00  0.00    -0.001 A 
ENDROOT
TORSDOF 0
ENDMDL
