MODEL 1
REMARK minimizedAffinity -2.81509709
REMARK minimizedRMSD -1
REMARK  0 active torsions:
REMARK  status: ('A' for Active; 'I' for Inactive)
ROOT
ATOM      1  C   UNL d   1      -1.040   2.174   2.361  0.00  0.00     0.078 C 
ATOM      2  C1  UNL d   1      -0.741   2.736   1.003  0.00  0.00    -0.077 A 
ATOM      3  C2  UNL d   1      -0.463   4.097   0.832  0.00  0.00    -0.001 A 
ATOM      4  C3  UNL d   1      -0.196   4.609  -0.439  0.00  0.00     0.003 A 
ATOM      5  C4  UNL d   1      -0.206   3.766  -1.549  0.00  0.00    -0.005 A 
ATOM      6  C5  UNL d   1      -0.484   2.410  -1.388  0.00  0.00     0.003 A 
ATOM      7  C6  UNL d   1      -0.751   1.897  -0.118  0.00  0.00    -0.001 A 
ENDROOT
TORSDOF 0
ENDMDL
