MODEL 1
REMARK minimizedAffinity 0.192953944
REMARK minimizedRMSD -1
REMARK  0 active torsions:
REMARK  status: ('A' for Active; 'I' for Inactive)
ROOT
ATOM      1  C   UNL d   1      -1.555   1.892  -2.651  0.00  0.00     0.078 C 
ATOM      2  C1  UNL d   1      -0.791   2.600  -1.573  0.00  0.00    -0.077 A 
ATOM      3  C2  UNL d   1      -0.687   2.056  -0.286  0.00  0.00    -0.001 A 
ATOM      4  C3  UNL d   1       0.019   2.731   0.711  0.00  0.00     0.003 A 
ATOM      5  C4  UNL d   1       0.626   3.954   0.432  0.00  0.00    -0.005 A 
ATOM      6  C5  UNL d   1       0.527   4.504  -0.844  0.00  0.00     0.003 A 
ATOM      7  C6  UNL d   1      -0.179   3.831  -1.843  0.00  0.00    -0.001 A 
ENDROOT
TORSDOF 0
ENDMDL
