MODEL 1
REMARK minimizedAffinity 2.08129096
REMARK minimizedRMSD -1
REMARK  0 active torsions:
REMARK  status: ('A' for Active; 'I' for Inactive)
ROOT
ATOM      1  C   UNL d   1      -1.269   3.330  -3.266  0.00  0.00     0.078 C 
ATOM      2  C1  UNL d   1      -0.744   3.759  -1.928  0.00  0.00    -0.077 A 
ATOM      3  C2  UNL d   1      -1.328   4.824  -1.232  0.00  0.00    -0.001 A 
ATOM      4  C3  UNL d   1      -0.822   5.219   0.008  0.00  0.00     0.003 A 
ATOM      5  C4  UNL d   1       0.270   4.554   0.562  0.00  0.00    -0.005 A 
ATOM      6  C5  UNL d   1       0.860   3.495  -0.125  0.00  0.00     0.003 A 
ATOM      7  C6  UNL d   1       0.356   3.099  -1.365  0.00  0.00    -0.001 A 
ENDROOT
TORSDOF 0
ENDMDL
