MODEL 1
REMARK minimizedAffinity 8.20786572
REMARK minimizedRMSD -1
REMARK  0 active torsions:
REMARK  status: ('A' for Active; 'I' for Inactive)
ROOT
ATOM      1  C   UNL d   1      -0.310   1.548   0.428  0.00  0.00     0.078 C 
ATOM      2  C1  UNL d   1       0.127   2.803  -0.267  0.00  0.00    -0.077 A 
ATOM      3  C2  UNL d   1       0.590   3.906   0.460  0.00  0.00    -0.001 A 
ATOM      4  C3  UNL d   1       0.984   5.071  -0.199  0.00  0.00     0.003 A 
ATOM      5  C4  UNL d   1       0.919   5.145  -1.589  0.00  0.00    -0.005 A 
ATOM      6  C5  UNL d   1       0.457   4.053  -2.321  0.00  0.00     0.003 A 
ATOM      7  C6  UNL d   1       0.062   2.887  -1.663  0.00  0.00    -0.001 A 
ENDROOT
TORSDOF 0
ENDMDL
