MODEL 1
REMARK minimizedAffinity 5.38383293
REMARK minimizedRMSD -1
REMARK  0 active torsions:
REMARK  status: ('A' for Active; 'I' for Inactive)
ROOT
ATOM      1  C   UNL d   1      -1.457   3.050  -3.169  0.00  0.00     0.078 C 
ATOM      2  C1  UNL d   1      -0.874   3.030  -1.787  0.00  0.00    -0.077 A 
ATOM      3  C2  UNL d   1      -1.193   2.009  -0.884  0.00  0.00    -0.001 A 
ATOM      4  C3  UNL d   1      -0.651   2.009   0.402  0.00  0.00     0.003 A 
ATOM      5  C4  UNL d   1       0.213   3.028   0.797  0.00  0.00    -0.005 A 
ATOM      6  C5  UNL d   1       0.535   4.050  -0.094  0.00  0.00     0.003 A 
ATOM      7  C6  UNL d   1      -0.006   4.052  -1.381  0.00  0.00    -0.001 A 
ENDROOT
TORSDOF 0
ENDMDL
