MODEL 1
REMARK minimizedAffinity 9.78106213
REMARK minimizedRMSD -1
REMARK  0 active torsions:
REMARK  status: ('A' for Active; 'I' for Inactive)
ROOT
ATOM      1  C   UNL d   1      -5.876  -5.876   5.089  0.00  0.00     0.078 C 
ATOM      2  C1  UNL d   1      -4.956  -4.692   5.117  0.00  0.00    -0.077 A 
ATOM      3  C2  UNL d   1      -5.186  -3.621   5.990  0.00  0.00    -0.001 A 
ATOM      4  C3  UNL d   1      -4.327  -2.521   5.998  0.00  0.00     0.003 A 
ATOM      5  C4  UNL d   1      -3.234  -2.480   5.136  0.00  0.00    -0.005 A 
ATOM      6  C5  UNL d   1      -2.998  -3.540   4.263  0.00  0.00     0.003 A 
ATOM      7  C6  UNL d   1      -3.856  -4.642   4.253  0.00  0.00    -0.001 A 
ENDROOT
TORSDOF 0
ENDMDL
