MODEL 1
REMARK minimizedAffinity 6.13790703
REMARK minimizedRMSD -1
REMARK  0 active torsions:
REMARK  status: ('A' for Active; 'I' for Inactive)
ROOT
ATOM      1  C   UNL d   1      -1.014   1.807   0.551  0.00  0.00     0.078 C 
ATOM      2  C1  UNL d   1      -0.307   2.864  -0.244  0.00  0.00    -0.077 A 
ATOM      3  C2  UNL d   1       0.534   3.794   0.380  0.00  0.00    -0.001 A 
ATOM      4  C3  UNL d   1       1.177   4.779  -0.372  0.00  0.00     0.003 A 
ATOM      5  C4  UNL d   1       0.986   4.843  -1.751  0.00  0.00    -0.005 A 
ATOM      6  C5  UNL d   1       0.150   3.923  -2.380  0.00  0.00     0.003 A 
ATOM      7  C6  UNL d   1      -0.495   2.938  -1.630  0.00  0.00    -0.001 A 
ENDROOT
TORSDOF 0
ENDMDL
