MODEL 1
REMARK minimizedAffinity 4.85549974
REMARK minimizedRMSD -1
REMARK  0 active torsions:
REMARK  status: ('A' for Active; 'I' for Inactive)
ROOT
ATOM      1  C   UNL d   1      -1.110   3.925  -3.542  0.00  0.00     0.078 C 
ATOM      2  C1  UNL d   1      -0.679   4.164  -2.126  0.00  0.00    -0.077 A 
ATOM      3  C2  UNL d   1      -0.073   3.148  -1.376  0.00  0.00    -0.001 A 
ATOM      4  C3  UNL d   1       0.314   3.382  -0.055  0.00  0.00     0.003 A 
ATOM      5  C4  UNL d   1       0.099   4.630   0.527  0.00  0.00    -0.005 A 
ATOM      6  C5  UNL d   1      -0.505   5.646  -0.212  0.00  0.00     0.003 A 
ATOM      7  C6  UNL d   1      -0.893   5.414  -1.532  0.00  0.00    -0.001 A 
ENDROOT
TORSDOF 0
ENDMDL
