MODEL 1
REMARK minimizedAffinity 3.4890399
REMARK minimizedRMSD -1
REMARK  0 active torsions:
REMARK  status: ('A' for Active; 'I' for Inactive)
ROOT
ATOM      1  C   UNL d   1       0.379   2.909   1.126  0.00  0.00     0.078 C 
ATOM      2  C1  UNL d   1      -0.243   3.719   0.028  0.00  0.00    -0.077 A 
ATOM      3  C2  UNL d   1      -1.055   4.823   0.318  0.00  0.00    -0.001 A 
ATOM      4  C3  UNL d   1      -1.635   5.562  -0.714  0.00  0.00     0.003 A 
ATOM      5  C4  UNL d   1      -1.410   5.206  -2.043  0.00  0.00    -0.005 A 
ATOM      6  C5  UNL d   1      -0.605   4.108  -2.340  0.00  0.00     0.003 A 
ATOM      7  C6  UNL d   1      -0.024   3.368  -1.309  0.00  0.00    -0.001 A 
ENDROOT
TORSDOF 0
ENDMDL
