MODEL 1
REMARK minimizedAffinity 3.29862523
REMARK minimizedRMSD -1
REMARK  0 active torsions:
REMARK  status: ('A' for Active; 'I' for Inactive)
ROOT
ATOM      1  C   UNL d   1      -1.016   1.382   2.692  0.00  0.00     0.078 C 
ATOM      2  C1  UNL d   1      -1.163   0.005   3.268  0.00  0.00    -0.077 A 
ATOM      3  C2  UNL d   1      -0.100  -0.905   3.240  0.00  0.00    -0.001 A 
ATOM      4  C3  UNL d   1      -0.254  -2.187   3.771  0.00  0.00     0.003 A 
ATOM      5  C4  UNL d   1      -1.470  -2.570   4.333  0.00  0.00    -0.005 A 
ATOM      6  C5  UNL d   1      -2.535  -1.671   4.363  0.00  0.00     0.003 A 
ATOM      7  C6  UNL d   1      -2.383  -0.389   3.833  0.00  0.00    -0.001 A 
ENDROOT
TORSDOF 0
ENDMDL
