MODEL 1
REMARK minimizedAffinity 5.34481335
REMARK minimizedRMSD -1
REMARK  0 active torsions:
REMARK  status: ('A' for Active; 'I' for Inactive)
ROOT
ATOM      1  C   UNL d   1      -1.337   1.973   1.355  0.00  0.00     0.078 C 
ATOM      2  C1  UNL d   1      -0.778   3.078   0.509  0.00  0.00    -0.077 A 
ATOM      3  C2  UNL d   1      -0.102   2.801  -0.686  0.00  0.00    -0.001 A 
ATOM      4  C3  UNL d   1       0.421   3.839  -1.458  0.00  0.00     0.003 A 
ATOM      5  C4  UNL d   1       0.277   5.161  -1.044  0.00  0.00    -0.005 A 
ATOM      6  C5  UNL d   1      -0.391   5.447   0.145  0.00  0.00     0.003 A 
ATOM      7  C6  UNL d   1      -0.916   4.410   0.919  0.00  0.00    -0.001 A 
ENDROOT
TORSDOF 0
ENDMDL
