MODEL 1
REMARK minimizedAffinity 5.29227591
REMARK minimizedRMSD -1
REMARK  0 active torsions:
REMARK  status: ('A' for Active; 'I' for Inactive)
ROOT
ATOM      1  C   UNL d   1       3.949  -2.984  -5.976  0.00  0.00     0.078 C 
ATOM      2  C1  UNL d   1       2.533  -2.492  -5.992  0.00  0.00    -0.077 A 
ATOM      3  C2  UNL d   1       2.245  -1.122  -5.990  0.00  0.00    -0.001 A 
ATOM      4  C3  UNL d   1       0.921  -0.678  -5.995  0.00  0.00     0.003 A 
ATOM      5  C4  UNL d   1      -0.125  -1.599  -6.000  0.00  0.00    -0.005 A 
ATOM      6  C5  UNL d   1       0.152  -2.964  -5.999  0.00  0.00     0.003 A 
ATOM      7  C6  UNL d   1       1.475  -3.410  -5.994  0.00  0.00    -0.001 A 
ENDROOT
TORSDOF 0
ENDMDL
