MODEL 1
REMARK minimizedAffinity -0.207324669
REMARK minimizedRMSD -1
REMARK  0 active torsions:
REMARK  status: ('A' for Active; 'I' for Inactive)
ROOT
ATOM      1  C   UNL d   1       0.337   3.979   1.161  0.00  0.00     0.078 C 
ATOM      2  C1  UNL d   1      -0.215   2.649   1.581  0.00  0.00    -0.077 A 
ATOM      3  C2  UNL d   1      -0.211   1.557   0.704  0.00  0.00    -0.001 A 
ATOM      4  C3  UNL d   1      -0.736   0.328   1.105  0.00  0.00     0.003 A 
ATOM      5  C4  UNL d   1      -1.271   0.179   2.383  0.00  0.00    -0.005 A 
ATOM      6  C5  UNL d   1      -1.281   1.260   3.262  0.00  0.00     0.003 A 
ATOM      7  C6  UNL d   1      -0.756   2.490   2.863  0.00  0.00    -0.001 A 
ENDROOT
TORSDOF 0
ENDMDL
