MODEL 1
REMARK minimizedAffinity 3.72124553
REMARK minimizedRMSD -1
REMARK  0 active torsions:
REMARK  status: ('A' for Active; 'I' for Inactive)
ROOT
ATOM      1  C   UNL d   1       1.958   5.819   2.768  0.00  0.00     0.078 C 
ATOM      2  C1  UNL d   1       1.078   5.120   1.775  0.00  0.00    -0.077 A 
ATOM      3  C2  UNL d   1       1.105   3.726   1.643  0.00  0.00    -0.001 A 
ATOM      4  C3  UNL d   1       0.287   3.090   0.708  0.00  0.00     0.003 A 
ATOM      5  C4  UNL d   1      -0.563   3.839  -0.103  0.00  0.00    -0.005 A 
ATOM      6  C5  UNL d   1      -0.595   5.227   0.020  0.00  0.00     0.003 A 
ATOM      7  C6  UNL d   1       0.222   5.865   0.954  0.00  0.00    -0.001 A 
ENDROOT
TORSDOF 0
ENDMDL
