MODEL 1
REMARK minimizedAffinity -1.30725098
REMARK minimizedRMSD -1
REMARK  0 active torsions:
REMARK  status: ('A' for Active; 'I' for Inactive)
ROOT
ATOM      1  C   UNL d   1      -4.971  -2.289   5.990  0.00  0.00     0.078 C 
ATOM      2  C1  UNL d   1      -3.601  -2.766   5.608  0.00  0.00    -0.077 A 
ATOM      3  C2  UNL d   1      -3.143  -4.030   5.998  0.00  0.00    -0.001 A 
ATOM      4  C3  UNL d   1      -1.862  -4.457   5.643  0.00  0.00     0.003 A 
ATOM      5  C4  UNL d   1      -1.029  -3.625   4.897  0.00  0.00    -0.005 A 
ATOM      6  C5  UNL d   1      -1.476  -2.365   4.506  0.00  0.00     0.003 A 
ATOM      7  C6  UNL d   1      -2.756  -1.936   4.860  0.00  0.00    -0.001 A 
ENDROOT
TORSDOF 0
ENDMDL
