MODEL 1
REMARK minimizedAffinity -3.11314487
REMARK minimizedRMSD -1
REMARK  1 active torsions:
REMARK  status: ('A' for Active; 'I' for Inactive)
REMARK    1  A    between atoms: C1_2  and  C2_3 
ROOT
ATOM      1  C2  UNL d   1      -0.484   0.124  -0.999  0.00  0.00    -0.073 A 
ATOM      2  C3  UNL d   1      -1.274   0.056   0.154  0.00  0.00    -0.002 A 
ATOM      3  C4  UNL d   1      -0.755  -0.478   1.334  0.00  0.00     0.004 A 
ATOM      4  C5  UNL d   1       0.560  -0.942   1.376  0.00  0.00    -0.004 A 
ATOM      5  C6  UNL d   1       1.369  -0.871   0.237  0.00  0.00    -0.075 A 
ATOM      6  C7  UNL d   1       2.785  -1.368   0.265  0.00  0.00     0.076 C 
ATOM      7  C8  UNL d   1       0.840  -0.336  -0.945  0.00  0.00     0.001 A 
ENDROOT
BRANCH   1   8
ATOM      8  C1  UNL d   1      -1.038   0.706  -2.273  0.00  0.00     0.053 C 
ATOM      9  C   UNL d   1      -0.744   2.193  -2.397  0.00  0.00     0.018 C 
ENDBRANCH   1   8
TORSDOF 1
ENDMDL
