MODEL 1
REMARK minimizedAffinity 0.707749605
REMARK minimizedRMSD -1
REMARK  1 active torsions:
REMARK  status: ('A' for Active; 'I' for Inactive)
REMARK    1  A    between atoms: C1_2  and  C2_3 
ROOT
ATOM      1  C2  UNL d   1       0.709  -1.566   1.493  0.00  0.00    -0.073 A 
ATOM      2  C3  UNL d   1       0.840  -1.088   0.184  0.00  0.00    -0.002 A 
ATOM      3  C4  UNL d   1      -0.178  -0.329  -0.395  0.00  0.00     0.004 A 
ATOM      4  C5  UNL d   1      -1.333  -0.034   0.330  0.00  0.00    -0.004 A 
ATOM      5  C6  UNL d   1      -1.477  -0.493   1.643  0.00  0.00    -0.075 A 
ATOM      6  C7  UNL d   1      -2.714  -0.187   2.436  0.00  0.00     0.076 C 
ATOM      7  C8  UNL d   1      -0.452  -1.257   2.217  0.00  0.00     0.001 A 
ENDROOT
BRANCH   1   8
ATOM      8  C1  UNL d   1       1.808  -2.381   2.124  0.00  0.00     0.053 C 
ATOM      9  C   UNL d   1       2.038  -3.693   1.391  0.00  0.00     0.018 C 
ENDBRANCH   1   8
TORSDOF 1
ENDMDL
