MODEL 1
REMARK minimizedAffinity 5.64574099
REMARK minimizedRMSD -1
REMARK  1 active torsions:
REMARK  status: ('A' for Active; 'I' for Inactive)
REMARK    1  A    between atoms: C1_2  and  C2_3 
ROOT
ATOM      1  C2  UNL d   1       2.332   5.409   2.925  0.00  0.00    -0.073 A 
ATOM      2  C3  UNL d   1       1.055   5.521   3.486  0.00  0.00    -0.002 A 
ATOM      3  C4  UNL d   1       0.903   5.775   4.850  0.00  0.00     0.004 A 
ATOM      4  C5  UNL d   1       2.025   5.926   5.665  0.00  0.00    -0.004 A 
ATOM      5  C6  UNL d   1       3.310   5.830   5.121  0.00  0.00    -0.075 A 
ATOM      6  C7  UNL d   1       4.527   5.988   5.984  0.00  0.00     0.076 C 
ATOM      7  C8  UNL d   1       3.454   5.572   3.751  0.00  0.00     0.001 A 
ENDROOT
BRANCH   1   8
ATOM      8  C1  UNL d   1       2.500   5.141   1.452  0.00  0.00     0.053 C 
ATOM      9  C   UNL d   1       3.951   4.875   1.083  0.00  0.00     0.018 C 
ENDBRANCH   1   8
TORSDOF 1
ENDMDL
