MODEL 1
REMARK minimizedAffinity 3.12823868
REMARK minimizedRMSD -1
REMARK  1 active torsions:
REMARK  status: ('A' for Active; 'I' for Inactive)
REMARK    1  A    between atoms: C1_2  and  C2_3 
ROOT
ATOM      1  C2  UNL d   1      -1.476  -0.494   0.299  0.00  0.00    -0.073 A 
ATOM      2  C3  UNL d   1      -0.666  -0.840  -0.789  0.00  0.00    -0.002 A 
ATOM      3  C4  UNL d   1       0.692  -1.100  -0.601  0.00  0.00     0.004 A 
ATOM      4  C5  UNL d   1       1.252  -1.024   0.674  0.00  0.00    -0.004 A 
ATOM      5  C6  UNL d   1       0.456  -0.692   1.775  0.00  0.00    -0.075 A 
ATOM      6  C7  UNL d   1       1.043  -0.604   3.153  0.00  0.00     0.076 C 
ATOM      7  C8  UNL d   1      -0.906  -0.430   1.578  0.00  0.00     0.001 A 
ENDROOT
BRANCH   1   8
ATOM      8  C1  UNL d   1      -2.945  -0.219   0.102  0.00  0.00     0.053 C 
ATOM      9  C   UNL d   1      -3.785  -0.761   1.248  0.00  0.00     0.018 C 
ENDBRANCH   1   8
TORSDOF 1
ENDMDL
