MODEL 1
REMARK minimizedAffinity 5.13419104
REMARK minimizedRMSD -1
REMARK  1 active torsions:
REMARK  status: ('A' for Active; 'I' for Inactive)
REMARK    1  A    between atoms: C1_2  and  C2_3 
ROOT
ATOM      1  C2  UNL d   1      -1.351  -0.211   0.859  0.00  0.00    -0.073 A 
ATOM      2  C3  UNL d   1      -1.809  -0.280  -0.462  0.00  0.00    -0.002 A 
ATOM      3  C4  UNL d   1      -0.930  -0.602  -1.497  0.00  0.00     0.004 A 
ATOM      4  C5  UNL d   1       0.412  -0.866  -1.222  0.00  0.00    -0.004 A 
ATOM      5  C6  UNL d   1       0.886  -0.813   0.093  0.00  0.00    -0.075 A 
ATOM      6  C7  UNL d   1       2.327  -1.092   0.405  0.00  0.00     0.076 C 
ATOM      7  C8  UNL d   1      -0.002  -0.486   1.126  0.00  0.00     0.001 A 
ENDROOT
BRANCH   1   8
ATOM      8  C1  UNL d   1      -2.297   0.131   1.980  0.00  0.00     0.053 C 
ATOM      9  C   UNL d   1      -3.736  -0.227   1.641  0.00  0.00     0.018 C 
ENDBRANCH   1   8
TORSDOF 1
ENDMDL
