MODEL 1
REMARK minimizedAffinity -1.67609763
REMARK minimizedRMSD -1
REMARK  1 active torsions:
REMARK  status: ('A' for Active; 'I' for Inactive)
REMARK    1  A    between atoms: C1_2  and  C2_3 
ROOT
ATOM      1  C2  UNL d   1       3.534   5.886   3.489  0.00  0.00    -0.073 A 
ATOM      2  C3  UNL d   1       4.282   6.000   4.666  0.00  0.00    -0.002 A 
ATOM      3  C4  UNL d   1       3.651   5.950   5.910  0.00  0.00     0.004 A 
ATOM      4  C5  UNL d   1       2.269   5.779   5.990  0.00  0.00    -0.004 A 
ATOM      5  C6  UNL d   1       1.505   5.652   4.825  0.00  0.00    -0.075 A 
ATOM      6  C7  UNL d   1       0.018   5.470   4.894  0.00  0.00     0.076 C 
ATOM      7  C8  UNL d   1       2.146   5.706   3.580  0.00  0.00     0.001 A 
ENDROOT
BRANCH   1   8
ATOM      8  C1  UNL d   1       4.211   5.933   2.144  0.00  0.00     0.053 C 
ATOM      9  C   UNL d   1       5.725   6.000   2.270  0.00  0.00     0.018 C 
ENDBRANCH   1   8
TORSDOF 1
ENDMDL
