MODEL 1
REMARK minimizedAffinity 3.73359561
REMARK minimizedRMSD -1
REMARK  1 active torsions:
REMARK  status: ('A' for Active; 'I' for Inactive)
REMARK    1  A    between atoms: C1_2  and  C2_3 
ROOT
ATOM      1  C2  UNL d   1       0.952  -1.358   0.661  0.00  0.00    -0.073 A 
ATOM      2  C3  UNL d   1       0.159  -0.509  -0.119  0.00  0.00    -0.002 A 
ATOM      3  C4  UNL d   1      -1.041  -0.005   0.385  0.00  0.00     0.004 A 
ATOM      4  C5  UNL d   1      -1.456  -0.338   1.674  0.00  0.00    -0.004 A 
ATOM      5  C6  UNL d   1      -0.671  -1.176   2.473  0.00  0.00    -0.075 A 
ATOM      6  C7  UNL d   1      -1.105  -1.546   3.861  0.00  0.00     0.076 C 
ATOM      7  C8  UNL d   1       0.531  -1.680   1.959  0.00  0.00     0.001 A 
ENDROOT
BRANCH   1   8
ATOM      8  C1  UNL d   1       2.251  -1.899   0.123  0.00  0.00     0.053 C 
ATOM      9  C   UNL d   1       2.497  -3.333   0.564  0.00  0.00     0.018 C 
ENDBRANCH   1   8
TORSDOF 1
ENDMDL
