MODEL 1
REMARK minimizedAffinity 17.8442364
REMARK minimizedRMSD -1
REMARK  1 active torsions:
REMARK  status: ('A' for Active; 'I' for Inactive)
REMARK    1  A    between atoms: C1_2  and  C2_3 
ROOT
ATOM      1  C2  UNL d   1       3.913   2.618   0.109  0.00  0.00    -0.076 A 
ATOM      2  C3  UNL d   1       2.871   2.821  -0.813  0.00  0.00     0.004 A 
ATOM      3  C4  UNL d   1       2.254   1.743  -1.446  0.00  0.00    -0.003 A 
ATOM      4  C5  UNL d   1       2.668   0.446  -1.168  0.00  0.00     0.000 A 
ATOM      5  C6  UNL d   1       3.689   0.225  -0.243  0.00  0.00     0.000 A 
ATOM      6  C7  UNL d   1       4.310   1.299   0.416  0.00  0.00    -0.073 A 
ATOM      7  C8  UNL d   1       5.409   1.004   1.400  0.00  0.00     0.078 C 
ENDROOT
BRANCH   1   8
ATOM      8  C1  UNL d   1       4.563   3.826   0.744  0.00  0.00     0.053 C 
ATOM      9  C   UNL d   1       5.202   4.751  -0.281  0.00  0.00     0.018 C 
ENDBRANCH   1   8
TORSDOF 1
ENDMDL
