MODEL 1
REMARK minimizedAffinity 9.62048626
REMARK minimizedRMSD -1
REMARK  1 active torsions:
REMARK  status: ('A' for Active; 'I' for Inactive)
REMARK    1  A    between atoms: C1_2  and  C2_3 
ROOT
ATOM      1  C2  UNL d   1       4.817   0.952  -3.550  0.00  0.00    -0.076 A 
ATOM      2  C3  UNL d   1       3.696   1.701  -3.152  0.00  0.00     0.004 A 
ATOM      3  C4  UNL d   1       2.592   1.084  -2.566  0.00  0.00    -0.003 A 
ATOM      4  C5  UNL d   1       2.592  -0.292  -2.367  0.00  0.00     0.000 A 
ATOM      5  C6  UNL d   1       3.703  -1.048  -2.739  0.00  0.00     0.000 A 
ATOM      6  C7  UNL d   1       4.830  -0.440  -3.316  0.00  0.00    -0.073 A 
ATOM      7  C8  UNL d   1       5.998  -1.305  -3.704  0.00  0.00     0.078 C 
ENDROOT
BRANCH   1   8
ATOM      8  C1  UNL d   1       5.974   1.672  -4.205  0.00  0.00     0.053 C 
ATOM      9  C   UNL d   1       5.528   2.572  -5.347  0.00  0.00     0.018 C 
ENDBRANCH   1   8
TORSDOF 1
ENDMDL
