MODEL 1
REMARK minimizedAffinity 12.5976257
REMARK minimizedRMSD -1
REMARK  1 active torsions:
REMARK  status: ('A' for Active; 'I' for Inactive)
REMARK    1  A    between atoms: C1_2  and  C2_3 
ROOT
ATOM      1  C2  UNL d   1      -1.827  -2.636   1.777  0.00  0.00    -0.076 A 
ATOM      2  C3  UNL d   1      -2.575  -1.540   1.313  0.00  0.00     0.004 A 
ATOM      3  C4  UNL d   1      -2.462  -1.099  -0.005  0.00  0.00    -0.003 A 
ATOM      4  C5  UNL d   1      -1.598  -1.749  -0.880  0.00  0.00     0.000 A 
ATOM      5  C6  UNL d   1      -0.862  -2.849  -0.442  0.00  0.00     0.000 A 
ATOM      6  C7  UNL d   1      -0.977  -3.315   0.879  0.00  0.00    -0.073 A 
ATOM      7  C8  UNL d   1      -0.154  -4.502   1.299  0.00  0.00     0.078 C 
ENDROOT
BRANCH   1   8
ATOM      8  C1  UNL d   1      -1.972  -3.051   3.223  0.00  0.00     0.053 C 
ATOM      9  C   UNL d   1      -2.207  -1.867   4.149  0.00  0.00     0.018 C 
ENDBRANCH   1   8
TORSDOF 1
ENDMDL
