MODEL 1
REMARK minimizedAffinity 5.70724058
REMARK minimizedRMSD -1
REMARK  1 active torsions:
REMARK  status: ('A' for Active; 'I' for Inactive)
REMARK    1  A    between atoms: C1_2  and  C2_3 
ROOT
ATOM      1  C2  UNL d   1      -1.772  -3.227   2.472  0.00  0.00    -0.076 A 
ATOM      2  C3  UNL d   1      -1.372  -4.554   2.707  0.00  0.00     0.004 A 
ATOM      3  C4  UNL d   1      -0.641  -5.263   1.756  0.00  0.00    -0.003 A 
ATOM      4  C5  UNL d   1      -0.296  -4.656   0.554  0.00  0.00     0.000 A 
ATOM      5  C6  UNL d   1      -0.668  -3.334   0.310  0.00  0.00     0.000 A 
ATOM      6  C7  UNL d   1      -1.392  -2.600   1.266  0.00  0.00    -0.073 A 
ATOM      7  C8  UNL d   1      -1.772  -1.180   0.948  0.00  0.00     0.078 C 
ENDROOT
BRANCH   1   8
ATOM      8  C1  UNL d   1      -2.587  -2.517   3.529  0.00  0.00     0.053 C 
ATOM      9  C   UNL d   1      -1.720  -1.885   4.607  0.00  0.00     0.018 C 
ENDBRANCH   1   8
TORSDOF 1
ENDMDL
