MODEL 1
REMARK minimizedAffinity 13.1483059
REMARK minimizedRMSD -1
REMARK  1 active torsions:
REMARK  status: ('A' for Active; 'I' for Inactive)
REMARK    1  A    between atoms: C1_2  and  C2_3 
ROOT
ATOM      1  C2  UNL d   1      -3.465  -0.323   5.132  0.00  0.00    -0.076 A 
ATOM      2  C3  UNL d   1      -2.770   0.816   5.575  0.00  0.00     0.004 A 
ATOM      3  C4  UNL d   1      -3.453   1.954   5.999  0.00  0.00    -0.003 A 
ATOM      4  C5  UNL d   1      -4.844   1.972   5.986  0.00  0.00     0.000 A 
ATOM      5  C6  UNL d   1      -5.550   0.845   5.567  0.00  0.00     0.000 A 
ATOM      6  C7  UNL d   1      -4.876  -0.316   5.152  0.00  0.00    -0.073 A 
ATOM      7  C8  UNL d   1      -5.688  -1.500   4.703  0.00  0.00     0.078 C 
ENDROOT
BRANCH   1   8
ATOM      8  C1  UNL d   1      -2.669  -1.518   4.658  0.00  0.00     0.053 C 
ATOM      9  C   UNL d   1      -1.450  -1.787   5.526  0.00  0.00     0.018 C 
ENDBRANCH   1   8
TORSDOF 1
ENDMDL
