MODEL 1
REMARK minimizedAffinity 12.065568
REMARK minimizedRMSD -1
REMARK  1 active torsions:
REMARK  status: ('A' for Active; 'I' for Inactive)
REMARK    1  A    between atoms: C1_2  and  C2_3 
ROOT
ATOM      1  C2  UNL d   1       1.526   1.659  -2.164  0.00  0.00    -0.076 A 
ATOM      2  C3  UNL d   1       1.527   0.423  -1.496  0.00  0.00     0.004 A 
ATOM      3  C4  UNL d   1       0.749  -0.640  -1.953  0.00  0.00    -0.003 A 
ATOM      4  C5  UNL d   1      -0.041  -0.484  -3.086  0.00  0.00     0.000 A 
ATOM      5  C6  UNL d   1      -0.041   0.731  -3.772  0.00  0.00     0.000 A 
ATOM      6  C7  UNL d   1       0.750   1.807  -3.334  0.00  0.00    -0.073 A 
ATOM      7  C8  UNL d   1       0.708   3.096  -4.108  0.00  0.00     0.078 C 
ENDROOT
BRANCH   1   8
ATOM      8  C1  UNL d   1       2.369   2.784  -1.607  0.00  0.00     0.053 C 
ATOM      9  C   UNL d   1       2.954   2.453  -0.243  0.00  0.00     0.018 C 
ENDBRANCH   1   8
TORSDOF 1
ENDMDL
