MODEL 1
REMARK minimizedAffinity 14.3671799
REMARK minimizedRMSD -1
REMARK  1 active torsions:
REMARK  status: ('A' for Active; 'I' for Inactive)
REMARK    1  A    between atoms: C1_2  and  C2_3 
ROOT
ATOM      1  C2  UNL d   1       3.768   1.259  -2.301  0.00  0.00    -0.076 A 
ATOM      2  C3  UNL d   1       5.093   1.648  -2.564  0.00  0.00     0.004 A 
ATOM      3  C4  UNL d   1       5.935   0.851  -3.337  0.00  0.00    -0.003 A 
ATOM      4  C5  UNL d   1       5.465  -0.348  -3.861  0.00  0.00     0.000 A 
ATOM      5  C6  UNL d   1       4.148  -0.741  -3.625  0.00  0.00     0.000 A 
ATOM      6  C7  UNL d   1       3.282   0.059  -2.861  0.00  0.00    -0.073 A 
ATOM      7  C8  UNL d   1       1.873  -0.417  -2.633  0.00  0.00     0.078 C 
ENDROOT
BRANCH   1   8
ATOM      8  C1  UNL d   1       2.910   2.151  -1.432  0.00  0.00     0.053 C 
ATOM      9  C   UNL d   1       3.662   2.684  -0.222  0.00  0.00     0.018 C 
ENDBRANCH   1   8
TORSDOF 1
ENDMDL
