MODEL 1
REMARK minimizedAffinity 2.71162152
REMARK minimizedRMSD -1
REMARK  1 active torsions:
REMARK  status: ('A' for Active; 'I' for Inactive)
REMARK    1  A    between atoms: C1_2  and  C2_3 
ROOT
ATOM      1  C2  UNL d   1      -4.262   4.796  -0.700  0.00  0.00    -0.076 A 
ATOM      2  C3  UNL d   1      -4.712   5.998  -0.127  0.00  0.00     0.004 A 
ATOM      3  C4  UNL d   1      -5.568   5.992   0.973  0.00  0.00    -0.003 A 
ATOM      4  C5  UNL d   1      -5.986   4.783   1.519  0.00  0.00     0.000 A 
ATOM      5  C6  UNL d   1      -5.534   3.581   0.975  0.00  0.00     0.000 A 
ATOM      6  C7  UNL d   1      -4.659   3.570  -0.125  0.00  0.00    -0.073 A 
ATOM      7  C8  UNL d   1      -4.208   2.245  -0.675  0.00  0.00     0.078 C 
ENDROOT
BRANCH   1   8
ATOM      8  C1  UNL d   1      -3.357   4.865  -1.910  0.00  0.00     0.053 C 
ATOM      9  C   UNL d   1      -3.738   5.990  -2.859  0.00  0.00     0.018 C 
ENDBRANCH   1   8
TORSDOF 1
ENDMDL
