MODEL 1
REMARK minimizedAffinity 15.7016115
REMARK minimizedRMSD -1
REMARK  1 active torsions:
REMARK  status: ('A' for Active; 'I' for Inactive)
REMARK    1  A    between atoms: C1_2  and  C2_3 
ROOT
ATOM      1  C2  UNL d   1      -3.560  -2.487   1.245  0.00  0.00    -0.076 A 
ATOM      2  C3  UNL d   1      -3.381  -1.979  -0.054  0.00  0.00     0.004 A 
ATOM      3  C4  UNL d   1      -2.104  -1.792  -0.582  0.00  0.00    -0.003 A 
ATOM      4  C5  UNL d   1      -0.986  -2.112   0.180  0.00  0.00     0.000 A 
ATOM      5  C6  UNL d   1      -1.145  -2.634   1.464  0.00  0.00     0.000 A 
ATOM      6  C7  UNL d   1      -2.425  -2.843   2.005  0.00  0.00    -0.073 A 
ATOM      7  C8  UNL d   1      -2.538  -3.403   3.396  0.00  0.00     0.078 C 
ENDROOT
BRANCH   1   8
ATOM      8  C1  UNL d   1      -4.967  -2.642   1.774  0.00  0.00     0.053 C 
ATOM      9  C   UNL d   1      -5.966  -2.991   0.681  0.00  0.00     0.018 C 
ENDBRANCH   1   8
TORSDOF 1
ENDMDL
