MODEL 1
REMARK minimizedAffinity 13.4242563
REMARK minimizedRMSD -1
REMARK  1 active torsions:
REMARK  status: ('A' for Active; 'I' for Inactive)
REMARK    1  A    between atoms: C1_2  and  C2_3 
ROOT
ATOM      1  C2  UNL d   1      -0.214  -2.834  -1.273  0.00  0.00    -0.076 A 
ATOM      2  C3  UNL d   1      -0.152  -3.124   0.101  0.00  0.00     0.004 A 
ATOM      3  C4  UNL d   1      -0.005  -4.435   0.551  0.00  0.00    -0.003 A 
ATOM      4  C5  UNL d   1       0.082  -5.477  -0.365  0.00  0.00     0.000 A 
ATOM      5  C6  UNL d   1       0.039  -5.206  -1.732  0.00  0.00     0.000 A 
ATOM      6  C7  UNL d   1      -0.092  -3.888  -2.203  0.00  0.00    -0.073 A 
ATOM      7  C8  UNL d   1      -0.138  -3.653  -3.688  0.00  0.00     0.078 C 
ENDROOT
BRANCH   1   8
ATOM      8  C1  UNL d   1      -0.401  -1.396  -1.702  0.00  0.00     0.053 C 
ATOM      9  C   UNL d   1       0.893  -0.758  -2.182  0.00  0.00     0.018 C 
ENDBRANCH   1   8
TORSDOF 1
ENDMDL
