MODEL 1
REMARK minimizedAffinity 9.13599586
REMARK minimizedRMSD -1
REMARK  1 active torsions:
REMARK  status: ('A' for Active; 'I' for Inactive)
REMARK    1  A    between atoms: C1_2  and  C2_3 
ROOT
ATOM      1  C2  UNL d   1      -1.235  -3.428   0.631  0.00  0.00    -0.076 A 
ATOM      2  C3  UNL d   1      -0.847  -2.832  -0.581  0.00  0.00     0.004 A 
ATOM      3  C4  UNL d   1      -1.397  -1.619  -0.993  0.00  0.00    -0.003 A 
ATOM      4  C5  UNL d   1      -2.345  -0.983  -0.199  0.00  0.00     0.000 A 
ATOM      5  C6  UNL d   1      -2.729  -1.551   1.015  0.00  0.00     0.000 A 
ATOM      6  C7  UNL d   1      -2.171  -2.764   1.453  0.00  0.00    -0.073 A 
ATOM      7  C8  UNL d   1      -2.627  -3.335   2.768  0.00  0.00     0.078 C 
ENDROOT
BRANCH   1   8
ATOM      8  C1  UNL d   1      -0.624  -4.757   1.013  0.00  0.00     0.053 C 
ATOM      9  C   UNL d   1      -0.806  -5.813  -0.066  0.00  0.00     0.018 C 
ENDBRANCH   1   8
TORSDOF 1
ENDMDL
