MODEL 1
REMARK minimizedAffinity 12.727828
REMARK minimizedRMSD -1
REMARK  0 active torsions:
REMARK  status: ('A' for Active; 'I' for Inactive)
ROOT
ATOM      1  C   UNL d   1       2.457  -4.799  -5.999  0.00  0.00    -0.002 A 
ATOM      2  C1  UNL d   1       2.485  -3.411  -5.998  0.00  0.00     0.010 A 
ATOM      3  C2  UNL d   1       1.297  -2.677  -5.999  0.00  0.00     0.041 A 
ATOM      4  C3  UNL d   1       0.069  -3.368  -5.998  0.00  0.00    -0.075 A 
ATOM      5  S   UNL d   1      -1.511  -2.678  -5.998  0.00  0.00     0.015 SA
ATOM      6  C4  UNL d   1      -2.260  -4.209  -5.997  0.00  0.00     0.022 A 
ATOM      7  C5  UNL d   1      -1.342  -5.232  -5.998  0.00  0.00     0.026 A 
ATOM      8  C6  UNL d   1       0.015  -4.764  -5.998  0.00  0.00    -0.082 A 
ATOM      9  C7  UNL d   1       1.237  -5.480  -5.998  0.00  0.00     0.045 A 
ENDROOT
TORSDOF 0
ENDMDL
