MODEL 1
REMARK minimizedAffinity 16.6694927
REMARK minimizedRMSD -1
REMARK  0 active torsions:
REMARK  status: ('A' for Active; 'I' for Inactive)
ROOT
ATOM      1  C   UNL d   1       2.223   0.374   1.076  0.00  0.00    -0.002 A 
ATOM      2  C1  UNL d   1       1.732   1.664   0.934  0.00  0.00     0.010 A 
ATOM      3  C2  UNL d   1       1.979   2.393  -0.231  0.00  0.00     0.041 A 
ATOM      4  C3  UNL d   1       2.732   1.797  -1.261  0.00  0.00    -0.075 A 
ATOM      5  S   UNL d   1       3.158   2.500  -2.777  0.00  0.00     0.015 SA
ATOM      6  C4  UNL d   1       4.001   1.103  -3.272  0.00  0.00     0.022 A 
ATOM      7  C5  UNL d   1       3.968   0.116  -2.316  0.00  0.00     0.026 A 
ATOM      8  C6  UNL d   1       3.236   0.499  -1.142  0.00  0.00    -0.082 A 
ATOM      9  C7  UNL d   1       2.970  -0.214   0.052  0.00  0.00     0.045 A 
ENDROOT
TORSDOF 0
ENDMDL
