MODEL 1
REMARK minimizedAffinity 14.0836296
REMARK minimizedRMSD -1
REMARK  0 active torsions:
REMARK  status: ('A' for Active; 'I' for Inactive)
ROOT
ATOM      1  C   UNL d   1       3.360   0.687   0.744  0.00  0.00    -0.002 A 
ATOM      2  C1  UNL d   1       2.610   0.023   1.705  0.00  0.00     0.010 A 
ATOM      3  C2  UNL d   1       1.475   0.620   2.257  0.00  0.00     0.041 A 
ATOM      4  C3  UNL d   1       1.102   1.907   1.822  0.00  0.00    -0.075 A 
ATOM      5  S   UNL d   1      -0.251   2.833   2.356  0.00  0.00     0.015 SA
ATOM      6  C4  UNL d   1       0.135   4.131   1.321  0.00  0.00     0.022 A 
ATOM      7  C5  UNL d   1       1.264   3.881   0.579  0.00  0.00     0.026 A 
ATOM      8  C6  UNL d   1       1.840   2.595   0.855  0.00  0.00    -0.082 A 
ATOM      9  C7  UNL d   1       2.986   1.963   0.315  0.00  0.00     0.045 A 
ENDROOT
TORSDOF 0
ENDMDL
