MODEL 1
REMARK minimizedAffinity 12.2556047
REMARK minimizedRMSD -1
REMARK  0 active torsions:
REMARK  status: ('A' for Active; 'I' for Inactive)
ROOT
ATOM      1  C   UNL d   1      -6.000  -4.825  -2.272  0.00  0.00    -0.002 A 
ATOM      2  C1  UNL d   1      -5.264  -5.998  -2.173  0.00  0.00     0.010 A 
ATOM      3  C2  UNL d   1      -3.869  -5.961  -2.147  0.00  0.00     0.041 A 
ATOM      4  C3  UNL d   1      -3.218  -4.713  -2.220  0.00  0.00    -0.075 A 
ATOM      5  S   UNL d   1      -1.519  -4.425  -2.205  0.00  0.00     0.015 SA
ATOM      6  C4  UNL d   1      -1.729  -2.738  -2.328  0.00  0.00     0.022 A 
ATOM      7  C5  UNL d   1      -3.057  -2.386  -2.381  0.00  0.00     0.026 A 
ATOM      8  C6  UNL d   1      -3.937  -3.519  -2.320  0.00  0.00    -0.082 A 
ATOM      9  C7  UNL d   1      -5.351  -3.590  -2.345  0.00  0.00     0.045 A 
ENDROOT
TORSDOF 0
ENDMDL
