MODEL 1
REMARK minimizedAffinity 23.6979828
REMARK minimizedRMSD -1
REMARK  0 active torsions:
REMARK  status: ('A' for Active; 'I' for Inactive)
ROOT
ATOM      1  C   UNL d   1      -0.914  -3.161   1.483  0.00  0.00    -0.002 A 
ATOM      2  C1  UNL d   1      -1.290  -2.959   2.803  0.00  0.00     0.010 A 
ATOM      3  C2  UNL d   1      -0.908  -1.800   3.481  0.00  0.00     0.041 A 
ATOM      4  C3  UNL d   1      -0.136  -0.836   2.802  0.00  0.00    -0.075 A 
ATOM      5  S   UNL d   1       0.446   0.660   3.430  0.00  0.00     0.015 SA
ATOM      6  C4  UNL d   1       1.205   1.067   1.959  0.00  0.00     0.022 A 
ATOM      7  C5  UNL d   1       1.030   0.096   1.002  0.00  0.00     0.026 A 
ATOM      8  C6  UNL d   1       0.253  -1.016   1.472  0.00  0.00    -0.082 A 
ATOM      9  C7  UNL d   1      -0.149  -2.203   0.812  0.00  0.00     0.045 A 
ENDROOT
TORSDOF 0
ENDMDL
