MODEL 1
REMARK minimizedAffinity 5.58693933
REMARK minimizedRMSD -1
REMARK  0 active torsions:
REMARK  status: ('A' for Active; 'I' for Inactive)
ROOT
ATOM      1  C   UNL d   1       5.996   4.382   5.657  0.00  0.00    -0.002 A 
ATOM      2  C1  UNL d   1       5.170   5.445   5.997  0.00  0.00     0.010 A 
ATOM      3  C2  UNL d   1       4.300   5.997   5.055  0.00  0.00     0.041 A 
ATOM      4  C3  UNL d   1       4.271   5.457   3.755  0.00  0.00    -0.075 A 
ATOM      5  S   UNL d   1       3.284   5.971   2.437  0.00  0.00     0.015 SA
ATOM      6  C4  UNL d   1       3.934   4.791   1.393  0.00  0.00     0.022 A 
ATOM      7  C5  UNL d   1       4.882   4.016   2.017  0.00  0.00     0.026 A 
ATOM      8  C6  UNL d   1       5.091   4.386   3.389  0.00  0.00    -0.082 A 
ATOM      9  C7  UNL d   1       5.964   3.849   4.366  0.00  0.00     0.045 A 
ENDROOT
TORSDOF 0
ENDMDL
