MODEL 1
REMARK minimizedAffinity 7.77611065
REMARK minimizedRMSD -1
REMARK  0 active torsions:
REMARK  status: ('A' for Active; 'I' for Inactive)
ROOT
ATOM      1  C   UNL d   1       4.284   2.598  -3.001  0.00  0.00    -0.002 A 
ATOM      2  C1  UNL d   1       2.960   2.203  -2.880  0.00  0.00     0.010 A 
ATOM      3  C2  UNL d   1       1.947   2.902  -3.540  0.00  0.00     0.041 A 
ATOM      4  C3  UNL d   1       2.291   4.014  -4.333  0.00  0.00    -0.075 A 
ATOM      5  S   UNL d   1       1.220   5.020  -5.234  0.00  0.00     0.015 SA
ATOM      6  C4  UNL d   1       2.495   5.998  -5.801  0.00  0.00     0.022 A 
ATOM      7  C5  UNL d   1       3.716   5.582  -5.324  0.00  0.00     0.026 A 
ATOM      8  C6  UNL d   1       3.618   4.431  -4.471  0.00  0.00    -0.082 A 
ATOM      9  C7  UNL d   1       4.622   3.702  -3.788  0.00  0.00     0.045 A 
ENDROOT
TORSDOF 0
ENDMDL
