MODEL 1
REMARK minimizedAffinity 17.3062611
REMARK minimizedRMSD -1
REMARK  0 active torsions:
REMARK  status: ('A' for Active; 'I' for Inactive)
ROOT
ATOM      1  C   UNL d   1      -5.159   4.069   1.412  0.00  0.00    -0.002 A 
ATOM      2  C1  UNL d   1      -5.931   5.211   1.568  0.00  0.00     0.010 A 
ATOM      3  C2  UNL d   1      -5.988   5.867   2.800  0.00  0.00     0.041 A 
ATOM      4  C3  UNL d   1      -5.247   5.350   3.881  0.00  0.00    -0.075 A 
ATOM      5  S   UNL d   1      -5.164   5.986   5.482  0.00  0.00     0.015 SA
ATOM      6  C4  UNL d   1      -4.101   4.757   5.995  0.00  0.00     0.022 A 
ATOM      7  C5  UNL d   1      -3.806   3.874   4.983  0.00  0.00     0.026 A 
ATOM      8  C6  UNL d   1      -4.462   4.202   3.748  0.00  0.00    -0.082 A 
ATOM      9  C7  UNL d   1      -4.426   3.560   2.487  0.00  0.00     0.045 A 
ENDROOT
TORSDOF 0
ENDMDL
