MODEL 1
REMARK minimizedAffinity 20.0423203
REMARK minimizedRMSD -1
REMARK  0 active torsions:
REMARK  status: ('A' for Active; 'I' for Inactive)
ROOT
ATOM      1  C   UNL d   1      -5.352   4.019   1.404  0.00  0.00    -0.002 A 
ATOM      2  C1  UNL d   1      -5.996   5.242   1.529  0.00  0.00     0.010 A 
ATOM      3  C2  UNL d   1      -5.999   5.922   2.748  0.00  0.00     0.041 A 
ATOM      4  C3  UNL d   1      -5.335   5.347   3.850  0.00  0.00    -0.075 A 
ATOM      5  S   UNL d   1      -5.206   5.999   5.441  0.00  0.00     0.015 SA
ATOM      6  C4  UNL d   1      -4.291   4.671   5.992  0.00  0.00     0.022 A 
ATOM      7  C5  UNL d   1      -4.081   3.743   4.999  0.00  0.00     0.026 A 
ATOM      8  C6  UNL d   1      -4.678   4.118   3.749  0.00  0.00    -0.082 A 
ATOM      9  C7  UNL d   1      -4.694   3.453   2.499  0.00  0.00     0.045 A 
ENDROOT
TORSDOF 0
ENDMDL
