MODEL 1
REMARK minimizedAffinity 19.680479
REMARK minimizedRMSD -1
REMARK  0 active torsions:
REMARK  status: ('A' for Active; 'I' for Inactive)
ROOT
ATOM      1  C   UNL d   1      -5.998  -5.201  -2.994  0.00  0.00    -0.002 A 
ATOM      2  C1  UNL d   1      -5.324  -6.000  -2.082  0.00  0.00     0.010 A 
ATOM      3  C2  UNL d   1      -4.129  -5.565  -1.505  0.00  0.00     0.041 A 
ATOM      4  C3  UNL d   1      -3.620  -4.301  -1.862  0.00  0.00    -0.075 A 
ATOM      5  S   UNL d   1      -2.175  -3.561  -1.282  0.00  0.00     0.015 SA
ATOM      6  C4  UNL d   1      -2.420  -2.166  -2.231  0.00  0.00     0.022 A 
ATOM      7  C5  UNL d   1      -3.571  -2.247  -2.978  0.00  0.00     0.026 A 
ATOM      8  C6  UNL d   1      -4.282  -3.478  -2.777  0.00  0.00    -0.082 A 
ATOM      9  C7  UNL d   1      -5.490  -3.948  -3.346  0.00  0.00     0.045 A 
ENDROOT
TORSDOF 0
ENDMDL
