MODEL 1
REMARK minimizedAffinity 12.7050982
REMARK minimizedRMSD -1
REMARK  0 active torsions:
REMARK  status: ('A' for Active; 'I' for Inactive)
ROOT
ATOM      1  C   UNL d   1      -1.447   0.764   1.474  0.00  0.00    -0.002 A 
ATOM      2  C1  UNL d   1      -1.471   2.133   1.698  0.00  0.00     0.010 A 
ATOM      3  C2  UNL d   1      -2.449   2.702   2.515  0.00  0.00     0.041 A 
ATOM      4  C3  UNL d   1      -3.411   1.863   3.112  0.00  0.00    -0.075 A 
ATOM      5  S   UNL d   1      -4.703   2.338   4.151  0.00  0.00     0.015 SA
ATOM      6  C4  UNL d   1      -5.252   0.734   4.323  0.00  0.00     0.022 A 
ATOM      7  C5  UNL d   1      -4.481  -0.155   3.611  0.00  0.00     0.026 A 
ATOM      8  C6  UNL d   1      -3.407   0.482   2.902  0.00  0.00    -0.082 A 
ATOM      9  C7  UNL d   1      -2.403  -0.065   2.067  0.00  0.00     0.045 A 
ENDROOT
TORSDOF 0
ENDMDL
