MODEL 1
REMARK minimizedAffinity 3.82630324
REMARK minimizedRMSD -1
REMARK  0 active torsions:
REMARK  status: ('A' for Active; 'I' for Inactive)
ROOT
ATOM      1  C   UNL d   1       0.955   0.340   1.891  0.00  0.00    -0.002 A 
ATOM      2  C1  UNL d   1       0.844   1.721   1.964  0.00  0.00     0.010 A 
ATOM      3  C2  UNL d   1      -0.378   2.320   2.280  0.00  0.00     0.041 A 
ATOM      4  C3  UNL d   1      -1.496   1.499   2.524  0.00  0.00    -0.075 A 
ATOM      5  S   UNL d   1      -3.092   2.010   2.929  0.00  0.00     0.015 SA
ATOM      6  C4  UNL d   1      -3.664   0.407   3.015  0.00  0.00     0.022 A 
ATOM      7  C5  UNL d   1      -2.675  -0.509   2.744  0.00  0.00     0.026 A 
ATOM      8  C6  UNL d   1      -1.409   0.105   2.457  0.00  0.00    -0.082 A 
ATOM      9  C7  UNL d   1      -0.157  -0.471   2.134  0.00  0.00     0.045 A 
ENDROOT
TORSDOF 0
ENDMDL
