MODEL 1
REMARK minimizedAffinity 4.37804413
REMARK minimizedRMSD -1
REMARK  0 active torsions:
REMARK  status: ('A' for Active; 'I' for Inactive)
ROOT
ATOM      1  C   UNL d   1      -3.414  -3.760  -5.953  0.00  0.00    -0.002 A 
ATOM      2  C1  UNL d   1      -4.792  -3.915  -5.999  0.00  0.00     0.010 A 
ATOM      3  C2  UNL d   1      -5.582  -3.581  -4.897  0.00  0.00     0.041 A 
ATOM      4  C3  UNL d   1      -4.957  -3.083  -3.736  0.00  0.00    -0.075 A 
ATOM      5  S   UNL d   1      -5.722  -2.609  -2.266  0.00  0.00     0.015 SA
ATOM      6  C4  UNL d   1      -4.237  -2.188  -1.542  0.00  0.00     0.022 A 
ATOM      7  C5  UNL d   1      -3.174  -2.399  -2.387  0.00  0.00     0.026 A 
ATOM      8  C6  UNL d   1      -3.571  -2.917  -3.666  0.00  0.00    -0.082 A 
ATOM      9  C7  UNL d   1      -2.798  -3.265  -4.800  0.00  0.00     0.045 A 
ENDROOT
TORSDOF 0
ENDMDL
