MODEL 1
REMARK minimizedAffinity -5.74061823
REMARK minimizedRMSD -1
REMARK  1 active torsions:
REMARK  status: ('A' for Active; 'I' for Inactive)
REMARK    1  A    between atoms: C1_2  and  C2_3 
ROOT
ATOM      1  C2  UNL d   1      -1.443  -0.990   1.156  0.00  0.00    -0.073 A 
ATOM      2  C3  UNL d   1      -0.518  -0.306   0.359  0.00  0.00    -0.002 A 
ATOM      3  C4  UNL d   1      -0.833   0.947  -0.169  0.00  0.00     0.004 A 
ATOM      4  C5  UNL d   1      -2.070   1.531   0.100  0.00  0.00    -0.004 A 
ATOM      5  C6  UNL d   1      -3.003   0.869   0.904  0.00  0.00    -0.075 A 
ATOM      6  C7  UNL d   1      -4.340   1.483   1.200  0.00  0.00     0.076 C 
ATOM      7  C8  UNL d   1      -2.681  -0.390   1.428  0.00  0.00     0.001 A 
ENDROOT
BRANCH   1   8
ATOM      8  C1  UNL d   1      -1.106  -2.340   1.734  0.00  0.00     0.053 C 
ATOM      9  C   UNL d   1      -0.953  -3.400   0.654  0.00  0.00     0.018 C 
ENDBRANCH   1   8
TORSDOF 1
ENDMDL
