MODEL 1
REMARK minimizedAffinity -4.01025629
REMARK minimizedRMSD -1
REMARK  1 active torsions:
REMARK  status: ('A' for Active; 'I' for Inactive)
REMARK    1  A    between atoms: C1_2  and  C2_3 
ROOT
ATOM      1  C2  UNL d   1      -0.385  -0.352   0.275  0.00  0.00    -0.073 A 
ATOM      2  C3  UNL d   1       0.049  -1.557  -0.290  0.00  0.00    -0.002 A 
ATOM      3  C4  UNL d   1      -0.307  -2.776   0.290  0.00  0.00     0.004 A 
ATOM      4  C5  UNL d   1      -1.104  -2.802   1.435  0.00  0.00    -0.004 A 
ATOM      5  C6  UNL d   1      -1.557  -1.609   2.007  0.00  0.00    -0.075 A 
ATOM      6  C7  UNL d   1      -2.413  -1.620   3.239  0.00  0.00     0.076 C 
ATOM      7  C8  UNL d   1      -1.193  -0.389   1.420  0.00  0.00     0.001 A 
ENDROOT
BRANCH   1   8
ATOM      8  C1  UNL d   1      -0.009   0.966  -0.352  0.00  0.00     0.053 C 
ATOM      9  C   UNL d   1       1.125   1.649   0.396  0.00  0.00     0.018 C 
ENDBRANCH   1   8
TORSDOF 1
ENDMDL
