MODEL 1
REMARK minimizedAffinity -2.06117654
REMARK minimizedRMSD -1
REMARK  1 active torsions:
REMARK  status: ('A' for Active; 'I' for Inactive)
REMARK    1  A    between atoms: C1_2  and  C2_3 
ROOT
ATOM      1  C2  UNL d   1       0.528   0.492  -0.279  0.00  0.00    -0.073 A 
ATOM      2  C3  UNL d   1      -0.207   1.270  -1.181  0.00  0.00    -0.002 A 
ATOM      3  C4  UNL d   1       0.163   2.590  -1.437  0.00  0.00     0.004 A 
ATOM      4  C5  UNL d   1       1.274   3.144  -0.801  0.00  0.00    -0.004 A 
ATOM      5  C6  UNL d   1       2.028   2.379   0.095  0.00  0.00    -0.075 A 
ATOM      6  C7  UNL d   1       3.225   2.960   0.789  0.00  0.00     0.076 C 
ATOM      7  C8  UNL d   1       1.648   1.054   0.349  0.00  0.00     0.001 A 
ENDROOT
BRANCH   1   8
ATOM      8  C1  UNL d   1       0.135  -0.937  -0.004  0.00  0.00     0.053 C 
ATOM      9  C   UNL d   1      -0.944  -1.037   1.063  0.00  0.00     0.018 C 
ENDBRANCH   1   8
TORSDOF 1
ENDMDL
