MODEL 1
REMARK minimizedAffinity -3.4207437
REMARK minimizedRMSD -1
REMARK  1 active torsions:
REMARK  status: ('A' for Active; 'I' for Inactive)
REMARK    1  A    between atoms: C1_2  and  C2_3 
ROOT
ATOM      1  C2  UNL d   1       0.501  -0.930  -0.197  0.00  0.00    -0.073 A 
ATOM      2  C3  UNL d   1       1.448  -1.583   0.600  0.00  0.00    -0.002 A 
ATOM      3  C4  UNL d   1       1.046  -2.543   1.529  0.00  0.00     0.004 A 
ATOM      4  C5  UNL d   1      -0.304  -2.865   1.666  0.00  0.00    -0.004 A 
ATOM      5  C6  UNL d   1      -1.264  -2.232   0.871  0.00  0.00    -0.075 A 
ATOM      6  C7  UNL d   1      -2.721  -2.566   1.008  0.00  0.00     0.076 C 
ATOM      7  C8  UNL d   1      -0.853  -1.267  -0.059  0.00  0.00     0.001 A 
ENDROOT
BRANCH   1   8
ATOM      8  C1  UNL d   1       0.931   0.103  -1.207  0.00  0.00     0.053 C 
ATOM      9  C   UNL d   1       0.226  -0.077  -2.542  0.00  0.00     0.018 C 
ENDBRANCH   1   8
TORSDOF 1
ENDMDL
