MODEL 1
REMARK minimizedAffinity -4.49430704
REMARK minimizedRMSD -1
REMARK  1 active torsions:
REMARK  status: ('A' for Active; 'I' for Inactive)
REMARK    1  A    between atoms: C1_2  and  C2_3 
ROOT
ATOM      1  C2  UNL d   1       0.143  -0.425   0.848  0.00  0.00    -0.073 A 
ATOM      2  C3  UNL d   1       1.135  -1.390   0.640  0.00  0.00    -0.002 A 
ATOM      3  C4  UNL d   1       0.796  -2.739   0.534  0.00  0.00     0.004 A 
ATOM      4  C5  UNL d   1      -0.538  -3.137   0.628  0.00  0.00    -0.004 A 
ATOM      5  C6  UNL d   1      -1.545  -2.187   0.823  0.00  0.00    -0.075 A 
ATOM      6  C7  UNL d   1      -2.984  -2.599   0.928  0.00  0.00     0.076 C 
ATOM      7  C8  UNL d   1      -1.196  -0.834   0.931  0.00  0.00     0.001 A 
ENDROOT
BRANCH   1   8
ATOM      8  C1  UNL d   1       0.503   1.034   0.956  0.00  0.00     0.053 C 
ATOM      9  C   UNL d   1       0.664   1.475   2.402  0.00  0.00     0.018 C 
ENDBRANCH   1   8
TORSDOF 1
ENDMDL
