MODEL 1
REMARK minimizedAffinity -0.861211002
REMARK minimizedRMSD -1
REMARK  1 active torsions:
REMARK  status: ('A' for Active; 'I' for Inactive)
REMARK    1  A    between atoms: C1_2  and  C2_3 
ROOT
ATOM      1  C2  UNL d   1      -0.011   0.278   0.404  0.00  0.00    -0.073 A 
ATOM      2  C3  UNL d   1      -0.504   0.433  -0.897  0.00  0.00    -0.002 A 
ATOM      3  C4  UNL d   1      -0.156   1.553  -1.654  0.00  0.00     0.004 A 
ATOM      4  C5  UNL d   1       0.692   2.524  -1.123  0.00  0.00    -0.004 A 
ATOM      5  C6  UNL d   1       1.204   2.381   0.171  0.00  0.00    -0.075 A 
ATOM      6  C7  UNL d   1       2.116   3.418   0.758  0.00  0.00     0.076 C 
ATOM      7  C8  UNL d   1       0.849   1.256   0.926  0.00  0.00     0.001 A 
ENDROOT
BRANCH   1   8
ATOM      8  C1  UNL d   1      -0.378  -0.932   1.223  0.00  0.00     0.053 C 
ATOM      9  C   UNL d   1      -0.952  -2.048   0.364  0.00  0.00     0.018 C 
ENDBRANCH   1   8
TORSDOF 1
ENDMDL
