MODEL 1
REMARK minimizedAffinity 3.38805223
REMARK minimizedRMSD -1
REMARK  1 active torsions:
REMARK  status: ('A' for Active; 'I' for Inactive)
REMARK    1  A    between atoms: C1_2  and  C2_3 
ROOT
ATOM      1  C2  UNL d   1       2.629   4.074   0.496  0.00  0.00    -0.073 A 
ATOM      2  C3  UNL d   1       3.965   4.395   0.231  0.00  0.00    -0.002 A 
ATOM      3  C4  UNL d   1       4.590   3.913  -0.920  0.00  0.00     0.004 A 
ATOM      4  C5  UNL d   1       3.885   3.114  -1.820  0.00  0.00    -0.004 A 
ATOM      5  C6  UNL d   1       2.546   2.792  -1.578  0.00  0.00    -0.075 A 
ATOM      6  C7  UNL d   1       1.774   1.932  -2.535  0.00  0.00     0.076 C 
ATOM      7  C8  UNL d   1       1.926   3.277  -0.419  0.00  0.00     0.001 A 
ENDROOT
BRANCH   1   8
ATOM      8  C1  UNL d   1       1.948   4.597   1.734  0.00  0.00     0.053 C 
ATOM      9  C   UNL d   1       0.741   3.757   2.119  0.00  0.00     0.018 C 
ENDBRANCH   1   8
TORSDOF 1
ENDMDL
