MODEL 1
REMARK minimizedAffinity -3.88944125
REMARK minimizedRMSD -1
REMARK  1 active torsions:
REMARK  status: ('A' for Active; 'I' for Inactive)
REMARK    1  A    between atoms: N_2  and  C1_3 
ROOT
ATOM      1  C1  UNL d   1       0.387  -0.235   0.427  0.00  0.00     0.143 A 
ATOM      2  C2  UNL d   1       1.204   0.827   0.027  0.00  0.00    -0.057 A 
ATOM      3  C3  UNL d   1       1.927   0.775  -1.171  0.00  0.00     0.033 A 
ATOM      4  C4  UNL d   1       1.868  -0.356  -1.977  0.00  0.00    -0.042 A 
ATOM      5  C5  UNL d   1       1.083  -1.435  -1.587  0.00  0.00     0.033 A 
ATOM      6  C6  UNL d   1       0.357  -1.374  -0.393  0.00  0.00    -0.057 A 
ENDROOT
BRANCH   1   7
ATOM      7  N   UNL d   1      -0.280  -0.284   1.654  0.00  0.00    -0.732 N 
ATOM      8  C   UNL d   1      -1.589   0.314   1.806  0.00  0.00     0.284 C 
ATOM      9  H3  UNL d   1      -0.178  -1.185   2.116  0.00  0.00     0.395 HD
ENDBRANCH   1   7
TORSDOF 1
ENDMDL
