MODEL 1
REMARK minimizedAffinity -3.89051652
REMARK minimizedRMSD -1
REMARK  1 active torsions:
REMARK  status: ('A' for Active; 'I' for Inactive)
REMARK    1  A    between atoms: N_2  and  C1_3 
ROOT
ATOM      1  C1  UNL d   1       0.412   0.253  -0.215  0.00  0.00     0.143 A 
ATOM      2  C2  UNL d   1       1.506   1.082  -0.486  0.00  0.00    -0.057 A 
ATOM      3  C3  UNL d   1       2.174   1.025  -1.716  0.00  0.00     0.033 A 
ATOM      4  C4  UNL d   1       1.776   0.113  -2.688  0.00  0.00    -0.042 A 
ATOM      5  C5  UNL d   1       0.707  -0.739  -2.431  0.00  0.00     0.033 A 
ATOM      6  C6  UNL d   1       0.040  -0.671  -1.204  0.00  0.00    -0.057 A 
ENDROOT
BRANCH   1   7
ATOM      7  N   UNL d   1      -0.231   0.195   1.024  0.00  0.00    -0.732 N 
ATOM      8  C   UNL d   1      -0.685  -1.071   1.559  0.00  0.00     0.284 C 
ATOM      9  H3  UNL d   1       0.197   0.809   1.713  0.00  0.00     0.395 HD
ENDBRANCH   1   7
TORSDOF 1
ENDMDL
