MODEL 1
REMARK minimizedAffinity -2.53073812
REMARK minimizedRMSD -1
REMARK  1 active torsions:
REMARK  status: ('A' for Active; 'I' for Inactive)
REMARK    1  A    between atoms: N_2  and  C1_3 
ROOT
ATOM      1  C1  UNL d   1      -1.667   0.482  -0.008  0.00  0.00     0.143 A 
ATOM      2  C2  UNL d   1      -1.366  -0.321   1.097  0.00  0.00    -0.057 A 
ATOM      3  C3  UNL d   1      -0.244  -1.159   1.101  0.00  0.00     0.033 A 
ATOM      4  C4  UNL d   1       0.583  -1.230  -0.016  0.00  0.00    -0.042 A 
ATOM      5  C5  UNL d   1       0.288  -0.460  -1.135  0.00  0.00     0.033 A 
ATOM      6  C6  UNL d   1      -0.830   0.380  -1.130  0.00  0.00    -0.057 A 
ENDROOT
BRANCH   1   7
ATOM      7  N   UNL d   1      -2.822   1.262  -0.112  0.00  0.00    -0.732 N 
ATOM      8  C   UNL d   1      -3.944   1.038   0.775  0.00  0.00     0.284 C 
ATOM      9  H3  UNL d   1      -2.614   2.244  -0.280  0.00  0.00     0.395 HD
ENDBRANCH   1   7
TORSDOF 1
ENDMDL
