MODEL 1
REMARK minimizedAffinity -2.31030273
REMARK minimizedRMSD -1
REMARK  1 active torsions:
REMARK  status: ('A' for Active; 'I' for Inactive)
REMARK    1  A    between atoms: N_2  and  C1_3 
ROOT
ATOM      1  C1  UNL d   1      -4.564   3.174  -5.784  0.00  0.00     0.143 A 
ATOM      2  C2  UNL d   1      -3.484   4.050  -5.940  0.00  0.00    -0.057 A 
ATOM      3  C3  UNL d   1      -3.648   5.435  -5.814  0.00  0.00     0.033 A 
ATOM      4  C4  UNL d   1      -4.905   5.972  -5.558  0.00  0.00    -0.042 A 
ATOM      5  C5  UNL d   1      -5.997   5.122  -5.423  0.00  0.00     0.033 A 
ATOM      6  C6  UNL d   1      -5.826   3.740  -5.544  0.00  0.00    -0.057 A 
ENDROOT
BRANCH   1   7
ATOM      7  N   UNL d   1      -4.485   1.796  -5.995  0.00  0.00    -0.732 N 
ATOM      8  C   UNL d   1      -3.619   0.973  -5.177  0.00  0.00     0.284 C 
ATOM      9  H3  UNL d   1      -5.393   1.379  -6.188  0.00  0.00     0.395 HD
ENDBRANCH   1   7
TORSDOF 1
ENDMDL
