MODEL 1
REMARK minimizedAffinity -4.34841585
REMARK minimizedRMSD -1
REMARK  1 active torsions:
REMARK  status: ('A' for Active; 'I' for Inactive)
REMARK    1  A    between atoms: N_2  and  C1_3 
ROOT
ATOM      1  C1  UNL d   1      -3.005   2.627   2.574  0.00  0.00     0.143 A 
ATOM      2  C2  UNL d   1      -1.909   1.759   2.581  0.00  0.00    -0.057 A 
ATOM      3  C3  UNL d   1      -2.029   0.434   2.144  0.00  0.00     0.033 A 
ATOM      4  C4  UNL d   1      -3.259  -0.055   1.717  0.00  0.00    -0.042 A 
ATOM      5  C5  UNL d   1      -4.368   0.783   1.725  0.00  0.00     0.033 A 
ATOM      6  C6  UNL d   1      -4.241   2.107   2.157  0.00  0.00    -0.057 A 
ENDROOT
BRANCH   1   7
ATOM      7  N   UNL d   1      -2.973   3.926   3.090  0.00  0.00    -0.732 N 
ATOM      8  C   UNL d   1      -2.202   4.229   4.276  0.00  0.00     0.284 C 
ATOM      9  H3  UNL d   1      -2.907   4.631   2.360  0.00  0.00     0.395 HD
ENDBRANCH   1   7
TORSDOF 1
ENDMDL
