MODEL 1
REMARK minimizedAffinity -3.22571111
REMARK minimizedRMSD -1
REMARK  1 active torsions:
REMARK  status: ('A' for Active; 'I' for Inactive)
REMARK    1  A    between atoms: N_2  and  C1_3 
ROOT
ATOM      1  C1  UNL d   1      -3.292   2.641   3.275  0.00  0.00     0.143 A 
ATOM      2  C2  UNL d   1      -2.206   1.764   3.377  0.00  0.00    -0.057 A 
ATOM      3  C3  UNL d   1      -2.178   0.558   2.668  0.00  0.00     0.033 A 
ATOM      4  C4  UNL d   1      -3.252   0.192   1.863  0.00  0.00    -0.042 A 
ATOM      5  C5  UNL d   1      -4.352   1.036   1.765  0.00  0.00     0.033 A 
ATOM      6  C6  UNL d   1      -4.371   2.243   2.471  0.00  0.00    -0.057 A 
ENDROOT
BRANCH   1   7
ATOM      7  N   UNL d   1      -3.423   3.808   4.031  0.00  0.00    -0.732 N 
ATOM      8  C   UNL d   1      -2.652   3.993   5.241  0.00  0.00     0.284 C 
ATOM      9  H3  UNL d   1      -3.491   4.641   3.450  0.00  0.00     0.395 HD
ENDBRANCH   1   7
TORSDOF 1
ENDMDL
