MODEL 1
REMARK minimizedAffinity -3.21706581
REMARK minimizedRMSD -1
REMARK  1 active torsions:
REMARK  status: ('A' for Active; 'I' for Inactive)
REMARK    1  A    between atoms: N_2  and  C1_3 
ROOT
ATOM      1  C1  UNL d   1      -1.250  -0.083   0.863  0.00  0.00     0.143 A 
ATOM      2  C2  UNL d   1      -1.192   0.746   1.988  0.00  0.00    -0.057 A 
ATOM      3  C3  UNL d   1      -2.354   1.134   2.666  0.00  0.00     0.033 A 
ATOM      4  C4  UNL d   1      -3.602   0.721   2.211  0.00  0.00    -0.042 A 
ATOM      5  C5  UNL d   1      -3.685  -0.084   1.080  0.00  0.00     0.033 A 
ATOM      6  C6  UNL d   1      -2.520  -0.473   0.411  0.00  0.00    -0.057 A 
ENDROOT
BRANCH   1   7
ATOM      7  N   UNL d   1      -0.138  -0.422   0.088  0.00  0.00    -0.732 N 
ATOM      8  C   UNL d   1       0.563   0.586  -0.677  0.00  0.00     0.284 C 
ATOM      9  H3  UNL d   1       0.473  -1.088   0.557  0.00  0.00     0.395 HD
ENDBRANCH   1   7
TORSDOF 1
ENDMDL
