MODEL 1
REMARK minimizedAffinity -1.41501439
REMARK minimizedRMSD -1
REMARK  1 active torsions:
REMARK  status: ('A' for Active; 'I' for Inactive)
REMARK    1  A    between atoms: N_2  and  C1_3 
ROOT
ATOM      1  C1  UNL d   1      -0.360   0.223   0.758  0.00  0.00     0.143 A 
ATOM      2  C2  UNL d   1       0.380   1.364   0.427  0.00  0.00    -0.057 A 
ATOM      3  C3  UNL d   1       1.298   1.352  -0.630  0.00  0.00     0.033 A 
ATOM      4  C4  UNL d   1       1.514   0.188  -1.358  0.00  0.00    -0.042 A 
ATOM      5  C5  UNL d   1       0.809  -0.965  -1.032  0.00  0.00     0.033 A 
ATOM      6  C6  UNL d   1      -0.112  -0.945   0.021  0.00  0.00    -0.057 A 
ENDROOT
BRANCH   1   7
ATOM      7  N   UNL d   1      -1.216   0.143   1.859  0.00  0.00    -0.732 N 
ATOM      8  C   UNL d   1      -2.192   1.181   2.111  0.00  0.00     0.284 C 
ATOM      9  H3  UNL d   1      -1.562  -0.801   2.014  0.00  0.00     0.395 HD
ENDBRANCH   1   7
TORSDOF 1
ENDMDL
