MODEL 1
REMARK minimizedAffinity -4.58941889
REMARK minimizedRMSD -1
REMARK  1 active torsions:
REMARK  status: ('A' for Active; 'I' for Inactive)
REMARK    1  A    between atoms: N_2  and  C1_3 
ROOT
ATOM      1  C1  UNL d   1       0.741  -0.507  -1.390  0.00  0.00     0.143 A 
ATOM      2  C2  UNL d   1       0.421  -1.794  -0.944  0.00  0.00    -0.057 A 
ATOM      3  C3  UNL d   1       0.144  -2.047   0.405  0.00  0.00     0.033 A 
ATOM      4  C4  UNL d   1       0.211  -1.020   1.340  0.00  0.00    -0.042 A 
ATOM      5  C5  UNL d   1       0.551   0.263   0.923  0.00  0.00     0.033 A 
ATOM      6  C6  UNL d   1       0.820   0.511  -0.426  0.00  0.00    -0.057 A 
ENDROOT
BRANCH   1   7
ATOM      7  N   UNL d   1       1.122  -0.210  -2.700  0.00  0.00    -0.732 N 
ATOM      8  C   UNL d   1       2.436   0.328  -2.982  0.00  0.00     0.284 C 
ATOM      9  H3  UNL d   1       0.811  -0.915  -3.365  0.00  0.00     0.395 HD
ENDBRANCH   1   7
TORSDOF 1
ENDMDL
