MODEL 1
REMARK minimizedAffinity -0.647498965
REMARK minimizedRMSD -1
REMARK  1 active torsions:
REMARK  status: ('A' for Active; 'I' for Inactive)
REMARK    1  A    between atoms: N_2  and  C1_3 
ROOT
ATOM      1  C1  UNL d   1      -1.096   0.265   0.328  0.00  0.00     0.143 A 
ATOM      2  C2  UNL d   1      -0.239   1.235  -0.203  0.00  0.00    -0.057 A 
ATOM      3  C3  UNL d   1       1.065   0.914  -0.598  0.00  0.00     0.033 A 
ATOM      4  C4  UNL d   1       1.547  -0.381  -0.441  0.00  0.00    -0.042 A 
ATOM      5  C5  UNL d   1       0.721  -1.356   0.108  0.00  0.00     0.033 A 
ATOM      6  C6  UNL d   1      -0.583  -1.031   0.494  0.00  0.00    -0.057 A 
ENDROOT
BRANCH   1   7
ATOM      7  N   UNL d   1      -2.370   0.543   0.830  0.00  0.00    -0.732 N 
ATOM      8  C   UNL d   1      -2.617   1.755   1.582  0.00  0.00     0.284 C 
ATOM      9  H3  UNL d   1      -3.108   0.304   0.172  0.00  0.00     0.395 HD
ENDBRANCH   1   7
TORSDOF 1
ENDMDL
