MODEL 1
REMARK minimizedAffinity -3.42070103
REMARK minimizedRMSD -1
REMARK  1 active torsions:
REMARK  status: ('A' for Active; 'I' for Inactive)
REMARK    1  A    between atoms: N_2  and  C1_3 
ROOT
ATOM      1  C1  UNL d   1       0.380   0.387   0.139  0.00  0.00     0.143 A 
ATOM      2  C2  UNL d   1       0.995   1.572  -0.279  0.00  0.00    -0.057 A 
ATOM      3  C3  UNL d   1       1.704   1.636  -1.485  0.00  0.00     0.033 A 
ATOM      4  C4  UNL d   1       1.836   0.504  -2.282  0.00  0.00    -0.042 A 
ATOM      5  C5  UNL d   1       1.254  -0.691  -1.874  0.00  0.00     0.033 A 
ATOM      6  C6  UNL d   1       0.542  -0.747  -0.672  0.00  0.00    -0.057 A 
ENDROOT
BRANCH   1   7
ATOM      7  N   UNL d   1      -0.255   0.234   1.374  0.00  0.00    -0.732 N 
ATOM      8  C   UNL d   1      -1.586   0.761   1.589  0.00  0.00     0.284 C 
ATOM      9  H3  UNL d   1      -0.102  -0.687   1.778  0.00  0.00     0.395 HD
ENDBRANCH   1   7
TORSDOF 1
ENDMDL
