MODEL 1
REMARK minimizedAffinity -5.07624578
REMARK minimizedRMSD -1
REMARK  1 active torsions:
REMARK  status: ('A' for Active; 'I' for Inactive)
REMARK    1  A    between atoms: N_2  and  C1_3 
ROOT
ATOM      1  C1  UNL d   1       0.061   0.025   0.180  0.00  0.00     0.143 A 
ATOM      2  C2  UNL d   1      -0.362  -0.591  -1.003  0.00  0.00    -0.057 A 
ATOM      3  C3  UNL d   1       0.318  -0.388  -2.210  0.00  0.00     0.033 A 
ATOM      4  C4  UNL d   1       1.419   0.459  -2.262  0.00  0.00    -0.042 A 
ATOM      5  C5  UNL d   1       1.843   1.102  -1.104  0.00  0.00     0.033 A 
ATOM      6  C6  UNL d   1       1.164   0.890   0.100  0.00  0.00    -0.057 A 
ENDROOT
BRANCH   1   7
ATOM      7  N   UNL d   1      -0.630  -0.058   1.391  0.00  0.00    -0.732 N 
ATOM      8  C   UNL d   1      -1.856   0.684   1.592  0.00  0.00     0.284 C 
ATOM      9  H3  UNL d   1      -0.652  -1.006   1.761  0.00  0.00     0.395 HD
ENDBRANCH   1   7
TORSDOF 1
ENDMDL
