MODEL 1
REMARK minimizedAffinity -6.21793604
REMARK minimizedRMSD -1
REMARK  3 active torsions:
REMARK  status: ('A' for Active; 'I' for Inactive)
REMARK    1  A    between atoms: C3'_2  and  C2'_3 
REMARK    2  A    between atoms: C2'_3  and  C1'_4 
REMARK    3  A    between atoms: C1'_4  and  C1_5 
ROOT
ATOM      1  C1  N4B d   1       0.408  -0.977  -0.057  0.00  0.00    -0.075 A 
ATOM      2  C2  N4B d   1      -0.158  -2.135   0.520  0.00  0.00     0.002 A 
ATOM      3  C3  N4B d   1      -0.281  -3.283  -0.224  0.00  0.00     0.002 A 
ATOM      4  C4  N4B d   1       0.136  -3.291  -1.546  0.00  0.00    -0.004 A 
ATOM      5  C5  N4B d   1       0.705  -2.176  -2.089  0.00  0.00     0.002 A 
ATOM      6  C6  N4B d   1       0.838  -1.016  -1.351  0.00  0.00     0.002 A 
ENDROOT
BRANCH   1   7
ATOM      7  C1' N4B d   1       0.484   0.326   0.690  0.00  0.00     0.057 C 
BRANCH   7   8
ATOM      8  C2' N4B d   1       0.375   1.480  -0.302  0.00  0.00     0.009 C 
BRANCH   8   9
ATOM      9  C3' N4B d   1       1.529   2.458  -0.166  0.00  0.00     0.004 C 
ATOM     10  C4' N4B d   1       1.098   3.795   0.360  0.00  0.00     0.003 C 
ENDBRANCH   8   9
ENDBRANCH   7   8
ENDBRANCH   1   7
TORSDOF 3
ENDMDL
