MODEL 1
REMARK minimizedAffinity -5.39958429
REMARK minimizedRMSD -1
REMARK  3 active torsions:
REMARK  status: ('A' for Active; 'I' for Inactive)
REMARK    1  A    between atoms: C3'_2  and  C2'_3 
REMARK    2  A    between atoms: C2'_3  and  C1'_4 
REMARK    3  A    between atoms: C1'_4  and  C1_5 
ROOT
ATOM      1  C1  N4B d   1      -0.375  -0.873  -0.479  0.00  0.00    -0.075 A 
ATOM      2  C2  N4B d   1      -0.185  -1.731   0.626  0.00  0.00     0.002 A 
ATOM      3  C3  N4B d   1       0.170  -3.042   0.424  0.00  0.00     0.002 A 
ATOM      4  C4  N4B d   1       0.322  -3.520  -0.869  0.00  0.00    -0.004 A 
ATOM      5  C5  N4B d   1       0.161  -2.679  -1.930  0.00  0.00     0.002 A 
ATOM      6  C6  N4B d   1      -0.192  -1.357  -1.742  0.00  0.00     0.002 A 
ENDROOT
BRANCH   1   7
ATOM      7  C1' N4B d   1      -0.848   0.545  -0.312  0.00  0.00     0.057 C 
BRANCH   7   8
ATOM      8  C2' N4B d   1       0.007   1.464  -1.179  0.00  0.00     0.009 C 
BRANCH   8   9
ATOM      9  C3' N4B d   1       1.328   1.808  -0.511  0.00  0.00     0.004 C 
ATOM     10  C4' N4B d   1       1.253   3.057   0.315  0.00  0.00     0.003 C 
ENDBRANCH   8   9
ENDBRANCH   7   8
ENDBRANCH   1   7
TORSDOF 3
ENDMDL
