MODEL 1
REMARK minimizedAffinity -4.58397627
REMARK minimizedRMSD -1
REMARK  3 active torsions:
REMARK  status: ('A' for Active; 'I' for Inactive)
REMARK    1  A    between atoms: C3'_2  and  C2'_3 
REMARK    2  A    between atoms: C2'_3  and  C1'_4 
REMARK    3  A    between atoms: C1'_4  and  C1_5 
ROOT
ATOM      1  C1  N4B d   1      -0.156  -0.956  -0.394  0.00  0.00    -0.075 A 
ATOM      2  C2  N4B d   1      -0.665  -2.192   0.064  0.00  0.00     0.002 A 
ATOM      3  C3  N4B d   1      -0.691  -3.277  -0.776  0.00  0.00     0.002 A 
ATOM      4  C4  N4B d   1      -0.232  -3.148  -2.079  0.00  0.00    -0.004 A 
ATOM      5  C5  N4B d   1       0.281  -1.958  -2.505  0.00  0.00     0.002 A 
ATOM      6  C6  N4B d   1       0.317  -0.859  -1.670  0.00  0.00     0.002 A 
ENDROOT
BRANCH   1   7
ATOM      7  C1' N4B d   1      -0.187   0.281   0.461  0.00  0.00     0.057 C 
BRANCH   7   8
ATOM      8  C2' N4B d   1      -0.088   1.512  -0.436  0.00  0.00     0.009 C 
BRANCH   8   9
ATOM      9  C3' N4B d   1       0.343   2.745   0.338  0.00  0.00     0.004 C 
ATOM     10  C4' N4B d   1       1.813   3.019   0.223  0.00  0.00     0.003 C 
ENDBRANCH   8   9
ENDBRANCH   7   8
ENDBRANCH   1   7
TORSDOF 3
ENDMDL
