MODEL 1
REMARK minimizedAffinity -4.27848005
REMARK minimizedRMSD -1
REMARK  3 active torsions:
REMARK  status: ('A' for Active; 'I' for Inactive)
REMARK    1  A    between atoms: C3'_2  and  C2'_3 
REMARK    2  A    between atoms: C2'_3  and  C1'_4 
REMARK    3  A    between atoms: C1'_4  and  C1_5 
ROOT
ATOM      1  C1  N4B d   1      -0.269   0.506  -0.117  0.00  0.00    -0.075 A 
ATOM      2  C2  N4B d   1      -0.431  -0.782  -0.671  0.00  0.00     0.002 A 
ATOM      3  C3  N4B d   1      -0.860  -1.821   0.119  0.00  0.00     0.002 A 
ATOM      4  C4  N4B d   1      -1.114  -1.599   1.464  0.00  0.00    -0.004 A 
ATOM      5  C5  N4B d   1      -0.979  -0.346   1.986  0.00  0.00     0.002 A 
ATOM      6  C6  N4B d   1      -0.553   0.708   1.203  0.00  0.00     0.002 A 
ENDROOT
BRANCH   1   7
ATOM      7  C1' N4B d   1       0.279   1.653  -0.921  0.00  0.00     0.057 C 
BRANCH   7   8
ATOM      8  C2' N4B d   1       0.415   2.877  -0.019  0.00  0.00     0.009 C 
BRANCH   8   9
ATOM      9  C3' N4B d   1       1.834   3.418  -0.005  0.00  0.00     0.004 C 
ATOM     10  C4' N4B d   1       2.254   3.911   1.347  0.00  0.00     0.003 C 
ENDBRANCH   8   9
ENDBRANCH   7   8
ENDBRANCH   1   7
TORSDOF 3
ENDMDL
