MODEL 1
REMARK minimizedAffinity -6.49031067
REMARK minimizedRMSD -1
REMARK  3 active torsions:
REMARK  status: ('A' for Active; 'I' for Inactive)
REMARK    1  A    between atoms: C3'_2  and  C2'_3 
REMARK    2  A    between atoms: C2'_3  and  C1'_4 
REMARK    3  A    between atoms: C1'_4  and  C1_5 
ROOT
ATOM      1  C1  N4B d   1      -0.285   0.320   0.063  0.00  0.00    -0.075 A 
ATOM      2  C2  N4B d   1       0.228  -0.604  -0.874  0.00  0.00     0.002 A 
ATOM      3  C3  N4B d   1       0.059  -1.952  -0.671  0.00  0.00     0.002 A 
ATOM      4  C4  N4B d   1      -0.601  -2.397   0.464  0.00  0.00    -0.004 A 
ATOM      5  C5  N4B d   1      -1.116  -1.497   1.351  0.00  0.00     0.002 A 
ATOM      6  C6  N4B d   1      -0.957  -0.140   1.158  0.00  0.00     0.002 A 
ENDROOT
BRANCH   1   7
ATOM      7  C1' N4B d   1      -0.050   1.800  -0.072  0.00  0.00     0.057 C 
BRANCH   7   8
ATOM      8  C2' N4B d   1       1.405   2.043  -0.464  0.00  0.00     0.009 C 
BRANCH   8   9
ATOM      9  C3' N4B d   1       1.884   3.422  -0.044  0.00  0.00     0.004 C 
ATOM     10  C4' N4B d   1       1.993   3.571   1.444  0.00  0.00     0.003 C 
ENDBRANCH   8   9
ENDBRANCH   7   8
ENDBRANCH   1   7
TORSDOF 3
ENDMDL
