MODEL 1
REMARK minimizedAffinity -6.91059637
REMARK minimizedRMSD -1
REMARK  3 active torsions:
REMARK  status: ('A' for Active; 'I' for Inactive)
REMARK    1  A    between atoms: C3'_2  and  C2'_3 
REMARK    2  A    between atoms: C2'_3  and  C1'_4 
REMARK    3  A    between atoms: C1'_4  and  C1_5 
ROOT
ATOM      1  C1  N4B d   1      -0.152  -1.235   0.103  0.00  0.00    -0.075 A 
ATOM      2  C2  N4B d   1      -0.228  -2.386   0.918  0.00  0.00     0.002 A 
ATOM      3  C3  N4B d   1      -0.097  -3.634   0.359  0.00  0.00     0.002 A 
ATOM      4  C4  N4B d   1       0.091  -3.755  -1.010  0.00  0.00    -0.004 A 
ATOM      5  C5  N4B d   1       0.188  -2.637  -1.786  0.00  0.00     0.002 A 
ATOM      6  C6  N4B d   1       0.063  -1.377  -1.237  0.00  0.00     0.002 A 
ENDROOT
BRANCH   1   7
ATOM      7  C1' N4B d   1      -0.375   0.146   0.657  0.00  0.00     0.057 C 
BRANCH   7   8
ATOM      8  C2' N4B d   1      -0.109   1.173  -0.439  0.00  0.00     0.009 C 
BRANCH   8   9
ATOM      9  C3' N4B d   1       0.478   2.459   0.118  0.00  0.00     0.004 C 
ATOM     10  C4' N4B d   1       1.927   2.634  -0.227  0.00  0.00     0.003 C 
ENDBRANCH   8   9
ENDBRANCH   7   8
ENDBRANCH   1   7
TORSDOF 3
ENDMDL
