MODEL 1
REMARK minimizedAffinity -4.54342985
REMARK minimizedRMSD -1
REMARK  3 active torsions:
REMARK  status: ('A' for Active; 'I' for Inactive)
REMARK    1  A    between atoms: C3'_2  and  C2'_3 
REMARK    2  A    between atoms: C2'_3  and  C1'_4 
REMARK    3  A    between atoms: C1'_4  and  C1_5 
ROOT
ATOM      1  C1  N4B d   1      -0.251  -0.058   0.313  0.00  0.00    -0.075 A 
ATOM      2  C2  N4B d   1       0.143  -1.084  -0.573  0.00  0.00     0.002 A 
ATOM      3  C3  N4B d   1       0.044  -2.399  -0.189  0.00  0.00     0.002 A 
ATOM      4  C4  N4B d   1      -0.425  -2.710   1.079  0.00  0.00    -0.004 A 
ATOM      5  C5  N4B d   1      -0.828  -1.714   1.919  0.00  0.00     0.002 A 
ATOM      6  C6  N4B d   1      -0.738  -0.388   1.545  0.00  0.00     0.002 A 
ENDROOT
BRANCH   1   7
ATOM      7  C1' N4B d   1      -0.081   1.397  -0.030  0.00  0.00     0.057 C 
BRANCH   7   8
ATOM      8  C2' N4B d   1       1.074   1.547  -1.016  0.00  0.00     0.009 C 
BRANCH   8   9
ATOM      9  C3' N4B d   1       2.268   2.247  -0.389  0.00  0.00     0.004 C 
ATOM     10  C4' N4B d   1       1.870   3.318   0.581  0.00  0.00     0.003 C 
ENDBRANCH   8   9
ENDBRANCH   7   8
ENDBRANCH   1   7
TORSDOF 3
ENDMDL
