MODEL 1
REMARK minimizedAffinity -0.33176136
REMARK minimizedRMSD -1
REMARK  3 active torsions:
REMARK  status: ('A' for Active; 'I' for Inactive)
REMARK    1  A    between atoms: C3'_2  and  C2'_3 
REMARK    2  A    between atoms: C2'_3  and  C1'_4 
REMARK    3  A    between atoms: C1'_4  and  C1_5 
ROOT
ATOM      1  C1  N4B d   1      -0.355   0.024  -0.131  0.00  0.00    -0.075 A 
ATOM      2  C2  N4B d   1       0.278  -0.300  -1.351  0.00  0.00     0.002 A 
ATOM      3  C3  N4B d   1       0.472  -1.615  -1.696  0.00  0.00     0.002 A 
ATOM      4  C4  N4B d   1       0.060  -2.619  -0.832  0.00  0.00    -0.004 A 
ATOM      5  C5  N4B d   1      -0.574  -2.298   0.333  0.00  0.00     0.002 A 
ATOM      6  C6  N4B d   1      -0.779  -0.981   0.690  0.00  0.00     0.002 A 
ENDROOT
BRANCH   1   7
ATOM      7  C1' N4B d   1      -0.512   1.447   0.329  0.00  0.00     0.057 C 
BRANCH   7   8
ATOM      8  C2' N4B d   1       0.536   1.747   1.396  0.00  0.00     0.009 C 
BRANCH   8   9
ATOM      9  C3' N4B d   1       0.917   3.218   1.421  0.00  0.00     0.004 C 
ATOM     10  C4' N4B d   1       2.358   3.451   1.078  0.00  0.00     0.003 C 
ENDBRANCH   8   9
ENDBRANCH   7   8
ENDBRANCH   1   7
TORSDOF 3
ENDMDL
