MODEL 1
REMARK minimizedAffinity -2.62787271
REMARK minimizedRMSD -1
REMARK  1 active torsions:
REMARK  status: ('A' for Active; 'I' for Inactive)
REMARK    1  A    between atoms: C1_2  and  C2_3 
ROOT
ATOM      1  C2  UNL d   1       0.909  -0.101  -1.509  0.00  0.00    -0.077 A 
ATOM      2  C3  UNL d   1      -0.266  -0.709  -1.973  0.00  0.00     0.002 A 
ATOM      3  C4  UNL d   1      -0.630  -0.607  -3.317  0.00  0.00     0.002 A 
ATOM      4  C5  UNL d   1       0.176   0.099  -4.208  0.00  0.00    -0.004 A 
ATOM      5  C6  UNL d   1       1.345   0.709  -3.755  0.00  0.00     0.002 A 
ATOM      6  C7  UNL d   1       1.710   0.609  -2.412  0.00  0.00     0.002 A 
ENDROOT
BRANCH   1   7
ATOM      7  C1  UNL d   1       1.329  -0.252  -0.070  0.00  0.00     0.055 C 
ATOM      8  C   UNL d   1       0.292   0.337   0.874  0.00  0.00     0.019 C 
ENDBRANCH   1   7
TORSDOF 1
ENDMDL
