MODEL 1
REMARK minimizedAffinity -4.41180754
REMARK minimizedRMSD -1
REMARK  1 active torsions:
REMARK  status: ('A' for Active; 'I' for Inactive)
REMARK    1  A    between atoms: C1_2  and  C2_3 
ROOT
ATOM      1  C2  UNL d   1      -0.272  -0.046   0.142  0.00  0.00    -0.077 A 
ATOM      2  C3  UNL d   1       0.277   0.255   1.396  0.00  0.00     0.002 A 
ATOM      3  C4  UNL d   1      -0.542   0.686   2.441  0.00  0.00     0.002 A 
ATOM      4  C5  UNL d   1      -1.915   0.816   2.244  0.00  0.00    -0.004 A 
ATOM      5  C6  UNL d   1      -2.471   0.521   1.000  0.00  0.00     0.002 A 
ATOM      6  C7  UNL d   1      -1.654   0.091  -0.046  0.00  0.00     0.002 A 
ENDROOT
BRANCH   1   7
ATOM      7  C1  UNL d   1       0.603  -0.558  -0.972  0.00  0.00     0.055 C 
ATOM      8  C   UNL d   1       0.142  -0.032  -2.324  0.00  0.00     0.019 C 
ENDBRANCH   1   7
TORSDOF 1
ENDMDL
