MODEL 1
REMARK minimizedAffinity -5.48538303
REMARK minimizedRMSD -1
REMARK  1 active torsions:
REMARK  status: ('A' for Active; 'I' for Inactive)
REMARK    1  A    between atoms: C1_2  and  C2_3 
ROOT
ATOM      1  C2  UNL d   1       0.094   0.016   0.609  0.00  0.00    -0.077 A 
ATOM      2  C3  UNL d   1      -1.289  -0.168   0.753  0.00  0.00     0.002 A 
ATOM      3  C4  UNL d   1      -1.998   0.542   1.724  0.00  0.00     0.002 A 
ATOM      4  C5  UNL d   1      -1.335   1.442   2.555  0.00  0.00    -0.004 A 
ATOM      5  C6  UNL d   1       0.040   1.630   2.421  0.00  0.00     0.002 A 
ATOM      6  C7  UNL d   1       0.751   0.921   1.452  0.00  0.00     0.002 A 
ENDROOT
BRANCH   1   7
ATOM      7  C1  UNL d   1       0.852  -0.712  -0.470  0.00  0.00     0.055 C 
ATOM      8  C   UNL d   1       0.715  -0.009  -1.812  0.00  0.00     0.019 C 
ENDBRANCH   1   7
TORSDOF 1
ENDMDL
