MODEL 1
REMARK minimizedAffinity -4.20581341
REMARK minimizedRMSD -1
REMARK  1 active torsions:
REMARK  status: ('A' for Active; 'I' for Inactive)
REMARK    1  A    between atoms: C1_2  and  C2_3 
ROOT
ATOM      1  C2  UNL d   1       0.043  -0.026   0.742  0.00  0.00    -0.077 A 
ATOM      2  C3  UNL d   1      -1.319  -0.194   1.031  0.00  0.00     0.002 A 
ATOM      3  C4  UNL d   1      -1.940   0.605   1.993  0.00  0.00     0.002 A 
ATOM      4  C5  UNL d   1      -1.210   1.578   2.670  0.00  0.00    -0.004 A 
ATOM      5  C6  UNL d   1       0.145   1.752   2.392  0.00  0.00     0.002 A 
ATOM      6  C7  UNL d   1       0.769   0.954   1.431  0.00  0.00     0.002 A 
ENDROOT
BRANCH   1   7
ATOM      7  C1  UNL d   1       0.703  -0.853  -0.330  0.00  0.00     0.055 C 
ATOM      8  C   UNL d   1       0.452  -0.269  -1.713  0.00  0.00     0.019 C 
ENDBRANCH   1   7
TORSDOF 1
ENDMDL
