MODEL 1
REMARK minimizedAffinity -5.68349552
REMARK minimizedRMSD -1
REMARK  1 active torsions:
REMARK  status: ('A' for Active; 'I' for Inactive)
REMARK    1  A    between atoms: C1_2  and  C2_3 
ROOT
ATOM      1  C2  UNL d   1       0.622  -0.225   0.628  0.00  0.00    -0.077 A 
ATOM      2  C3  UNL d   1       1.502  -0.554   1.668  0.00  0.00     0.002 A 
ATOM      3  C4  UNL d   1       1.223  -0.164   2.979  0.00  0.00     0.002 A 
ATOM      4  C5  UNL d   1       0.062   0.553   3.263  0.00  0.00    -0.004 A 
ATOM      5  C6  UNL d   1      -0.818   0.887   2.235  0.00  0.00     0.002 A 
ATOM      6  C7  UNL d   1      -0.540   0.499   0.923  0.00  0.00     0.002 A 
ENDROOT
BRANCH   1   7
ATOM      7  C1  UNL d   1       0.896  -0.687  -0.779  0.00  0.00     0.055 C 
ATOM      8  C   UNL d   1       0.208  -2.012  -1.071  0.00  0.00     0.019 C 
ENDBRANCH   1   7
TORSDOF 1
ENDMDL
