MODEL 1
REMARK minimizedAffinity 3.31597042
REMARK minimizedRMSD -1
REMARK  0 active torsions:
REMARK  status: ('A' for Active; 'I' for Inactive)
ROOT
ATOM      1  C   UNL d   1      -3.629   0.961  -0.904  0.00  0.00     0.077 C 
ATOM      2  C1  UNL d   1      -2.132   1.054  -0.858  0.00  0.00    -0.074 A 
ATOM      3  C2  UNL d   1      -1.333   0.027  -1.370  0.00  0.00    -0.005 A 
ATOM      4  C3  UNL d   1       0.058   0.132  -1.330  0.00  0.00     0.006 A 
ATOM      5  C4  UNL d   1       0.661   1.262  -0.777  0.00  0.00    -0.005 A 
ATOM      6  C5  UNL d   1      -0.122   2.299  -0.261  0.00  0.00    -0.074 A 
ATOM      7  C6  UNL d   1       0.511   3.525   0.327  0.00  0.00     0.077 C 
ATOM      8  C7  UNL d   1      -1.518   2.190  -0.312  0.00  0.00    -0.001 A 
ENDROOT
TORSDOF 0
ENDMDL
