MODEL 1
REMARK minimizedAffinity 2.28365159
REMARK minimizedRMSD -1
REMARK  0 active torsions:
REMARK  status: ('A' for Active; 'I' for Inactive)
ROOT
ATOM      1  C   UNL d   1      -2.012   5.641  -0.760  0.00  0.00     0.077 C 
ATOM      2  C1  UNL d   1      -1.372   4.521   0.003  0.00  0.00    -0.074 A 
ATOM      3  C2  UNL d   1       0.018   4.359   0.012  0.00  0.00    -0.005 A 
ATOM      4  C3  UNL d   1       0.600   3.318   0.735  0.00  0.00     0.006 A 
ATOM      5  C4  UNL d   1      -0.200   2.428   1.454  0.00  0.00    -0.005 A 
ATOM      6  C5  UNL d   1      -1.591   2.574   1.457  0.00  0.00    -0.074 A 
ATOM      7  C6  UNL d   1      -2.464   1.633   2.232  0.00  0.00     0.077 C 
ATOM      8  C7  UNL d   1      -2.168   3.628   0.734  0.00  0.00    -0.001 A 
ENDROOT
TORSDOF 0
ENDMDL
