MODEL 1
REMARK minimizedAffinity 16.0882683
REMARK minimizedRMSD -1
REMARK  0 active torsions:
REMARK  status: ('A' for Active; 'I' for Inactive)
ROOT
ATOM      1  C   UNL d   1      -2.013   5.499  -0.832  0.00  0.00     0.077 C 
ATOM      2  C1  UNL d   1      -1.010   4.681  -0.075  0.00  0.00    -0.074 A 
ATOM      3  C2  UNL d   1       0.355   4.770  -0.364  0.00  0.00    -0.005 A 
ATOM      4  C3  UNL d   1       1.277   4.009   0.356  0.00  0.00     0.006 A 
ATOM      5  C4  UNL d   1       0.844   3.154   1.369  0.00  0.00    -0.005 A 
ATOM      6  C5  UNL d   1      -0.518   3.053   1.673  0.00  0.00    -0.074 A 
ATOM      7  C6  UNL d   1      -0.999   2.146   2.766  0.00  0.00     0.077 C 
ATOM      8  C7  UNL d   1      -1.437   3.825   0.950  0.00  0.00    -0.001 A 
ENDROOT
TORSDOF 0
ENDMDL
