MODEL 1
REMARK minimizedAffinity 9.4908638
REMARK minimizedRMSD -1
REMARK  0 active torsions:
REMARK  status: ('A' for Active; 'I' for Inactive)
ROOT
ATOM      1  C   UNL d   1      -3.261   1.772  -5.291  0.00  0.00     0.077 C 
ATOM      2  C1  UNL d   1      -2.747   1.028  -4.095  0.00  0.00    -0.074 A 
ATOM      3  C2  UNL d   1      -2.991   1.494  -2.799  0.00  0.00    -0.005 A 
ATOM      4  C3  UNL d   1      -2.514   0.787  -1.695  0.00  0.00     0.006 A 
ATOM      5  C4  UNL d   1      -1.789  -0.392  -1.876  0.00  0.00    -0.005 A 
ATOM      6  C5  UNL d   1      -1.535  -0.873  -3.164  0.00  0.00    -0.074 A 
ATOM      7  C6  UNL d   1      -0.766  -2.143  -3.376  0.00  0.00     0.077 C 
ATOM      8  C7  UNL d   1      -2.024  -0.161  -4.268  0.00  0.00    -0.001 A 
ENDROOT
TORSDOF 0
ENDMDL
