MODEL 1
REMARK minimizedAffinity 11.244462
REMARK minimizedRMSD -1
REMARK  0 active torsions:
REMARK  status: ('A' for Active; 'I' for Inactive)
ROOT
ATOM      1  C   UNL d   1       5.646  -2.060  -2.615  0.00  0.00     0.077 C 
ATOM      2  C1  UNL d   1       5.145  -3.413  -2.204  0.00  0.00    -0.074 A 
ATOM      3  C2  UNL d   1       4.128  -4.051  -2.920  0.00  0.00    -0.005 A 
ATOM      4  C3  UNL d   1       3.679  -5.313  -2.532  0.00  0.00     0.006 A 
ATOM      5  C4  UNL d   1       4.242  -5.949  -1.424  0.00  0.00    -0.005 A 
ATOM      6  C5  UNL d   1       5.261  -5.326  -0.696  0.00  0.00    -0.074 A 
ATOM      7  C6  UNL d   1       5.883  -6.000   0.491  0.00  0.00     0.077 C 
ATOM      8  C7  UNL d   1       5.711  -4.061  -1.097  0.00  0.00    -0.001 A 
ENDROOT
TORSDOF 0
ENDMDL
