MODEL 1
REMARK minimizedAffinity 6.79004288
REMARK minimizedRMSD -1
REMARK  0 active torsions:
REMARK  status: ('A' for Active; 'I' for Inactive)
ROOT
ATOM      1  C   UNL d   1       2.860   5.596   0.941  0.00  0.00     0.077 C 
ATOM      2  C1  UNL d   1       1.558   4.945   0.578  0.00  0.00    -0.074 A 
ATOM      3  C2  UNL d   1       1.389   3.562   0.700  0.00  0.00    -0.005 A 
ATOM      4  C3  UNL d   1       0.170   2.971   0.367  0.00  0.00     0.006 A 
ATOM      5  C4  UNL d   1      -0.890   3.755  -0.089  0.00  0.00    -0.005 A 
ATOM      6  C5  UNL d   1      -0.739   5.140  -0.216  0.00  0.00    -0.074 A 
ATOM      7  C6  UNL d   1      -1.871   5.999  -0.696  0.00  0.00     0.077 C 
ATOM      8  C7  UNL d   1       0.486   5.727   0.126  0.00  0.00    -0.001 A 
ENDROOT
TORSDOF 0
ENDMDL
