MODEL 1
REMARK minimizedAffinity 4.51444435
REMARK minimizedRMSD -1
REMARK  0 active torsions:
REMARK  status: ('A' for Active; 'I' for Inactive)
ROOT
ATOM      1  C   UNL d   1       5.003  -3.491  -4.892  0.00  0.00     0.077 C 
ATOM      2  C1  UNL d   1       4.710  -3.402  -3.424  0.00  0.00    -0.074 A 
ATOM      3  C2  UNL d   1       5.319  -2.428  -2.626  0.00  0.00    -0.005 A 
ATOM      4  C3  UNL d   1       5.029  -2.352  -1.264  0.00  0.00     0.006 A 
ATOM      5  C4  UNL d   1       4.129  -3.248  -0.686  0.00  0.00    -0.005 A 
ATOM      6  C5  UNL d   1       3.509  -4.228  -1.468  0.00  0.00    -0.074 A 
ATOM      7  C6  UNL d   1       2.532  -5.193  -0.864  0.00  0.00     0.077 C 
ATOM      8  C7  UNL d   1       3.800  -4.294  -2.837  0.00  0.00    -0.001 A 
ENDROOT
TORSDOF 0
ENDMDL
