MODEL 1
REMARK minimizedAffinity 6.07197237
REMARK minimizedRMSD -1
REMARK  0 active torsions:
REMARK  status: ('A' for Active; 'I' for Inactive)
ROOT
ATOM      1  C   UNL d   1       0.955  -5.999  -2.622  0.00  0.00     0.077 C 
ATOM      2  C1  UNL d   1       2.392  -5.647  -2.867  0.00  0.00    -0.074 A 
ATOM      3  C2  UNL d   1       2.839  -5.299  -4.145  0.00  0.00    -0.005 A 
ATOM      4  C3  UNL d   1       4.177  -4.965  -4.356  0.00  0.00     0.006 A 
ATOM      5  C4  UNL d   1       5.080  -4.976  -3.292  0.00  0.00    -0.005 A 
ATOM      6  C5  UNL d   1       4.651  -5.321  -2.006  0.00  0.00    -0.074 A 
ATOM      7  C6  UNL d   1       5.606  -5.329  -0.850  0.00  0.00     0.077 C 
ATOM      8  C7  UNL d   1       3.304  -5.649  -1.801  0.00  0.00    -0.001 A 
ENDROOT
TORSDOF 0
ENDMDL
