MODEL 1
REMARK minimizedAffinity 12.4810715
REMARK minimizedRMSD -1
REMARK  0 active torsions:
REMARK  status: ('A' for Active; 'I' for Inactive)
ROOT
ATOM      1  O1  BZF d   1      -0.771   5.913  -3.928  0.00  0.00    -0.204 OA
ATOM      2  C2  BZF d   1       0.599   5.755  -4.020  0.00  0.00     0.174 A 
ATOM      3  C3  BZF d   1       0.980   4.572  -3.496  0.00  0.00    -0.012 A 
ATOM      4  C3A BZF d   1      -0.236   3.912  -3.133  0.00  0.00    -0.107 A 
ATOM      5  C4  BZF d   1      -0.515   2.695  -2.579  0.00  0.00     0.055 A 
ATOM      6  C5  BZF d   1      -1.804   2.383  -2.284  0.00  0.00    -0.016 A 
ATOM      7  C6  BZF d   1      -2.838   3.264  -2.526  0.00  0.00     0.022 A 
ATOM      8  C7  BZF d   1      -2.611   4.480  -3.080  0.00  0.00     0.029 A 
ATOM      9  C7A BZF d   1      -1.313   4.786  -3.409  0.00  0.00     0.058 A 
ENDROOT
TORSDOF 0
ENDMDL
