MODEL 1
REMARK minimizedAffinity 3.52543116
REMARK minimizedRMSD -1
REMARK  0 active torsions:
REMARK  status: ('A' for Active; 'I' for Inactive)
ROOT
ATOM      1  O1  BZF d   1      -2.154   5.008  -3.616  0.00  0.00    -0.204 OA
ATOM      2  C2  BZF d   1      -3.417   4.454  -3.541  0.00  0.00     0.174 A 
ATOM      3  C3  BZF d   1      -3.361   3.198  -3.053  0.00  0.00    -0.012 A 
ATOM      4  C3A BZF d   1      -1.986   2.985  -2.720  0.00  0.00    -0.107 A 
ATOM      5  C4  BZF d   1      -1.303   1.933  -2.179  0.00  0.00     0.055 A 
ATOM      6  C5  BZF d   1       0.047   2.018  -2.051  0.00  0.00    -0.016 A 
ATOM      7  C6  BZF d   1       0.746   3.136  -2.458  0.00  0.00     0.022 A 
ATOM      8  C7  BZF d   1       0.112   4.206  -2.995  0.00  0.00     0.029 A 
ATOM      9  C7A BZF d   1      -1.256   4.136  -3.096  0.00  0.00     0.058 A 
ENDROOT
TORSDOF 0
ENDMDL
