MODEL 1
REMARK minimizedAffinity 7.28176022
REMARK minimizedRMSD -1
REMARK  0 active torsions:
REMARK  status: ('A' for Active; 'I' for Inactive)
ROOT
ATOM      1  O1  BZF d   1       1.425  -4.284   1.192  0.00  0.00    -0.204 OA
ATOM      2  C2  BZF d   1       1.048  -3.104   1.804  0.00  0.00     0.174 A 
ATOM      3  C3  BZF d   1       2.131  -2.403   2.198  0.00  0.00    -0.012 A 
ATOM      4  C3A BZF d   1       3.256  -3.150   1.726  0.00  0.00    -0.107 A 
ATOM      5  C4  BZF d   1       4.606  -2.957   1.793  0.00  0.00     0.055 A 
ATOM      6  C5  BZF d   1       5.435  -3.912   1.296  0.00  0.00    -0.016 A 
ATOM      7  C6  BZF d   1       4.949  -5.073   0.730  0.00  0.00     0.022 A 
ATOM      8  C7  BZF d   1       3.617  -5.306   0.637  0.00  0.00     0.029 A 
ATOM      9  C7A BZF d   1       2.776  -4.328   1.108  0.00  0.00     0.058 A 
ENDROOT
TORSDOF 0
ENDMDL
