MODEL 1
REMARK minimizedAffinity 3.82243943
REMARK minimizedRMSD -1
REMARK  0 active torsions:
REMARK  status: ('A' for Active; 'I' for Inactive)
ROOT
ATOM      1  O1  BZF d   1       1.714  -4.833   1.041  0.00  0.00    -0.204 OA
ATOM      2  C2  BZF d   1       2.827  -4.251   0.464  0.00  0.00     0.174 A 
ATOM      3  C3  BZF d   1       2.856  -2.926   0.710  0.00  0.00    -0.012 A 
ATOM      4  C3A BZF d   1       1.738  -2.677   1.568  0.00  0.00    -0.107 A 
ATOM      5  C4  BZF d   1       1.247  -1.554   2.169  0.00  0.00     0.055 A 
ATOM      6  C5  BZF d   1       0.095  -1.638   2.885  0.00  0.00    -0.016 A 
ATOM      7  C6  BZF d   1      -0.593  -2.826   3.017  0.00  0.00     0.022 A 
ATOM      8  C7  BZF d   1      -0.142  -3.968   2.444  0.00  0.00     0.029 A 
ATOM      9  C7A BZF d   1       1.039  -3.894   1.747  0.00  0.00     0.058 A 
ENDROOT
TORSDOF 0
ENDMDL
