MODEL 1
REMARK minimizedAffinity 13.9426537
REMARK minimizedRMSD -1
REMARK  0 active torsions:
REMARK  status: ('A' for Active; 'I' for Inactive)
ROOT
ATOM      1  O1  BZF d   1      -0.247  -1.475  -0.836  0.00  0.00    -0.204 OA
ATOM      2  C2  BZF d   1       1.133  -1.522  -0.818  0.00  0.00     0.174 A 
ATOM      3  C3  BZF d   1       1.593  -1.583   0.448  0.00  0.00    -0.012 A 
ATOM      4  C3A BZF d   1       0.424  -1.667   1.269  0.00  0.00    -0.107 A 
ATOM      5  C4  BZF d   1       0.229  -1.768   2.617  0.00  0.00     0.055 A 
ATOM      6  C5  BZF d   1      -1.040  -1.755   3.104  0.00  0.00    -0.016 A 
ATOM      7  C6  BZF d   1      -2.135  -1.638   2.273  0.00  0.00     0.022 A 
ATOM      8  C7  BZF d   1      -1.991  -1.540   0.928  0.00  0.00     0.029 A 
ATOM      9  C7A BZF d   1      -0.712  -1.586   0.431  0.00  0.00     0.058 A 
ENDROOT
TORSDOF 0
ENDMDL
