MODEL 1
REMARK minimizedAffinity 9.46708488
REMARK minimizedRMSD -1
REMARK  0 active torsions:
REMARK  status: ('A' for Active; 'I' for Inactive)
ROOT
ATOM      1  O1  BZF d   1       5.896   0.871  -2.125  0.00  0.00    -0.204 OA
ATOM      2  C2  BZF d   1       5.847  -0.365  -1.510  0.00  0.00     0.174 A 
ATOM      3  C3  BZF d   1       5.800  -1.353  -2.426  0.00  0.00    -0.012 A 
ATOM      4  C3A BZF d   1       5.914  -0.698  -3.693  0.00  0.00    -0.107 A 
ATOM      5  C4  BZF d   1       5.946  -1.146  -4.983  0.00  0.00     0.055 A 
ATOM      6  C5  BZF d   1       5.991  -0.241  -5.995  0.00  0.00    -0.016 A 
ATOM      7  C6  BZF d   1       6.000   1.118  -5.755  0.00  0.00     0.022 A 
ATOM      8  C7  BZF d   1       5.974   1.610  -4.493  0.00  0.00     0.029 A 
ATOM      9  C7A BZF d   1       5.962   0.697  -3.466  0.00  0.00     0.058 A 
ENDROOT
TORSDOF 0
ENDMDL
