MODEL 1
REMARK minimizedAffinity 6.63198853
REMARK minimizedRMSD -1
REMARK  0 active torsions:
REMARK  status: ('A' for Active; 'I' for Inactive)
ROOT
ATOM      1  O1  BZF d   1       5.664  -0.342  -4.219  0.00  0.00    -0.204 OA
ATOM      2  C2  BZF d   1       5.795  -0.383  -2.844  0.00  0.00     0.174 A 
ATOM      3  C3  BZF d   1       5.999   0.854  -2.346  0.00  0.00    -0.012 A 
ATOM      4  C3A BZF d   1       5.903   1.733  -3.471  0.00  0.00    -0.107 A 
ATOM      5  C4  BZF d   1       5.999   3.088  -3.615  0.00  0.00     0.055 A 
ATOM      6  C5  BZF d   1       5.930   3.626  -4.860  0.00  0.00    -0.016 A 
ATOM      7  C6  BZF d   1       5.771   2.841  -5.983  0.00  0.00     0.022 A 
ATOM      8  C7  BZF d   1       5.666   1.493  -5.890  0.00  0.00     0.029 A 
ATOM      9  C7A BZF d   1       5.702   0.948  -4.630  0.00  0.00     0.058 A 
ENDROOT
TORSDOF 0
ENDMDL
