MODEL 1
REMARK minimizedAffinity 9.40382099
REMARK minimizedRMSD -1
REMARK  0 active torsions:
REMARK  status: ('A' for Active; 'I' for Inactive)
ROOT
ATOM      1  O1  BZF d   1      -3.268   2.215  -2.531  0.00  0.00    -0.204 OA
ATOM      2  C2  BZF d   1      -3.821   2.895  -3.599  0.00  0.00     0.174 A 
ATOM      3  C3  BZF d   1      -4.555   2.065  -4.367  0.00  0.00    -0.012 A 
ATOM      4  C3A BZF d   1      -4.531   0.805  -3.689  0.00  0.00    -0.107 A 
ATOM      5  C4  BZF d   1      -5.091  -0.413  -3.950  0.00  0.00     0.055 A 
ATOM      6  C5  BZF d   1      -4.813  -1.458  -3.128  0.00  0.00    -0.016 A 
ATOM      7  C6  BZF d   1      -3.976  -1.323  -2.039  0.00  0.00     0.022 A 
ATOM      8  C7  BZF d   1      -3.401  -0.133  -1.737  0.00  0.00     0.029 A 
ATOM      9  C7A BZF d   1      -3.706   0.933  -2.547  0.00  0.00     0.058 A 
ENDROOT
TORSDOF 0
ENDMDL
