MODEL 1
REMARK minimizedAffinity 4.18673706
REMARK minimizedRMSD -1
REMARK  0 active torsions:
REMARK  status: ('A' for Active; 'I' for Inactive)
ROOT
ATOM      1  O1  BZF d   1       5.447   2.310  -5.638  0.00  0.00    -0.204 OA
ATOM      2  C2  BZF d   1       5.903   1.124  -5.096  0.00  0.00     0.174 A 
ATOM      3  C3  BZF d   1       4.874   0.374  -4.652  0.00  0.00    -0.012 A 
ATOM      4  C3A BZF d   1       3.696   1.099  -5.016  0.00  0.00    -0.107 A 
ATOM      5  C4  BZF d   1       2.360   0.859  -4.861  0.00  0.00     0.055 A 
ATOM      6  C5  BZF d   1       1.469   1.802  -5.264  0.00  0.00    -0.016 A 
ATOM      7  C6  BZF d   1       1.877   2.996  -5.821  0.00  0.00     0.022 A 
ATOM      8  C7  BZF d   1       3.190   3.277  -6.000  0.00  0.00     0.029 A 
ATOM      9  C7A BZF d   1       4.093   2.312  -5.624  0.00  0.00     0.058 A 
ENDROOT
TORSDOF 0
ENDMDL
