MODEL 1
REMARK minimizedAffinity -2.04178786
REMARK minimizedRMSD -1
REMARK  0 active torsions:
REMARK  status: ('A' for Active; 'I' for Inactive)
ROOT
ATOM      1  C4' PXY d   1      -0.028   5.952   5.998  0.00  0.00     0.077 C 
ATOM      2  C1' PXY d   1       4.518   2.800   4.323  0.00  0.00     0.077 C 
ATOM      3  C1  PXY d   1       3.332   3.637   4.760  0.00  0.00    -0.082 A 
ATOM      4  C2  PXY d   1       2.454   3.134   5.611  0.00  0.00     0.003 A 
ATOM      5  C3  PXY d   1       1.358   3.866   5.992  0.00  0.00     0.003 A 
ATOM      6  C4  PXY d   1       1.189   5.146   5.537  0.00  0.00    -0.082 A 
ATOM      7  C5  PXY d   1       2.087   5.671   4.677  0.00  0.00     0.003 A 
ATOM      8  C6  PXY d   1       3.170   4.897   4.271  0.00  0.00     0.003 A 
ENDROOT
TORSDOF 0
ENDMDL
