MODEL 1
REMARK minimizedAffinity 2.11114693
REMARK minimizedRMSD -1
REMARK  0 active torsions:
REMARK  status: ('A' for Active; 'I' for Inactive)
ROOT
ATOM      1  C4' PXY d   1       3.001   0.242   6.000  0.00  0.00     0.077 C 
ATOM      2  C1' PXY d   1       3.908   5.950   5.973  0.00  0.00     0.077 C 
ATOM      3  C1  PXY d   1       3.659   4.455   5.985  0.00  0.00    -0.082 A 
ATOM      4  C2  PXY d   1       4.685   3.620   6.000  0.00  0.00     0.003 A 
ATOM      5  C3  PXY d   1       4.477   2.265   5.979  0.00  0.00     0.003 A 
ATOM      6  C4  PXY d   1       3.205   1.759   5.996  0.00  0.00    -0.082 A 
ATOM      7  C5  PXY d   1       2.153   2.604   5.992  0.00  0.00     0.003 A 
ATOM      8  C6  PXY d   1       2.385   3.976   5.972  0.00  0.00     0.003 A 
ENDROOT
TORSDOF 0
ENDMDL
