MODEL 1
REMARK minimizedAffinity 10.2898769
REMARK minimizedRMSD -1
REMARK  0 active torsions:
REMARK  status: ('A' for Active; 'I' for Inactive)
ROOT
ATOM      1  C4' PXY d   1       5.998   3.335   1.117  0.00  0.00     0.077 C 
ATOM      2  C1' PXY d   1       1.688  -0.181  -0.457  0.00  0.00     0.077 C 
ATOM      3  C1  PXY d   1       2.810   0.747  -0.035  0.00  0.00    -0.082 A 
ATOM      4  C2  PXY d   1       3.792   1.012  -0.882  0.00  0.00     0.003 A 
ATOM      5  C3  PXY d   1       4.832   1.823  -0.505  0.00  0.00     0.003 A 
ATOM      6  C4  PXY d   1       4.839   2.412   0.731  0.00  0.00    -0.082 A 
ATOM      7  C5  PXY d   1       3.835   2.154   1.596  0.00  0.00     0.003 A 
ATOM      8  C6  PXY d   1       2.810   1.295   1.210  0.00  0.00     0.003 A 
ENDROOT
TORSDOF 0
ENDMDL
