MODEL 1
REMARK minimizedAffinity 7.73259068
REMARK minimizedRMSD -1
REMARK  0 active torsions:
REMARK  status: ('A' for Active; 'I' for Inactive)
ROOT
ATOM      1  C4' PXY d   1       4.991   1.533  -2.102  0.00  0.00     0.077 C 
ATOM      2  C1' PXY d   1       2.174  -3.334  -0.767  0.00  0.00     0.077 C 
ATOM      3  C1  PXY d   1       2.910  -2.053  -1.105  0.00  0.00    -0.082 A 
ATOM      4  C2  PXY d   1       3.098  -1.722  -2.372  0.00  0.00     0.003 A 
ATOM      5  C3  PXY d   1       3.789  -0.583  -2.697  0.00  0.00     0.003 A 
ATOM      6  C4  PXY d   1       4.246   0.254  -1.714  0.00  0.00    -0.082 A 
ATOM      7  C5  PXY d   1       4.048  -0.071  -0.418  0.00  0.00     0.003 A 
ATOM      8  C6  PXY d   1       3.380  -1.253  -0.110  0.00  0.00     0.003 A 
ENDROOT
TORSDOF 0
ENDMDL
