MODEL 1
REMARK minimizedAffinity 4.36571121
REMARK minimizedRMSD -1
REMARK  0 active torsions:
REMARK  status: ('A' for Active; 'I' for Inactive)
ROOT
ATOM      1  C4' PXY d   1      -0.414   1.639  -1.019  0.00  0.00     0.077 C 
ATOM      2  C1' PXY d   1      -5.853   0.218   0.327  0.00  0.00     0.077 C 
ATOM      3  C1  PXY d   1      -4.425   0.579  -0.032  0.00  0.00    -0.082 A 
ATOM      4  C2  PXY d   1      -3.793   1.513   0.661  0.00  0.00     0.003 A 
ATOM      5  C3  PXY d   1      -2.512   1.874   0.330  0.00  0.00     0.003 A 
ATOM      6  C4  PXY d   1      -1.853   1.235  -0.687  0.00  0.00    -0.082 A 
ATOM      7  C5  PXY d   1      -2.488   0.274  -1.391  0.00  0.00     0.003 A 
ATOM      8  C6  PXY d   1      -3.802  -0.049  -1.065  0.00  0.00     0.003 A 
ENDROOT
TORSDOF 0
ENDMDL
