MODEL 1
REMARK minimizedAffinity -2.78587747
REMARK minimizedRMSD -1
REMARK  0 active torsions:
REMARK  status: ('A' for Active; 'I' for Inactive)
ROOT
ATOM      1  C4' PXY d   1       2.997   0.832   5.877  0.00  0.00     0.077 C 
ATOM      2  C1' PXY d   1       3.716   5.999   3.386  0.00  0.00     0.077 C 
ATOM      3  C1  PXY d   1       3.529   4.649   4.051  0.00  0.00    -0.082 A 
ATOM      4  C2  PXY d   1       3.807   3.544   3.378  0.00  0.00     0.003 A 
ATOM      5  C3  PXY d   1       3.613   2.315   3.954  0.00  0.00     0.003 A 
ATOM      6  C4  PXY d   1       3.180   2.217   5.249  0.00  0.00    -0.082 A 
ATOM      7  C5  PXY d   1       2.905   3.340   5.945  0.00  0.00     0.003 A 
ATOM      8  C6  PXY d   1       3.069   4.577   5.329  0.00  0.00     0.003 A 
ENDROOT
TORSDOF 0
ENDMDL
