MODEL 1
REMARK minimizedAffinity -0.27022776
REMARK minimizedRMSD -1
REMARK  0 active torsions:
REMARK  status: ('A' for Active; 'I' for Inactive)
ROOT
ATOM      1  C4' PXY d   1      -4.148   1.140   1.119  0.00  0.00     0.077 C 
ATOM      2  C1' PXY d   1      -0.993   4.366   4.732  0.00  0.00     0.077 C 
ATOM      3  C1  PXY d   1      -1.829   3.518   3.794  0.00  0.00    -0.082 A 
ATOM      4  C2  PXY d   1      -1.258   2.941   2.749  0.00  0.00     0.003 A 
ATOM      5  C3  PXY d   1      -2.005   2.197   1.873  0.00  0.00     0.003 A 
ATOM      6  C4  PXY d   1      -3.341   1.997   2.098  0.00  0.00    -0.082 A 
ATOM      7  C5  PXY d   1      -3.929   2.574   3.167  0.00  0.00     0.003 A 
ATOM      8  C6  PXY d   1      -3.161   3.359   4.022  0.00  0.00     0.003 A 
ENDROOT
TORSDOF 0
ENDMDL
