MODEL 1
REMARK minimizedAffinity -1.86317503
REMARK minimizedRMSD -1
REMARK  0 active torsions:
REMARK  status: ('A' for Active; 'I' for Inactive)
ROOT
ATOM      1  C4' PXY d   1       0.282   4.880   4.546  0.00  0.00     0.077 C 
ATOM      2  C1' PXY d   1       5.877   4.882   5.998  0.00  0.00     0.077 C 
ATOM      3  C1  PXY d   1       4.412   4.870   5.610  0.00  0.00    -0.082 A 
ATOM      4  C2  PXY d   1       3.720   5.998   5.636  0.00  0.00     0.003 A 
ATOM      5  C3  PXY d   1       2.386   6.000   5.319  0.00  0.00     0.003 A 
ATOM      6  C4  PXY d   1       1.766   4.845   4.921  0.00  0.00    -0.082 A 
ATOM      7  C5  PXY d   1       2.468   3.693   4.882  0.00  0.00     0.003 A 
ATOM      8  C6  PXY d   1       3.811   3.705   5.247  0.00  0.00     0.003 A 
ENDROOT
TORSDOF 0
ENDMDL
