MODEL 1
REMARK minimizedAffinity 6.05229282
REMARK minimizedRMSD -1
REMARK  1 active torsions:
REMARK  status: ('A' for Active; 'I' for Inactive)
REMARK    1  A    between atoms: C1_2  and  C2_3 
ROOT
ATOM      1  C2  UNL d   1       0.965   0.675   4.336  0.00  0.00    -0.077 A 
ATOM      2  C3  UNL d   1       1.791  -0.419   4.043  0.00  0.00     0.002 A 
ATOM      3  C4  UNL d   1       1.572  -1.182   2.894  0.00  0.00     0.002 A 
ATOM      4  C5  UNL d   1       0.531  -0.857   2.028  0.00  0.00    -0.004 A 
ATOM      5  C6  UNL d   1      -0.298   0.228   2.311  0.00  0.00     0.002 A 
ATOM      6  C7  UNL d   1      -0.081   0.991   3.459  0.00  0.00     0.002 A 
ENDROOT
BRANCH   1   7
ATOM      7  C1  UNL d   1       1.229   1.529   5.548  0.00  0.00     0.055 C 
ATOM      8  C   UNL d   1      -0.028   2.261   5.995  0.00  0.00     0.019 C 
ENDBRANCH   1   7
TORSDOF 1
ENDMDL
