MODEL 1
REMARK minimizedAffinity 6.20843077
REMARK minimizedRMSD -1
REMARK  1 active torsions:
REMARK  status: ('A' for Active; 'I' for Inactive)
REMARK    1  A    between atoms: C1_2  and  C2_3 
ROOT
ATOM      1  C2  UNL d   1       0.238   0.548   3.740  0.00  0.00    -0.077 A 
ATOM      2  C3  UNL d   1       0.232   0.383   2.348  0.00  0.00     0.002 A 
ATOM      3  C4  UNL d   1       0.618  -0.832   1.779  0.00  0.00     0.002 A 
ATOM      4  C5  UNL d   1       1.008  -1.893   2.594  0.00  0.00    -0.004 A 
ATOM      5  C6  UNL d   1       1.020  -1.738   3.980  0.00  0.00     0.002 A 
ATOM      6  C7  UNL d   1       0.635  -0.524   4.550  0.00  0.00     0.002 A 
ENDROOT
BRANCH   1   7
ATOM      7  C1  UNL d   1      -0.225   1.841   4.357  0.00  0.00     0.055 C 
ATOM      8  C   UNL d   1       0.543   2.151   5.634  0.00  0.00     0.019 C 
ENDBRANCH   1   7
TORSDOF 1
ENDMDL
