MODEL 1
REMARK minimizedAffinity 13.3713074
REMARK minimizedRMSD -1
REMARK  1 active torsions:
REMARK  status: ('A' for Active; 'I' for Inactive)
REMARK    1  A    between atoms: C1_2  and  C2_3 
ROOT
ATOM      1  C2  UNL d   1      -0.448   1.213   3.738  0.00  0.00    -0.077 A 
ATOM      2  C3  UNL d   1       0.144   1.060   4.999  0.00  0.00     0.002 A 
ATOM      3  C4  UNL d   1      -0.067   2.012   5.999  0.00  0.00     0.002 A 
ATOM      4  C5  UNL d   1      -0.872   3.121   5.748  0.00  0.00    -0.004 A 
ATOM      5  C6  UNL d   1      -1.463   3.284   4.496  0.00  0.00     0.002 A 
ATOM      6  C7  UNL d   1      -1.253   2.334   3.495  0.00  0.00     0.002 A 
ENDROOT
BRANCH   1   7
ATOM      7  C1  UNL d   1      -0.262   0.163   2.674  0.00  0.00     0.055 C 
ATOM      8  C   UNL d   1       0.190  -1.160   3.276  0.00  0.00     0.019 C 
ENDBRANCH   1   7
TORSDOF 1
ENDMDL
