MODEL 1
REMARK minimizedAffinity 5.68634272
REMARK minimizedRMSD -1
REMARK  1 active torsions:
REMARK  status: ('A' for Active; 'I' for Inactive)
REMARK    1  A    between atoms: C1_2  and  C2_3 
ROOT
ATOM      1  C2  UNL d   1       0.875   0.677   4.505  0.00  0.00    -0.077 A 
ATOM      2  C3  UNL d   1      -0.284   0.886   3.744  0.00  0.00     0.002 A 
ATOM      3  C4  UNL d   1      -0.546   0.092   2.626  0.00  0.00     0.002 A 
ATOM      4  C5  UNL d   1       0.342  -0.918   2.262  0.00  0.00    -0.004 A 
ATOM      5  C6  UNL d   1       1.498  -1.132   3.012  0.00  0.00     0.002 A 
ATOM      6  C7  UNL d   1       1.763  -0.338   4.129  0.00  0.00     0.002 A 
ENDROOT
BRANCH   1   7
ATOM      7  C1  UNL d   1       1.136   1.500   5.740  0.00  0.00     0.055 C 
ATOM      8  C   UNL d   1       0.003   2.482   6.000  0.00  0.00     0.019 C 
ENDBRANCH   1   7
TORSDOF 1
ENDMDL
