MODEL 1
REMARK minimizedAffinity 7.19470119
REMARK minimizedRMSD -1
REMARK  1 active torsions:
REMARK  status: ('A' for Active; 'I' for Inactive)
REMARK    1  A    between atoms: C1_2  and  C2_3 
ROOT
ATOM      1  C2  UNL d   1       1.200  -1.823   4.381  0.00  0.00    -0.077 A 
ATOM      2  C3  UNL d   1       0.372  -1.890   3.252  0.00  0.00     0.002 A 
ATOM      3  C4  UNL d   1       0.357  -0.848   2.324  0.00  0.00     0.002 A 
ATOM      4  C5  UNL d   1       1.170   0.267   2.513  0.00  0.00    -0.004 A 
ATOM      5  C6  UNL d   1       1.996   0.345   3.633  0.00  0.00     0.002 A 
ATOM      6  C7  UNL d   1       2.012  -0.695   4.563  0.00  0.00     0.002 A 
ENDROOT
BRANCH   1   7
ATOM      7  C1  UNL d   1       1.255  -2.968   5.358  0.00  0.00     0.055 C 
ATOM      8  C   UNL d   1       2.652  -3.136   5.937  0.00  0.00     0.019 C 
ENDBRANCH   1   7
TORSDOF 1
ENDMDL
