MODEL 1
REMARK minimizedAffinity 2.95910525
REMARK minimizedRMSD -1
REMARK  1 active torsions:
REMARK  status: ('A' for Active; 'I' for Inactive)
REMARK    1  A    between atoms: N_2  and  C1_3 
ROOT
ATOM      1  C1  UNL d   1       2.723  -1.258   0.451  0.00  0.00     0.143 A 
ATOM      2  C2  UNL d   1       3.827  -1.121   1.300  0.00  0.00    -0.057 A 
ATOM      3  C3  UNL d   1       4.487   0.106   1.440  0.00  0.00     0.033 A 
ATOM      4  C4  UNL d   1       4.071   1.214   0.710  0.00  0.00    -0.042 A 
ATOM      5  C5  UNL d   1       2.992   1.095  -0.159  0.00  0.00     0.033 A 
ATOM      6  C6  UNL d   1       2.333  -0.131  -0.290  0.00  0.00    -0.057 A 
ENDROOT
BRANCH   1   7
ATOM      7  N   UNL d   1       2.087  -2.474   0.194  0.00  0.00    -0.732 N 
ATOM      8  C   UNL d   1       1.705  -2.836  -1.155  0.00  0.00     0.284 C 
ATOM      9  H3  UNL d   1       2.481  -3.241   0.734  0.00  0.00     0.395 HD
ENDBRANCH   1   7
TORSDOF 1
ENDMDL
