MODEL 1
REMARK minimizedAffinity 5.70407391
REMARK minimizedRMSD -1
REMARK  1 active torsions:
REMARK  status: ('A' for Active; 'I' for Inactive)
REMARK    1  A    between atoms: N_2  and  C1_3 
ROOT
ATOM      1  C1  UNL d   1       1.777  -0.893  -0.033  0.00  0.00     0.143 A 
ATOM      2  C2  UNL d   1       1.349   0.378   0.362  0.00  0.00    -0.057 A 
ATOM      3  C3  UNL d   1      -0.013   0.679   0.487  0.00  0.00     0.033 A 
ATOM      4  C4  UNL d   1      -0.974  -0.282   0.190  0.00  0.00    -0.042 A 
ATOM      5  C5  UNL d   1      -0.571  -1.545  -0.229  0.00  0.00     0.033 A 
ATOM      6  C6  UNL d   1       0.790  -1.841  -0.346  0.00  0.00    -0.057 A 
ENDROOT
BRANCH   1   7
ATOM      7  N   UNL d   1       3.114  -1.225  -0.271  0.00  0.00    -0.732 N 
ATOM      8  C   UNL d   1       3.966  -0.342  -1.038  0.00  0.00     0.284 C 
ATOM      9  H3  UNL d   1       3.564  -1.632   0.545  0.00  0.00     0.395 HD
ENDBRANCH   1   7
TORSDOF 1
ENDMDL
