MODEL 1
REMARK minimizedAffinity 4.32283354
REMARK minimizedRMSD -1
REMARK  1 active torsions:
REMARK  status: ('A' for Active; 'I' for Inactive)
REMARK    1  A    between atoms: N_2  and  C1_3 
ROOT
ATOM      1  C1  UNL d   1       3.116  -0.513  -0.783  0.00  0.00     0.143 A 
ATOM      2  C2  UNL d   1       2.506  -1.416   0.095  0.00  0.00    -0.057 A 
ATOM      3  C3  UNL d   1       2.321  -2.758  -0.258  0.00  0.00     0.033 A 
ATOM      4  C4  UNL d   1       2.717  -3.216  -1.510  0.00  0.00    -0.042 A 
ATOM      5  C5  UNL d   1       3.303  -2.330  -2.408  0.00  0.00     0.033 A 
ATOM      6  C6  UNL d   1       3.491  -0.992  -2.047  0.00  0.00    -0.057 A 
ENDROOT
BRANCH   1   7
ATOM      7  N   UNL d   1       3.239   0.855  -0.529  0.00  0.00    -0.732 N 
ATOM      8  C   UNL d   1       4.446   1.567  -0.892  0.00  0.00     0.284 C 
ATOM      9  H3  UNL d   1       2.381   1.365  -0.725  0.00  0.00     0.395 HD
ENDBRANCH   1   7
TORSDOF 1
ENDMDL
