MODEL 1
REMARK minimizedAffinity -1.87929249
REMARK minimizedRMSD -1
REMARK  1 active torsions:
REMARK  status: ('A' for Active; 'I' for Inactive)
REMARK    1  A    between atoms: N_2  and  C1_3 
ROOT
ATOM      1  C1  UNL d   1       2.919   2.456   0.731  0.00  0.00     0.143 A 
ATOM      2  C2  UNL d   1       3.198   3.025   1.978  0.00  0.00    -0.057 A 
ATOM      3  C3  UNL d   1       2.255   3.004   3.013  0.00  0.00     0.033 A 
ATOM      4  C4  UNL d   1       1.001   2.437   2.808  0.00  0.00    -0.042 A 
ATOM      5  C5  UNL d   1       0.693   1.888   1.569  0.00  0.00     0.033 A 
ATOM      6  C6  UNL d   1       1.641   1.906   0.542  0.00  0.00    -0.057 A 
ENDROOT
BRANCH   1   7
ATOM      7  N   UNL d   1       3.778   2.532  -0.368  0.00  0.00    -0.732 N 
ATOM      8  C   UNL d   1       4.275   1.329  -1.001  0.00  0.00     0.284 C 
ATOM      9  H3  UNL d   1       3.508   3.264  -1.022  0.00  0.00     0.395 HD
ENDBRANCH   1   7
TORSDOF 1
ENDMDL
