MODEL 1
REMARK minimizedAffinity 2.34604454
REMARK minimizedRMSD -1
REMARK  1 active torsions:
REMARK  status: ('A' for Active; 'I' for Inactive)
REMARK    1  A    between atoms: N_2  and  C1_3 
ROOT
ATOM      1  C1  UNL d   1       0.515  -0.167  -0.646  0.00  0.00     0.143 A 
ATOM      2  C2  UNL d   1       1.748  -0.814  -0.780  0.00  0.00    -0.057 A 
ATOM      3  C3  UNL d   1       1.840  -2.211  -0.782  0.00  0.00     0.033 A 
ATOM      4  C4  UNL d   1       0.698  -2.989  -0.620  0.00  0.00    -0.042 A 
ATOM      5  C5  UNL d   1      -0.536  -2.367  -0.461  0.00  0.00     0.033 A 
ATOM      6  C6  UNL d   1      -0.621  -0.972  -0.467  0.00  0.00    -0.057 A 
ENDROOT
BRANCH   1   7
ATOM      7  N   UNL d   1       0.370   1.218  -0.538  0.00  0.00    -0.732 N 
ATOM      8  C   UNL d   1       1.227   1.982   0.343  0.00  0.00     0.284 C 
ATOM      9  H3  UNL d   1       0.197   1.662  -1.437  0.00  0.00     0.395 HD
ENDBRANCH   1   7
TORSDOF 1
ENDMDL
