MODEL 1
REMARK minimizedAffinity -1.4671973
REMARK minimizedRMSD -1
REMARK  1 active torsions:
REMARK  status: ('A' for Active; 'I' for Inactive)
REMARK    1  A    between atoms: N_2  and  C1_3 
ROOT
ATOM      1  C1  UNL d   1       1.423   1.708   0.602  0.00  0.00     0.143 A 
ATOM      2  C2  UNL d   1       0.130   2.110   0.250  0.00  0.00    -0.057 A 
ATOM      3  C3  UNL d   1      -0.710   2.745   1.173  0.00  0.00     0.033 A 
ATOM      4  C4  UNL d   1      -0.280   2.964   2.478  0.00  0.00    -0.042 A 
ATOM      5  C5  UNL d   1       0.993   2.551   2.857  0.00  0.00     0.033 A 
ATOM      6  C6  UNL d   1       1.829   1.923   1.929  0.00  0.00    -0.057 A 
ENDROOT
BRANCH   1   7
ATOM      7  N   UNL d   1       2.269   0.984  -0.241  0.00  0.00    -0.732 N 
ATOM      8  C   UNL d   1       3.631   1.417  -0.468  0.00  0.00     0.284 C 
ATOM      9  H3  UNL d   1       2.167  -0.022  -0.123  0.00  0.00     0.395 HD
ENDBRANCH   1   7
TORSDOF 1
ENDMDL
