MODEL 1
REMARK minimizedAffinity 1.53123021
REMARK minimizedRMSD -1
REMARK  1 active torsions:
REMARK  status: ('A' for Active; 'I' for Inactive)
REMARK    1  A    between atoms: C1_2  and  C2_3 
ROOT
ATOM      1  C2  UNL d   1       1.643  -1.690   0.304  0.00  0.00    -0.073 A 
ATOM      2  C3  UNL d   1       0.390  -1.665   0.928  0.00  0.00    -0.002 A 
ATOM      3  C4  UNL d   1      -0.028  -0.531   1.625  0.00  0.00     0.004 A 
ATOM      4  C5  UNL d   1       0.798   0.591   1.700  0.00  0.00    -0.004 A 
ATOM      5  C6  UNL d   1       2.048   0.590   1.074  0.00  0.00    -0.075 A 
ATOM      6  C7  UNL d   1       2.949   1.787   1.147  0.00  0.00     0.076 C 
ATOM      7  C8  UNL d   1       2.462  -0.554   0.377  0.00  0.00     0.001 A 
ENDROOT
BRANCH   1   8
ATOM      8  C1  UNL d   1       2.095  -2.910  -0.456  0.00  0.00     0.053 C 
ATOM      9  C   UNL d   1       3.211  -3.649   0.266  0.00  0.00     0.018 C 
ENDBRANCH   1   8
TORSDOF 1
ENDMDL
