MODEL 1
REMARK minimizedAffinity -1.07505298
REMARK minimizedRMSD -1
REMARK  1 active torsions:
REMARK  status: ('A' for Active; 'I' for Inactive)
REMARK    1  A    between atoms: C1_2  and  C2_3 
ROOT
ATOM      1  C2  UNL d   1       2.348  -3.448   0.527  0.00  0.00    -0.073 A 
ATOM      2  C3  UNL d   1       2.800  -2.620  -0.506  0.00  0.00    -0.002 A 
ATOM      3  C4  UNL d   1       2.200  -1.379  -0.729  0.00  0.00     0.004 A 
ATOM      4  C5  UNL d   1       1.149  -0.953   0.083  0.00  0.00    -0.004 A 
ATOM      5  C6  UNL d   1       0.691  -1.761   1.128  0.00  0.00    -0.075 A 
ATOM      6  C7  UNL d   1      -0.440  -1.318   2.008  0.00  0.00     0.076 C 
ATOM      7  C8  UNL d   1       1.297  -3.007   1.343  0.00  0.00     0.001 A 
ENDROOT
BRANCH   1   8
ATOM      8  C1  UNL d   1       2.997  -4.786   0.775  0.00  0.00     0.053 C 
ATOM      9  C   UNL d   1       4.061  -5.104  -0.264  0.00  0.00     0.018 C 
ENDBRANCH   1   8
TORSDOF 1
ENDMDL
