MODEL 1
REMARK minimizedAffinity -1.26552439
REMARK minimizedRMSD -1
REMARK  1 active torsions:
REMARK  status: ('A' for Active; 'I' for Inactive)
REMARK    1  A    between atoms: C1_2  and  C2_3 
ROOT
ATOM      1  C2  UNL d   1       0.219  -1.611   1.065  0.00  0.00    -0.073 A 
ATOM      2  C3  UNL d   1      -0.630  -2.179   2.022  0.00  0.00    -0.002 A 
ATOM      3  C4  UNL d   1      -0.415  -3.484   2.469  0.00  0.00     0.004 A 
ATOM      4  C5  UNL d   1       0.652  -4.230   1.969  0.00  0.00    -0.004 A 
ATOM      5  C6  UNL d   1       1.517  -3.676   1.021  0.00  0.00    -0.075 A 
ATOM      6  C7  UNL d   1       2.669  -4.467   0.472  0.00  0.00     0.076 C 
ATOM      7  C8  UNL d   1       1.294  -2.367   0.575  0.00  0.00     0.001 A 
ENDROOT
BRANCH   1   8
ATOM      8  C1  UNL d   1      -0.005  -0.201   0.584  0.00  0.00     0.053 C 
ATOM      9  C   UNL d   1      -1.458   0.051   0.213  0.00  0.00     0.018 C 
ENDBRANCH   1   8
TORSDOF 1
ENDMDL
