MODEL 1
REMARK minimizedAffinity -0.251975685
REMARK minimizedRMSD -1
REMARK  1 active torsions:
REMARK  status: ('A' for Active; 'I' for Inactive)
REMARK    1  A    between atoms: C1_2  and  C2_3 
ROOT
ATOM      1  C2  UNL d   1      -4.150   0.096  -4.885  0.00  0.00    -0.073 A 
ATOM      2  C3  UNL d   1      -4.347  -0.728  -5.999  0.00  0.00    -0.002 A 
ATOM      3  C4  UNL d   1      -3.937  -2.061  -5.971  0.00  0.00     0.004 A 
ATOM      4  C5  UNL d   1      -3.335  -2.587  -4.828  0.00  0.00    -0.004 A 
ATOM      5  C6  UNL d   1      -3.141  -1.783  -3.700  0.00  0.00    -0.075 A 
ATOM      6  C7  UNL d   1      -2.492  -2.332  -2.463  0.00  0.00     0.076 C 
ATOM      7  C8  UNL d   1      -3.552  -0.444  -3.737  0.00  0.00     0.001 A 
ENDROOT
BRANCH   1   8
ATOM      8  C1  UNL d   1      -4.597   1.535  -4.908  0.00  0.00     0.053 C 
ATOM      9  C   UNL d   1      -4.404   2.214  -3.561  0.00  0.00     0.018 C 
ENDBRANCH   1   8
TORSDOF 1
ENDMDL
