MODEL 1
REMARK minimizedAffinity 1.80418622
REMARK minimizedRMSD -1
REMARK  1 active torsions:
REMARK  status: ('A' for Active; 'I' for Inactive)
REMARK    1  A    between atoms: C1_2  and  C2_3 
ROOT
ATOM      1  C2  UNL d   1       1.927  -3.310   0.838  0.00  0.00    -0.073 A 
ATOM      2  C3  UNL d   1       1.295  -4.509   1.186  0.00  0.00    -0.002 A 
ATOM      3  C4  UNL d   1       0.103  -4.493   1.911  0.00  0.00     0.004 A 
ATOM      4  C5  UNL d   1      -0.473  -3.280   2.289  0.00  0.00    -0.004 A 
ATOM      5  C6  UNL d   1       0.138  -2.071   1.940  0.00  0.00    -0.075 A 
ATOM      6  C7  UNL d   1      -0.467  -0.757   2.341  0.00  0.00     0.076 C 
ATOM      7  C8  UNL d   1       1.336  -2.095   1.214  0.00  0.00     0.001 A 
ENDROOT
BRANCH   1   8
ATOM      8  C1  UNL d   1       3.211  -3.323   0.049  0.00  0.00     0.053 C 
ATOM      9  C   UNL d   1       3.625  -4.732  -0.344  0.00  0.00     0.018 C 
ENDBRANCH   1   8
TORSDOF 1
ENDMDL
