MODEL 1
REMARK minimizedAffinity -0.0330790356
REMARK minimizedRMSD -1
REMARK  1 active torsions:
REMARK  status: ('A' for Active; 'I' for Inactive)
REMARK    1  A    between atoms: C3_4  and  O_7 
ROOT
ATOM      1  C   UNL d   1      -6.000   3.715  -2.777  0.00  0.00    -0.033 A 
ATOM      2  C1  UNL d   1      -5.957   5.095  -2.567  0.00  0.00     0.039 A 
ATOM      3  C2  UNL d   1      -5.035   5.880  -3.260  0.00  0.00    -0.080 A 
ATOM      4  C3  UNL d   1      -4.163   5.275  -4.161  0.00  0.00     0.150 A 
ATOM      5  C4  UNL d   1      -4.202   3.902  -4.378  0.00  0.00    -0.007 A 
ATOM      6  C5  UNL d   1      -5.123   3.119  -3.684  0.00  0.00     0.039 A 
ENDROOT
BRANCH   4   7
ATOM      7  O   UNL d   1      -3.242   6.000  -4.858  0.00  0.00    -0.526 OA
ATOM      8  H5  UNL d   1      -3.311   6.930  -4.584  0.00  0.00     0.418 HD
ENDBRANCH   4   7
TORSDOF 1
ENDMDL
