MODEL 1
REMARK minimizedAffinity 0.552696705
REMARK minimizedRMSD -1
REMARK  1 active torsions:
REMARK  status: ('A' for Active; 'I' for Inactive)
REMARK    1  A    between atoms: C3_4  and  O_7 
ROOT
ATOM      1  C   UNL d   1      -4.871   5.997  -4.521  0.00  0.00    -0.033 A 
ATOM      2  C1  UNL d   1      -5.807   5.302  -3.753  0.00  0.00     0.039 A 
ATOM      3  C2  UNL d   1      -6.000   3.934  -3.953  0.00  0.00    -0.080 A 
ATOM      4  C3  UNL d   1      -5.251   3.273  -4.922  0.00  0.00     0.150 A 
ATOM      5  C4  UNL d   1      -4.314   3.958  -5.689  0.00  0.00    -0.007 A 
ATOM      6  C5  UNL d   1      -4.123   5.324  -5.489  0.00  0.00     0.039 A 
ENDROOT
BRANCH   4   7
ATOM      7  O   UNL d   1      -5.408   1.939  -5.157  0.00  0.00    -0.526 OA
ATOM      8  H5  UNL d   1      -6.109   1.604  -4.573  0.00  0.00     0.418 HD
ENDBRANCH   4   7
TORSDOF 1
ENDMDL
