MODEL 1
REMARK minimizedAffinity 2.14221334
REMARK minimizedRMSD -1
REMARK  1 active torsions:
REMARK  status: ('A' for Active; 'I' for Inactive)
REMARK    1  A    between atoms: C3_4  and  O_7 
ROOT
ATOM      1  C   UNL d   1      -0.885   5.049  -2.266  0.00  0.00    -0.033 A 
ATOM      2  C1  UNL d   1      -1.958   4.687  -1.449  0.00  0.00     0.039 A 
ATOM      3  C2  UNL d   1      -1.732   3.973  -0.271  0.00  0.00    -0.080 A 
ATOM      4  C3  UNL d   1      -0.429   3.629   0.080  0.00  0.00     0.150 A 
ATOM      5  C4  UNL d   1       0.645   3.990  -0.727  0.00  0.00    -0.007 A 
ATOM      6  C5  UNL d   1       0.417   4.702  -1.904  0.00  0.00     0.039 A 
ENDROOT
BRANCH   4   7
ATOM      7  O   UNL d   1      -0.159   2.928   1.218  0.00  0.00    -0.526 OA
ATOM      8  H5  UNL d   1      -1.000   2.724   1.660  0.00  0.00     0.418 HD
ENDBRANCH   4   7
TORSDOF 1
ENDMDL
