MODEL 1
REMARK minimizedAffinity 1.51154923
REMARK minimizedRMSD -1
REMARK  1 active torsions:
REMARK  status: ('A' for Active; 'I' for Inactive)
REMARK    1  A    between atoms: C3_4  and  O_7 
ROOT
ATOM      1  C   UNL d   1      -5.997   0.899  -3.640  0.00  0.00    -0.033 A 
ATOM      2  C1  UNL d   1      -5.979   0.768  -5.030  0.00  0.00     0.039 A 
ATOM      3  C2  UNL d   1      -5.968   1.905  -5.840  0.00  0.00    -0.080 A 
ATOM      4  C3  UNL d   1      -5.975   3.165  -5.249  0.00  0.00     0.150 A 
ATOM      5  C4  UNL d   1      -5.988   3.303  -3.865  0.00  0.00    -0.007 A 
ATOM      6  C5  UNL d   1      -6.000   2.166  -3.058  0.00  0.00     0.039 A 
ENDROOT
BRANCH   4   7
ATOM      7  O   UNL d   1      -5.969   4.304  -5.999  0.00  0.00    -0.526 OA
ATOM      8  H5  UNL d   1      -5.989   4.054  -6.938  0.00  0.00     0.418 HD
ENDBRANCH   4   7
TORSDOF 1
ENDMDL
