MODEL 1
REMARK minimizedAffinity 1.53899014
REMARK minimizedRMSD -1
REMARK  1 active torsions:
REMARK  status: ('A' for Active; 'I' for Inactive)
REMARK    1  A    between atoms: C3_4  and  O_7 
ROOT
ATOM      1  C   UNL d   1       1.463   2.511   2.864  0.00  0.00    -0.033 A 
ATOM      2  C1  UNL d   1       2.455   3.181   2.145  0.00  0.00     0.039 A 
ATOM      3  C2  UNL d   1       2.233   3.540   0.814  0.00  0.00    -0.080 A 
ATOM      4  C3  UNL d   1       1.017   3.224   0.215  0.00  0.00     0.150 A 
ATOM      5  C4  UNL d   1       0.023   2.560   0.926  0.00  0.00    -0.007 A 
ATOM      6  C5  UNL d   1       0.247   2.201   2.255  0.00  0.00     0.039 A 
ENDROOT
BRANCH   4   7
ATOM      7  O   UNL d   1       0.756   3.549  -1.083  0.00  0.00    -0.526 OA
ATOM      8  H5  UNL d   1       1.544   3.978  -1.457  0.00  0.00     0.418 HD
ENDBRANCH   4   7
TORSDOF 1
ENDMDL
