MODEL 1
REMARK minimizedAffinity 2.49408865
REMARK minimizedRMSD -1
REMARK  1 active torsions:
REMARK  status: ('A' for Active; 'I' for Inactive)
REMARK    1  A    between atoms: C3_4  and  O_7 
ROOT
ATOM      1  C   UNL d   1      -0.171   5.596  -3.249  0.00  0.00    -0.033 A 
ATOM      2  C1  UNL d   1       1.009   5.303  -2.563  0.00  0.00     0.039 A 
ATOM      3  C2  UNL d   1       0.958   4.646  -1.332  0.00  0.00    -0.080 A 
ATOM      4  C3  UNL d   1      -0.278   4.289  -0.799  0.00  0.00     0.150 A 
ATOM      5  C4  UNL d   1      -1.457   4.575  -1.478  0.00  0.00    -0.007 A 
ATOM      6  C5  UNL d   1      -1.404   5.231  -2.707  0.00  0.00     0.039 A 
ENDROOT
BRANCH   4   7
ATOM      7  O   UNL d   1      -0.378   3.651   0.402  0.00  0.00    -0.526 OA
ATOM      8  H5  UNL d   1       0.515   3.545   0.770  0.00  0.00     0.418 HD
ENDBRANCH   4   7
TORSDOF 1
ENDMDL
