MODEL 1
REMARK minimizedAffinity 0.347228438
REMARK minimizedRMSD -1
REMARK  1 active torsions:
REMARK  status: ('A' for Active; 'I' for Inactive)
REMARK    1  A    between atoms: C3_4  and  O_7 
ROOT
ATOM      1  C   UNL d   1       0.674   3.435  -0.066  0.00  0.00    -0.033 A 
ATOM      2  C1  UNL d   1       1.060   4.410  -0.988  0.00  0.00     0.039 A 
ATOM      3  C2  UNL d   1       0.095   5.078  -1.744  0.00  0.00    -0.080 A 
ATOM      4  C3  UNL d   1      -1.250   4.763  -1.569  0.00  0.00     0.150 A 
ATOM      5  C4  UNL d   1      -1.641   3.795  -0.650  0.00  0.00    -0.007 A 
ATOM      6  C5  UNL d   1      -0.676   3.129   0.104  0.00  0.00     0.039 A 
ENDROOT
BRANCH   4   7
ATOM      7  O   UNL d   1      -2.227   5.384  -2.288  0.00  0.00    -0.526 OA
ATOM      8  H5  UNL d   1      -1.807   6.008  -2.904  0.00  0.00     0.418 HD
ENDBRANCH   4   7
TORSDOF 1
ENDMDL
