MODEL 1
REMARK minimizedAffinity 1.75368488
REMARK minimizedRMSD -1
REMARK  1 active torsions:
REMARK  status: ('A' for Active; 'I' for Inactive)
REMARK    1  A    between atoms: C3_4  and  O_7 
ROOT
ATOM      1  C   UNL d   1       0.065   0.991   3.673  0.00  0.00    -0.033 A 
ATOM      2  C1  UNL d   1       1.236   1.510   3.118  0.00  0.00     0.039 A 
ATOM      3  C2  UNL d   1       1.166   2.419   2.060  0.00  0.00    -0.080 A 
ATOM      4  C3  UNL d   1      -0.079   2.801   1.569  0.00  0.00     0.150 A 
ATOM      5  C4  UNL d   1      -1.250   2.292   2.120  0.00  0.00    -0.007 A 
ATOM      6  C5  UNL d   1      -1.178   1.383   3.176  0.00  0.00     0.039 A 
ENDROOT
BRANCH   4   7
ATOM      7  O   UNL d   1      -0.197   3.682   0.535  0.00  0.00    -0.526 OA
ATOM      8  H5  UNL d   1       0.694   3.928   0.237  0.00  0.00     0.418 HD
ENDBRANCH   4   7
TORSDOF 1
ENDMDL
