MODEL 1
REMARK minimizedAffinity -0.340573549
REMARK minimizedRMSD -1
REMARK  1 active torsions:
REMARK  status: ('A' for Active; 'I' for Inactive)
REMARK    1  A    between atoms: C1_2  and  C2_3 
ROOT
ATOM      1  C2  UNL d   1       0.336   2.691  -1.976  0.00  0.00    -0.077 A 
ATOM      2  C3  UNL d   1       0.617   2.133  -3.231  0.00  0.00     0.002 A 
ATOM      3  C4  UNL d   1       0.791   2.954  -4.347  0.00  0.00     0.002 A 
ATOM      4  C5  UNL d   1       0.691   4.338  -4.217  0.00  0.00    -0.004 A 
ATOM      5  C6  UNL d   1       0.411   4.903  -2.974  0.00  0.00     0.002 A 
ATOM      6  C7  UNL d   1       0.235   4.083  -1.858  0.00  0.00     0.002 A 
ENDROOT
BRANCH   1   7
ATOM      7  C1  UNL d   1       0.197   1.809  -0.762  0.00  0.00     0.055 C 
ATOM      8  C   UNL d   1      -1.265   1.583  -0.408  0.00  0.00     0.019 C 
ENDBRANCH   1   7
TORSDOF 1
ENDMDL
