MODEL 1
REMARK minimizedAffinity -0.903831184
REMARK minimizedRMSD -1
REMARK  1 active torsions:
REMARK  status: ('A' for Active; 'I' for Inactive)
REMARK    1  A    between atoms: C1_2  and  C2_3 
ROOT
ATOM      1  C2  UNL d   1      -4.486   1.420  -5.175  0.00  0.00    -0.077 A 
ATOM      2  C3  UNL d   1      -3.214   1.812  -4.735  0.00  0.00     0.002 A 
ATOM      3  C4  UNL d   1      -2.987   3.121  -4.307  0.00  0.00     0.002 A 
ATOM      4  C5  UNL d   1      -4.027   4.048  -4.311  0.00  0.00    -0.004 A 
ATOM      5  C6  UNL d   1      -5.296   3.668  -4.748  0.00  0.00     0.002 A 
ATOM      6  C7  UNL d   1      -5.524   2.360  -5.178  0.00  0.00     0.002 A 
ENDROOT
BRANCH   1   7
ATOM      7  C1  UNL d   1      -4.745  -0.004  -5.591  0.00  0.00     0.055 C 
ATOM      8  C   UNL d   1      -5.734  -0.683  -4.655  0.00  0.00     0.019 C 
ENDBRANCH   1   7
TORSDOF 1
ENDMDL
