MODEL 1
REMARK minimizedAffinity 6.50831842
REMARK minimizedRMSD -1
REMARK  1 active torsions:
REMARK  status: ('A' for Active; 'I' for Inactive)
REMARK    1  A    between atoms: C1_2  and  C2_3 
ROOT
ATOM      1  C2  UNL d   1       1.987  -1.048   1.163  0.00  0.00    -0.077 A 
ATOM      2  C3  UNL d   1       0.751  -1.701   1.262  0.00  0.00     0.002 A 
ATOM      3  C4  UNL d   1       0.079  -1.759   2.485  0.00  0.00     0.002 A 
ATOM      4  C5  UNL d   1       0.634  -1.163   3.616  0.00  0.00    -0.004 A 
ATOM      5  C6  UNL d   1       1.864  -0.513   3.527  0.00  0.00     0.002 A 
ATOM      6  C7  UNL d   1       2.538  -0.455   2.306  0.00  0.00     0.002 A 
ENDROOT
BRANCH   1   7
ATOM      7  C1  UNL d   1       2.690  -0.942  -0.165  0.00  0.00     0.055 C 
ATOM      8  C   UNL d   1       1.749  -1.266  -1.317  0.00  0.00     0.019 C 
ENDBRANCH   1   7
TORSDOF 1
ENDMDL
