MODEL 1
REMARK minimizedAffinity 4.1401329
REMARK minimizedRMSD -1
REMARK  1 active torsions:
REMARK  status: ('A' for Active; 'I' for Inactive)
REMARK    1  A    between atoms: C1_2  and  C2_3 
ROOT
ATOM      1  C2  UNL d   1      -0.501  -0.467   2.520  0.00  0.00    -0.077 A 
ATOM      2  C3  UNL d   1       0.193   0.426   3.349  0.00  0.00     0.002 A 
ATOM      3  C4  UNL d   1       1.521   0.176   3.701  0.00  0.00     0.002 A 
ATOM      4  C5  UNL d   1       2.167  -0.963   3.226  0.00  0.00    -0.004 A 
ATOM      5  C6  UNL d   1       1.485  -1.858   2.403  0.00  0.00     0.002 A 
ATOM      6  C7  UNL d   1       0.157  -1.611   2.051  0.00  0.00     0.002 A 
ENDROOT
BRANCH   1   7
ATOM      7  C1  UNL d   1      -1.917  -0.174   2.100  0.00  0.00     0.055 C 
ATOM      8  C   UNL d   1      -2.530   0.929   2.950  0.00  0.00     0.019 C 
ENDBRANCH   1   7
TORSDOF 1
ENDMDL
