MODEL 1
REMARK minimizedAffinity 3.46485877
REMARK minimizedRMSD -1
REMARK  1 active torsions:
REMARK  status: ('A' for Active; 'I' for Inactive)
REMARK    1  A    between atoms: C1_2  and  C2_3 
ROOT
ATOM      1  C2  UNL d   1      -1.785  -1.476   1.563  0.00  0.00    -0.077 A 
ATOM      2  C3  UNL d   1      -1.067  -0.319   1.892  0.00  0.00     0.002 A 
ATOM      3  C4  UNL d   1       0.167  -0.413   2.540  0.00  0.00     0.002 A 
ATOM      4  C5  UNL d   1       0.694  -1.663   2.859  0.00  0.00    -0.004 A 
ATOM      5  C6  UNL d   1      -0.015  -2.820   2.537  0.00  0.00     0.002 A 
ATOM      6  C7  UNL d   1      -1.248  -2.727   1.891  0.00  0.00     0.002 A 
ENDROOT
BRANCH   1   7
ATOM      7  C1  UNL d   1      -3.093  -1.378   0.820  0.00  0.00     0.055 C 
ATOM      8  C   UNL d   1      -2.880  -1.435  -0.685  0.00  0.00     0.019 C 
ENDBRANCH   1   7
TORSDOF 1
ENDMDL
