MODEL 1
REMARK minimizedAffinity 0.940241635
REMARK minimizedRMSD -1
REMARK  1 active torsions:
REMARK  status: ('A' for Active; 'I' for Inactive)
REMARK    1  A    between atoms: C1_2  and  C2_3 
ROOT
ATOM      1  C2  UNL d   1       2.678  -1.159   0.679  0.00  0.00    -0.077 A 
ATOM      2  C3  UNL d   1       3.810  -0.334   0.629  0.00  0.00     0.002 A 
ATOM      3  C4  UNL d   1       4.229   0.220  -0.582  0.00  0.00     0.002 A 
ATOM      4  C5  UNL d   1       3.519  -0.044  -1.752  0.00  0.00    -0.004 A 
ATOM      5  C6  UNL d   1       2.393  -0.865  -1.714  0.00  0.00     0.002 A 
ATOM      6  C7  UNL d   1       1.974  -1.420  -0.504  0.00  0.00     0.002 A 
ENDROOT
BRANCH   1   7
ATOM      7  C1  UNL d   1       2.196  -1.717   1.993  0.00  0.00     0.055 C 
ATOM      8  C   UNL d   1       0.965  -0.975   2.490  0.00  0.00     0.019 C 
ENDBRANCH   1   7
TORSDOF 1
ENDMDL
