MODEL 1
REMARK minimizedAffinity 2.41404295
REMARK minimizedRMSD -1
REMARK  1 active torsions:
REMARK  status: ('A' for Active; 'I' for Inactive)
REMARK    1  A    between atoms: C1_2  and  C2_3 
ROOT
ATOM      1  C2  UNL d   1       1.373  -1.488   0.855  0.00  0.00    -0.077 A 
ATOM      2  C3  UNL d   1       0.303  -1.076   0.049  0.00  0.00     0.002 A 
ATOM      3  C4  UNL d   1       0.499  -0.816  -1.309  0.00  0.00     0.002 A 
ATOM      4  C5  UNL d   1       1.764  -0.971  -1.873  0.00  0.00    -0.004 A 
ATOM      5  C6  UNL d   1       2.835  -1.379  -1.080  0.00  0.00     0.002 A 
ATOM      6  C7  UNL d   1       2.641  -1.637   0.278  0.00  0.00     0.002 A 
ENDROOT
BRANCH   1   7
ATOM      7  C1  UNL d   1       1.153  -1.816   2.308  0.00  0.00     0.055 C 
ATOM      8  C   UNL d   1       0.308  -0.752   2.994  0.00  0.00     0.019 C 
ENDBRANCH   1   7
TORSDOF 1
ENDMDL
