MODEL 1
REMARK minimizedAffinity -0.606602073
REMARK minimizedRMSD -1
REMARK  1 active torsions:
REMARK  status: ('A' for Active; 'I' for Inactive)
REMARK    1  A    between atoms: C1_2  and  C2_3 
ROOT
ATOM      1  C2  UNL d   1       1.515   5.063   5.555  0.00  0.00    -0.081 A 
ATOM      2  C3  UNL d   1       1.512   3.735   6.000  0.00  0.00     0.006 A 
ATOM      3  C4  UNL d   1       2.579   2.885   5.701  0.00  0.00     0.002 A 
ATOM      4  C5  UNL d   1       3.670   3.350   4.959  0.00  0.00    -0.080 A 
ATOM      5  C6  UNL d   1       4.836   2.457   4.656  0.00  0.00     0.076 C 
ATOM      6  C7  UNL d   1       3.666   4.671   4.499  0.00  0.00     0.002 A 
ATOM      7  C8  UNL d   1       2.598   5.521   4.797  0.00  0.00     0.006 A 
ENDROOT
BRANCH   1   8
ATOM      8  C1  UNL d   1       0.396   6.000   5.931  0.00  0.00     0.054 C 
ATOM      9  C   UNL d   1      -0.703   6.000   4.878  0.00  0.00     0.018 C 
ENDBRANCH   1   8
TORSDOF 1
ENDMDL
