MODEL 1
REMARK minimizedAffinity -0.0431830436
REMARK minimizedRMSD -1
REMARK  1 active torsions:
REMARK  status: ('A' for Active; 'I' for Inactive)
REMARK    1  A    between atoms: C1_2  and  C2_3 
ROOT
ATOM      1  C2  UNL d   1      -1.825   3.563   3.873  0.00  0.00    -0.081 A 
ATOM      2  C3  UNL d   1      -1.204   2.941   2.783  0.00  0.00     0.006 A 
ATOM      3  C4  UNL d   1      -1.949   2.162   1.895  0.00  0.00     0.002 A 
ATOM      4  C5  UNL d   1      -3.327   1.998   2.077  0.00  0.00    -0.080 A 
ATOM      5  C6  UNL d   1      -4.143   1.189   1.113  0.00  0.00     0.076 C 
ATOM      6  C7  UNL d   1      -3.943   2.606   3.176  0.00  0.00     0.002 A 
ATOM      7  C8  UNL d   1      -3.199   3.385   4.065  0.00  0.00     0.006 A 
ENDROOT
BRANCH   1   8
ATOM      8  C1  UNL d   1      -1.036   4.457   4.796  0.00  0.00     0.054 C 
ATOM      9  C   UNL d   1       0.116   5.130   4.064  0.00  0.00     0.018 C 
ENDBRANCH   1   8
TORSDOF 1
ENDMDL
