MODEL 1
REMARK minimizedAffinity 4.53261185
REMARK minimizedRMSD -1
REMARK  0 active torsions:
REMARK  status: ('A' for Active; 'I' for Inactive)
ROOT
ATOM      1  C   UNL d   1      -2.760   1.510   2.635  0.00  0.00     0.078 C 
ATOM      2  C1  UNL d   1      -1.631   2.094   1.840  0.00  0.00    -0.077 A 
ATOM      3  C2  UNL d   1      -1.846   3.161   0.959  0.00  0.00    -0.001 A 
ATOM      4  C3  UNL d   1      -0.787   3.688   0.218  0.00  0.00     0.003 A 
ATOM      5  C4  UNL d   1       0.494   3.155   0.350  0.00  0.00    -0.005 A 
ATOM      6  C5  UNL d   1       0.717   2.092   1.223  0.00  0.00     0.003 A 
ATOM      7  C6  UNL d   1      -0.341   1.563   1.964  0.00  0.00    -0.001 A 
ENDROOT
TORSDOF 0
ENDMDL
