MODEL 1
REMARK minimizedAffinity -2.53635573
REMARK minimizedRMSD -1
REMARK  0 active torsions:
REMARK  status: ('A' for Active; 'I' for Inactive)
ROOT
ATOM      1  C   UNL d   1      -0.869   1.759   1.468  0.00  0.00     0.078 C 
ATOM      2  C1  UNL d   1      -0.477   2.778   0.440  0.00  0.00    -0.077 A 
ATOM      3  C2  UNL d   1      -0.596   2.505  -0.928  0.00  0.00    -0.001 A 
ATOM      4  C3  UNL d   1      -0.219   3.460  -1.873  0.00  0.00     0.003 A 
ATOM      5  C4  UNL d   1       0.282   4.693  -1.461  0.00  0.00    -0.005 A 
ATOM      6  C5  UNL d   1       0.406   4.973  -0.102  0.00  0.00     0.003 A 
ATOM      7  C6  UNL d   1       0.029   4.019   0.845  0.00  0.00    -0.001 A 
ENDROOT
TORSDOF 0
ENDMDL
