MODEL 1
REMARK minimizedAffinity -1.60641301
REMARK minimizedRMSD -1
REMARK  0 active torsions:
REMARK  status: ('A' for Active; 'I' for Inactive)
ROOT
ATOM      1  C   UNL d   1       0.056   3.207   2.998  0.00  0.00     0.078 C 
ATOM      2  C1  UNL d   1      -0.001   3.455   1.521  0.00  0.00    -0.077 A 
ATOM      3  C2  UNL d   1       0.179   2.410   0.606  0.00  0.00    -0.001 A 
ATOM      4  C3  UNL d   1       0.133   2.658  -0.767  0.00  0.00     0.003 A 
ATOM      5  C4  UNL d   1      -0.091   3.950  -1.238  0.00  0.00    -0.005 A 
ATOM      6  C5  UNL d   1      -0.268   4.997  -0.335  0.00  0.00     0.003 A 
ATOM      7  C6  UNL d   1      -0.223   4.751   1.038  0.00  0.00    -0.001 A 
ENDROOT
TORSDOF 0
ENDMDL
