MODEL 1
REMARK minimizedAffinity -0.542280614
REMARK minimizedRMSD -1
REMARK  0 active torsions:
REMARK  status: ('A' for Active; 'I' for Inactive)
ROOT
ATOM      1  C   UNL d   1      -3.344  -1.757   4.888  0.00  0.00     0.078 C 
ATOM      2  C1  UNL d   1      -4.258  -2.945   4.871  0.00  0.00    -0.077 A 
ATOM      3  C2  UNL d   1      -4.365  -3.757   3.736  0.00  0.00    -0.001 A 
ATOM      4  C3  UNL d   1      -5.228  -4.854   3.731  0.00  0.00     0.003 A 
ATOM      5  C4  UNL d   1      -5.992  -5.149   4.859  0.00  0.00    -0.005 A 
ATOM      6  C5  UNL d   1      -5.894  -4.345   5.993  0.00  0.00     0.003 A 
ATOM      7  C6  UNL d   1      -5.032  -3.248   5.999  0.00  0.00    -0.001 A 
ENDROOT
TORSDOF 0
ENDMDL
