MODEL 1
REMARK minimizedAffinity -2.68631959
REMARK minimizedRMSD -1
REMARK  0 active torsions:
REMARK  status: ('A' for Active; 'I' for Inactive)
ROOT
ATOM      1  C   UNL d   1      -0.028   3.474  -1.120  0.00  0.00     0.078 C 
ATOM      2  C1  UNL d   1      -0.051   3.163   0.347  0.00  0.00    -0.077 A 
ATOM      3  C2  UNL d   1       0.941   3.656   1.204  0.00  0.00    -0.001 A 
ATOM      4  C3  UNL d   1       0.913   3.351   2.566  0.00  0.00     0.003 A 
ATOM      5  C4  UNL d   1      -0.105   2.551   3.083  0.00  0.00    -0.005 A 
ATOM      6  C5  UNL d   1      -1.094   2.054   2.237  0.00  0.00     0.003 A 
ATOM      7  C6  UNL d   1      -1.068   2.358   0.875  0.00  0.00    -0.001 A 
ENDROOT
TORSDOF 0
ENDMDL
