MODEL 1
REMARK minimizedAffinity 2.92595077
REMARK minimizedRMSD -1
REMARK  0 active torsions:
REMARK  status: ('A' for Active; 'I' for Inactive)
ROOT
ATOM      1  C   UNL d   1      -1.171   1.605   2.328  0.00  0.00     0.078 C 
ATOM      2  C1  UNL d   1      -0.761   2.421   1.139  0.00  0.00    -0.077 A 
ATOM      3  C2  UNL d   1      -0.852   1.902  -0.158  0.00  0.00    -0.001 A 
ATOM      4  C3  UNL d   1      -0.458   2.670  -1.255  0.00  0.00     0.003 A 
ATOM      5  C4  UNL d   1       0.030   3.961  -1.066  0.00  0.00    -0.005 A 
ATOM      6  C5  UNL d   1       0.126   4.486   0.221  0.00  0.00     0.003 A 
ATOM      7  C6  UNL d   1      -0.267   3.719   1.319  0.00  0.00    -0.001 A 
ENDROOT
TORSDOF 0
ENDMDL
