MODEL 1
REMARK minimizedAffinity 1.60435963
REMARK minimizedRMSD -1
REMARK  0 active torsions:
REMARK  status: ('A' for Active; 'I' for Inactive)
ROOT
ATOM      1  C   UNL d   1      -3.391  -2.135   5.620  0.00  0.00     0.078 C 
ATOM      2  C1  UNL d   1      -4.307  -3.210   5.115  0.00  0.00    -0.077 A 
ATOM      3  C2  UNL d   1      -4.923  -4.105   5.997  0.00  0.00    -0.001 A 
ATOM      4  C3  UNL d   1      -5.766  -5.107   5.512  0.00  0.00     0.003 A 
ATOM      5  C4  UNL d   1      -5.999  -5.223   4.143  0.00  0.00    -0.005 A 
ATOM      6  C5  UNL d   1      -5.388  -4.338   3.257  0.00  0.00     0.003 A 
ATOM      7  C6  UNL d   1      -4.545  -3.336   3.740  0.00  0.00    -0.001 A 
ENDROOT
TORSDOF 0
ENDMDL
