MODEL 1
REMARK minimizedAffinity 0.893266678
REMARK minimizedRMSD -1
REMARK  0 active torsions:
REMARK  status: ('A' for Active; 'I' for Inactive)
ROOT
ATOM      1  C   UNL d   1      -2.632  -1.875   4.867  0.00  0.00     0.078 C 
ATOM      2  C1  UNL d   1      -3.799  -2.816   4.883  0.00  0.00    -0.077 A 
ATOM      3  C2  UNL d   1      -4.037  -3.688   3.813  0.00  0.00    -0.001 A 
ATOM      4  C3  UNL d   1      -5.133  -4.552   3.837  0.00  0.00     0.003 A 
ATOM      5  C4  UNL d   1      -6.000  -4.552   4.928  0.00  0.00    -0.005 A 
ATOM      6  C5  UNL d   1      -5.772  -3.687   5.997  0.00  0.00     0.003 A 
ATOM      7  C6  UNL d   1      -4.676  -2.823   5.974  0.00  0.00    -0.001 A 
ENDROOT
TORSDOF 0
ENDMDL
