MODEL 1
REMARK minimizedAffinity 10.4946823
REMARK minimizedRMSD -1
REMARK  0 active torsions:
REMARK  status: ('A' for Active; 'I' for Inactive)
ROOT
ATOM      1  C   UNL d   1      -1.324   2.915  -3.052  0.00  0.00     0.078 C 
ATOM      2  C1  UNL d   1      -0.531   3.414  -1.881  0.00  0.00    -0.077 A 
ATOM      3  C2  UNL d   1      -0.251   4.777  -1.727  0.00  0.00    -0.001 A 
ATOM      4  C3  UNL d   1       0.496   5.226  -0.637  0.00  0.00     0.003 A 
ATOM      5  C4  UNL d   1       0.970   4.318   0.307  0.00  0.00    -0.005 A 
ATOM      6  C5  UNL d   1       0.698   2.959   0.162  0.00  0.00     0.003 A 
ATOM      7  C6  UNL d   1      -0.049   2.508  -0.927  0.00  0.00    -0.001 A 
ENDROOT
TORSDOF 0
ENDMDL
