MODEL 1
REMARK minimizedAffinity -0.0877544433
REMARK minimizedRMSD -1
REMARK  0 active torsions:
REMARK  status: ('A' for Active; 'I' for Inactive)
ROOT
ATOM      1  C   UNL d   1      -0.282   3.174   0.213  0.00  0.00     0.078 C 
ATOM      2  C1  UNL d   1      -0.645   2.353   1.414  0.00  0.00    -0.077 A 
ATOM      3  C2  UNL d   1      -1.979   2.024   1.687  0.00  0.00    -0.001 A 
ATOM      4  C3  UNL d   1      -2.303   1.268   2.814  0.00  0.00     0.003 A 
ATOM      5  C4  UNL d   1      -1.300   0.835   3.679  0.00  0.00    -0.005 A 
ATOM      6  C5  UNL d   1       0.030   1.159   3.417  0.00  0.00     0.003 A 
ATOM      7  C6  UNL d   1       0.356   1.915   2.290  0.00  0.00    -0.001 A 
ENDROOT
TORSDOF 0
ENDMDL
