MODEL 1
REMARK minimizedAffinity 8.81268597
REMARK minimizedRMSD -1
REMARK  0 active torsions:
REMARK  status: ('A' for Active; 'I' for Inactive)
ROOT
ATOM      1  C   UNL d   1       3.046  -2.191  -5.718  0.00  0.00     0.078 C 
ATOM      2  C1  UNL d   1       3.759  -2.931  -4.626  0.00  0.00    -0.077 A 
ATOM      3  C2  UNL d   1       3.086  -3.322  -3.461  0.00  0.00    -0.001 A 
ATOM      4  C3  UNL d   1       3.765  -4.001  -2.448  0.00  0.00     0.003 A 
ATOM      5  C4  UNL d   1       5.120  -4.293  -2.588  0.00  0.00    -0.005 A 
ATOM      6  C5  UNL d   1       5.798  -3.906  -3.742  0.00  0.00     0.003 A 
ATOM      7  C6  UNL d   1       5.121  -3.227  -4.756  0.00  0.00    -0.001 A 
ENDROOT
TORSDOF 0
ENDMDL
