MODEL 1
REMARK minimizedAffinity -0.979273796
REMARK minimizedRMSD -1
REMARK  0 active torsions:
REMARK  status: ('A' for Active; 'I' for Inactive)
ROOT
ATOM      1  C   UNL d   1       0.450   3.926  -1.112  0.00  0.00     0.078 C 
ATOM      2  C1  UNL d   1       0.259   3.331   0.251  0.00  0.00    -0.077 A 
ATOM      3  C2  UNL d   1       1.080   3.704   1.322  0.00  0.00    -0.001 A 
ATOM      4  C3  UNL d   1       0.897   3.135   2.583  0.00  0.00     0.003 A 
ATOM      5  C4  UNL d   1      -0.106   2.189   2.785  0.00  0.00    -0.005 A 
ATOM      6  C5  UNL d   1      -0.927   1.810   1.725  0.00  0.00     0.003 A 
ATOM      7  C6  UNL d   1      -0.745   2.378   0.463  0.00  0.00    -0.001 A 
ENDROOT
TORSDOF 0
ENDMDL
