MODEL 1
REMARK minimizedAffinity 6.91665936
REMARK minimizedRMSD -1
REMARK  0 active torsions:
REMARK  status: ('A' for Active; 'I' for Inactive)
ROOT
ATOM      1  C   UNL d   1      -0.390   1.327   0.953  0.00  0.00     0.078 C 
ATOM      2  C1  UNL d   1      -0.108   2.405  -0.050  0.00  0.00    -0.077 A 
ATOM      3  C2  UNL d   1      -0.519   2.275  -1.383  0.00  0.00    -0.001 A 
ATOM      4  C3  UNL d   1      -0.242   3.283  -2.308  0.00  0.00     0.003 A 
ATOM      5  C4  UNL d   1       0.448   4.427  -1.911  0.00  0.00    -0.005 A 
ATOM      6  C5  UNL d   1       0.863   4.564  -0.588  0.00  0.00     0.003 A 
ATOM      7  C6  UNL d   1       0.586   3.557   0.339  0.00  0.00    -0.001 A 
ENDROOT
TORSDOF 0
ENDMDL
