MODEL 1
REMARK minimizedAffinity 8.00918865
REMARK minimizedRMSD -1
REMARK  0 active torsions:
REMARK  status: ('A' for Active; 'I' for Inactive)
ROOT
ATOM      1  C   UNL d   1      -3.576   4.882   1.112  0.00  0.00     0.078 C 
ATOM      2  C1  UNL d   1      -2.166   4.666   0.650  0.00  0.00    -0.077 A 
ATOM      3  C2  UNL d   1      -1.697   3.384   0.337  0.00  0.00    -0.001 A 
ATOM      4  C3  UNL d   1      -0.379   3.197  -0.083  0.00  0.00     0.003 A 
ATOM      5  C4  UNL d   1       0.482   4.287  -0.192  0.00  0.00    -0.005 A 
ATOM      6  C5  UNL d   1       0.025   5.566   0.119  0.00  0.00     0.003 A 
ATOM      7  C6  UNL d   1      -1.292   5.756   0.539  0.00  0.00    -0.001 A 
ENDROOT
TORSDOF 0
ENDMDL
