MODEL 1
REMARK minimizedAffinity -2.3192687
REMARK minimizedRMSD -1
REMARK  0 active torsions:
REMARK  status: ('A' for Active; 'I' for Inactive)
ROOT
ATOM      1  C   UNL d   1      -1.502  -2.721   4.228  0.00  0.00     0.078 C 
ATOM      2  C1  UNL d   1      -2.943  -2.965   4.564  0.00  0.00    -0.077 A 
ATOM      3  C2  UNL d   1      -3.528  -2.381   5.694  0.00  0.00    -0.001 A 
ATOM      4  C3  UNL d   1      -4.868  -2.625   6.000  0.00  0.00     0.003 A 
ATOM      5  C4  UNL d   1      -5.633  -3.453   5.181  0.00  0.00    -0.005 A 
ATOM      6  C5  UNL d   1      -5.059  -4.040   4.055  0.00  0.00     0.003 A 
ATOM      7  C6  UNL d   1      -3.719  -3.797   3.748  0.00  0.00    -0.001 A 
ENDROOT
TORSDOF 0
ENDMDL
