MODEL 1
REMARK minimizedAffinity 0.483686239
REMARK minimizedRMSD -1
REMARK  0 active torsions:
REMARK  status: ('A' for Active; 'I' for Inactive)
ROOT
ATOM      1  C   UNL d   1       0.117   2.885  -0.934  0.00  0.00     0.078 C 
ATOM      2  C1  UNL d   1      -0.163   2.468   0.479  0.00  0.00    -0.077 A 
ATOM      3  C2  UNL d   1      -0.934   1.332   0.756  0.00  0.00    -0.001 A 
ATOM      4  C3  UNL d   1      -1.195   0.961   2.076  0.00  0.00     0.003 A 
ATOM      5  C4  UNL d   1      -0.689   1.720   3.129  0.00  0.00    -0.005 A 
ATOM      6  C5  UNL d   1       0.077   2.853   2.863  0.00  0.00     0.003 A 
ATOM      7  C6  UNL d   1       0.339   3.226   1.544  0.00  0.00    -0.001 A 
ENDROOT
TORSDOF 0
ENDMDL
