MODEL 1
REMARK minimizedAffinity -4.61933088
REMARK minimizedRMSD -1
REMARK  0 active torsions:
REMARK  status: ('A' for Active; 'I' for Inactive)
ROOT
ATOM      1  C   UNL d   1      -5.371  -2.532  -0.306  0.00  0.00     0.078 C 
ATOM      2  C1  UNL d   1      -5.092  -1.399  -1.247  0.00  0.00    -0.077 A 
ATOM      3  C2  UNL d   1      -6.000  -1.060  -2.258  0.00  0.00    -0.001 A 
ATOM      4  C3  UNL d   1      -5.722  -0.010  -3.133  0.00  0.00     0.003 A 
ATOM      5  C4  UNL d   1      -4.535   0.710  -3.008  0.00  0.00    -0.005 A 
ATOM      6  C5  UNL d   1      -3.625   0.379  -2.007  0.00  0.00     0.003 A 
ATOM      7  C6  UNL d   1      -3.901  -0.672  -1.131  0.00  0.00    -0.001 A 
ENDROOT
TORSDOF 0
ENDMDL
