MODEL 1
REMARK minimizedAffinity -0.692856252
REMARK minimizedRMSD -1
REMARK  0 active torsions:
REMARK  status: ('A' for Active; 'I' for Inactive)
ROOT
ATOM      1  C   UNL d   1       0.221   3.222   0.108  0.00  0.00     0.078 C 
ATOM      2  C1  UNL d   1      -0.220   2.499   1.345  0.00  0.00    -0.077 A 
ATOM      3  C2  UNL d   1       0.199   2.918   2.614  0.00  0.00    -0.001 A 
ATOM      4  C3  UNL d   1      -0.212   2.229   3.756  0.00  0.00     0.003 A 
ATOM      5  C4  UNL d   1      -1.042   1.116   3.641  0.00  0.00    -0.005 A 
ATOM      6  C5  UNL d   1      -1.463   0.690   2.383  0.00  0.00     0.003 A 
ATOM      7  C6  UNL d   1      -1.053   1.378   1.239  0.00  0.00    -0.001 A 
ENDROOT
TORSDOF 0
ENDMDL
