MODEL 1
REMARK minimizedAffinity -2.66012192
REMARK minimizedRMSD -1
REMARK  0 active torsions:
REMARK  status: ('A' for Active; 'I' for Inactive)
ROOT
ATOM      1  C   UNL d   1      -0.761  -2.640   0.845  0.00  0.00     0.023 A 
ATOM      2  C1  UNL d   1      -0.930  -1.609   1.770  0.00  0.00     0.003 A 
ATOM      3  C2  UNL d   1      -0.244  -0.404   1.607  0.00  0.00     0.048 A 
ATOM      4  C3  UNL d   1       0.609  -0.235   0.517  0.00  0.00     0.023 A 
ATOM      5  C4  UNL d   1       0.781  -1.264  -0.411  0.00  0.00     0.048 A 
ATOM      6  C5  UNL d   1       0.094  -2.467  -0.244  0.00  0.00     0.003 A 
ATOM      7  I   UNL d   1       1.630   1.558   0.272  0.00  0.00    -0.146 I 
ENDROOT
TORSDOF 0
ENDMDL
