MODEL 1
REMARK minimizedAffinity -1.35606062
REMARK minimizedRMSD -1
REMARK  0 active torsions:
REMARK  status: ('A' for Active; 'I' for Inactive)
ROOT
ATOM      1  C   UNL d   1      -0.829  -0.830   0.221  0.00  0.00     0.023 A 
ATOM      2  C1  UNL d   1      -1.151   0.081   1.227  0.00  0.00     0.003 A 
ATOM      3  C2  UNL d   1      -0.428   1.270   1.352  0.00  0.00     0.048 A 
ATOM      4  C3  UNL d   1       0.613   1.542   0.466  0.00  0.00     0.023 A 
ATOM      5  C4  UNL d   1       0.938   0.633  -0.543  0.00  0.00     0.048 A 
ATOM      6  C5  UNL d   1       0.214  -0.554  -0.663  0.00  0.00     0.003 A 
ATOM      7  I   UNL d   1       1.690   3.310   0.648  0.00  0.00    -0.146 I 
ENDROOT
TORSDOF 0
ENDMDL
