MODEL 1
REMARK minimizedAffinity -3.55050564
REMARK minimizedRMSD -1
REMARK  0 active torsions:
REMARK  status: ('A' for Active; 'I' for Inactive)
ROOT
ATOM      1  C   UNL d   1       1.112   2.844   0.133  0.00  0.00     0.023 A 
ATOM      2  C1  UNL d   1       0.023   2.312  -0.558  0.00  0.00     0.003 A 
ATOM      3  C2  UNL d   1      -0.299   0.960  -0.421  0.00  0.00     0.048 A 
ATOM      4  C3  UNL d   1       0.471   0.146   0.410  0.00  0.00     0.023 A 
ATOM      5  C4  UNL d   1       1.561   0.675   1.104  0.00  0.00     0.048 A 
ATOM      6  C5  UNL d   1       1.879   2.027   0.963  0.00  0.00     0.003 A 
ATOM      7  I   UNL d   1      -0.006  -1.866   0.615  0.00  0.00    -0.146 I 
ENDROOT
TORSDOF 0
ENDMDL
