MODEL 1
REMARK minimizedAffinity -3.44415569
REMARK minimizedRMSD -1
REMARK  0 active torsions:
REMARK  status: ('A' for Active; 'I' for Inactive)
ROOT
ATOM      1  C   UNL d   1      -0.825  -3.395   0.716  0.00  0.00     0.023 A 
ATOM      2  C1  UNL d   1      -1.767  -2.395   0.957  0.00  0.00     0.003 A 
ATOM      3  C2  UNL d   1      -1.399  -1.051   0.868  0.00  0.00     0.048 A 
ATOM      4  C3  UNL d   1      -0.087  -0.714   0.537  0.00  0.00     0.023 A 
ATOM      5  C4  UNL d   1       0.859  -1.712   0.294  0.00  0.00     0.048 A 
ATOM      6  C5  UNL d   1       0.486  -3.054   0.384  0.00  0.00     0.003 A 
ATOM      7  I   UNL d   1       0.464   1.285   0.404  0.00  0.00    -0.146 I 
ENDROOT
TORSDOF 0
ENDMDL
