MODEL 1
REMARK minimizedAffinity -2.1583817
REMARK minimizedRMSD -1
REMARK  0 active torsions:
REMARK  status: ('A' for Active; 'I' for Inactive)
ROOT
ATOM      1  C   UNL d   1      -0.690  -1.682   0.421  0.00  0.00     0.023 A 
ATOM      2  C1  UNL d   1      -1.267  -0.686   1.209  0.00  0.00     0.003 A 
ATOM      3  C2  UNL d   1      -0.827   0.635   1.101  0.00  0.00     0.048 A 
ATOM      4  C3  UNL d   1       0.190   0.953   0.201  0.00  0.00     0.023 A 
ATOM      5  C4  UNL d   1       0.770  -0.040  -0.590  0.00  0.00     0.048 A 
ATOM      6  C5  UNL d   1       0.327  -1.360  -0.477  0.00  0.00     0.003 A 
ATOM      7  I   UNL d   1       0.848   2.918   0.037  0.00  0.00    -0.146 I 
ENDROOT
TORSDOF 0
ENDMDL
