MODEL 1
REMARK minimizedAffinity -3.14501858
REMARK minimizedRMSD -1
REMARK  0 active torsions:
REMARK  status: ('A' for Active; 'I' for Inactive)
ROOT
ATOM      1  C   UNL d   1      -0.657  -2.384   0.724  0.00  0.00     0.023 A 
ATOM      2  C1  UNL d   1      -0.133  -1.967  -0.500  0.00  0.00     0.003 A 
ATOM      3  C2  UNL d   1       0.355  -0.667  -0.646  0.00  0.00     0.048 A 
ATOM      4  C3  UNL d   1       0.317   0.211   0.437  0.00  0.00     0.023 A 
ATOM      5  C4  UNL d   1      -0.205  -0.202   1.664  0.00  0.00     0.048 A 
ATOM      6  C5  UNL d   1      -0.693  -1.503   1.804  0.00  0.00     0.003 A 
ATOM      7  I   UNL d   1       1.043   2.147   0.224  0.00  0.00    -0.146 I 
ENDROOT
TORSDOF 0
ENDMDL
