MODEL 1
REMARK minimizedAffinity -2.6750176
REMARK minimizedRMSD -1
REMARK  0 active torsions:
REMARK  status: ('A' for Active; 'I' for Inactive)
ROOT
ATOM      1  C   UNL d   1      -0.665  -0.563   0.355  0.00  0.00     0.023 A 
ATOM      2  C1  UNL d   1       0.032  -0.113   1.477  0.00  0.00     0.003 A 
ATOM      3  C2  UNL d   1       0.677   1.125   1.450  0.00  0.00     0.048 A 
ATOM      4  C3  UNL d   1       0.620   1.909   0.298  0.00  0.00     0.023 A 
ATOM      5  C4  UNL d   1      -0.076   1.464  -0.826  0.00  0.00     0.048 A 
ATOM      6  C5  UNL d   1      -0.718   0.225  -0.795  0.00  0.00     0.003 A 
ATOM      7  I   UNL d   1       1.579   3.753   0.256  0.00  0.00    -0.146 I 
ENDROOT
TORSDOF 0
ENDMDL
