MODEL 1
REMARK minimizedAffinity -0.578422964
REMARK minimizedRMSD -1
REMARK  0 active torsions:
REMARK  status: ('A' for Active; 'I' for Inactive)
ROOT
ATOM      1  C   UNL d   1       0.303  -0.235  -2.182  0.00  0.00     0.023 A 
ATOM      2  C1  UNL d   1       0.692  -1.349  -1.438  0.00  0.00     0.003 A 
ATOM      3  C2  UNL d   1       0.617  -1.320  -0.044  0.00  0.00     0.048 A 
ATOM      4  C3  UNL d   1       0.151  -0.174   0.599  0.00  0.00     0.023 A 
ATOM      5  C4  UNL d   1      -0.241   0.943  -0.141  0.00  0.00     0.048 A 
ATOM      6  C5  UNL d   1      -0.163   0.909  -1.535  0.00  0.00     0.003 A 
ATOM      7  I   UNL d   1       0.038  -0.128   2.674  0.00  0.00    -0.146 I 
ENDROOT
TORSDOF 0
ENDMDL
