MODEL 1
REMARK minimizedAffinity -3.04346395
REMARK minimizedRMSD -1
REMARK  0 active torsions:
REMARK  status: ('A' for Active; 'I' for Inactive)
ROOT
ATOM      1  C   UNL d   1      -0.942  -3.540  -0.078  0.00  0.00     0.023 A 
ATOM      2  C1  UNL d   1      -0.200  -3.003  -1.131  0.00  0.00     0.003 A 
ATOM      3  C2  UNL d   1       0.209  -1.669  -1.089  0.00  0.00     0.048 A 
ATOM      4  C3  UNL d   1      -0.126  -0.877   0.008  0.00  0.00     0.023 A 
ATOM      5  C4  UNL d   1      -0.868  -1.409   1.064  0.00  0.00     0.048 A 
ATOM      6  C5  UNL d   1      -1.276  -2.743   1.018  0.00  0.00     0.003 A 
ATOM      7  I   UNL d   1       0.482   1.110   0.072  0.00  0.00    -0.146 I 
ENDROOT
TORSDOF 0
ENDMDL
