MODEL 1
REMARK minimizedAffinity -4.20597267
REMARK minimizedRMSD -1
REMARK  0 active torsions:
REMARK  status: ('A' for Active; 'I' for Inactive)
ROOT
ATOM      1  C   UNL d   1      -0.675   0.754   0.718  0.00  0.00     0.023 A 
ATOM      2  C1  UNL d   1       0.279   0.291  -0.189  0.00  0.00     0.003 A 
ATOM      3  C2  UNL d   1       0.422  -1.079  -0.416  0.00  0.00     0.048 A 
ATOM      4  C3  UNL d   1      -0.394  -1.981   0.267  0.00  0.00     0.023 A 
ATOM      5  C4  UNL d   1      -1.350  -1.523   1.174  0.00  0.00     0.048 A 
ATOM      6  C5  UNL d   1      -1.488  -0.153   1.399  0.00  0.00     0.003 A 
ATOM      7  I   UNL d   1      -0.183  -4.022  -0.070  0.00  0.00    -0.146 I 
ENDROOT
TORSDOF 0
ENDMDL
