MODEL 1
REMARK minimizedAffinity -1.26698518
REMARK minimizedRMSD -1
REMARK  0 active torsions:
REMARK  status: ('A' for Active; 'I' for Inactive)
ROOT
ATOM      1  C   UNL d   1      -0.762  -2.231   0.972  0.00  0.00     0.023 A 
ATOM      2  C1  UNL d   1      -0.771  -1.737  -0.332  0.00  0.00     0.003 A 
ATOM      3  C2  UNL d   1      -0.384  -0.419  -0.583  0.00  0.00     0.048 A 
ATOM      4  C3  UNL d   1       0.012   0.399   0.475  0.00  0.00     0.023 A 
ATOM      5  C4  UNL d   1       0.023  -0.092   1.781  0.00  0.00     0.048 A 
ATOM      6  C5  UNL d   1      -0.365  -1.410   2.027  0.00  0.00     0.003 A 
ATOM      7  I   UNL d   1       0.588   2.361   0.103  0.00  0.00    -0.146 I 
ENDROOT
TORSDOF 0
ENDMDL
