MODEL 1
REMARK minimizedAffinity -1.21153927
REMARK minimizedRMSD -1
REMARK  0 active torsions:
REMARK  status: ('A' for Active; 'I' for Inactive)
ROOT
ATOM      1  C   UNL d   1      -0.311   0.102   0.900  0.00  0.00     0.023 A 
ATOM      2  C1  UNL d   1      -0.154   0.896  -0.236  0.00  0.00     0.003 A 
ATOM      3  C2  UNL d   1       0.274   0.325  -1.436  0.00  0.00     0.048 A 
ATOM      4  C3  UNL d   1       0.544  -1.042  -1.493  0.00  0.00     0.023 A 
ATOM      5  C4  UNL d   1       0.388  -1.841  -0.359  0.00  0.00     0.048 A 
ATOM      6  C5  UNL d   1      -0.040  -1.265   0.838  0.00  0.00     0.003 A 
ATOM      7  I   UNL d   1       1.182  -1.895  -3.278  0.00  0.00    -0.146 I 
ENDROOT
TORSDOF 0
ENDMDL
