MODEL 1
REMARK minimizedAffinity -3.43749189
REMARK minimizedRMSD -1
REMARK  0 active torsions:
REMARK  status: ('A' for Active; 'I' for Inactive)
ROOT
ATOM      1  C   UNL d   1      -0.423  -2.706  -0.207  0.00  0.00     0.023 A 
ATOM      2  C1  UNL d   1      -0.224  -1.922  -1.343  0.00  0.00     0.003 A 
ATOM      3  C2  UNL d   1       0.204  -0.599  -1.214  0.00  0.00     0.048 A 
ATOM      4  C3  UNL d   1       0.433  -0.067   0.055  0.00  0.00     0.023 A 
ATOM      5  C4  UNL d   1       0.236  -0.849   1.195  0.00  0.00     0.048 A 
ATOM      6  C5  UNL d   1      -0.194  -2.170   1.060  0.00  0.00     0.003 A 
ATOM      7  I   UNL d   1       1.071   1.901   0.250  0.00  0.00    -0.146 I 
ENDROOT
TORSDOF 0
ENDMDL
