MODEL 1
REMARK minimizedAffinity 1.35936749
REMARK minimizedRMSD -1
REMARK  0 active torsions:
REMARK  status: ('A' for Active; 'I' for Inactive)
ROOT
ATOM      1  C   UNL d   1      -0.462  -0.679   1.664  0.00  0.00     0.023 A 
ATOM      2  C1  UNL d   1      -0.226  -0.044   0.444  0.00  0.00     0.003 A 
ATOM      3  C2  UNL d   1      -0.264  -0.776  -0.744  0.00  0.00     0.048 A 
ATOM      4  C3  UNL d   1      -0.539  -2.143  -0.705  0.00  0.00     0.023 A 
ATOM      5  C4  UNL d   1      -0.776  -2.782   0.513  0.00  0.00     0.048 A 
ATOM      6  C5  UNL d   1      -0.737  -2.046   1.698  0.00  0.00     0.003 A 
ATOM      7  I   UNL d   1      -0.595  -3.235  -2.473  0.00  0.00    -0.146 I 
ENDROOT
TORSDOF 0
ENDMDL
