MODEL 1
REMARK minimizedAffinity -4.35720158
REMARK minimizedRMSD -1
REMARK  0 active torsions:
REMARK  status: ('A' for Active; 'I' for Inactive)
ROOT
ATOM      1  C   UNL d   1      -0.309  -1.837   0.519  0.00  0.00     0.023 A 
ATOM      2  C1  UNL d   1      -1.207  -0.942   1.102  0.00  0.00     0.003 A 
ATOM      3  C2  UNL d   1      -0.948   0.429   1.069  0.00  0.00     0.048 A 
ATOM      4  C3  UNL d   1       0.211   0.899   0.451  0.00  0.00     0.023 A 
ATOM      5  C4  UNL d   1       1.111   0.007  -0.134  0.00  0.00     0.048 A 
ATOM      6  C5  UNL d   1       0.848  -1.363  -0.098  0.00  0.00     0.003 A 
ATOM      7  I   UNL d   1       0.599   2.940   0.400  0.00  0.00    -0.146 I 
ENDROOT
TORSDOF 0
ENDMDL
