MODEL 1
REMARK minimizedAffinity -3.48860455
REMARK minimizedRMSD -1
REMARK  0 active torsions:
REMARK  status: ('A' for Active; 'I' for Inactive)
ROOT
ATOM      1  C   UNL d   1       0.419  -2.042   0.270  0.00  0.00     0.023 A 
ATOM      2  C1  UNL d   1       0.789  -1.429   1.467  0.00  0.00     0.003 A 
ATOM      3  C2  UNL d   1       1.231  -0.104   1.467  0.00  0.00     0.048 A 
ATOM      4  C3  UNL d   1       1.300   0.602   0.267  0.00  0.00     0.023 A 
ATOM      5  C4  UNL d   1       0.930  -0.007  -0.934  0.00  0.00     0.048 A 
ATOM      6  C5  UNL d   1       0.490  -1.332  -0.929  0.00  0.00     0.003 A 
ATOM      7  I   UNL d   1       1.957   2.574   0.264  0.00  0.00    -0.146 I 
ENDROOT
TORSDOF 0
ENDMDL
