MODEL 1
REMARK minimizedAffinity 7.96798229
REMARK minimizedRMSD -1
REMARK  0 active torsions:
REMARK  status: ('A' for Active; 'I' for Inactive)
ROOT
ATOM      1  C1  DEN d   1       5.965   2.959   1.516  0.00  0.00     0.130 A 
ATOM      2  C2  DEN d   1       5.985   3.611   0.210  0.00  0.00    -0.031 A 
ATOM      3  C3  DEN d   1       5.992   2.558  -0.826  0.00  0.00     0.027 A 
ATOM      4  C4  DEN d   1       5.972  -0.004  -0.534  0.00  0.00     0.027 A 
ATOM      5  C5  DEN d   1       5.966  -1.029   0.386  0.00  0.00    -0.003 A 
ATOM      6  C6  DEN d   1       5.994  -0.799   1.735  0.00  0.00     0.001 A 
ATOM      7  C7  DEN d   1       5.983   0.488   2.205  0.00  0.00     0.017 A 
ATOM      8  C8  DEN d   1       5.996   1.526   1.284  0.00  0.00    -0.094 A 
ATOM      9  C9  DEN d   1       5.955   1.273  -0.077  0.00  0.00    -0.072 A 
ENDROOT
TORSDOF 0
ENDMDL
