MODEL 1
REMARK minimizedAffinity -0.00611209078
REMARK minimizedRMSD -1
REMARK  0 active torsions:
REMARK  status: ('A' for Active; 'I' for Inactive)
ROOT
ATOM      1  C1  DEN d   1      -3.599  -5.998  -2.223  0.00  0.00     0.130 A 
ATOM      2  C2  DEN d   1      -4.903  -5.997  -1.567  0.00  0.00    -0.031 A 
ATOM      3  C3  DEN d   1      -5.903  -5.509  -2.538  0.00  0.00     0.027 A 
ATOM      4  C4  DEN d   1      -5.561  -4.762  -4.983  0.00  0.00     0.027 A 
ATOM      5  C5  DEN d   1      -4.628  -4.577  -5.979  0.00  0.00    -0.003 A 
ATOM      6  C6  DEN d   1      -3.294  -4.817  -5.785  0.00  0.00     0.001 A 
ATOM      7  C7  DEN d   1      -2.860  -5.301  -4.579  0.00  0.00     0.017 A 
ATOM      8  C8  DEN d   1      -3.793  -5.484  -3.567  0.00  0.00    -0.094 A 
ATOM      9  C9  DEN d   1      -5.139  -5.246  -3.787  0.00  0.00    -0.072 A 
ENDROOT
TORSDOF 0
ENDMDL
