MODEL 1
REMARK minimizedAffinity -1.32954836
REMARK minimizedRMSD -1
REMARK  0 active torsions:
REMARK  status: ('A' for Active; 'I' for Inactive)
ROOT
ATOM      1  C1  DEN d   1      -1.475  -1.734   0.734  0.00  0.00     0.130 A 
ATOM      2  C2  DEN d   1      -0.974  -2.784   1.616  0.00  0.00    -0.031 A 
ATOM      3  C3  DEN d   1      -0.848  -4.024   0.823  0.00  0.00     0.027 A 
ATOM      4  C4  DEN d   1      -1.372  -4.415  -1.671  0.00  0.00     0.027 A 
ATOM      5  C5  DEN d   1      -1.833  -3.825  -2.828  0.00  0.00    -0.003 A 
ATOM      6  C6  DEN d   1      -2.236  -2.517  -2.869  0.00  0.00     0.001 A 
ATOM      7  C7  DEN d   1      -2.143  -1.742  -1.744  0.00  0.00     0.017 A 
ATOM      8  C8  DEN d   1      -1.686  -2.332  -0.572  0.00  0.00    -0.094 A 
ATOM      9  C9  DEN d   1      -1.272  -3.653  -0.553  0.00  0.00    -0.072 A 
ENDROOT
TORSDOF 0
ENDMDL
