MODEL 1
REMARK minimizedAffinity 2.34021592
REMARK minimizedRMSD -1
REMARK  0 active torsions:
REMARK  status: ('A' for Active; 'I' for Inactive)
ROOT
ATOM      1  C1  DEN d   1      -3.785  -5.995  -2.212  0.00  0.00     0.130 A 
ATOM      2  C2  DEN d   1      -5.011  -5.761  -1.455  0.00  0.00    -0.031 A 
ATOM      3  C3  DEN d   1      -6.000  -5.149  -2.365  0.00  0.00     0.027 A 
ATOM      4  C4  DEN d   1      -5.754  -4.548  -4.861  0.00  0.00     0.027 A 
ATOM      5  C5  DEN d   1      -4.893  -4.548  -5.936  0.00  0.00    -0.003 A 
ATOM      6  C6  DEN d   1      -3.602  -4.995  -5.837  0.00  0.00     0.001 A 
ATOM      7  C7  DEN d   1      -3.149  -5.504  -4.649  0.00  0.00     0.017 A 
ATOM      8  C8  DEN d   1      -4.009  -5.500  -3.558  0.00  0.00    -0.094 A 
ATOM      9  C9  DEN d   1      -5.314  -5.054  -3.681  0.00  0.00    -0.072 A 
ENDROOT
TORSDOF 0
ENDMDL
