MODEL 1
REMARK minimizedAffinity 10.1871796
REMARK minimizedRMSD -1
REMARK  0 active torsions:
REMARK  status: ('A' for Active; 'I' for Inactive)
ROOT
ATOM      1  C1  DEN d   1       5.962   2.946   1.640  0.00  0.00     0.130 A 
ATOM      2  C2  DEN d   1       5.971   3.723   0.404  0.00  0.00    -0.031 A 
ATOM      3  C3  DEN d   1       5.968   2.777  -0.730  0.00  0.00     0.027 A 
ATOM      4  C4  DEN d   1       5.944   0.198  -0.691  0.00  0.00     0.027 A 
ATOM      5  C5  DEN d   1       5.944  -0.912   0.125  0.00  0.00    -0.003 A 
ATOM      6  C6  DEN d   1       5.985  -0.816   1.490  0.00  0.00     0.001 A 
ATOM      7  C7  DEN d   1       5.981   0.419   2.084  0.00  0.00     0.017 A 
ATOM      8  C8  DEN d   1       5.988   1.543   1.268  0.00  0.00    -0.094 A 
ATOM      9  C9  DEN d   1       5.934   1.424  -0.110  0.00  0.00    -0.072 A 
ENDROOT
TORSDOF 0
ENDMDL
