MODEL 1
REMARK minimizedAffinity 9.17399883
REMARK minimizedRMSD -1
REMARK  0 active torsions:
REMARK  status: ('A' for Active; 'I' for Inactive)
ROOT
ATOM      1  C1  DEN d   1       2.807   2.666   0.795  0.00  0.00     0.130 A 
ATOM      2  C2  DEN d   1       1.380   2.792   1.079  0.00  0.00    -0.031 A 
ATOM      3  C3  DEN d   1       0.970   1.625   1.885  0.00  0.00     0.027 A 
ATOM      4  C4  DEN d   1       2.400  -0.352   2.721  0.00  0.00     0.027 A 
ATOM      5  C5  DEN d   1       3.662  -0.903   2.722  0.00  0.00    -0.003 A 
ATOM      6  C6  DEN d   1       4.712  -0.326   2.058  0.00  0.00     0.001 A 
ATOM      7  C7  DEN d   1       4.528   0.863   1.401  0.00  0.00     0.017 A 
ATOM      8  C8  DEN d   1       3.257   1.421   1.390  0.00  0.00    -0.094 A 
ATOM      9  C9  DEN d   1       2.212   0.828   2.078  0.00  0.00    -0.072 A 
ENDROOT
TORSDOF 0
ENDMDL
