MODEL 1
REMARK minimizedAffinity 6.31572342
REMARK minimizedRMSD -1
REMARK  0 active torsions:
REMARK  status: ('A' for Active; 'I' for Inactive)
ROOT
ATOM      1  C1  DEN d   1      -3.354  -4.146  -5.890  0.00  0.00     0.130 A 
ATOM      2  C2  DEN d   1      -2.029  -4.760  -5.914  0.00  0.00    -0.031 A 
ATOM      3  C3  DEN d   1      -1.891  -5.595  -4.704  0.00  0.00     0.027 A 
ATOM      4  C4  DEN d   1      -3.593  -5.998  -2.809  0.00  0.00     0.027 A 
ATOM      5  C5  DEN d   1      -4.851  -5.683  -2.343  0.00  0.00    -0.003 A 
ATOM      6  C6  DEN d   1      -5.677  -4.814  -3.005  0.00  0.00     0.001 A 
ATOM      7  C7  DEN d   1      -5.274  -4.265  -4.193  0.00  0.00     0.017 A 
ATOM      8  C8  DEN d   1      -4.004  -4.572  -4.665  0.00  0.00    -0.094 A 
ATOM      9  C9  DEN d   1      -3.188  -5.462  -3.988  0.00  0.00    -0.072 A 
ENDROOT
TORSDOF 0
ENDMDL
