MODEL 1
REMARK minimizedAffinity 3.92439103
REMARK minimizedRMSD -1
REMARK  0 active torsions:
REMARK  status: ('A' for Active; 'I' for Inactive)
ROOT
ATOM      1  C1  DEN d   1       2.317   2.110   0.696  0.00  0.00     0.130 A 
ATOM      2  C2  DEN d   1       1.737   1.269   1.739  0.00  0.00    -0.031 A 
ATOM      3  C3  DEN d   1       2.640   0.121   1.954  0.00  0.00     0.027 A 
ATOM      4  C4  DEN d   1       4.871  -0.431   0.782  0.00  0.00     0.027 A 
ATOM      5  C5  DEN d   1       5.765  -0.019  -0.181  0.00  0.00    -0.003 A 
ATOM      6  C6  DEN d   1       5.558   1.105  -0.936  0.00  0.00     0.001 A 
ATOM      7  C7  DEN d   1       4.451   1.880  -0.710  0.00  0.00     0.017 A 
ATOM      8  C8  DEN d   1       3.541   1.467   0.254  0.00  0.00    -0.094 A 
ATOM      9  C9  DEN d   1       3.775   0.334   1.016  0.00  0.00    -0.072 A 
ENDROOT
TORSDOF 0
ENDMDL
