MODEL 1
REMARK minimizedAffinity 14.8300276
REMARK minimizedRMSD -1
REMARK  0 active torsions:
REMARK  status: ('A' for Active; 'I' for Inactive)
ROOT
ATOM      1  C1  DEN d   1       1.544   0.115   2.473  0.00  0.00     0.130 A 
ATOM      2  C2  DEN d   1       0.770   1.294   2.095  0.00  0.00    -0.031 A 
ATOM      3  C3  DEN d   1       1.600   2.114   1.189  0.00  0.00     0.027 A 
ATOM      4  C4  DEN d   1       3.994   1.672   0.338  0.00  0.00     0.027 A 
ATOM      5  C5  DEN d   1       5.064   0.806   0.395  0.00  0.00    -0.003 A 
ATOM      6  C6  DEN d   1       5.048  -0.324   1.169  0.00  0.00     0.001 A 
ATOM      7  C7  DEN d   1       3.923  -0.642   1.882  0.00  0.00     0.017 A 
ATOM      8  C8  DEN d   1       2.843   0.230   1.836  0.00  0.00    -0.094 A 
ATOM      9  C9  DEN d   1       2.874   1.361   1.038  0.00  0.00    -0.072 A 
ENDROOT
TORSDOF 0
ENDMDL
