MODEL 1
REMARK minimizedAffinity 12.0422935
REMARK minimizedRMSD -1
REMARK  0 active torsions:
REMARK  status: ('A' for Active; 'I' for Inactive)
ROOT
ATOM      1  C1  DEN d   1      -2.148  -2.909   1.524  0.00  0.00     0.130 A 
ATOM      2  C2  DEN d   1      -0.787  -3.279   1.901  0.00  0.00    -0.031 A 
ATOM      3  C3  DEN d   1      -0.089  -3.751   0.689  0.00  0.00     0.027 A 
ATOM      4  C4  DEN d   1      -0.978  -3.939  -1.725  0.00  0.00     0.027 A 
ATOM      5  C5  DEN d   1      -2.077  -3.753  -2.534  0.00  0.00    -0.003 A 
ATOM      6  C6  DEN d   1      -3.277  -3.309  -2.046  0.00  0.00     0.001 A 
ATOM      7  C7  DEN d   1      -3.394  -2.992  -0.718  0.00  0.00     0.017 A 
ATOM      8  C8  DEN d   1      -2.292  -3.184   0.106  0.00  0.00    -0.094 A 
ATOM      9  C9  DEN d   1      -1.084  -3.623  -0.410  0.00  0.00    -0.072 A 
ENDROOT
TORSDOF 0
ENDMDL
