MODEL 1
REMARK minimizedAffinity 7.32644892
REMARK minimizedRMSD -1
REMARK  0 active torsions:
REMARK  status: ('A' for Active; 'I' for Inactive)
ROOT
ATOM      1  C1  DEN d   1      -2.986  -3.606  -1.777  0.00  0.00     0.130 A 
ATOM      2  C2  DEN d   1      -2.384  -3.092  -3.004  0.00  0.00    -0.031 A 
ATOM      3  C3  DEN d   1      -3.126  -3.656  -4.148  0.00  0.00     0.027 A 
ATOM      4  C4  DEN d   1      -5.143  -5.265  -4.140  0.00  0.00     0.027 A 
ATOM      5  C5  DEN d   1      -6.000  -5.986  -3.339  0.00  0.00    -0.003 A 
ATOM      6  C6  DEN d   1      -5.892  -5.992  -1.974  0.00  0.00     0.001 A 
ATOM      7  C7  DEN d   1      -4.933  -5.225  -1.365  0.00  0.00     0.017 A 
ATOM      8  C8  DEN d   1      -4.061  -4.501  -2.167  0.00  0.00    -0.094 A 
ATOM      9  C9  DEN d   1      -4.194  -4.499  -3.545  0.00  0.00    -0.072 A 
ENDROOT
TORSDOF 0
ENDMDL
