MODEL 1
REMARK minimizedAffinity -2.77899003
REMARK minimizedRMSD -1
REMARK  0 active torsions:
REMARK  status: ('A' for Active; 'I' for Inactive)
ROOT
ATOM      1  C1  DEN d   1       4.557   5.996   3.006  0.00  0.00     0.130 A 
ATOM      2  C2  DEN d   1       5.335   6.000   4.242  0.00  0.00    -0.031 A 
ATOM      3  C3  DEN d   1       5.998   4.686   4.368  0.00  0.00     0.027 A 
ATOM      4  C4  DEN d   1       5.899   2.660   2.775  0.00  0.00     0.027 A 
ATOM      5  C5  DEN d   1       5.359   2.179   1.603  0.00  0.00    -0.003 A 
ATOM      6  C6  DEN d   1       4.494   2.917   0.840  0.00  0.00     0.001 A 
ATOM      7  C7  DEN d   1       4.179   4.196   1.218  0.00  0.00     0.017 A 
ATOM      8  C8  DEN d   1       4.713   4.685   2.402  0.00  0.00    -0.094 A 
ATOM      9  C9  DEN d   1       5.596   3.927   3.153  0.00  0.00    -0.072 A 
ENDROOT
TORSDOF 0
ENDMDL
