MODEL 1
REMARK minimizedAffinity 2.92328453
REMARK minimizedRMSD -1
REMARK  0 active torsions:
REMARK  status: ('A' for Active; 'I' for Inactive)
ROOT
ATOM      1  C1  DEN d   1      -4.030  -4.794  -3.220  0.00  0.00     0.130 A 
ATOM      2  C2  DEN d   1      -4.109  -4.243  -1.870  0.00  0.00    -0.031 A 
ATOM      3  C3  DEN d   1      -3.284  -3.019  -1.827  0.00  0.00     0.027 A 
ATOM      4  C4  DEN d   1      -1.904  -1.926  -3.712  0.00  0.00     0.027 A 
ATOM      5  C5  DEN d   1      -1.520  -2.035  -5.030  0.00  0.00    -0.003 A 
ATOM      6  C6  DEN d   1      -1.915  -3.081  -5.821  0.00  0.00     0.001 A 
ATOM      7  C7  DEN d   1      -2.755  -4.036  -5.314  0.00  0.00     0.017 A 
ATOM      8  C8  DEN d   1      -3.141  -3.937  -3.984  0.00  0.00    -0.094 A 
ATOM      9  C9  DEN d   1      -2.741  -2.865  -3.204  0.00  0.00    -0.072 A 
ENDROOT
TORSDOF 0
ENDMDL
