MODEL 1
REMARK minimizedAffinity 7.03284502
REMARK minimizedRMSD -1
REMARK  0 active torsions:
REMARK  status: ('A' for Active; 'I' for Inactive)
ROOT
ATOM      1  C1  DEN d   1       2.335  -4.234  -5.965  0.00  0.00     0.130 A 
ATOM      2  C2  DEN d   1       3.014  -2.941  -5.983  0.00  0.00    -0.031 A 
ATOM      3  C3  DEN d   1       1.983  -1.884  -5.992  0.00  0.00     0.027 A 
ATOM      4  C4  DEN d   1      -0.585  -2.122  -5.975  0.00  0.00     0.027 A 
ATOM      5  C5  DEN d   1      -1.629  -3.020  -5.971  0.00  0.00    -0.003 A 
ATOM      6  C6  DEN d   1      -1.428  -4.374  -5.999  0.00  0.00     0.001 A 
ATOM      7  C7  DEN d   1      -0.151  -4.871  -5.986  0.00  0.00     0.017 A 
ATOM      8  C8  DEN d   1       0.907  -3.971  -5.998  0.00  0.00    -0.094 A 
ATOM      9  C9  DEN d   1       0.683  -2.606  -5.957  0.00  0.00    -0.072 A 
ENDROOT
TORSDOF 0
ENDMDL
