MODEL 1
REMARK minimizedAffinity -4.17843199
REMARK minimizedRMSD -1
REMARK  1 active torsions:
REMARK  status: ('A' for Active; 'I' for Inactive)
REMARK    1  A    between atoms: C1_2  and  C2_3 
ROOT
ATOM      1  C2  UNL d   1      -1.027   1.329  -0.406  0.00  0.00    -0.073 A 
ATOM      2  C3  UNL d   1      -1.667   1.137   0.823  0.00  0.00    -0.002 A 
ATOM      3  C4  UNL d   1      -1.157   0.224   1.748  0.00  0.00     0.004 A 
ATOM      4  C5  UNL d   1      -0.001  -0.499   1.456  0.00  0.00    -0.004 A 
ATOM      5  C6  UNL d   1       0.660  -0.312   0.238  0.00  0.00    -0.075 A 
ATOM      6  C7  UNL d   1       1.903  -1.083  -0.092  0.00  0.00     0.076 C 
ATOM      7  C8  UNL d   1       0.140   0.604  -0.687  0.00  0.00     0.001 A 
ENDROOT
BRANCH   1   8
ATOM      8  C1  UNL d   1      -1.570   2.318  -1.405  0.00  0.00     0.053 C 
ATOM      9  C   UNL d   1      -2.779   1.772  -2.148  0.00  0.00     0.018 C 
ENDBRANCH   1   8
TORSDOF 1
ENDMDL
