MODEL 1
REMARK minimizedAffinity -4.59690857
REMARK minimizedRMSD -1
REMARK  1 active torsions:
REMARK  status: ('A' for Active; 'I' for Inactive)
REMARK    1  A    between atoms: C1_2  and  C2_3 
ROOT
ATOM      1  C2  UNL d   1      -0.622   0.729  -1.804  0.00  0.00    -0.073 A 
ATOM      2  C3  UNL d   1      -1.225   1.297  -0.676  0.00  0.00    -0.002 A 
ATOM      3  C4  UNL d   1      -0.693   1.075   0.595  0.00  0.00     0.004 A 
ATOM      4  C5  UNL d   1       0.449   0.290   0.750  0.00  0.00    -0.004 A 
ATOM      5  C6  UNL d   1       1.074  -0.276  -0.366  0.00  0.00    -0.075 A 
ATOM      6  C7  UNL d   1       2.302  -1.124  -0.216  0.00  0.00     0.076 C 
ATOM      7  C8  UNL d   1       0.532  -0.051  -1.639  0.00  0.00     0.001 A 
ENDROOT
BRANCH   1   8
ATOM      8  C1  UNL d   1      -1.189   0.971  -3.179  0.00  0.00     0.053 C 
ATOM      9  C   UNL d   1      -2.641   1.419  -3.126  0.00  0.00     0.018 C 
ENDBRANCH   1   8
TORSDOF 1
ENDMDL
