MODEL 1
REMARK minimizedAffinity 0.647687137
REMARK minimizedRMSD -1
REMARK  1 active torsions:
REMARK  status: ('A' for Active; 'I' for Inactive)
REMARK    1  A    between atoms: C1_2  and  C2_3 
ROOT
ATOM      1  C2  UNL d   1      -0.267   0.705  -0.464  0.00  0.00    -0.073 A 
ATOM      2  C3  UNL d   1       0.763   1.421  -1.083  0.00  0.00    -0.002 A 
ATOM      3  C4  UNL d   1       2.092   1.029  -0.917  0.00  0.00     0.004 A 
ATOM      4  C5  UNL d   1       2.404  -0.085  -0.138  0.00  0.00    -0.004 A 
ATOM      5  C6  UNL d   1       1.387  -0.821   0.479  0.00  0.00    -0.075 A 
ATOM      6  C7  UNL d   1       1.705  -2.020   1.322  0.00  0.00     0.076 C 
ATOM      7  C8  UNL d   1       0.055  -0.419   0.310  0.00  0.00     0.001 A 
ENDROOT
BRANCH   1   8
ATOM      8  C1  UNL d   1      -1.704   1.121  -0.645  0.00  0.00     0.053 C 
ATOM      9  C   UNL d   1      -1.924   1.853  -1.960  0.00  0.00     0.018 C 
ENDBRANCH   1   8
TORSDOF 1
ENDMDL
