MODEL 1
REMARK minimizedAffinity -0.563871562
REMARK minimizedRMSD -1
REMARK  1 active torsions:
REMARK  status: ('A' for Active; 'I' for Inactive)
REMARK    1  A    between atoms: C1_2  and  C2_3 
ROOT
ATOM      1  C2  UNL d   1       0.622  -0.279   0.199  0.00  0.00    -0.073 A 
ATOM      2  C3  UNL d   1      -0.270  -0.480   1.259  0.00  0.00    -0.002 A 
ATOM      3  C4  UNL d   1      -1.476   0.220   1.307  0.00  0.00     0.004 A 
ATOM      4  C5  UNL d   1      -1.807   1.120   0.294  0.00  0.00    -0.004 A 
ATOM      5  C6  UNL d   1      -0.934   1.326  -0.779  0.00  0.00    -0.075 A 
ATOM      6  C7  UNL d   1      -1.274   2.293  -1.875  0.00  0.00     0.076 C 
ATOM      7  C8  UNL d   1       0.277   0.622  -0.819  0.00  0.00     0.001 A 
ENDROOT
BRANCH   1   8
ATOM      8  C1  UNL d   1       1.923  -1.036   0.139  0.00  0.00     0.053 C 
ATOM      9  C   UNL d   1       2.354  -1.537   1.508  0.00  0.00     0.018 C 
ENDBRANCH   1   8
TORSDOF 1
ENDMDL
