MODEL 1
REMARK minimizedAffinity -3.83928108
REMARK minimizedRMSD -1
REMARK  1 active torsions:
REMARK  status: ('A' for Active; 'I' for Inactive)
REMARK    1  A    between atoms: C1_2  and  C2_3 
ROOT
ATOM      1  C2  UNL d   1      -0.136  -0.076   0.323  0.00  0.00    -0.073 A 
ATOM      2  C3  UNL d   1       1.116  -0.345  -0.241  0.00  0.00    -0.002 A 
ATOM      3  C4  UNL d   1       2.070  -1.071   0.474  0.00  0.00     0.004 A 
ATOM      4  C5  UNL d   1       1.779  -1.541   1.755  0.00  0.00    -0.004 A 
ATOM      5  C6  UNL d   1       0.529  -1.293   2.331  0.00  0.00    -0.075 A 
ATOM      6  C7  UNL d   1       0.202  -1.789   3.709  0.00  0.00     0.076 C 
ATOM      7  C8  UNL d   1      -0.422  -0.561   1.608  0.00  0.00     0.001 A 
ENDROOT
BRANCH   1   8
ATOM      8  C1  UNL d   1      -1.172   0.702  -0.447  0.00  0.00     0.053 C 
ATOM      9  C   UNL d   1      -0.715   1.011  -1.864  0.00  0.00     0.018 C 
ENDBRANCH   1   8
TORSDOF 1
ENDMDL
