MODEL 1
REMARK minimizedAffinity -2.36369443
REMARK minimizedRMSD -1
REMARK  1 active torsions:
REMARK  status: ('A' for Active; 'I' for Inactive)
REMARK    1  A    between atoms: C1_2  and  C2_3 
ROOT
ATOM      1  C2  UNL d   1      -0.438   0.666  -0.226  0.00  0.00    -0.073 A 
ATOM      2  C3  UNL d   1      -0.914   1.748   0.523  0.00  0.00    -0.002 A 
ATOM      3  C4  UNL d   1      -1.757   2.694  -0.063  0.00  0.00     0.004 A 
ATOM      4  C5  UNL d   1      -2.138   2.564  -1.398  0.00  0.00    -0.004 A 
ATOM      5  C6  UNL d   1      -1.682   1.482  -2.160  0.00  0.00    -0.075 A 
ATOM      6  C7  UNL d   1      -2.081   1.329  -3.598  0.00  0.00     0.076 C 
ATOM      7  C8  UNL d   1      -0.834   0.538  -1.565  0.00  0.00     0.001 A 
ENDROOT
BRANCH   1   8
ATOM      8  C1  UNL d   1       0.467  -0.361   0.404  0.00  0.00     0.053 C 
ATOM      9  C   UNL d   1       1.902  -0.230  -0.081  0.00  0.00     0.018 C 
ENDBRANCH   1   8
TORSDOF 1
ENDMDL
