MODEL 1
REMARK minimizedAffinity -3.1567564
REMARK minimizedRMSD -1
REMARK  1 active torsions:
REMARK  status: ('A' for Active; 'I' for Inactive)
REMARK    1  A    between atoms: C1_2  and  C2_3 
ROOT
ATOM      1  C2  UNL d   1       0.028   0.884  -0.952  0.00  0.00    -0.073 A 
ATOM      2  C3  UNL d   1       0.931   0.733  -2.010  0.00  0.00    -0.002 A 
ATOM      3  C4  UNL d   1       2.007  -0.148  -1.899  0.00  0.00     0.004 A 
ATOM      4  C5  UNL d   1       2.187  -0.892  -0.733  0.00  0.00    -0.004 A 
ATOM      5  C6  UNL d   1       1.289  -0.763   0.332  0.00  0.00    -0.075 A 
ATOM      6  C7  UNL d   1       1.471  -1.554   1.594  0.00  0.00     0.076 C 
ATOM      7  C8  UNL d   1       0.213   0.126   0.213  0.00  0.00     0.001 A 
ENDROOT
BRANCH   1   8
ATOM      8  C1  UNL d   1      -1.139   1.830  -1.070  0.00  0.00     0.053 C 
ATOM      9  C   UNL d   1      -1.066   2.670  -2.335  0.00  0.00     0.018 C 
ENDBRANCH   1   8
TORSDOF 1
ENDMDL
