MODEL 1
REMARK minimizedAffinity -3.96790671
REMARK minimizedRMSD -1
REMARK  1 active torsions:
REMARK  status: ('A' for Active; 'I' for Inactive)
REMARK    1  A    between atoms: C1_2  and  C2_3 
ROOT
ATOM      1  C2  UNL d   1       0.104   0.332   0.334  0.00  0.00    -0.073 A 
ATOM      2  C3  UNL d   1       1.330  -0.080  -0.202  0.00  0.00    -0.002 A 
ATOM      3  C4  UNL d   1       2.117  -1.013   0.475  0.00  0.00     0.004 A 
ATOM      4  C5  UNL d   1       1.684  -1.549   1.688  0.00  0.00    -0.004 A 
ATOM      5  C6  UNL d   1       0.456  -1.159   2.233  0.00  0.00    -0.075 A 
ATOM      6  C7  UNL d   1      -0.022  -1.724   3.538  0.00  0.00     0.076 C 
ATOM      7  C8  UNL d   1      -0.327  -0.219   1.550  0.00  0.00     0.001 A 
ENDROOT
BRANCH   1   8
ATOM      8  C1  UNL d   1      -0.752   1.335  -0.395  0.00  0.00     0.053 C 
ATOM      9  C   UNL d   1      -1.420   0.730  -1.620  0.00  0.00     0.018 C 
ENDBRANCH   1   8
TORSDOF 1
ENDMDL
