MODEL 1
REMARK minimizedAffinity -4.59316587
REMARK minimizedRMSD -1
REMARK  1 active torsions:
REMARK  status: ('A' for Active; 'I' for Inactive)
REMARK    1  A    between atoms: C1_2  and  C2_3 
ROOT
ATOM      1  C2  UNL d   1      -0.042   0.402   0.522  0.00  0.00    -0.073 A 
ATOM      2  C3  UNL d   1       1.060   0.275  -0.332  0.00  0.00    -0.002 A 
ATOM      3  C4  UNL d   1       2.085  -0.623  -0.031  0.00  0.00     0.004 A 
ATOM      4  C5  UNL d   1       2.015  -1.408   1.120  0.00  0.00    -0.004 A 
ATOM      5  C6  UNL d   1       0.916  -1.304   1.979  0.00  0.00    -0.075 A 
ATOM      6  C7  UNL d   1       0.827  -2.140   3.222  0.00  0.00     0.076 C 
ATOM      7  C8  UNL d   1      -0.108  -0.398   1.671  0.00  0.00     0.001 A 
ENDROOT
BRANCH   1   8
ATOM      8  C1  UNL d   1      -1.154   1.366   0.198  0.00  0.00     0.053 C 
ATOM      9  C   UNL d   1      -1.405   1.465  -1.298  0.00  0.00     0.018 C 
ENDBRANCH   1   8
TORSDOF 1
ENDMDL
