MODEL 1
REMARK minimizedAffinity -1.83643162
REMARK minimizedRMSD -1
REMARK  1 active torsions:
REMARK  status: ('A' for Active; 'I' for Inactive)
REMARK    1  A    between atoms: C1_2  and  C2_3 
ROOT
ATOM      1  C2  UNL d   1       0.207   0.473  -0.400  0.00  0.00    -0.073 A 
ATOM      2  C3  UNL d   1       0.628  -0.080  -1.614  0.00  0.00    -0.002 A 
ATOM      3  C4  UNL d   1       1.690  -0.985  -1.646  0.00  0.00     0.004 A 
ATOM      4  C5  UNL d   1       2.335  -1.352  -0.465  0.00  0.00    -0.004 A 
ATOM      5  C6  UNL d   1       1.921  -0.819   0.760  0.00  0.00    -0.075 A 
ATOM      6  C7  UNL d   1       2.606  -1.201   2.039  0.00  0.00     0.076 C 
ATOM      7  C8  UNL d   1       0.856   0.092   0.783  0.00  0.00     0.001 A 
ENDROOT
BRANCH   1   8
ATOM      8  C1  UNL d   1      -0.944   1.446  -0.360  0.00  0.00     0.053 C 
ATOM      9  C   UNL d   1      -1.695   1.494  -1.681  0.00  0.00     0.018 C 
ENDBRANCH   1   8
TORSDOF 1
ENDMDL
