MODEL 1
REMARK minimizedAffinity 11.6321907
REMARK minimizedRMSD -1
REMARK  1 active torsions:
REMARK  status: ('A' for Active; 'I' for Inactive)
REMARK    1  A    between atoms: C1_2  and  C2_3 
ROOT
ATOM      1  C2  UNL d   1      -1.698   2.415  -1.970  0.00  0.00    -0.073 A 
ATOM      2  C3  UNL d   1      -2.906   1.817  -2.348  0.00  0.00    -0.002 A 
ATOM      3  C4  UNL d   1      -3.558   0.937  -1.484  0.00  0.00     0.004 A 
ATOM      4  C5  UNL d   1      -3.014   0.650  -0.232  0.00  0.00    -0.004 A 
ATOM      5  C6  UNL d   1      -1.814   1.247   0.169  0.00  0.00    -0.075 A 
ATOM      6  C7  UNL d   1      -1.214   0.948   1.512  0.00  0.00     0.076 C 
ATOM      7  C8  UNL d   1      -1.164   2.128  -0.706  0.00  0.00     0.001 A 
ENDROOT
BRANCH   1   8
ATOM      8  C1  UNL d   1      -0.994   3.371  -2.897  0.00  0.00     0.053 C 
ATOM      9  C   UNL d   1       0.452   2.968  -3.142  0.00  0.00     0.018 C 
ENDBRANCH   1   8
TORSDOF 1
ENDMDL
