MODEL 1
REMARK minimizedAffinity -0.309939325
REMARK minimizedRMSD -1
REMARK  1 active torsions:
REMARK  status: ('A' for Active; 'I' for Inactive)
REMARK    1  A    between atoms: C1_2  and  C2_3 
ROOT
ATOM      1  C2  UNL d   1       5.610  -3.847   3.384  0.00  0.00    -0.076 A 
ATOM      2  C3  UNL d   1       5.400  -5.199   3.707  0.00  0.00     0.004 A 
ATOM      3  C4  UNL d   1       5.063  -5.584   5.003  0.00  0.00    -0.003 A 
ATOM      4  C5  UNL d   1       4.930  -4.622   5.999  0.00  0.00     0.000 A 
ATOM      5  C6  UNL d   1       5.117  -3.275   5.693  0.00  0.00     0.000 A 
ATOM      6  C7  UNL d   1       5.441  -2.868   4.387  0.00  0.00    -0.073 A 
ATOM      7  C8  UNL d   1       5.637  -1.402   4.115  0.00  0.00     0.078 C 
ENDROOT
BRANCH   1   8
ATOM      8  C1  UNL d   1       5.999  -3.492   1.967  0.00  0.00     0.053 C 
ATOM      9  C   UNL d   1       6.000  -4.700   1.043  0.00  0.00     0.018 C 
ENDBRANCH   1   8
TORSDOF 1
ENDMDL
