MODEL 1
REMARK minimizedAffinity -3.50794935
REMARK minimizedRMSD -1
REMARK  1 active torsions:
REMARK  status: ('A' for Active; 'I' for Inactive)
REMARK    1  A    between atoms: C1_2  and  C2_3 
ROOT
ATOM      1  C2  UNL d   1       5.960  -4.439   3.956  0.00  0.00    -0.076 A 
ATOM      2  C3  UNL d   1       5.998  -5.109   2.721  0.00  0.00     0.004 A 
ATOM      3  C4  UNL d   1       6.000  -4.401   1.520  0.00  0.00    -0.003 A 
ATOM      4  C5  UNL d   1       5.963  -3.011   1.535  0.00  0.00     0.000 A 
ATOM      5  C6  UNL d   1       5.943  -2.329   2.752  0.00  0.00     0.000 A 
ATOM      6  C7  UNL d   1       5.958  -3.028   3.971  0.00  0.00    -0.073 A 
ATOM      7  C8  UNL d   1       5.929  -2.242   5.254  0.00  0.00     0.078 C 
ENDROOT
BRANCH   1   8
ATOM      8  C1  UNL d   1       5.933  -5.261   5.225  0.00  0.00     0.053 C 
ATOM      9  C   UNL d   1       4.524  -5.675   5.621  0.00  0.00     0.018 C 
ENDBRANCH   1   8
TORSDOF 1
ENDMDL
