MODEL 1
REMARK minimizedAffinity -2.50018907
REMARK minimizedRMSD -1
REMARK  1 active torsions:
REMARK  status: ('A' for Active; 'I' for Inactive)
REMARK    1  A    between atoms: C1_2  and  C2_3 
ROOT
ATOM      1  C2  UNL d   1       5.717  -5.018   4.342  0.00  0.00    -0.076 A 
ATOM      2  C3  UNL d   1       5.858  -5.776   3.166  0.00  0.00     0.004 A 
ATOM      3  C4  UNL d   1       5.997  -5.156   1.926  0.00  0.00    -0.003 A 
ATOM      4  C5  UNL d   1       5.999  -3.768   1.841  0.00  0.00     0.000 A 
ATOM      5  C6  UNL d   1       5.878  -3.001   2.999  0.00  0.00     0.000 A 
ATOM      6  C7  UNL d   1       5.753  -3.610   4.259  0.00  0.00    -0.073 A 
ATOM      7  C8  UNL d   1       5.620  -2.733   5.475  0.00  0.00     0.078 C 
ENDROOT
BRANCH   1   8
ATOM      8  C1  UNL d   1       5.542  -5.746   5.656  0.00  0.00     0.053 C 
ATOM      9  C   UNL d   1       4.081  -6.000   5.991  0.00  0.00     0.018 C 
ENDBRANCH   1   8
TORSDOF 1
ENDMDL
