MODEL 1
REMARK minimizedAffinity 3.97127056
REMARK minimizedRMSD -1
REMARK  1 active torsions:
REMARK  status: ('A' for Active; 'I' for Inactive)
REMARK    1  A    between atoms: C1_2  and  C2_3 
ROOT
ATOM      1  C2  UNL d   1       5.300  -4.319   3.065  0.00  0.00    -0.076 A 
ATOM      2  C3  UNL d   1       5.994  -5.416   3.604  0.00  0.00     0.004 A 
ATOM      3  C4  UNL d   1       5.642  -5.950   4.843  0.00  0.00    -0.003 A 
ATOM      4  C5  UNL d   1       4.590  -5.394   5.562  0.00  0.00     0.000 A 
ATOM      5  C6  UNL d   1       3.879  -4.317   5.035  0.00  0.00     0.000 A 
ATOM      6  C7  UNL d   1       4.211  -3.777   3.780  0.00  0.00    -0.073 A 
ATOM      7  C8  UNL d   1       3.415  -2.611   3.262  0.00  0.00     0.078 C 
ENDROOT
BRANCH   1   8
ATOM      8  C1  UNL d   1       5.745  -3.766   1.730  0.00  0.00     0.053 C 
ATOM      9  C   UNL d   1       5.999  -4.858   0.702  0.00  0.00     0.018 C 
ENDBRANCH   1   8
TORSDOF 1
ENDMDL
