MODEL 1
REMARK minimizedAffinity -3.35462999
REMARK minimizedRMSD -1
REMARK  1 active torsions:
REMARK  status: ('A' for Active; 'I' for Inactive)
REMARK    1  A    between atoms: C1_2  and  C2_3 
ROOT
ATOM      1  C2  UNL d   1       5.879  -4.171   4.309  0.00  0.00    -0.076 A 
ATOM      2  C3  UNL d   1       5.894  -4.861   3.085  0.00  0.00     0.004 A 
ATOM      3  C4  UNL d   1       5.952  -4.173   1.874  0.00  0.00    -0.003 A 
ATOM      4  C5  UNL d   1       5.996  -2.783   1.868  0.00  0.00     0.000 A 
ATOM      5  C6  UNL d   1       6.000  -2.083   3.074  0.00  0.00     0.000 A 
ATOM      6  C7  UNL d   1       5.959  -2.762   4.304  0.00  0.00    -0.073 A 
ATOM      7  C8  UNL d   1       5.959  -1.956   5.574  0.00  0.00     0.078 C 
ENDROOT
BRANCH   1   8
ATOM      8  C1  UNL d   1       5.788  -4.969   5.590  0.00  0.00     0.053 C 
ATOM      9  C   UNL d   1       4.356  -5.334   5.949  0.00  0.00     0.018 C 
ENDBRANCH   1   8
TORSDOF 1
ENDMDL
