MODEL 1
REMARK minimizedAffinity -2.10843039
REMARK minimizedRMSD -1
REMARK  1 active torsions:
REMARK  status: ('A' for Active; 'I' for Inactive)
REMARK    1  A    between atoms: C1_2  and  C2_3 
ROOT
ATOM      1  C2  UNL d   1       5.439  -3.566   4.200  0.00  0.00    -0.076 A 
ATOM      2  C3  UNL d   1       5.858  -4.793   3.657  0.00  0.00     0.004 A 
ATOM      3  C4  UNL d   1       5.527  -6.000   4.270  0.00  0.00    -0.003 A 
ATOM      4  C5  UNL d   1       4.771  -5.999   5.437  0.00  0.00     0.000 A 
ATOM      5  C6  UNL d   1       4.332  -4.792   5.981  0.00  0.00     0.000 A 
ATOM      6  C7  UNL d   1       4.643  -3.568   5.366  0.00  0.00    -0.073 A 
ATOM      7  C8  UNL d   1       4.149  -2.296   5.999  0.00  0.00     0.078 C 
ENDROOT
BRANCH   1   8
ATOM      8  C1  UNL d   1       5.852  -2.288   3.506  0.00  0.00     0.053 C 
ATOM      9  C   UNL d   1       6.000  -2.463   2.003  0.00  0.00     0.018 C 
ENDBRANCH   1   8
TORSDOF 1
ENDMDL
