MODEL 1
REMARK minimizedAffinity -0.261475474
REMARK minimizedRMSD -1
REMARK  1 active torsions:
REMARK  status: ('A' for Active; 'I' for Inactive)
REMARK    1  A    between atoms: C1_2  and  C2_3 
ROOT
ATOM      1  C2  UNL d   1       5.971  -3.798   3.513  0.00  0.00    -0.076 A 
ATOM      2  C3  UNL d   1       5.940  -5.202   3.591  0.00  0.00     0.004 A 
ATOM      3  C4  UNL d   1       5.940  -5.852   4.824  0.00  0.00    -0.003 A 
ATOM      4  C5  UNL d   1       5.969  -5.109   5.999  0.00  0.00     0.000 A 
ATOM      5  C6  UNL d   1       5.982  -3.715   5.940  0.00  0.00     0.000 A 
ATOM      6  C7  UNL d   1       5.966  -3.044   4.706  0.00  0.00    -0.073 A 
ATOM      7  C8  UNL d   1       5.987  -1.540   4.701  0.00  0.00     0.078 C 
ENDROOT
BRANCH   1   8
ATOM      8  C1  UNL d   1       5.998  -3.150   2.147  0.00  0.00     0.053 C 
ATOM      9  C   UNL d   1       6.000  -4.168   1.018  0.00  0.00     0.018 C 
ENDBRANCH   1   8
TORSDOF 1
ENDMDL
