MODEL 1
REMARK minimizedAffinity -3.09143281
REMARK minimizedRMSD -1
REMARK  1 active torsions:
REMARK  status: ('A' for Active; 'I' for Inactive)
REMARK    1  A    between atoms: C1_2  and  C2_3 
ROOT
ATOM      1  C2  UNL d   1       5.255  -4.296   4.226  0.00  0.00    -0.076 A 
ATOM      2  C3  UNL d   1       5.632  -4.832   2.982  0.00  0.00     0.004 A 
ATOM      3  C4  UNL d   1       6.000  -4.003   1.924  0.00  0.00    -0.003 A 
ATOM      4  C5  UNL d   1       5.998  -2.622   2.093  0.00  0.00     0.000 A 
ATOM      5  C6  UNL d   1       5.643  -2.073   3.325  0.00  0.00     0.000 A 
ATOM      6  C7  UNL d   1       5.286  -2.897   4.407  0.00  0.00    -0.073 A 
ATOM      7  C8  UNL d   1       4.907  -2.251   5.711  0.00  0.00     0.078 C 
ENDROOT
BRANCH   1   8
ATOM      8  C1  UNL d   1       4.840  -5.244   5.328  0.00  0.00     0.053 C 
ATOM      9  C   UNL d   1       3.370  -5.624   5.246  0.00  0.00     0.018 C 
ENDBRANCH   1   8
TORSDOF 1
ENDMDL
