MODEL 1
REMARK minimizedAffinity -3.51265144
REMARK minimizedRMSD -1
REMARK  1 active torsions:
REMARK  status: ('A' for Active; 'I' for Inactive)
REMARK    1  A    between atoms: C1_2  and  C2_3 
ROOT
ATOM      1  C2  UNL d   1       5.519  -4.688   4.664  0.00  0.00    -0.076 A 
ATOM      2  C3  UNL d   1       5.576  -5.415   3.462  0.00  0.00     0.004 A 
ATOM      3  C4  UNL d   1       5.814  -4.774   2.247  0.00  0.00    -0.003 A 
ATOM      4  C5  UNL d   1       6.000  -3.397   2.214  0.00  0.00     0.000 A 
ATOM      5  C6  UNL d   1       5.964  -2.662   3.399  0.00  0.00     0.000 A 
ATOM      6  C7  UNL d   1       5.742  -3.295   4.634  0.00  0.00    -0.073 A 
ATOM      7  C8  UNL d   1       5.707  -2.453   5.880  0.00  0.00     0.078 C 
ENDROOT
BRANCH   1   8
ATOM      8  C1  UNL d   1       5.230  -5.433   5.947  0.00  0.00     0.053 C 
ATOM      9  C   UNL d   1       3.810  -5.974   6.000  0.00  0.00     0.018 C 
ENDBRANCH   1   8
TORSDOF 1
ENDMDL
