MODEL 1
REMARK minimizedAffinity -3.01110601
REMARK minimizedRMSD -1
REMARK  1 active torsions:
REMARK  status: ('A' for Active; 'I' for Inactive)
REMARK    1  A    between atoms: C1_2  and  C2_3 
ROOT
ATOM      1  C2  UNL d   1       5.685  -3.847   4.096  0.00  0.00    -0.076 A 
ATOM      2  C3  UNL d   1       5.793  -3.220   2.842  0.00  0.00     0.004 A 
ATOM      3  C4  UNL d   1       5.948  -3.968   1.677  0.00  0.00    -0.003 A 
ATOM      4  C5  UNL d   1       5.998  -5.356   1.746  0.00  0.00     0.000 A 
ATOM      5  C6  UNL d   1       5.875  -5.996   2.979  0.00  0.00     0.000 A 
ATOM      6  C7  UNL d   1       5.701  -5.257   4.162  0.00  0.00    -0.073 A 
ATOM      7  C8  UNL d   1       5.580  -5.998   5.465  0.00  0.00     0.078 C 
ENDROOT
BRANCH   1   8
ATOM      8  C1  UNL d   1       5.545  -2.982   5.329  0.00  0.00     0.053 C 
ATOM      9  C   UNL d   1       4.098  -2.626   5.629  0.00  0.00     0.018 C 
ENDBRANCH   1   8
TORSDOF 1
ENDMDL
