MODEL 1
REMARK minimizedAffinity -3.10451317
REMARK minimizedRMSD -1
REMARK  1 active torsions:
REMARK  status: ('A' for Active; 'I' for Inactive)
REMARK    1  A    between atoms: C1_2  and  C2_3 
ROOT
ATOM      1  C2  UNL d   1       5.698  -4.644   3.866  0.00  0.00    -0.076 A 
ATOM      2  C3  UNL d   1       5.896  -3.400   3.243  0.00  0.00     0.004 A 
ATOM      3  C4  UNL d   1       5.610  -2.210   3.910  0.00  0.00    -0.003 A 
ATOM      4  C5  UNL d   1       5.123  -2.245   5.212  0.00  0.00     0.000 A 
ATOM      5  C6  UNL d   1       4.937  -3.470   5.852  0.00  0.00     0.000 A 
ATOM      6  C7  UNL d   1       5.235  -4.679   5.199  0.00  0.00    -0.073 A 
ATOM      7  C8  UNL d   1       5.010  -5.971   5.934  0.00  0.00     0.078 C 
ENDROOT
BRANCH   1   8
ATOM      8  C1  UNL d   1       5.999  -5.902   3.083  0.00  0.00     0.053 C 
ATOM      9  C   UNL d   1       5.998  -5.667   1.580  0.00  0.00     0.018 C 
ENDBRANCH   1   8
TORSDOF 1
ENDMDL
