MODEL 1
REMARK minimizedAffinity -4.32724285
REMARK minimizedRMSD -1
REMARK  1 active torsions:
REMARK  status: ('A' for Active; 'I' for Inactive)
REMARK    1  A    between atoms: C1_2  and  C2_3 
ROOT
ATOM      1  C2  UNL d   1       4.913  -4.562   4.543  0.00  0.00    -0.076 A 
ATOM      2  C3  UNL d   1       4.595  -3.330   5.141  0.00  0.00     0.004 A 
ATOM      3  C4  UNL d   1       4.965  -2.126   4.543  0.00  0.00    -0.003 A 
ATOM      4  C5  UNL d   1       5.658  -2.135   3.338  0.00  0.00     0.000 A 
ATOM      5  C6  UNL d   1       5.965  -3.348   2.722  0.00  0.00     0.000 A 
ATOM      6  C7  UNL d   1       5.586  -4.570   3.303  0.00  0.00    -0.073 A 
ATOM      7  C8  UNL d   1       5.949  -5.848   2.598  0.00  0.00     0.078 C 
ENDROOT
BRANCH   1   8
ATOM      8  C1  UNL d   1       4.510  -5.836   5.252  0.00  0.00     0.053 C 
ATOM      9  C   UNL d   1       3.007  -5.936   5.461  0.00  0.00     0.018 C 
ENDBRANCH   1   8
TORSDOF 1
ENDMDL
