MODEL 1
REMARK minimizedAffinity -0.427955627
REMARK minimizedRMSD -1
REMARK  1 active torsions:
REMARK  status: ('A' for Active; 'I' for Inactive)
REMARK    1  A    between atoms: C1_2  and  C2_3 
ROOT
ATOM      1  C2  UNL d   1       5.441  -3.506   4.175  0.00  0.00    -0.076 A 
ATOM      2  C3  UNL d   1       5.998  -4.677   3.632  0.00  0.00     0.004 A 
ATOM      3  C4  UNL d   1       5.830  -5.910   4.260  0.00  0.00    -0.003 A 
ATOM      4  C5  UNL d   1       5.102  -5.992   5.442  0.00  0.00     0.000 A 
ATOM      5  C6  UNL d   1       4.527  -4.843   5.986  0.00  0.00     0.000 A 
ATOM      6  C7  UNL d   1       4.673  -3.595   5.356  0.00  0.00    -0.073 A 
ATOM      7  C8  UNL d   1       4.038  -2.388   5.990  0.00  0.00     0.078 C 
ENDROOT
BRANCH   1   8
ATOM      8  C1  UNL d   1       5.679  -2.193   3.464  0.00  0.00     0.053 C 
ATOM      9  C   UNL d   1       5.991  -2.379   1.987  0.00  0.00     0.018 C 
ENDBRANCH   1   8
TORSDOF 1
ENDMDL
