MODEL 1
REMARK minimizedAffinity -1.66862988
REMARK minimizedRMSD -1
REMARK  1 active torsions:
REMARK  status: ('A' for Active; 'I' for Inactive)
REMARK    1  A    between atoms: C1_2  and  C2_3 
ROOT
ATOM      1  C2  UNL d   1       5.782  -4.306   3.768  0.00  0.00    -0.076 A 
ATOM      2  C3  UNL d   1       6.000  -2.968   3.393  0.00  0.00     0.004 A 
ATOM      3  C4  UNL d   1       5.811  -1.929   4.303  0.00  0.00    -0.003 A 
ATOM      4  C5  UNL d   1       5.402  -2.210   5.602  0.00  0.00     0.000 A 
ATOM      5  C6  UNL d   1       5.199  -3.532   5.995  0.00  0.00     0.000 A 
ATOM      6  C7  UNL d   1       5.400  -4.593   5.096  0.00  0.00    -0.073 A 
ATOM      7  C8  UNL d   1       5.160  -5.999   5.573  0.00  0.00     0.078 C 
ENDROOT
BRANCH   1   8
ATOM      8  C1  UNL d   1       5.977  -5.389   2.731  0.00  0.00     0.053 C 
ATOM      9  C   UNL d   1       5.978  -4.843   1.311  0.00  0.00     0.018 C 
ENDBRANCH   1   8
TORSDOF 1
ENDMDL
