MODEL 1
REMARK minimizedAffinity -3.94479918
REMARK minimizedRMSD -1
REMARK  1 active torsions:
REMARK  status: ('A' for Active; 'I' for Inactive)
REMARK    1  A    between atoms: C1_2  and  C2_3 
ROOT
ATOM      1  C2  UNL d   1       5.772  -3.937   3.032  0.00  0.00    -0.076 A 
ATOM      2  C3  UNL d   1       6.000  -2.674   2.458  0.00  0.00     0.004 A 
ATOM      3  C4  UNL d   1       5.782  -1.505   3.186  0.00  0.00    -0.003 A 
ATOM      4  C5  UNL d   1       5.333  -1.580   4.499  0.00  0.00     0.000 A 
ATOM      5  C6  UNL d   1       5.118  -2.824   5.091  0.00  0.00     0.000 A 
ATOM      6  C7  UNL d   1       5.349  -4.013   4.377  0.00  0.00    -0.073 A 
ATOM      7  C8  UNL d   1       5.095  -5.328   5.062  0.00  0.00     0.078 C 
ENDROOT
BRANCH   1   8
ATOM      8  C1  UNL d   1       6.000  -5.169   2.186  0.00  0.00     0.053 C 
ATOM      9  C   UNL d   1       6.000  -4.861   0.697  0.00  0.00     0.018 C 
ENDBRANCH   1   8
TORSDOF 1
ENDMDL
