MODEL 1
REMARK minimizedAffinity -2.85166168
REMARK minimizedRMSD -1
REMARK  1 active torsions:
REMARK  status: ('A' for Active; 'I' for Inactive)
REMARK    1  A    between atoms: C1_2  and  C2_3 
ROOT
ATOM      1  C2  UNL d   1       4.951  -3.760   4.255  0.00  0.00    -0.076 A 
ATOM      2  C3  UNL d   1       6.000  -4.695   4.298  0.00  0.00     0.004 A 
ATOM      3  C4  UNL d   1       5.953  -5.787   5.163  0.00  0.00    -0.003 A 
ATOM      4  C5  UNL d   1       4.856  -5.962   5.999  0.00  0.00     0.000 A 
ATOM      5  C6  UNL d   1       3.798  -5.054   5.957  0.00  0.00     0.000 A 
ATOM      6  C7  UNL d   1       3.822  -3.957   5.079  0.00  0.00    -0.073 A 
ATOM      7  C8  UNL d   1       2.657  -3.005   5.080  0.00  0.00     0.078 C 
ENDROOT
BRANCH   1   8
ATOM      8  C1  UNL d   1       5.070  -2.581   3.316  0.00  0.00     0.053 C 
ATOM      9  C   UNL d   1       5.320  -3.005   1.877  0.00  0.00     0.018 C 
ENDBRANCH   1   8
TORSDOF 1
ENDMDL
