MODEL 1
REMARK minimizedAffinity 7.65688419
REMARK minimizedRMSD -1
REMARK  0 active torsions:
REMARK  status: ('A' for Active; 'I' for Inactive)
ROOT
ATOM      1  C   UNL d   1       0.910   3.239  -1.355  0.00  0.00     0.023 A 
ATOM      2  C1  UNL d   1       1.021   4.293  -2.262  0.00  0.00     0.003 A 
ATOM      3  C2  UNL d   1       2.110   4.355  -3.133  0.00  0.00     0.048 A 
ATOM      4  C3  UNL d   1       3.085   3.358  -3.093  0.00  0.00     0.023 A 
ATOM      5  C4  UNL d   1       2.977   2.301  -2.189  0.00  0.00     0.048 A 
ATOM      6  C5  UNL d   1       1.887   2.244  -1.319  0.00  0.00     0.003 A 
ATOM      7  I   UNL d   1       4.707   3.448  -4.389  0.00  0.00    -0.146 I 
ENDROOT
TORSDOF 0
ENDMDL
