MODEL 1
REMARK minimizedAffinity 7.91246367
REMARK minimizedRMSD -1
REMARK  0 active torsions:
REMARK  status: ('A' for Active; 'I' for Inactive)
ROOT
ATOM      1  C   UNL d   1      -1.514   0.015   2.550  0.00  0.00     0.023 A 
ATOM      2  C1  UNL d   1      -2.427   0.758   1.801  0.00  0.00     0.003 A 
ATOM      3  C2  UNL d   1      -3.378   1.552   2.444  0.00  0.00     0.048 A 
ATOM      4  C3  UNL d   1      -3.409   1.601   3.838  0.00  0.00     0.023 A 
ATOM      5  C4  UNL d   1      -2.497   0.861   4.591  0.00  0.00     0.048 A 
ATOM      6  C5  UNL d   1      -1.549   0.067   3.943  0.00  0.00     0.003 A 
ATOM      7  I   UNL d   1      -4.823   2.783   4.798  0.00  0.00    -0.146 I 
ENDROOT
TORSDOF 0
ENDMDL
