MODEL 1
REMARK minimizedAffinity 3.51686549
REMARK minimizedRMSD -1
REMARK  0 active torsions:
REMARK  status: ('A' for Active; 'I' for Inactive)
ROOT
ATOM      1  C   UNL d   1      -5.979  -5.739   2.841  0.00  0.00     0.023 A 
ATOM      2  C1  UNL d   1      -5.954  -4.425   2.374  0.00  0.00     0.003 A 
ATOM      3  C2  UNL d   1      -5.951  -3.361   3.279  0.00  0.00     0.048 A 
ATOM      4  C3  UNL d   1      -5.972  -3.619   4.649  0.00  0.00     0.023 A 
ATOM      5  C4  UNL d   1      -5.996  -4.932   5.121  0.00  0.00     0.048 A 
ATOM      6  C5  UNL d   1      -6.000  -5.992   4.213  0.00  0.00     0.003 A 
ATOM      7  I   UNL d   1      -5.967  -2.037   5.997  0.00  0.00    -0.146 I 
ENDROOT
TORSDOF 0
ENDMDL
