MODEL 1
REMARK minimizedAffinity 2.67183518
REMARK minimizedRMSD -1
REMARK  0 active torsions:
REMARK  status: ('A' for Active; 'I' for Inactive)
ROOT
ATOM      1  C   UNL d   1      -2.575  -0.183   2.588  0.00  0.00     0.023 A 
ATOM      2  C1  UNL d   1      -2.513   0.390   3.858  0.00  0.00     0.003 A 
ATOM      3  C2  UNL d   1      -3.437   0.021   4.838  0.00  0.00     0.048 A 
ATOM      4  C3  UNL d   1      -4.420  -0.923   4.541  0.00  0.00     0.023 A 
ATOM      5  C4  UNL d   1      -4.485  -1.500   3.271  0.00  0.00     0.048 A 
ATOM      6  C5  UNL d   1      -3.560  -1.127   2.295  0.00  0.00     0.003 A 
ATOM      7  I   UNL d   1      -5.796  -1.475   5.997  0.00  0.00    -0.146 I 
ENDROOT
TORSDOF 0
ENDMDL
