MODEL 1
REMARK minimizedAffinity -0.308008999
REMARK minimizedRMSD -1
REMARK  0 active torsions:
REMARK  status: ('A' for Active; 'I' for Inactive)
ROOT
ATOM      1  C   UNL d   1      -1.520  -0.014   3.481  0.00  0.00     0.023 A 
ATOM      2  C1  UNL d   1      -1.266  -0.750   2.324  0.00  0.00     0.003 A 
ATOM      3  C2  UNL d   1      -2.099  -0.613   1.211  0.00  0.00     0.048 A 
ATOM      4  C3  UNL d   1      -3.184   0.261   1.263  0.00  0.00     0.023 A 
ATOM      5  C4  UNL d   1      -3.441   1.000   2.419  0.00  0.00     0.048 A 
ATOM      6  C5  UNL d   1      -2.606   0.860   3.529  0.00  0.00     0.003 A 
ATOM      7  I   UNL d   1      -4.425   0.466  -0.391  0.00  0.00    -0.146 I 
ENDROOT
TORSDOF 0
ENDMDL
