MODEL 1
REMARK minimizedAffinity 9.64218998
REMARK minimizedRMSD -1
REMARK  0 active torsions:
REMARK  status: ('A' for Active; 'I' for Inactive)
ROOT
ATOM      1  C   UNL d   1      -2.788   1.060   1.371  0.00  0.00     0.023 A 
ATOM      2  C1  UNL d   1      -2.093   0.153   2.171  0.00  0.00     0.003 A 
ATOM      3  C2  UNL d   1      -2.739  -0.984   2.662  0.00  0.00     0.048 A 
ATOM      4  C3  UNL d   1      -4.079  -1.208   2.348  0.00  0.00     0.023 A 
ATOM      5  C4  UNL d   1      -4.777  -0.304   1.547  0.00  0.00     0.048 A 
ATOM      6  C5  UNL d   1      -4.128   0.832   1.059  0.00  0.00     0.003 A 
ATOM      7  I   UNL d   1      -5.041  -2.900   3.078  0.00  0.00    -0.146 I 
ENDROOT
TORSDOF 0
ENDMDL
