MODEL 1
REMARK minimizedAffinity 7.93720818
REMARK minimizedRMSD -1
REMARK  0 active torsions:
REMARK  status: ('A' for Active; 'I' for Inactive)
ROOT
ATOM      1  C   UNL d   1      -1.644   5.266  -5.999  0.00  0.00     0.023 A 
ATOM      2  C1  UNL d   1      -2.838   5.987  -6.000  0.00  0.00     0.003 A 
ATOM      3  C2  UNL d   1      -3.664   5.973  -4.874  0.00  0.00     0.048 A 
ATOM      4  C3  UNL d   1      -3.289   5.237  -3.750  0.00  0.00     0.023 A 
ATOM      5  C4  UNL d   1      -2.095   4.514  -3.745  0.00  0.00     0.048 A 
ATOM      6  C5  UNL d   1      -1.273   4.531  -4.874  0.00  0.00     0.003 A 
ATOM      7  I   UNL d   1      -4.517   5.214  -2.073  0.00  0.00    -0.146 I 
ENDROOT
TORSDOF 0
ENDMDL
