MODEL 1
REMARK minimizedAffinity 6.81518364
REMARK minimizedRMSD -1
REMARK  0 active torsions:
REMARK  status: ('A' for Active; 'I' for Inactive)
ROOT
ATOM      1  C   UNL d   1       0.132  -1.089   2.259  0.00  0.00     0.023 A 
ATOM      2  C1  UNL d   1      -1.166  -0.604   2.099  0.00  0.00     0.003 A 
ATOM      3  C2  UNL d   1      -2.156  -1.421   1.549  0.00  0.00     0.048 A 
ATOM      4  C3  UNL d   1      -1.840  -2.723   1.161  0.00  0.00     0.023 A 
ATOM      5  C4  UNL d   1      -0.543  -3.213   1.319  0.00  0.00     0.048 A 
ATOM      6  C5  UNL d   1       0.443  -2.392   1.869  0.00  0.00     0.003 A 
ATOM      7  I   UNL d   1      -3.311  -3.942   0.341  0.00  0.00    -0.146 I 
ENDROOT
TORSDOF 0
ENDMDL
