MODEL 1
REMARK minimizedAffinity 8.95205307
REMARK minimizedRMSD -1
REMARK  0 active torsions:
REMARK  status: ('A' for Active; 'I' for Inactive)
ROOT
ATOM      1  C   UNL d   1       4.098   3.009   1.806  0.00  0.00     0.023 A 
ATOM      2  C1  UNL d   1       4.937   4.016   1.327  0.00  0.00     0.003 A 
ATOM      3  C2  UNL d   1       5.023   4.261  -0.045  0.00  0.00     0.048 A 
ATOM      4  C3  UNL d   1       4.266   3.497  -0.933  0.00  0.00     0.023 A 
ATOM      5  C4  UNL d   1       3.424   2.490  -0.458  0.00  0.00     0.048 A 
ATOM      6  C5  UNL d   1       3.343   2.247   0.914  0.00  0.00     0.003 A 
ATOM      7  I   UNL d   1       4.391   3.860  -2.975  0.00  0.00    -0.146 I 
ENDROOT
TORSDOF 0
ENDMDL
