MODEL 1
REMARK minimizedAffinity 7.54626513
REMARK minimizedRMSD -1
REMARK  0 active torsions:
REMARK  status: ('A' for Active; 'I' for Inactive)
ROOT
ATOM      1  C   UNL d   1      -6.000  -6.000   4.797  0.00  0.00     0.023 A 
ATOM      2  C1  UNL d   1      -5.657  -5.893   3.449  0.00  0.00     0.003 A 
ATOM      3  C2  UNL d   1      -5.181  -4.683   2.942  0.00  0.00     0.048 A 
ATOM      4  C3  UNL d   1      -5.048  -3.583   3.789  0.00  0.00     0.023 A 
ATOM      5  C4  UNL d   1      -5.389  -3.685   5.139  0.00  0.00     0.048 A 
ATOM      6  C5  UNL d   1      -5.866  -4.897   5.641  0.00  0.00     0.003 A 
ATOM      7  I   UNL d   1      -4.339  -1.780   3.037  0.00  0.00    -0.146 I 
ENDROOT
TORSDOF 0
ENDMDL
