MODEL 1
REMARK minimizedAffinity 10.3363171
REMARK minimizedRMSD -1
REMARK  0 active torsions:
REMARK  status: ('A' for Active; 'I' for Inactive)
ROOT
ATOM      1  C   UNL d   1       2.838   3.446  -3.812  0.00  0.00     0.023 A 
ATOM      2  C1  UNL d   1       1.706   2.775  -3.348  0.00  0.00     0.003 A 
ATOM      3  C2  UNL d   1       1.740   2.113  -2.120  0.00  0.00     0.048 A 
ATOM      4  C3  UNL d   1       2.909   2.126  -1.359  0.00  0.00     0.023 A 
ATOM      5  C4  UNL d   1       4.043   2.796  -1.818  0.00  0.00     0.048 A 
ATOM      6  C5  UNL d   1       4.005   3.457  -3.048  0.00  0.00     0.003 A 
ATOM      7  I   UNL d   1       2.961   1.140   0.470  0.00  0.00    -0.146 I 
ENDROOT
TORSDOF 0
ENDMDL
