MODEL 1
REMARK minimizedAffinity 1.90237248
REMARK minimizedRMSD -1
REMARK  0 active torsions:
REMARK  status: ('A' for Active; 'I' for Inactive)
ROOT
ATOM      1  C   UNL d   1      -0.646  -2.644   2.102  0.00  0.00     0.023 A 
ATOM      2  C1  UNL d   1      -1.908  -2.475   1.533  0.00  0.00     0.003 A 
ATOM      3  C2  UNL d   1      -2.658  -1.333   1.820  0.00  0.00     0.048 A 
ATOM      4  C3  UNL d   1      -2.139  -0.362   2.676  0.00  0.00     0.023 A 
ATOM      5  C4  UNL d   1      -0.876  -0.526   3.247  0.00  0.00     0.048 A 
ATOM      6  C5  UNL d   1      -0.130  -1.671   2.958  0.00  0.00     0.003 A 
ATOM      7  I   UNL d   1      -3.253   1.339   3.105  0.00  0.00    -0.146 I 
ENDROOT
TORSDOF 0
ENDMDL
