MODEL 1
REMARK minimizedAffinity 10.7375374
REMARK minimizedRMSD -1
REMARK  0 active torsions:
REMARK  status: ('A' for Active; 'I' for Inactive)
ROOT
ATOM      1  C   UNL d   1      -1.388  -0.784   2.782  0.00  0.00     0.023 A 
ATOM      2  C1  UNL d   1      -1.979   0.458   3.016  0.00  0.00     0.003 A 
ATOM      3  C2  UNL d   1      -3.129   0.828   2.316  0.00  0.00     0.048 A 
ATOM      4  C3  UNL d   1      -3.683  -0.049   1.384  0.00  0.00     0.023 A 
ATOM      5  C4  UNL d   1      -3.096  -1.293   1.147  0.00  0.00     0.048 A 
ATOM      6  C5  UNL d   1      -1.946  -1.658   1.849  0.00  0.00     0.003 A 
ATOM      7  I   UNL d   1      -5.395   0.500   0.341  0.00  0.00    -0.146 I 
ENDROOT
TORSDOF 0
ENDMDL
