MODEL 1
REMARK minimizedAffinity 10.8950186
REMARK minimizedRMSD -1
REMARK  0 active torsions:
REMARK  status: ('A' for Active; 'I' for Inactive)
ROOT
ATOM      1  C   UNL d   1       5.988   4.464  -3.674  0.00  0.00     0.023 A 
ATOM      2  C1  UNL d   1       5.288   3.700  -4.608  0.00  0.00     0.003 A 
ATOM      3  C2  UNL d   1       4.071   3.111  -4.259  0.00  0.00     0.048 A 
ATOM      4  C3  UNL d   1       3.558   3.292  -2.975  0.00  0.00     0.023 A 
ATOM      5  C4  UNL d   1       4.254   4.056  -2.037  0.00  0.00     0.048 A 
ATOM      6  C5  UNL d   1       5.471   4.642  -2.390  0.00  0.00     0.003 A 
ATOM      7  I   UNL d   1       1.747   2.416  -2.454  0.00  0.00    -0.146 I 
ENDROOT
TORSDOF 0
ENDMDL
