MODEL 1
REMARK minimizedAffinity 13.1046772
REMARK minimizedRMSD -1
REMARK  0 active torsions:
REMARK  status: ('A' for Active; 'I' for Inactive)
ROOT
ATOM      1  C   UNL d   1      -1.588  -0.951   1.819  0.00  0.00     0.023 A 
ATOM      2  C1  UNL d   1      -2.466  -0.047   1.222  0.00  0.00     0.003 A 
ATOM      3  C2  UNL d   1      -3.239   0.805   2.014  0.00  0.00     0.048 A 
ATOM      4  C3  UNL d   1      -3.127   0.749   3.403  0.00  0.00     0.023 A 
ATOM      5  C4  UNL d   1      -2.249  -0.153   4.005  0.00  0.00     0.048 A 
ATOM      6  C5  UNL d   1      -1.479  -1.004   3.209  0.00  0.00     0.003 A 
ATOM      7  I   UNL d   1      -4.275   2.016   4.584  0.00  0.00    -0.146 I 
ENDROOT
TORSDOF 0
ENDMDL
