MODEL 1
REMARK minimizedAffinity 12.5696468
REMARK minimizedRMSD -1
REMARK  0 active torsions:
REMARK  status: ('A' for Active; 'I' for Inactive)
ROOT
ATOM      1  C   UNL d   1      -5.996  -5.962   4.754  0.00  0.00     0.023 A 
ATOM      2  C1  UNL d   1      -5.323  -4.948   5.436  0.00  0.00     0.003 A 
ATOM      3  C2  UNL d   1      -4.631  -3.966   4.725  0.00  0.00     0.048 A 
ATOM      4  C3  UNL d   1      -4.617  -4.003   3.331  0.00  0.00     0.023 A 
ATOM      5  C4  UNL d   1      -5.289  -5.014   2.644  0.00  0.00     0.048 A 
ATOM      6  C5  UNL d   1      -5.979  -5.995   3.359  0.00  0.00     0.003 A 
ATOM      7  I   UNL d   1      -3.587  -2.542   2.270  0.00  0.00    -0.146 I 
ENDROOT
TORSDOF 0
ENDMDL
