MODEL 1
REMARK minimizedAffinity -3.13271761
REMARK minimizedRMSD -1
REMARK  1 active torsions:
REMARK  status: ('A' for Active; 'I' for Inactive)
REMARK    1  A    between atoms: C3_4  and  O_7 
ROOT
ATOM      1  C   UNL d   1      -1.624   5.982   5.960  0.00  0.00    -0.033 A 
ATOM      2  C1  UNL d   1      -0.958   5.991   4.733  0.00  0.00     0.039 A 
ATOM      3  C2  UNL d   1      -1.685   5.993   3.541  0.00  0.00    -0.080 A 
ATOM      4  C3  UNL d   1      -3.076   5.988   3.590  0.00  0.00     0.150 A 
ATOM      5  C4  UNL d   1      -3.747   5.983   4.809  0.00  0.00    -0.007 A 
ATOM      6  C5  UNL d   1      -3.019   5.979   5.998  0.00  0.00     0.039 A 
ENDROOT
BRANCH   4   7
ATOM      7  O   UNL d   1      -3.829   5.985   2.453  0.00  0.00    -0.526 OA
ATOM      8  H5  UNL d   1      -3.231   5.960   1.688  0.00  0.00     0.418 HD
ENDBRANCH   4   7
TORSDOF 1
ENDMDL
