MODEL 1
REMARK minimizedAffinity -2.70792365
REMARK minimizedRMSD -1
REMARK  1 active torsions:
REMARK  status: ('A' for Active; 'I' for Inactive)
REMARK    1  A    between atoms: C3_4  and  O_7 
ROOT
ATOM      1  C   UNL d   1       5.156  -5.640   5.579  0.00  0.00    -0.033 A 
ATOM      2  C1  UNL d   1       3.837  -5.367   5.208  0.00  0.00     0.039 A 
ATOM      3  C2  UNL d   1       3.360  -4.056   5.235  0.00  0.00    -0.080 A 
ATOM      4  C3  UNL d   1       4.210  -3.027   5.633  0.00  0.00     0.150 A 
ATOM      5  C4  UNL d   1       5.525  -3.291   6.000  0.00  0.00    -0.007 A 
ATOM      6  C5  UNL d   1       6.000  -4.602   5.973  0.00  0.00     0.039 A 
ENDROOT
BRANCH   4   7
ATOM      7  O   UNL d   1       3.787  -1.732   5.680  0.00  0.00    -0.526 OA
ATOM      8  H5  UNL d   1       2.849  -1.705   5.427  0.00  0.00     0.418 HD
ENDBRANCH   4   7
TORSDOF 1
ENDMDL
