MODEL 1
REMARK minimizedAffinity -1.54979002
REMARK minimizedRMSD -1
REMARK  1 active torsions:
REMARK  status: ('A' for Active; 'I' for Inactive)
REMARK    1  A    between atoms: C3_4  and  O_7 
ROOT
ATOM      1  C   UNL d   1      -2.827   5.997   4.998  0.00  0.00    -0.033 A 
ATOM      2  C1  UNL d   1      -4.133   5.989   5.490  0.00  0.00     0.039 A 
ATOM      3  C2  UNL d   1      -5.215   5.989   4.607  0.00  0.00    -0.080 A 
ATOM      4  C3  UNL d   1      -4.976   5.995   3.235  0.00  0.00     0.150 A 
ATOM      5  C4  UNL d   1      -3.677   5.998   2.737  0.00  0.00    -0.007 A 
ATOM      6  C5  UNL d   1      -2.599   6.000   3.621  0.00  0.00     0.039 A 
ENDROOT
BRANCH   4   7
ATOM      7  O   UNL d   1      -5.999   6.000   2.334  0.00  0.00    -0.526 OA
ATOM      8  H5  UNL d   1      -6.839   6.026   2.822  0.00  0.00     0.418 HD
ENDBRANCH   4   7
TORSDOF 1
ENDMDL
