MODEL 1
REMARK minimizedAffinity -3.26695251
REMARK minimizedRMSD -1
REMARK  1 active torsions:
REMARK  status: ('A' for Active; 'I' for Inactive)
REMARK    1  A    between atoms: C3_4  and  O_7 
ROOT
ATOM      1  C   UNL d   1       1.438  -2.843  -3.274  0.00  0.00    -0.033 A 
ATOM      2  C1  UNL d   1       1.772  -2.262  -2.049  0.00  0.00     0.039 A 
ATOM      3  C2  UNL d   1       1.724  -0.875  -1.896  0.00  0.00    -0.080 A 
ATOM      4  C3  UNL d   1       1.340  -0.081  -2.974  0.00  0.00     0.150 A 
ATOM      5  C4  UNL d   1       1.002  -0.654  -4.196  0.00  0.00    -0.007 A 
ATOM      6  C5  UNL d   1       1.052  -2.039  -4.347  0.00  0.00     0.039 A 
ENDROOT
BRANCH   4   7
ATOM      7  O   UNL d   1       1.283   1.277  -2.875  0.00  0.00    -0.526 OA
ATOM      8  H5  UNL d   1       1.571   1.533  -1.982  0.00  0.00     0.418 HD
ENDBRANCH   4   7
TORSDOF 1
ENDMDL
