MODEL 1
REMARK minimizedAffinity -2.28632474
REMARK minimizedRMSD -1
REMARK  1 active torsions:
REMARK  status: ('A' for Active; 'I' for Inactive)
REMARK    1  A    between atoms: C3_4  and  O_7 
ROOT
ATOM      1  C   UNL d   1      -4.474   5.746   3.031  0.00  0.00    -0.033 A 
ATOM      2  C1  UNL d   1      -4.841   5.655   4.375  0.00  0.00     0.039 A 
ATOM      3  C2  UNL d   1      -3.868   5.734   5.373  0.00  0.00    -0.080 A 
ATOM      4  C3  UNL d   1      -2.534   5.905   5.015  0.00  0.00     0.150 A 
ATOM      5  C4  UNL d   1      -2.161   6.000   3.679  0.00  0.00    -0.007 A 
ATOM      6  C5  UNL d   1      -3.134   5.920   2.683  0.00  0.00     0.039 A 
ENDROOT
BRANCH   4   7
ATOM      7  O   UNL d   1      -1.549   5.983   5.954  0.00  0.00    -0.526 OA
ATOM      8  H5  UNL d   1      -1.951   5.872   6.832  0.00  0.00     0.418 HD
ENDBRANCH   4   7
TORSDOF 1
ENDMDL
