MODEL 1
REMARK minimizedAffinity 3.93655157
REMARK minimizedRMSD -1
REMARK  1 active torsions:
REMARK  status: ('A' for Active; 'I' for Inactive)
REMARK    1  A    between atoms: C3_4  and  O_7 
ROOT
ATOM      1  C   UNL d   1       4.080   2.250  -5.923  0.00  0.00    -0.033 A 
ATOM      2  C1  UNL d   1       4.446   1.554  -4.770  0.00  0.00     0.039 A 
ATOM      3  C2  UNL d   1       3.571   1.489  -3.684  0.00  0.00    -0.080 A 
ATOM      4  C3  UNL d   1       2.334   2.122  -3.765  0.00  0.00     0.150 A 
ATOM      5  C4  UNL d   1       1.961   2.814  -4.913  0.00  0.00    -0.007 A 
ATOM      6  C5  UNL d   1       2.837   2.879  -5.995  0.00  0.00     0.039 A 
ENDROOT
BRANCH   4   7
ATOM      7  O   UNL d   1       1.448   2.090  -2.729  0.00  0.00    -0.526 OA
ATOM      8  H5  UNL d   1       1.852   1.601  -1.993  0.00  0.00     0.418 HD
ENDBRANCH   4   7
TORSDOF 1
ENDMDL
