MODEL 1
REMARK minimizedAffinity -0.550399244
REMARK minimizedRMSD -1
REMARK  1 active torsions:
REMARK  status: ('A' for Active; 'I' for Inactive)
REMARK    1  A    between atoms: C3_4  and  O_7 
ROOT
ATOM      1  C   UNL d   1      -4.083   5.992   5.404  0.00  0.00    -0.033 A 
ATOM      2  C1  UNL d   1      -4.951   5.989   4.310  0.00  0.00     0.039 A 
ATOM      3  C2  UNL d   1      -4.439   5.989   3.011  0.00  0.00    -0.080 A 
ATOM      4  C3  UNL d   1      -3.060   5.992   2.819  0.00  0.00     0.150 A 
ATOM      5  C4  UNL d   1      -2.190   5.991   3.905  0.00  0.00    -0.007 A 
ATOM      6  C5  UNL d   1      -2.703   5.991   5.201  0.00  0.00     0.039 A 
ENDROOT
BRANCH   4   7
ATOM      7  O   UNL d   1      -2.514   5.997   1.570  0.00  0.00    -0.526 OA
ATOM      8  H5  UNL d   1      -3.235   6.026   0.919  0.00  0.00     0.418 HD
ENDBRANCH   4   7
TORSDOF 1
ENDMDL
