MODEL 1
REMARK minimizedAffinity -2.65604115
REMARK minimizedRMSD -1
REMARK  1 active torsions:
REMARK  status: ('A' for Active; 'I' for Inactive)
REMARK    1  A    between atoms: C3_4  and  O_7 
ROOT
ATOM      1  C   UNL d   1      -2.287   5.982   5.215  0.00  0.00    -0.033 A 
ATOM      2  C1  UNL d   1      -2.254   5.984   3.819  0.00  0.00     0.039 A 
ATOM      3  C2  UNL d   1      -3.445   5.991   3.091  0.00  0.00    -0.080 A 
ATOM      4  C3  UNL d   1      -4.661   5.997   3.769  0.00  0.00     0.150 A 
ATOM      5  C4  UNL d   1      -4.701   5.999   5.160  0.00  0.00    -0.007 A 
ATOM      6  C5  UNL d   1      -3.511   5.991   5.885  0.00  0.00     0.039 A 
ENDROOT
BRANCH   4   7
ATOM      7  O   UNL d   1      -5.850   6.000   3.101  0.00  0.00    -0.526 OA
ATOM      8  H5  UNL d   1      -5.667   5.969   2.148  0.00  0.00     0.418 HD
ENDBRANCH   4   7
TORSDOF 1
ENDMDL
