MODEL 1
REMARK minimizedAffinity 2.7602644
REMARK minimizedRMSD -1
REMARK  1 active torsions:
REMARK  status: ('A' for Active; 'I' for Inactive)
REMARK    1  A    between atoms: C3_4  and  O_7 
ROOT
ATOM      1  C   UNL d   1       2.817   3.165  -4.075  0.00  0.00    -0.033 A 
ATOM      2  C1  UNL d   1       3.448   1.920  -4.117  0.00  0.00     0.039 A 
ATOM      3  C2  UNL d   1       2.930   0.848  -3.388  0.00  0.00    -0.080 A 
ATOM      4  C3  UNL d   1       1.781   1.033  -2.623  0.00  0.00     0.150 A 
ATOM      5  C4  UNL d   1       1.145   2.269  -2.580  0.00  0.00    -0.007 A 
ATOM      6  C5  UNL d   1       1.665   3.339  -3.308  0.00  0.00     0.039 A 
ENDROOT
BRANCH   4   7
ATOM      7  O   UNL d   1       1.241   0.018  -1.891  0.00  0.00    -0.526 OA
ATOM      8  H5  UNL d   1       1.802  -0.769  -1.995  0.00  0.00     0.418 HD
ENDBRANCH   4   7
TORSDOF 1
ENDMDL
