MODEL 1
REMARK minimizedAffinity -0.507928669
REMARK minimizedRMSD -1
REMARK  1 active torsions:
REMARK  status: ('A' for Active; 'I' for Inactive)
REMARK    1  A    between atoms: C3_4  and  O_7 
ROOT
ATOM      1  C   UNL d   1      -3.192   5.751   5.970  0.00  0.00    -0.033 A 
ATOM      2  C1  UNL d   1      -2.431   6.000   4.826  0.00  0.00     0.039 A 
ATOM      3  C2  UNL d   1      -2.966   5.748   3.561  0.00  0.00    -0.080 A 
ATOM      4  C3  UNL d   1      -4.261   5.250   3.454  0.00  0.00     0.150 A 
ATOM      5  C4  UNL d   1      -5.026   5.003   4.589  0.00  0.00    -0.007 A 
ATOM      6  C5  UNL d   1      -4.490   5.254   5.851  0.00  0.00     0.039 A 
ENDROOT
BRANCH   4   7
ATOM      7  O   UNL d   1      -4.824   4.984   2.241  0.00  0.00    -0.526 OA
ATOM      8  H5  UNL d   1      -4.169   5.176   1.549  0.00  0.00     0.418 HD
ENDBRANCH   4   7
TORSDOF 1
ENDMDL
