MODEL 1
REMARK minimizedAffinity -1.96865034
REMARK minimizedRMSD -1
REMARK  1 active torsions:
REMARK  status: ('A' for Active; 'I' for Inactive)
REMARK    1  A    between atoms: C3_4  and  O_7 
ROOT
ATOM      1  C   UNL d   1       4.798  -4.973   6.000  0.00  0.00    -0.033 A 
ATOM      2  C1  UNL d   1       3.607  -4.346   5.631  0.00  0.00     0.039 A 
ATOM      3  C2  UNL d   1       3.609  -2.999   5.264  0.00  0.00    -0.080 A 
ATOM      4  C3  UNL d   1       4.808  -2.292   5.268  0.00  0.00     0.150 A 
ATOM      5  C4  UNL d   1       6.000  -2.911   5.631  0.00  0.00    -0.007 A 
ATOM      6  C5  UNL d   1       5.995  -4.256   5.998  0.00  0.00     0.039 A 
ENDROOT
BRANCH   4   7
ATOM      7  O   UNL d   1       4.860  -0.974   4.922  0.00  0.00    -0.526 OA
ATOM      8  H5  UNL d   1       3.958  -0.673   4.724  0.00  0.00     0.418 HD
ENDBRANCH   4   7
TORSDOF 1
ENDMDL
