MODEL 1
REMARK minimizedAffinity -0.85658896
REMARK minimizedRMSD -1
REMARK  1 active torsions:
REMARK  status: ('A' for Active; 'I' for Inactive)
REMARK    1  A    between atoms: C3_4  and  O_7 
ROOT
ATOM      1  C   UNL d   1       1.892   0.339  -2.881  0.00  0.00    -0.033 A 
ATOM      2  C1  UNL d   1       1.626   0.368  -1.510  0.00  0.00     0.039 A 
ATOM      3  C2  UNL d   1       1.508   1.591  -0.846  0.00  0.00    -0.080 A 
ATOM      4  C3  UNL d   1       1.656   2.775  -1.563  0.00  0.00     0.150 A 
ATOM      5  C4  UNL d   1       1.917   2.753  -2.929  0.00  0.00    -0.007 A 
ATOM      6  C5  UNL d   1       2.036   1.531  -3.590  0.00  0.00     0.039 A 
ENDROOT
BRANCH   4   7
ATOM      7  O   UNL d   1       1.553   3.992  -0.958  0.00  0.00    -0.526 OA
ATOM      8  H5  UNL d   1       1.400   3.851  -0.008  0.00  0.00     0.418 HD
ENDBRANCH   4   7
TORSDOF 1
ENDMDL
