MODEL 1
REMARK minimizedAffinity 4.56050301
REMARK minimizedRMSD -1
REMARK  1 active torsions:
REMARK  status: ('A' for Active; 'I' for Inactive)
REMARK    1  A    between atoms: C3_4  and  O_7 
ROOT
ATOM      1  C   UNL d   1       4.425   3.261   2.716  0.00  0.00    -0.033 A 
ATOM      2  C1  UNL d   1       5.674   2.819   3.154  0.00  0.00     0.039 A 
ATOM      3  C2  UNL d   1       5.768   1.714   4.002  0.00  0.00    -0.080 A 
ATOM      4  C3  UNL d   1       4.606   1.059   4.402  0.00  0.00     0.150 A 
ATOM      5  C4  UNL d   1       3.358   1.492   3.966  0.00  0.00    -0.007 A 
ATOM      6  C5  UNL d   1       3.267   2.597   3.121  0.00  0.00     0.039 A 
ENDROOT
BRANCH   4   7
ATOM      7  O   UNL d   1       4.647  -0.021   5.232  0.00  0.00    -0.526 OA
ATOM      8  H5  UNL d   1       5.573  -0.188   5.475  0.00  0.00     0.418 HD
ENDBRANCH   4   7
TORSDOF 1
ENDMDL
