MODEL 1
REMARK minimizedAffinity 0.0954550058
REMARK minimizedRMSD -1
REMARK  1 active torsions:
REMARK  status: ('A' for Active; 'I' for Inactive)
REMARK    1  A    between atoms: C3_4  and  O_7 
ROOT
ATOM      1  C   UNL d   1      -2.513   5.993   4.841  0.00  0.00    -0.033 A 
ATOM      2  C1  UNL d   1      -2.247   5.997   3.470  0.00  0.00     0.039 A 
ATOM      3  C2  UNL d   1      -3.299   6.000   2.552  0.00  0.00    -0.080 A 
ATOM      4  C3  UNL d   1      -4.611   5.999   3.017  0.00  0.00     0.150 A 
ATOM      5  C4  UNL d   1      -4.884   5.998   4.381  0.00  0.00    -0.007 A 
ATOM      6  C5  UNL d   1      -3.832   5.995   5.296  0.00  0.00     0.039 A 
ENDROOT
BRANCH   4   7
ATOM      7  O   UNL d   1      -5.671   5.997   2.160  0.00  0.00    -0.526 OA
ATOM      8  H5  UNL d   1      -5.331   5.968   1.250  0.00  0.00     0.418 HD
ENDBRANCH   4   7
TORSDOF 1
ENDMDL
