MODEL 1
REMARK minimizedAffinity -3.27870321
REMARK minimizedRMSD -1
REMARK  1 active torsions:
REMARK  status: ('A' for Active; 'I' for Inactive)
REMARK    1  A    between atoms: C3_4  and  O_7 
ROOT
ATOM      1  C   UNL d   1      -4.838   5.986   2.643  0.00  0.00    -0.033 A 
ATOM      2  C1  UNL d   1      -3.454   5.997   2.455  0.00  0.00     0.039 A 
ATOM      3  C2  UNL d   1      -2.598   6.000   3.558  0.00  0.00    -0.080 A 
ATOM      4  C3  UNL d   1      -3.137   5.989   4.841  0.00  0.00     0.150 A 
ATOM      5  C4  UNL d   1      -4.515   5.974   5.036  0.00  0.00    -0.007 A 
ATOM      6  C5  UNL d   1      -5.368   5.973   3.934  0.00  0.00     0.039 A 
ENDROOT
BRANCH   4   7
ATOM      7  O   UNL d   1      -2.342   5.996   5.949  0.00  0.00    -0.526 OA
ATOM      8  H5  UNL d   1      -1.415   6.036   5.661  0.00  0.00     0.418 HD
ENDBRANCH   4   7
TORSDOF 1
ENDMDL
