MODEL 1
REMARK minimizedAffinity -1.66932213
REMARK minimizedRMSD -1
REMARK  1 active torsions:
REMARK  status: ('A' for Active; 'I' for Inactive)
REMARK    1  A    between atoms: C3_4  and  O_7 
ROOT
ATOM      1  C   UNL d   1      -4.708   5.778   2.232  0.00  0.00    -0.033 A 
ATOM      2  C1  UNL d   1      -5.462   5.612   3.395  0.00  0.00     0.039 A 
ATOM      3  C2  UNL d   1      -4.837   5.635   4.643  0.00  0.00    -0.080 A 
ATOM      4  C3  UNL d   1      -3.460   5.825   4.714  0.00  0.00     0.150 A 
ATOM      5  C4  UNL d   1      -2.703   5.996   3.560  0.00  0.00    -0.007 A 
ATOM      6  C5  UNL d   1      -3.329   5.972   2.314  0.00  0.00     0.039 A 
ENDROOT
BRANCH   4   7
ATOM      7  O   UNL d   1      -2.805   5.850   5.910  0.00  0.00    -0.526 OA
ATOM      8  H5  UNL d   1      -3.450   5.691   6.618  0.00  0.00     0.418 HD
ENDBRANCH   4   7
TORSDOF 1
ENDMDL
