MODEL 1
REMARK minimizedAffinity -1.57281649
REMARK minimizedRMSD -1
REMARK  1 active torsions:
REMARK  status: ('A' for Active; 'I' for Inactive)
REMARK    1  A    between atoms: C3_4  and  O_7 
ROOT
ATOM      1  C   UNL d   1       4.741  -4.782   6.000  0.00  0.00    -0.033 A 
ATOM      2  C1  UNL d   1       3.567  -4.120   5.637  0.00  0.00     0.039 A 
ATOM      3  C2  UNL d   1       3.605  -2.772   5.275  0.00  0.00    -0.080 A 
ATOM      4  C3  UNL d   1       4.824  -2.099   5.279  0.00  0.00     0.150 A 
ATOM      5  C4  UNL d   1       5.999  -2.752   5.635  0.00  0.00    -0.007 A 
ATOM      6  C5  UNL d   1       5.958  -4.098   5.998  0.00  0.00     0.039 A 
ENDROOT
BRANCH   4   7
ATOM      7  O   UNL d   1       4.911  -0.782   4.937  0.00  0.00    -0.526 OA
ATOM      8  H5  UNL d   1       4.017  -0.455   4.742  0.00  0.00     0.418 HD
ENDBRANCH   4   7
TORSDOF 1
ENDMDL
