MODEL 1
REMARK minimizedAffinity -4.65163755
REMARK minimizedRMSD -1
REMARK  0 active torsions:
REMARK  status: ('A' for Active; 'I' for Inactive)
ROOT
ATOM      1  C2' OXE d   1       1.130  -2.923   1.085  0.00  0.00     0.078 C 
ATOM      2  C1' OXE d   1      -1.314  -1.714   1.755  0.00  0.00     0.078 C 
ATOM      3  C1  OXE d   1      -0.375  -0.951   0.854  0.00  0.00    -0.078 A 
ATOM      4  C2  OXE d   1       0.839  -1.530   0.570  0.00  0.00    -0.078 A 
ATOM      5  C3  OXE d   1       1.719  -0.894  -0.300  0.00  0.00     0.003 A 
ATOM      6  C4  OXE d   1       1.446   0.399  -0.765  0.00  0.00    -0.002 A 
ATOM      7  C5  OXE d   1       0.233   1.023  -0.455  0.00  0.00    -0.002 A 
ATOM      8  C6  OXE d   1      -0.704   0.346   0.317  0.00  0.00     0.003 A 
ENDROOT
TORSDOF 0
ENDMDL
