MODEL 1
REMARK minimizedAffinity -2.92835855
REMARK minimizedRMSD -1
REMARK  0 active torsions:
REMARK  status: ('A' for Active; 'I' for Inactive)
ROOT
ATOM      1  C2' OXE d   1      -0.841   0.662  -0.304  0.00  0.00     0.078 C 
ATOM      2  C1' OXE d   1      -1.610  -0.355   2.197  0.00  0.00     0.078 C 
ATOM      3  C1  OXE d   1      -0.394  -0.957   1.536  0.00  0.00    -0.078 A 
ATOM      4  C2  OXE d   1      -0.053  -0.485   0.292  0.00  0.00    -0.078 A 
ATOM      5  C3  OXE d   1       1.091  -0.966  -0.338  0.00  0.00     0.003 A 
ATOM      6  C4  OXE d   1       1.809  -2.034   0.215  0.00  0.00    -0.002 A 
ATOM      7  C5  OXE d   1       1.455  -2.556   1.463  0.00  0.00    -0.002 A 
ATOM      8  C6  OXE d   1       0.383  -2.001   2.155  0.00  0.00     0.003 A 
ENDROOT
TORSDOF 0
ENDMDL
