MODEL 1
REMARK minimizedAffinity -4.12495089
REMARK minimizedRMSD -1
REMARK  0 active torsions:
REMARK  status: ('A' for Active; 'I' for Inactive)
ROOT
ATOM      1  C2' OXE d   1       2.420  -2.029   0.851  0.00  0.00     0.078 C 
ATOM      2  C1' OXE d   1       0.909  -0.095  -0.510  0.00  0.00     0.078 C 
ATOM      3  C1  OXE d   1       0.362  -0.628   0.790  0.00  0.00    -0.078 A 
ATOM      4  C2  OXE d   1       1.085  -1.609   1.426  0.00  0.00    -0.078 A 
ATOM      5  C3  OXE d   1       0.653  -2.096   2.656  0.00  0.00     0.003 A 
ATOM      6  C4  OXE d   1      -0.588  -1.709   3.176  0.00  0.00    -0.002 A 
ATOM      7  C5  OXE d   1      -1.359  -0.741   2.524  0.00  0.00    -0.002 A 
ATOM      8  C6  OXE d   1      -0.880  -0.161   1.355  0.00  0.00     0.003 A 
ENDROOT
TORSDOF 0
ENDMDL
