MODEL 1
REMARK minimizedAffinity -4.72056293
REMARK minimizedRMSD -1
REMARK  0 active torsions:
REMARK  status: ('A' for Active; 'I' for Inactive)
ROOT
ATOM      1  C2' OXE d   1      -0.428   0.685  -0.017  0.00  0.00     0.078 C 
ATOM      2  C1' OXE d   1       1.745  -0.544  -1.301  0.00  0.00     0.078 C 
ATOM      3  C1  OXE d   1       1.249  -1.157  -0.016  0.00  0.00    -0.078 A 
ATOM      4  C2  OXE d   1       0.215  -0.523   0.630  0.00  0.00    -0.078 A 
ATOM      5  C3  OXE d   1      -0.317  -1.078   1.790  0.00  0.00     0.003 A 
ATOM      6  C4  OXE d   1       0.290  -2.189   2.387  0.00  0.00    -0.002 A 
ATOM      7  C5  OXE d   1       1.369  -2.827   1.767  0.00  0.00    -0.002 A 
ATOM      8  C6  OXE d   1       1.832  -2.351   0.546  0.00  0.00     0.003 A 
ENDROOT
TORSDOF 0
ENDMDL
