MODEL 1
REMARK minimizedAffinity -0.356514364
REMARK minimizedRMSD -1
REMARK  0 active torsions:
REMARK  status: ('A' for Active; 'I' for Inactive)
ROOT
ATOM      1  C2' OXE d   1      -1.991  -1.304  -1.195  0.00  0.00     0.078 C 
ATOM      2  C1' OXE d   1      -0.479   0.805  -0.123  0.00  0.00     0.078 C 
ATOM      3  C1  OXE d   1      -1.191   1.044  -1.431  0.00  0.00    -0.078 A 
ATOM      4  C2  OXE d   1      -1.890  -0.009  -1.972  0.00  0.00    -0.078 A 
ATOM      5  C3  OXE d   1      -2.610   0.174  -3.149  0.00  0.00     0.003 A 
ATOM      6  C4  OXE d   1      -2.504   1.372  -3.866  0.00  0.00    -0.002 A 
ATOM      7  C5  OXE d   1      -1.765   2.443  -3.353  0.00  0.00    -0.002 A 
ATOM      8  C6  OXE d   1      -1.139   2.310  -2.119  0.00  0.00     0.003 A 
ENDROOT
TORSDOF 0
ENDMDL
