MODEL 1
REMARK minimizedAffinity -5.35564375
REMARK minimizedRMSD -1
REMARK  0 active torsions:
REMARK  status: ('A' for Active; 'I' for Inactive)
ROOT
ATOM      1  C2' OXE d   1       1.990  -0.495  -1.076  0.00  0.00     0.078 C 
ATOM      2  C1' OXE d   1      -0.514   0.556  -0.362  0.00  0.00     0.078 C 
ATOM      3  C1  OXE d   1       0.064  -0.537   0.503  0.00  0.00    -0.078 A 
ATOM      4  C2  OXE d   1       1.268  -1.077   0.119  0.00  0.00    -0.078 A 
ATOM      5  C3  OXE d   1       1.871  -2.050   0.912  0.00  0.00     0.003 A 
ATOM      6  C4  OXE d   1       1.192  -2.590   2.011  0.00  0.00    -0.002 A 
ATOM      7  C5  OXE d   1      -0.053  -2.081   2.396  0.00  0.00    -0.002 A 
ATOM      8  C6  OXE d   1      -0.610  -1.028   1.679  0.00  0.00     0.003 A 
ENDROOT
TORSDOF 0
ENDMDL
