MODEL 1
REMARK minimizedAffinity -2.81821346
REMARK minimizedRMSD -1
REMARK  0 active torsions:
REMARK  status: ('A' for Active; 'I' for Inactive)
ROOT
ATOM      1  C2' OXE d   1      -0.927   0.354  -0.413  0.00  0.00     0.078 C 
ATOM      2  C1' OXE d   1      -1.290  -1.425   1.727  0.00  0.00     0.078 C 
ATOM      3  C1  OXE d   1       0.034  -1.453   1.007  0.00  0.00    -0.078 A 
ATOM      4  C2  OXE d   1       0.187  -0.611  -0.069  0.00  0.00    -0.078 A 
ATOM      5  C3  OXE d   1       1.408  -0.558  -0.734  0.00  0.00     0.003 A 
ATOM      6  C4  OXE d   1       2.429  -1.461  -0.416  0.00  0.00    -0.002 A 
ATOM      7  C5  OXE d   1       2.280  -2.353   0.651  0.00  0.00    -0.002 A 
ATOM      8  C6  OXE d   1       1.108  -2.333   1.398  0.00  0.00     0.003 A 
ENDROOT
TORSDOF 0
ENDMDL
