MODEL 1
REMARK minimizedAffinity 0.842442989
REMARK minimizedRMSD -1
REMARK  0 active torsions:
REMARK  status: ('A' for Active; 'I' for Inactive)
ROOT
ATOM      1  C2' OXE d   1      -3.760   1.967  -4.427  0.00  0.00     0.078 C 
ATOM      2  C1' OXE d   1      -1.148   2.907  -4.012  0.00  0.00     0.078 C 
ATOM      3  C1  OXE d   1      -1.552   1.626  -3.327  0.00  0.00    -0.078 A 
ATOM      4  C2  OXE d   1      -2.846   1.198  -3.498  0.00  0.00    -0.078 A 
ATOM      5  C3  OXE d   1      -3.255  -0.006  -2.932  0.00  0.00     0.003 A 
ATOM      6  C4  OXE d   1      -2.407  -0.706  -2.066  0.00  0.00    -0.002 A 
ATOM      7  C5  OXE d   1      -1.097  -0.267  -1.846  0.00  0.00    -0.002 A 
ATOM      8  C6  OXE d   1      -0.641   0.871  -2.501  0.00  0.00     0.003 A 
ENDROOT
TORSDOF 0
ENDMDL
