MODEL 1
REMARK minimizedAffinity -3.2166214
REMARK minimizedRMSD -1
REMARK  0 active torsions:
REMARK  status: ('A' for Active; 'I' for Inactive)
ROOT
ATOM      1  C2' OXE d   1       2.545   0.406  -0.434  0.00  0.00     0.078 C 
ATOM      2  C1' OXE d   1      -0.167   0.675   0.238  0.00  0.00     0.078 C 
ATOM      3  C1  OXE d   1       0.557  -0.558   0.716  0.00  0.00    -0.078 A 
ATOM      4  C2  OXE d   1       1.872  -0.704   0.343  0.00  0.00    -0.078 A 
ATOM      5  C3  OXE d   1       2.602  -1.796   0.804  0.00  0.00     0.003 A 
ATOM      6  C4  OXE d   1       1.969  -2.823   1.514  0.00  0.00    -0.002 A 
ATOM      7  C5  OXE d   1       0.620  -2.714   1.870  0.00  0.00    -0.002 A 
ATOM      8  C6  OXE d   1      -0.087  -1.570   1.517  0.00  0.00     0.003 A 
ENDROOT
TORSDOF 0
ENDMDL
