MODEL 1
REMARK minimizedAffinity -4.46897936
REMARK minimizedRMSD -1
REMARK  0 active torsions:
REMARK  status: ('A' for Active; 'I' for Inactive)
ROOT
ATOM      1  C2' OXE d   1       1.778  -0.411  -0.764  0.00  0.00     0.078 C 
ATOM      2  C1' OXE d   1       1.112  -2.596   0.868  0.00  0.00     0.078 C 
ATOM      3  C1  OXE d   1       0.303  -1.333   1.019  0.00  0.00    -0.078 A 
ATOM      4  C2  OXE d   1       0.665  -0.253   0.251  0.00  0.00    -0.078 A 
ATOM      5  C3  OXE d   1      -0.083   0.919   0.312  0.00  0.00     0.003 A 
ATOM      6  C4  OXE d   1      -1.104   1.059   1.260  0.00  0.00    -0.002 A 
ATOM      7  C5  OXE d   1      -1.464  -0.015   2.080  0.00  0.00    -0.002 A 
ATOM      8  C6  OXE d   1      -0.800  -1.229   1.944  0.00  0.00     0.003 A 
ENDROOT
TORSDOF 0
ENDMDL
