MODEL 1
REMARK minimizedAffinity -5.44839096
REMARK minimizedRMSD -1
REMARK  0 active torsions:
REMARK  status: ('A' for Active; 'I' for Inactive)
ROOT
ATOM      1  C2' OXE d   1       2.084  -2.620   0.775  0.00  0.00     0.078 C 
ATOM      2  C1' OXE d   1       1.641  -0.492  -1.001  0.00  0.00     0.078 C 
ATOM      3  C1  OXE d   1       0.666  -0.675   0.135  0.00  0.00    -0.078 A 
ATOM      4  C2  OXE d   1       0.864  -1.747   0.971  0.00  0.00    -0.078 A 
ATOM      5  C3  OXE d   1       0.025  -1.931   2.067  0.00  0.00     0.003 A 
ATOM      6  C4  OXE d   1      -1.107  -1.124   2.236  0.00  0.00    -0.002 A 
ATOM      7  C5  OXE d   1      -1.350  -0.051   1.372  0.00  0.00    -0.002 A 
ATOM      8  C6  OXE d   1      -0.451   0.213   0.344  0.00  0.00     0.003 A 
ENDROOT
TORSDOF 0
ENDMDL
