MODEL 1
REMARK minimizedAffinity -5.74673367
REMARK minimizedRMSD -1
REMARK  0 active torsions:
REMARK  status: ('A' for Active; 'I' for Inactive)
ROOT
ATOM      1  C2' OXE d   1       1.898   0.133  -0.754  0.00  0.00     0.078 C 
ATOM      2  C1' OXE d   1      -0.775   0.659  -0.079  0.00  0.00     0.078 C 
ATOM      3  C1  OXE d   1      -0.127  -0.564   0.519  0.00  0.00    -0.078 A 
ATOM      4  C2  OXE d   1       1.167  -0.840   0.146  0.00  0.00    -0.078 A 
ATOM      5  C3  OXE d   1       1.830  -1.926   0.711  0.00  0.00     0.003 A 
ATOM      6  C4  OXE d   1       1.143  -2.826   1.534  0.00  0.00    -0.002 A 
ATOM      7  C5  OXE d   1      -0.187  -2.585   1.895  0.00  0.00    -0.002 A 
ATOM      8  C6  OXE d   1      -0.822  -1.439   1.430  0.00  0.00     0.003 A 
ENDROOT
TORSDOF 0
ENDMDL
