MODEL 1
REMARK minimizedAffinity -1.26266825
REMARK minimizedRMSD -1
REMARK  0 active torsions:
REMARK  status: ('A' for Active; 'I' for Inactive)
ROOT
ATOM      1  C2' OXE d   1      -1.110   1.920   0.484  0.00  0.00     0.078 C 
ATOM      2  C1' OXE d   1       0.388  -0.023  -0.879  0.00  0.00     0.078 C 
ATOM      3  C1  OXE d   1      -0.720   0.668  -1.634  0.00  0.00    -0.078 A 
ATOM      4  C2  OXE d   1      -1.478   1.584  -0.945  0.00  0.00    -0.078 A 
ATOM      5  C3  OXE d   1      -2.477   2.290  -1.609  0.00  0.00     0.003 A 
ATOM      6  C4  OXE d   1      -2.817   1.967  -2.928  0.00  0.00    -0.002 A 
ATOM      7  C5  OXE d   1      -2.083   1.009  -3.636  0.00  0.00    -0.002 A 
ATOM      8  C6  OXE d   1      -1.006   0.382  -3.018  0.00  0.00     0.003 A 
ENDROOT
TORSDOF 0
ENDMDL
