MODEL 1
REMARK minimizedAffinity -0.731879473
REMARK minimizedRMSD -1
REMARK  0 active torsions:
REMARK  status: ('A' for Active; 'I' for Inactive)
ROOT
ATOM      1  C2' OXE d   1      -0.666  -1.148   0.595  0.00  0.00     0.078 C 
ATOM      2  C1' OXE d   1       1.350   0.471  -0.498  0.00  0.00     0.078 C 
ATOM      3  C1  OXE d   1      -0.082   0.810  -0.830  0.00  0.00    -0.078 A 
ATOM      4  C2  OXE d   1      -1.059  -0.016  -0.329  0.00  0.00    -0.078 A 
ATOM      5  C3  OXE d   1      -2.399   0.284  -0.559  0.00  0.00     0.003 A 
ATOM      6  C4  OXE d   1      -2.754   1.327  -1.423  0.00  0.00    -0.002 A 
ATOM      7  C5  OXE d   1      -1.772   2.156  -1.976  0.00  0.00    -0.002 A 
ATOM      8  C6  OXE d   1      -0.437   1.937  -1.656  0.00  0.00     0.003 A 
ENDROOT
TORSDOF 0
ENDMDL
