MODEL 1
REMARK minimizedAffinity -2.48354673
REMARK minimizedRMSD -1
REMARK  0 active torsions:
REMARK  status: ('A' for Active; 'I' for Inactive)
ROOT
ATOM      1  C2' OXE d   1      -0.721  -0.933  -0.517  0.00  0.00     0.078 C 
ATOM      2  C1' OXE d   1      -0.367   1.807  -0.019  0.00  0.00     0.078 C 
ATOM      3  C1  OXE d   1      -1.090   1.410  -1.281  0.00  0.00    -0.078 A 
ATOM      4  C2  OXE d   1      -1.217   0.066  -1.540  0.00  0.00    -0.078 A 
ATOM      5  C3  OXE d   1      -1.924  -0.355  -2.663  0.00  0.00     0.003 A 
ATOM      6  C4  OXE d   1      -2.371   0.574  -3.610  0.00  0.00    -0.002 A 
ATOM      7  C5  OXE d   1      -2.216   1.946  -3.385  0.00  0.00    -0.002 A 
ATOM      8  C6  OXE d   1      -1.617   2.381  -2.208  0.00  0.00     0.003 A 
ENDROOT
TORSDOF 0
ENDMDL
