MODEL 1
REMARK minimizedAffinity 1.35146654
REMARK minimizedRMSD -1
REMARK  0 active torsions:
REMARK  status: ('A' for Active; 'I' for Inactive)
ROOT
ATOM      1  C   UNL d   1       1.272  -1.406   4.069  0.00  0.00     0.124 A 
ATOM      2  C1  UNL d   1      -0.088  -1.488   4.332  0.00  0.00     0.062 A 
ATOM      3  C2  UNL d   1      -1.013  -1.122   3.359  0.00  0.00     0.162 A 
ATOM      4  C3  UNL d   1      -0.581  -0.671   2.111  0.00  0.00    -0.034 A 
ATOM      5  C4  UNL d   1       0.789  -0.591   1.854  0.00  0.00     0.162 A 
ATOM      6  C5  UNL d   1       1.709  -0.957   2.831  0.00  0.00     0.062 A 
ATOM      7  F   UNL d   1       3.023  -0.877   2.574  0.00  0.00    -0.097 F 
ATOM      8  F1  UNL d   1       1.239  -0.162   0.666  0.00  0.00    -0.096 F 
ATOM      9  I   UNL d   1      -1.961  -0.123   0.653  0.00  0.00    -0.060 I 
ATOM     10  F2  UNL d   1      -2.321  -1.211   3.641  0.00  0.00    -0.096 F 
ATOM     11  F3  UNL d   1      -0.513  -1.920   5.528  0.00  0.00    -0.097 F 
ATOM     12  F4  UNL d   1       2.160  -1.758   5.008  0.00  0.00    -0.092 F 
ENDROOT
TORSDOF 0
ENDMDL
