MODEL 1
REMARK minimizedAffinity 0.944063425
REMARK minimizedRMSD -1
REMARK  0 active torsions:
REMARK  status: ('A' for Active; 'I' for Inactive)
ROOT
ATOM      1  C   UNL d   1      -1.472  -0.213   0.430  0.00  0.00     0.124 A 
ATOM      2  C1  UNL d   1      -1.613   0.125   1.768  0.00  0.00     0.062 A 
ATOM      3  C2  UNL d   1      -0.564  -0.088   2.659  0.00  0.00     0.162 A 
ATOM      4  C3  UNL d   1       0.636  -0.642   2.213  0.00  0.00    -0.034 A 
ATOM      5  C4  UNL d   1       0.770  -0.980   0.865  0.00  0.00     0.162 A 
ATOM      6  C5  UNL d   1      -0.281  -0.766  -0.021  0.00  0.00     0.062 A 
ATOM      7  F   UNL d   1      -0.142  -1.093  -1.313  0.00  0.00    -0.097 F 
ATOM      8  F1  UNL d   1       1.910  -1.515   0.403  0.00  0.00    -0.096 F 
ATOM      9  I   UNL d   1       2.206  -0.961   3.541  0.00  0.00    -0.060 I 
ATOM     10  F2  UNL d   1      -0.729   0.249   3.947  0.00  0.00    -0.096 F 
ATOM     11  F3  UNL d   1      -2.763   0.658   2.206  0.00  0.00    -0.097 F 
ATOM     12  F4  UNL d   1      -2.482  -0.008  -0.425  0.00  0.00    -0.092 F 
ENDROOT
TORSDOF 0
ENDMDL
