MODEL 1
REMARK minimizedAffinity 10.2695065
REMARK minimizedRMSD -1
REMARK  0 active torsions:
REMARK  status: ('A' for Active; 'I' for Inactive)
ROOT
ATOM      1  C   UNL d   1      -1.623  -0.235   0.723  0.00  0.00     0.124 A 
ATOM      2  C1  UNL d   1      -1.944  -0.216   2.073  0.00  0.00     0.062 A 
ATOM      3  C2  UNL d   1      -0.983  -0.543   3.025  0.00  0.00     0.162 A 
ATOM      4  C3  UNL d   1       0.309  -0.893   2.631  0.00  0.00    -0.034 A 
ATOM      5  C4  UNL d   1       0.624  -0.911   1.271  0.00  0.00     0.162 A 
ATOM      6  C5  UNL d   1      -0.340  -0.583   0.323  0.00  0.00     0.062 A 
ATOM      7  F   UNL d   1      -0.028  -0.602  -0.981  0.00  0.00    -0.097 F 
ATOM      8  F1  UNL d   1       1.856  -1.242   0.858  0.00  0.00    -0.096 F 
ATOM      9  I   UNL d   1       1.748  -1.383   4.052  0.00  0.00    -0.060 I 
ATOM     10  F2  UNL d   1      -1.321  -0.516   4.323  0.00  0.00    -0.096 F 
ATOM     11  F3  UNL d   1      -3.183   0.118   2.461  0.00  0.00    -0.097 F 
ATOM     12  F4  UNL d   1      -2.549   0.079  -0.192  0.00  0.00    -0.092 F 
ENDROOT
TORSDOF 0
ENDMDL
