MODEL 1
REMARK minimizedAffinity -2.07978177
REMARK minimizedRMSD -1
REMARK  0 active torsions:
REMARK  status: ('A' for Active; 'I' for Inactive)
ROOT
ATOM      1  C   UNL d   1      -3.064   0.021  -5.969  0.00  0.00     0.078 C 
ATOM      2  C1  UNL d   1      -3.470   1.465  -5.973  0.00  0.00    -0.077 A 
ATOM      3  C2  UNL d   1      -4.821   1.834  -5.981  0.00  0.00    -0.001 A 
ATOM      4  C3  UNL d   1      -5.184   3.181  -5.994  0.00  0.00     0.003 A 
ATOM      5  C4  UNL d   1      -4.202   4.171  -6.000  0.00  0.00    -0.005 A 
ATOM      6  C5  UNL d   1      -2.856   3.813  -5.994  0.00  0.00     0.003 A 
ATOM      7  C6  UNL d   1      -2.491   2.466  -5.981  0.00  0.00    -0.001 A 
ENDROOT
TORSDOF 0
ENDMDL
