MODEL 1
REMARK minimizedAffinity -1.79146779
REMARK minimizedRMSD -1
REMARK  0 active torsions:
REMARK  status: ('A' for Active; 'I' for Inactive)
ROOT
ATOM      1  C   UNL d   1      -4.029  -0.214  -5.988  0.00  0.00     0.078 C 
ATOM      2  C1  UNL d   1      -4.002   1.285  -5.999  0.00  0.00    -0.077 A 
ATOM      3  C2  UNL d   1      -2.789   1.985  -5.996  0.00  0.00    -0.001 A 
ATOM      4  C3  UNL d   1      -2.779   3.380  -5.996  0.00  0.00     0.003 A 
ATOM      5  C4  UNL d   1      -3.979   4.089  -5.999  0.00  0.00    -0.005 A 
ATOM      6  C5  UNL d   1      -5.191   3.402  -6.000  0.00  0.00     0.003 A 
ATOM      7  C6  UNL d   1      -5.203   2.006  -5.999  0.00  0.00    -0.001 A 
ENDROOT
TORSDOF 0
ENDMDL
