MODEL 1
REMARK minimizedAffinity -0.0921872184
REMARK minimizedRMSD -1
REMARK  0 active torsions:
REMARK  status: ('A' for Active; 'I' for Inactive)
ROOT
ATOM      1  C   UNL d   1      -4.514   0.003  -5.935  0.00  0.00     0.078 C 
ATOM      2  C1  UNL d   1      -4.109   1.447  -5.965  0.00  0.00    -0.077 A 
ATOM      3  C2  UNL d   1      -2.759   1.818  -5.966  0.00  0.00    -0.001 A 
ATOM      4  C3  UNL d   1      -2.397   3.166  -5.984  0.00  0.00     0.003 A 
ATOM      5  C4  UNL d   1      -3.380   4.154  -6.000  0.00  0.00    -0.005 A 
ATOM      6  C5  UNL d   1      -4.726   3.795  -5.997  0.00  0.00     0.003 A 
ATOM      7  C6  UNL d   1      -5.090   2.447  -5.979  0.00  0.00    -0.001 A 
ENDROOT
TORSDOF 0
ENDMDL
