MODEL 1
REMARK minimizedAffinity -2.3959651
REMARK minimizedRMSD -1
REMARK  0 active torsions:
REMARK  status: ('A' for Active; 'I' for Inactive)
ROOT
ATOM      1  C   UNL d   1      -3.017   5.984  -5.976  0.00  0.00     0.078 C 
ATOM      2  C1  UNL d   1      -3.667   4.633  -5.967  0.00  0.00    -0.077 A 
ATOM      3  C2  UNL d   1      -2.898   3.463  -5.942  0.00  0.00    -0.001 A 
ATOM      4  C3  UNL d   1      -3.516   2.212  -5.943  0.00  0.00     0.003 A 
ATOM      5  C4  UNL d   1      -4.906   2.118  -5.972  0.00  0.00    -0.005 A 
ATOM      6  C5  UNL d   1      -5.679   3.276  -5.999  0.00  0.00     0.003 A 
ATOM      7  C6  UNL d   1      -5.063   4.528  -5.998  0.00  0.00    -0.001 A 
ENDROOT
TORSDOF 0
ENDMDL
