MODEL 1
REMARK minimizedAffinity 5.56669235
REMARK minimizedRMSD -1
REMARK  0 active torsions:
REMARK  status: ('A' for Active; 'I' for Inactive)
ROOT
ATOM      1  C   UNL d   1      -3.752  -2.049  -3.757  0.00  0.00     0.078 C 
ATOM      2  C1  UNL d   1      -3.751  -3.324  -4.547  0.00  0.00    -0.077 A 
ATOM      3  C2  UNL d   1      -4.882  -3.726  -5.269  0.00  0.00    -0.001 A 
ATOM      4  C3  UNL d   1      -4.870  -4.920  -5.992  0.00  0.00     0.003 A 
ATOM      5  C4  UNL d   1      -3.730  -5.722  -5.999  0.00  0.00    -0.005 A 
ATOM      6  C5  UNL d   1      -2.601  -5.331  -5.282  0.00  0.00     0.003 A 
ATOM      7  C6  UNL d   1      -2.611  -4.138  -4.558  0.00  0.00    -0.001 A 
ENDROOT
TORSDOF 0
ENDMDL
