MODEL 1
REMARK minimizedAffinity -0.469059259
REMARK minimizedRMSD -1
REMARK  0 active torsions:
REMARK  status: ('A' for Active; 'I' for Inactive)
ROOT
ATOM      1  C   UNL d   1       3.805  -2.279  -1.726  0.00  0.00     0.078 C 
ATOM      2  C1  UNL d   1       3.014  -1.114  -1.210  0.00  0.00    -0.077 A 
ATOM      3  C2  UNL d   1       1.683  -1.270  -0.803  0.00  0.00    -0.001 A 
ATOM      4  C3  UNL d   1       0.956  -0.175  -0.334  0.00  0.00     0.003 A 
ATOM      5  C4  UNL d   1       1.550   1.084  -0.270  0.00  0.00    -0.005 A 
ATOM      6  C5  UNL d   1       2.872   1.250  -0.676  0.00  0.00     0.003 A 
ATOM      7  C6  UNL d   1       3.601   0.156  -1.145  0.00  0.00    -0.001 A 
ENDROOT
TORSDOF 0
ENDMDL
