MODEL 1
REMARK minimizedAffinity -2.95317483
REMARK minimizedRMSD -1
REMARK  0 active torsions:
REMARK  status: ('A' for Active; 'I' for Inactive)
ROOT
ATOM      1  C   UNL d   1      -5.380  -1.079  -5.948  0.00  0.00     0.078 C 
ATOM      2  C1  UNL d   1      -4.626   0.218  -5.973  0.00  0.00    -0.077 A 
ATOM      3  C2  UNL d   1      -3.226   0.238  -5.977  0.00  0.00    -0.001 A 
ATOM      4  C3  UNL d   1      -2.538   1.452  -5.990  0.00  0.00     0.003 A 
ATOM      5  C4  UNL d   1      -3.242   2.655  -5.999  0.00  0.00    -0.005 A 
ATOM      6  C5  UNL d   1      -4.635   2.645  -5.992  0.00  0.00     0.003 A 
ATOM      7  C6  UNL d   1      -5.325   1.432  -5.979  0.00  0.00    -0.001 A 
ENDROOT
TORSDOF 0
ENDMDL
