MODEL 1
REMARK minimizedAffinity -4.22165155
REMARK minimizedRMSD -1
REMARK  0 active torsions:
REMARK  status: ('A' for Active; 'I' for Inactive)
ROOT
ATOM      1  C   UNL d   1      -2.997   3.879  -5.955  0.00  0.00     0.078 C 
ATOM      2  C1  UNL d   1      -3.613   2.512  -5.963  0.00  0.00    -0.077 A 
ATOM      3  C2  UNL d   1      -2.816   1.361  -5.974  0.00  0.00    -0.001 A 
ATOM      4  C3  UNL d   1      -3.403   0.095  -5.991  0.00  0.00     0.003 A 
ATOM      5  C4  UNL d   1      -4.791  -0.032  -5.999  0.00  0.00    -0.005 A 
ATOM      6  C5  UNL d   1      -5.593   1.107  -5.991  0.00  0.00     0.003 A 
ATOM      7  C6  UNL d   1      -5.007   2.374  -5.974  0.00  0.00    -0.001 A 
ENDROOT
TORSDOF 0
ENDMDL
