MODEL 1
REMARK minimizedAffinity -3.31090021
REMARK minimizedRMSD -1
REMARK  0 active torsions:
REMARK  status: ('A' for Active; 'I' for Inactive)
ROOT
ATOM      1  C   UNL d   1      -4.552  -1.215  -5.742  0.00  0.00     0.078 C 
ATOM      2  C1  UNL d   1      -4.681   0.277  -5.657  0.00  0.00    -0.077 A 
ATOM      3  C2  UNL d   1      -5.891   0.875  -5.284  0.00  0.00    -0.001 A 
ATOM      4  C3  UNL d   1      -6.000   2.265  -5.218  0.00  0.00     0.003 A 
ATOM      5  C4  UNL d   1      -4.904   3.069  -5.526  0.00  0.00    -0.005 A 
ATOM      6  C5  UNL d   1      -3.697   2.482  -5.901  0.00  0.00     0.003 A 
ATOM      7  C6  UNL d   1      -3.586   1.092  -5.967  0.00  0.00    -0.001 A 
ENDROOT
TORSDOF 0
ENDMDL
