MODEL 1
REMARK minimizedAffinity -3.24767137
REMARK minimizedRMSD -1
REMARK  0 active torsions:
REMARK  status: ('A' for Active; 'I' for Inactive)
ROOT
ATOM      1  C   UNL d   1      -1.123  -5.225  -5.852  0.00  0.00     0.078 C 
ATOM      2  C1  UNL d   1      -2.202  -4.184  -5.896  0.00  0.00    -0.077 A 
ATOM      3  C2  UNL d   1      -3.553  -4.547  -5.944  0.00  0.00    -0.001 A 
ATOM      4  C3  UNL d   1      -4.546  -3.567  -5.995  0.00  0.00     0.003 A 
ATOM      5  C4  UNL d   1      -4.198  -2.218  -6.000  0.00  0.00    -0.005 A 
ATOM      6  C5  UNL d   1      -2.856  -1.847  -5.955  0.00  0.00     0.003 A 
ATOM      7  C6  UNL d   1      -1.862  -2.825  -5.904  0.00  0.00    -0.001 A 
ENDROOT
TORSDOF 0
ENDMDL
