MODEL 1
REMARK minimizedAffinity -3.90148902
REMARK minimizedRMSD -1
REMARK  0 active torsions:
REMARK  status: ('A' for Active; 'I' for Inactive)
ROOT
ATOM      1  C   UNL d   1      -5.926  -0.802  -6.000  0.00  0.00     0.078 C 
ATOM      2  C1  UNL d   1      -5.162   0.488  -5.989  0.00  0.00    -0.077 A 
ATOM      3  C2  UNL d   1      -5.827   1.721  -5.984  0.00  0.00    -0.001 A 
ATOM      4  C3  UNL d   1      -5.102   2.914  -5.984  0.00  0.00     0.003 A 
ATOM      5  C4  UNL d   1      -3.709   2.886  -5.990  0.00  0.00    -0.005 A 
ATOM      6  C5  UNL d   1      -3.039   1.665  -5.997  0.00  0.00     0.003 A 
ATOM      7  C6  UNL d   1      -3.761   0.471  -5.997  0.00  0.00    -0.001 A 
ENDROOT
TORSDOF 0
ENDMDL
