MODEL 1
REMARK minimizedAffinity -1.33879185
REMARK minimizedRMSD -1
REMARK  0 active torsions:
REMARK  status: ('A' for Active; 'I' for Inactive)
ROOT
ATOM      1  C   UNL d   1      -5.656   3.732  -5.990  0.00  0.00     0.078 C 
ATOM      2  C1  UNL d   1      -4.623   2.645  -5.984  0.00  0.00    -0.077 A 
ATOM      3  C2  UNL d   1      -3.256   2.950  -5.980  0.00  0.00    -0.001 A 
ATOM      4  C3  UNL d   1      -2.306   1.928  -5.984  0.00  0.00     0.003 A 
ATOM      5  C4  UNL d   1      -2.711   0.595  -5.993  0.00  0.00    -0.005 A 
ATOM      6  C5  UNL d   1      -4.069   0.282  -6.000  0.00  0.00     0.003 A 
ATOM      7  C6  UNL d   1      -5.021   1.303  -5.996  0.00  0.00    -0.001 A 
ENDROOT
TORSDOF 0
ENDMDL
