MODEL 1
REMARK minimizedAffinity -1.15320385
REMARK minimizedRMSD -1
REMARK  0 active torsions:
REMARK  status: ('A' for Active; 'I' for Inactive)
ROOT
ATOM      1  C   UNL d   1      -3.756  -0.543  -5.987  0.00  0.00     0.078 C 
ATOM      2  C1  UNL d   1      -3.711   0.956  -5.997  0.00  0.00    -0.077 A 
ATOM      3  C2  UNL d   1      -2.490   1.641  -5.991  0.00  0.00    -0.001 A 
ATOM      4  C3  UNL d   1      -2.463   3.037  -5.991  0.00  0.00     0.003 A 
ATOM      5  C4  UNL d   1      -3.655   3.759  -5.996  0.00  0.00    -0.005 A 
ATOM      6  C5  UNL d   1      -4.875   3.086  -6.000  0.00  0.00     0.003 A 
ATOM      7  C6  UNL d   1      -4.903   1.691  -6.000  0.00  0.00    -0.001 A 
ENDROOT
TORSDOF 0
ENDMDL
