MODEL 1
REMARK minimizedAffinity -3.49650502
REMARK minimizedRMSD -1
REMARK  0 active torsions:
REMARK  status: ('A' for Active; 'I' for Inactive)
ROOT
ATOM      1  C   UNL d   1      -5.722  -0.431  -6.000  0.00  0.00     0.078 C 
ATOM      2  C1  UNL d   1      -5.107   0.937  -5.998  0.00  0.00    -0.077 A 
ATOM      3  C2  UNL d   1      -3.717   1.103  -6.000  0.00  0.00    -0.001 A 
ATOM      4  C3  UNL d   1      -3.159   2.382  -5.988  0.00  0.00     0.003 A 
ATOM      5  C4  UNL d   1      -3.983   3.506  -5.973  0.00  0.00    -0.005 A 
ATOM      6  C5  UNL d   1      -5.368   3.350  -5.969  0.00  0.00     0.003 A 
ATOM      7  C6  UNL d   1      -5.928   2.072  -5.980  0.00  0.00    -0.001 A 
ENDROOT
TORSDOF 0
ENDMDL
