MODEL 1
REMARK minimizedAffinity -3.06174064
REMARK minimizedRMSD -1
REMARK  0 active torsions:
REMARK  status: ('A' for Active; 'I' for Inactive)
ROOT
ATOM      1  C   UNL d   1      -4.633  -0.742  -5.897  0.00  0.00     0.078 C 
ATOM      2  C1  UNL d   1      -4.430   0.731  -5.707  0.00  0.00    -0.077 A 
ATOM      3  C2  UNL d   1      -5.460   1.641  -5.977  0.00  0.00    -0.001 A 
ATOM      4  C3  UNL d   1      -5.254   3.011  -5.805  0.00  0.00     0.003 A 
ATOM      5  C4  UNL d   1      -4.019   3.484  -5.365  0.00  0.00    -0.005 A 
ATOM      6  C5  UNL d   1      -2.988   2.586  -5.096  0.00  0.00     0.003 A 
ATOM      7  C6  UNL d   1      -3.192   1.216  -5.267  0.00  0.00    -0.001 A 
ENDROOT
TORSDOF 0
ENDMDL
