MODEL 1
REMARK minimizedAffinity -3.79763103
REMARK minimizedRMSD -1
REMARK  0 active torsions:
REMARK  status: ('A' for Active; 'I' for Inactive)
ROOT
ATOM      1  C   UNL d   1      -4.132  -1.228  -5.999  0.00  0.00     0.078 C 
ATOM      2  C1  UNL d   1      -4.397   0.244  -5.892  0.00  0.00    -0.077 A 
ATOM      3  C2  UNL d   1      -5.700   0.733  -5.734  0.00  0.00    -0.001 A 
ATOM      4  C3  UNL d   1      -5.932   2.107  -5.646  0.00  0.00     0.003 A 
ATOM      5  C4  UNL d   1      -4.868   3.003  -5.717  0.00  0.00    -0.005 A 
ATOM      6  C5  UNL d   1      -3.568   2.526  -5.878  0.00  0.00     0.003 A 
ATOM      7  C6  UNL d   1      -3.334   1.153  -5.965  0.00  0.00    -0.001 A 
ENDROOT
TORSDOF 0
ENDMDL
