MODEL 1
REMARK minimizedAffinity -3.4574194
REMARK minimizedRMSD -1
REMARK  0 active torsions:
REMARK  status: ('A' for Active; 'I' for Inactive)
ROOT
ATOM      1  C   UNL d   1      -0.991   2.086  -5.752  0.00  0.00     0.078 C 
ATOM      2  C1  UNL d   1      -2.419   1.630  -5.774  0.00  0.00    -0.077 A 
ATOM      3  C2  UNL d   1      -3.469   2.534  -5.574  0.00  0.00    -0.001 A 
ATOM      4  C3  UNL d   1      -4.793   2.094  -5.588  0.00  0.00     0.003 A 
ATOM      5  C4  UNL d   1      -5.080   0.747  -5.800  0.00  0.00    -0.005 A 
ATOM      6  C5  UNL d   1      -4.042  -0.161  -5.998  0.00  0.00     0.003 A 
ATOM      7  C6  UNL d   1      -2.717   0.278  -5.985  0.00  0.00    -0.001 A 
ENDROOT
TORSDOF 0
ENDMDL
