MODEL 1
REMARK minimizedAffinity -3.51882458
REMARK minimizedRMSD -1
REMARK  0 active torsions:
REMARK  status: ('A' for Active; 'I' for Inactive)
ROOT
ATOM      1  C   UNL d   1      -3.153   3.739  -5.980  0.00  0.00     0.078 C 
ATOM      2  C1  UNL d   1      -3.873   2.424  -5.979  0.00  0.00    -0.077 A 
ATOM      3  C2  UNL d   1      -3.167   1.214  -5.991  0.00  0.00    -0.001 A 
ATOM      4  C3  UNL d   1      -3.851  -0.002  -6.000  0.00  0.00     0.003 A 
ATOM      5  C4  UNL d   1      -5.244  -0.022  -5.999  0.00  0.00    -0.005 A 
ATOM      6  C5  UNL d   1      -5.956   1.176  -5.990  0.00  0.00     0.003 A 
ATOM      7  C6  UNL d   1      -5.274   2.394  -5.981  0.00  0.00    -0.001 A 
ENDROOT
TORSDOF 0
ENDMDL
