MODEL 1
REMARK minimizedAffinity 3.87645078
REMARK minimizedRMSD -1
REMARK  0 active torsions:
REMARK  status: ('A' for Active; 'I' for Inactive)
ROOT
ATOM      1  O1  BZF d   1       0.808  -0.679   2.634  0.00  0.00    -0.204 OA
ATOM      2  C2  BZF d   1       1.781  -0.036   1.892  0.00  0.00     0.174 A 
ATOM      3  C3  BZF d   1       1.223   0.719   0.924  0.00  0.00    -0.012 A 
ATOM      4  C3A BZF d   1      -0.189   0.609   1.127  0.00  0.00    -0.107 A 
ATOM      5  C4  BZF d   1      -1.273   1.145   0.493  0.00  0.00     0.055 A 
ATOM      6  C5  BZF d   1      -2.520   0.780   0.893  0.00  0.00    -0.016 A 
ATOM      7  C6  BZF d   1      -2.718  -0.121   1.919  0.00  0.00     0.022 A 
ATOM      8  C7  BZF d   1      -1.673  -0.675   2.582  0.00  0.00     0.029 A 
ATOM      9  C7A BZF d   1      -0.413  -0.283   2.201  0.00  0.00     0.058 A 
ENDROOT
TORSDOF 0
ENDMDL
