MODEL 1
REMARK minimizedAffinity 4.12983513
REMARK minimizedRMSD -1
REMARK  0 active torsions:
REMARK  status: ('A' for Active; 'I' for Inactive)
ROOT
ATOM      1  O1  BZF d   1       0.050   1.556   3.029  0.00  0.00    -0.204 OA
ATOM      2  C2  BZF d   1       1.008   0.651   2.614  0.00  0.00     0.174 A 
ATOM      3  C3  BZF d   1       0.504  -0.186   1.685  0.00  0.00    -0.012 A 
ATOM      4  C3A BZF d   1      -0.826   0.279   1.441  0.00  0.00    -0.107 A 
ATOM      5  C4  BZF d   1      -1.827  -0.133   0.608  0.00  0.00     0.055 A 
ATOM      6  C5  BZF d   1      -3.033   0.492   0.664  0.00  0.00    -0.016 A 
ATOM      7  C6  BZF d   1      -3.273   1.527   1.543  0.00  0.00     0.022 A 
ATOM      8  C7  BZF d   1      -2.310   1.974   2.386  0.00  0.00     0.029 A 
ATOM      9  C7A BZF d   1      -1.081   1.367   2.308  0.00  0.00     0.058 A 
ENDROOT
TORSDOF 0
ENDMDL
