MODEL 1
REMARK minimizedAffinity 1.29161203
REMARK minimizedRMSD -1
REMARK  0 active torsions:
REMARK  status: ('A' for Active; 'I' for Inactive)
ROOT
ATOM      1  O1  BZF d   1      -5.919   1.195   3.773  0.00  0.00    -0.204 OA
ATOM      2  C2  BZF d   1      -5.797   0.479   4.949  0.00  0.00     0.174 A 
ATOM      3  C3  BZF d   1      -5.610   1.308   5.996  0.00  0.00    -0.012 A 
ATOM      4  C3A BZF d   1      -5.707   2.628   5.453  0.00  0.00    -0.107 A 
ATOM      5  C4  BZF d   1      -5.625   3.877   6.000  0.00  0.00     0.055 A 
ATOM      6  C5  BZF d   1      -5.690   4.961   5.183  0.00  0.00    -0.016 A 
ATOM      7  C6  BZF d   1      -5.832   4.834   3.817  0.00  0.00     0.022 A 
ATOM      8  C7  BZF d   1      -5.923   3.616   3.229  0.00  0.00     0.029 A 
ATOM      9  C7A BZF d   1      -5.891   2.519   4.055  0.00  0.00     0.058 A 
ENDROOT
TORSDOF 0
ENDMDL
