MODEL 1
REMARK minimizedAffinity 13.9274244
REMARK minimizedRMSD -1
REMARK  0 active torsions:
REMARK  status: ('A' for Active; 'I' for Inactive)
ROOT
ATOM      1  O1  BZF d   1       4.715  -0.396   3.483  0.00  0.00    -0.204 OA
ATOM      2  C2  BZF d   1       5.999   0.012   3.175  0.00  0.00     0.174 A 
ATOM      3  C3  BZF d   1       6.000   0.803   2.082  0.00  0.00    -0.012 A 
ATOM      4  C3A BZF d   1       4.621   0.970   1.737  0.00  0.00    -0.107 A 
ATOM      5  C4  BZF d   1       3.978   1.663   0.752  0.00  0.00     0.055 A 
ATOM      6  C5  BZF d   1       2.627   1.559   0.647  0.00  0.00    -0.016 A 
ATOM      7  C6  BZF d   1       1.890   0.770   1.505  0.00  0.00     0.022 A 
ATOM      8  C7  BZF d   1       2.483   0.068   2.501  0.00  0.00     0.029 A 
ATOM      9  C7A BZF d   1       3.845   0.196   2.631  0.00  0.00     0.058 A 
ENDROOT
TORSDOF 0
ENDMDL
