MODEL 1
REMARK minimizedAffinity 0.930808485
REMARK minimizedRMSD -1
REMARK  0 active torsions:
REMARK  status: ('A' for Active; 'I' for Inactive)
ROOT
ATOM      1  O1  BZF d   1      -5.601  -4.790   4.124  0.00  0.00    -0.204 OA
ATOM      2  C2  BZF d   1      -5.558  -4.800   2.744  0.00  0.00     0.174 A 
ATOM      3  C3  BZF d   1      -4.869  -3.738   2.279  0.00  0.00    -0.012 A 
ATOM      4  C3A BZF d   1      -4.376  -3.070   3.444  0.00  0.00    -0.107 A 
ATOM      5  C4  BZF d   1      -3.607  -1.957   3.634  0.00  0.00     0.055 A 
ATOM      6  C5  BZF d   1      -3.366  -1.529   4.901  0.00  0.00    -0.016 A 
ATOM      7  C6  BZF d   1      -3.882  -2.186   5.999  0.00  0.00     0.022 A 
ATOM      8  C7  BZF d   1      -4.645  -3.297   5.861  0.00  0.00     0.029 A 
ATOM      9  C7A BZF d   1      -4.863  -3.751   4.584  0.00  0.00     0.058 A 
ENDROOT
TORSDOF 0
ENDMDL
