MODEL 1
REMARK minimizedAffinity 13.7510672
REMARK minimizedRMSD -1
REMARK  0 active torsions:
REMARK  status: ('A' for Active; 'I' for Inactive)
ROOT
ATOM      1  O1  BZF d   1       2.949   4.137  -5.999  0.00  0.00    -0.204 OA
ATOM      2  C2  BZF d   1       3.087   2.777  -5.795  0.00  0.00     0.174 A 
ATOM      3  C3  BZF d   1       2.193   2.336  -4.887  0.00  0.00    -0.012 A 
ATOM      4  C3A BZF d   1       1.388   3.475  -4.567  0.00  0.00    -0.107 A 
ATOM      5  C4  BZF d   1       0.321   3.667  -3.737  0.00  0.00     0.055 A 
ATOM      6  C5  BZF d   1      -0.190   4.918  -3.597  0.00  0.00    -0.016 A 
ATOM      7  C6  BZF d   1       0.344   6.000  -4.267  0.00  0.00     0.022 A 
ATOM      8  C7  BZF d   1       1.399   5.858  -5.106  0.00  0.00     0.029 A 
ATOM      9  C7A BZF d   1       1.897   4.589  -5.275  0.00  0.00     0.058 A 
ENDROOT
TORSDOF 0
ENDMDL
