MODEL 1
REMARK minimizedAffinity 5.21434975
REMARK minimizedRMSD -1
REMARK  0 active torsions:
REMARK  status: ('A' for Active; 'I' for Inactive)
ROOT
ATOM      1  O1  BZF d   1       4.058  -0.660   3.145  0.00  0.00    -0.204 OA
ATOM      2  C2  BZF d   1       5.418  -0.443   3.047  0.00  0.00     0.174 A 
ATOM      3  C3  BZF d   1       5.708   0.294   1.956  0.00  0.00    -0.012 A 
ATOM      4  C3A BZF d   1       4.442   0.632   1.382  0.00  0.00    -0.107 A 
ATOM      5  C4  BZF d   1       4.070   1.363   0.290  0.00  0.00     0.055 A 
ATOM      6  C5  BZF d   1       2.754   1.439  -0.037  0.00  0.00    -0.016 A 
ATOM      7  C6  BZF d   1       1.784   0.793   0.701  0.00  0.00     0.022 A 
ATOM      8  C7  BZF d   1       2.103   0.059   1.795  0.00  0.00     0.029 A 
ATOM      9  C7A BZF d   1       3.429   0.008   2.147  0.00  0.00     0.058 A 
ENDROOT
TORSDOF 0
ENDMDL
