MODEL 1
REMARK minimizedAffinity 5.53030872
REMARK minimizedRMSD -1
REMARK  0 active torsions:
REMARK  status: ('A' for Active; 'I' for Inactive)
ROOT
ATOM      1  O1  BZF d   1      -6.000   4.649   2.376  0.00  0.00    -0.204 OA
ATOM      2  C2  BZF d   1      -5.601   3.605   1.564  0.00  0.00     0.174 A 
ATOM      3  C3  BZF d   1      -5.054   2.613   2.295  0.00  0.00    -0.012 A 
ATOM      4  C3A BZF d   1      -5.199   3.025   3.657  0.00  0.00    -0.107 A 
ATOM      5  C4  BZF d   1      -4.862   2.454   4.852  0.00  0.00     0.055 A 
ATOM      6  C5  BZF d   1      -5.075   3.150   5.999  0.00  0.00    -0.016 A 
ATOM      7  C6  BZF d   1      -5.615   4.419   5.989  0.00  0.00     0.022 A 
ATOM      8  C7  BZF d   1      -5.969   5.024   4.830  0.00  0.00     0.029 A 
ATOM      9  C7A BZF d   1      -5.787   4.310   3.671  0.00  0.00     0.058 A 
ENDROOT
TORSDOF 0
ENDMDL
