MODEL 1
REMARK minimizedAffinity 1.26415682
REMARK minimizedRMSD -1
REMARK  0 active torsions:
REMARK  status: ('A' for Active; 'I' for Inactive)
ROOT
ATOM      1  O1  BZF d   1       0.716   2.628  -4.932  0.00  0.00    -0.204 OA
ATOM      2  C2  BZF d   1      -0.016   3.110  -6.000  0.00  0.00     0.174 A 
ATOM      3  C3  BZF d   1      -0.301   4.417  -5.833  0.00  0.00    -0.012 A 
ATOM      4  C3A BZF d   1       0.369   4.798  -4.628  0.00  0.00    -0.107 A 
ATOM      5  C4  BZF d   1       0.477   5.976  -3.946  0.00  0.00     0.055 A 
ATOM      6  C5  BZF d   1       1.144   5.996  -2.762  0.00  0.00    -0.016 A 
ATOM      7  C6  BZF d   1       1.711   4.856  -2.229  0.00  0.00     0.022 A 
ATOM      8  C7  BZF d   1       1.634   3.665  -2.872  0.00  0.00     0.029 A 
ATOM      9  C7A BZF d   1       0.989   3.649  -4.084  0.00  0.00     0.058 A 
ENDROOT
TORSDOF 0
ENDMDL
