MODEL 1
REMARK minimizedAffinity 6.44185925
REMARK minimizedRMSD -1
REMARK  0 active torsions:
REMARK  status: ('A' for Active; 'I' for Inactive)
ROOT
ATOM      1  O1  BZF d   1      -4.139   1.066   0.987  0.00  0.00    -0.204 OA
ATOM      2  C2  BZF d   1      -4.580   1.703   2.131  0.00  0.00     0.174 A 
ATOM      3  C3  BZF d   1      -3.579   1.824   3.027  0.00  0.00    -0.012 A 
ATOM      4  C3A BZF d   1      -2.419   1.308   2.368  0.00  0.00    -0.107 A 
ATOM      5  C4  BZF d   1      -1.111   1.172   2.737  0.00  0.00     0.055 A 
ATOM      6  C5  BZF d   1      -0.245   0.561   1.887  0.00  0.00    -0.016 A 
ATOM      7  C6  BZF d   1      -0.652   0.070   0.664  0.00  0.00     0.022 A 
ATOM      8  C7  BZF d   1      -1.938   0.186   0.252  0.00  0.00     0.029 A 
ATOM      9  C7A BZF d   1      -2.809   0.832   1.094  0.00  0.00     0.058 A 
ENDROOT
TORSDOF 0
ENDMDL
