MODEL 1
REMARK minimizedAffinity 10.3133659
REMARK minimizedRMSD -1
REMARK  0 active torsions:
REMARK  status: ('A' for Active; 'I' for Inactive)
ROOT
ATOM      1  O1  BZF d   1       0.057   1.073   2.649  0.00  0.00    -0.204 OA
ATOM      2  C2  BZF d   1       0.776   0.371   1.702  0.00  0.00     0.174 A 
ATOM      3  C3  BZF d   1      -0.041  -0.119   0.747  0.00  0.00    -0.012 A 
ATOM      4  C3A BZF d   1      -1.342   0.381   1.072  0.00  0.00    -0.107 A 
ATOM      5  C4  BZF d   1      -2.569   0.253   0.488  0.00  0.00     0.055 A 
ATOM      6  C5  BZF d   1      -3.651   0.805   1.097  0.00  0.00    -0.016 A 
ATOM      7  C6  BZF d   1      -3.543   1.488   2.291  0.00  0.00     0.022 A 
ATOM      8  C7  BZF d   1      -2.345   1.645   2.906  0.00  0.00     0.029 A 
ATOM      9  C7A BZF d   1      -1.245   1.116   2.276  0.00  0.00     0.058 A 
ENDROOT
TORSDOF 0
ENDMDL
