MODEL 1
REMARK minimizedAffinity 6.14173889
REMARK minimizedRMSD -1
REMARK  0 active torsions:
REMARK  status: ('A' for Active; 'I' for Inactive)
ROOT
ATOM      1  O1  BZF d   1      -0.829   1.695   3.010  0.00  0.00    -0.204 OA
ATOM      2  C2  BZF d   1       0.061   2.573   3.598  0.00  0.00     0.174 A 
ATOM      3  C3  BZF d   1       1.301   2.406   3.095  0.00  0.00    -0.012 A 
ATOM      4  C3A BZF d   1       1.161   1.422   2.067  0.00  0.00    -0.107 A 
ATOM      5  C4  BZF d   1       2.038   0.845   1.193  0.00  0.00     0.055 A 
ATOM      6  C5  BZF d   1       1.595  -0.137   0.365  0.00  0.00    -0.016 A 
ATOM      7  C6  BZF d   1       0.285  -0.571   0.387  0.00  0.00     0.022 A 
ATOM      8  C7  BZF d   1      -0.622  -0.025   1.233  0.00  0.00     0.029 A 
ATOM      9  C7A BZF d   1      -0.186   0.991   2.048  0.00  0.00     0.058 A 
ENDROOT
TORSDOF 0
ENDMDL
