MODEL 1
REMARK minimizedAffinity 10.5133762
REMARK minimizedRMSD -1
REMARK  0 active torsions:
REMARK  status: ('A' for Active; 'I' for Inactive)
ROOT
ATOM      1  O1  BZF d   1      -1.998   1.336   2.592  0.00  0.00    -0.204 OA
ATOM      2  C2  BZF d   1      -1.874   0.693   1.375  0.00  0.00     0.174 A 
ATOM      3  C3  BZF d   1      -3.085   0.480   0.821  0.00  0.00    -0.012 A 
ATOM      4  C3A BZF d   1      -4.019   1.107   1.706  0.00  0.00    -0.107 A 
ATOM      5  C4  BZF d   1      -5.377   1.250   1.689  0.00  0.00     0.055 A 
ATOM      6  C5  BZF d   1      -5.991   1.853   2.741  0.00  0.00    -0.016 A 
ATOM      7  C6  BZF d   1      -5.279   2.319   3.827  0.00  0.00     0.022 A 
ATOM      8  C7  BZF d   1      -3.930   2.203   3.887  0.00  0.00     0.029 A 
ATOM      9  C7A BZF d   1      -3.304   1.624   2.810  0.00  0.00     0.058 A 
ENDROOT
TORSDOF 0
ENDMDL
