MODEL 1
REMARK minimizedAffinity -2.30337548
REMARK minimizedRMSD -1
REMARK  0 active torsions:
REMARK  status: ('A' for Active; 'I' for Inactive)
ROOT
ATOM      1  O1  BZF d   1      -4.373   1.220   1.707  0.00  0.00    -0.204 OA
ATOM      2  C2  BZF d   1      -4.635   1.682   2.983  0.00  0.00     0.174 A 
ATOM      3  C3  BZF d   1      -3.525   1.636   3.746  0.00  0.00    -0.012 A 
ATOM      4  C3A BZF d   1      -2.482   1.201   2.868  0.00  0.00    -0.107 A 
ATOM      5  C4  BZF d   1      -1.146   0.977   3.036  0.00  0.00     0.055 A 
ATOM      6  C5  BZF d   1      -0.422   0.485   1.996  0.00  0.00    -0.016 A 
ATOM      7  C6  BZF d   1      -1.004   0.201   0.778  0.00  0.00     0.022 A 
ATOM      8  C7  BZF d   1      -2.325   0.411   0.562  0.00  0.00     0.029 A 
ATOM      9  C7A BZF d   1      -3.052   0.939   1.601  0.00  0.00     0.058 A 
ENDROOT
TORSDOF 0
ENDMDL
