MODEL 1
REMARK minimizedAffinity -0.917858243
REMARK minimizedRMSD -1
REMARK  0 active torsions:
REMARK  status: ('A' for Active; 'I' for Inactive)
ROOT
ATOM      1  O1  BZF d   1      -3.251   1.383   0.910  0.00  0.00    -0.204 OA
ATOM      2  C2  BZF d   1      -2.897   0.338   0.079  0.00  0.00     0.174 A 
ATOM      3  C3  BZF d   1      -1.662  -0.114   0.378  0.00  0.00    -0.012 A 
ATOM      4  C3A BZF d   1      -1.253   0.640   1.524  0.00  0.00    -0.107 A 
ATOM      5  C4  BZF d   1      -0.126   0.638   2.295  0.00  0.00     0.055 A 
ATOM      6  C5  BZF d   1      -0.010   1.550   3.296  0.00  0.00    -0.016 A 
ATOM      7  C6  BZF d   1      -0.997   2.480   3.550  0.00  0.00     0.022 A 
ATOM      8  C7  BZF d   1      -2.135   2.518   2.814  0.00  0.00     0.029 A 
ATOM      9  C7A BZF d   1      -2.270   1.576   1.823  0.00  0.00     0.058 A 
ENDROOT
TORSDOF 0
ENDMDL
