MODEL 1
REMARK minimizedAffinity 6.57866287
REMARK minimizedRMSD -1
REMARK  0 active torsions:
REMARK  status: ('A' for Active; 'I' for Inactive)
ROOT
ATOM      1  O1  BZF d   1      -2.999   0.797   0.976  0.00  0.00    -0.204 OA
ATOM      2  C2  BZF d   1      -2.265   0.039   0.084  0.00  0.00     0.174 A 
ATOM      3  C3  BZF d   1      -0.960   0.028   0.426  0.00  0.00    -0.012 A 
ATOM      4  C3A BZF d   1      -0.888   0.753   1.657  0.00  0.00    -0.107 A 
ATOM      5  C4  BZF d   1       0.138   1.071   2.500  0.00  0.00     0.055 A 
ATOM      6  C5  BZF d   1      -0.114   1.853   3.582  0.00  0.00    -0.016 A 
ATOM      7  C6  BZF d   1      -1.378   2.339   3.848  0.00  0.00     0.022 A 
ATOM      8  C7  BZF d   1      -2.428   2.046   3.043  0.00  0.00     0.029 A 
ATOM      9  C7A BZF d   1      -2.183   1.229   1.967  0.00  0.00     0.058 A 
ENDROOT
TORSDOF 0
ENDMDL
