MODEL 1
REMARK minimizedAffinity 7.23109818
REMARK minimizedRMSD -1
REMARK  0 active torsions:
REMARK  status: ('A' for Active; 'I' for Inactive)
ROOT
ATOM      1  O1  BZF d   1      -2.058   1.925   2.025  0.00  0.00    -0.204 OA
ATOM      2  C2  BZF d   1      -0.888   1.792   2.749  0.00  0.00     0.174 A 
ATOM      3  C3  BZF d   1      -0.352   0.568   2.570  0.00  0.00    -0.012 A 
ATOM      4  C3A BZF d   1      -1.192  -0.075   1.607  0.00  0.00    -0.107 A 
ATOM      5  C4  BZF d   1      -1.168  -1.303   1.010  0.00  0.00     0.055 A 
ATOM      6  C5  BZF d   1      -2.177  -1.648   0.169  0.00  0.00    -0.016 A 
ATOM      7  C6  BZF d   1      -3.228  -0.794  -0.095  0.00  0.00     0.022 A 
ATOM      8  C7  BZF d   1      -3.293   0.437   0.470  0.00  0.00     0.029 A 
ATOM      9  C7A BZF d   1      -2.258   0.802   1.295  0.00  0.00     0.058 A 
ENDROOT
TORSDOF 0
ENDMDL
