MODEL 1
REMARK minimizedAffinity 3.62153077
REMARK minimizedRMSD -1
REMARK  0 active torsions:
REMARK  status: ('A' for Active; 'I' for Inactive)
ROOT
ATOM      1  O1  BZF d   1       2.240   4.551  -5.999  0.00  0.00    -0.204 OA
ATOM      2  C2  BZF d   1       1.096   3.796  -5.822  0.00  0.00     0.174 A 
ATOM      3  C3  BZF d   1       1.404   2.495  -5.646  0.00  0.00    -0.012 A 
ATOM      4  C3A BZF d   1       2.834   2.446  -5.626  0.00  0.00    -0.107 A 
ATOM      5  C4  BZF d   1       3.737   1.433  -5.468  0.00  0.00     0.055 A 
ATOM      6  C5  BZF d   1       5.063   1.709  -5.573  0.00  0.00    -0.016 A 
ATOM      7  C6  BZF d   1       5.521   2.982  -5.839  0.00  0.00     0.022 A 
ATOM      8  C7  BZF d   1       4.664   4.020  -5.999  0.00  0.00     0.029 A 
ATOM      9  C7A BZF d   1       3.325   3.751  -5.861  0.00  0.00     0.058 A 
ENDROOT
TORSDOF 0
ENDMDL
