MODEL 1
REMARK minimizedAffinity 6.45874405
REMARK minimizedRMSD -1
REMARK  0 active torsions:
REMARK  status: ('A' for Active; 'I' for Inactive)
ROOT
ATOM      1  O1  BZF d   1       0.407   0.681   2.460  0.00  0.00    -0.204 OA
ATOM      2  C2  BZF d   1       0.838   0.024   1.323  0.00  0.00     0.174 A 
ATOM      3  C3  BZF d   1      -0.174  -0.126   0.445  0.00  0.00    -0.012 A 
ATOM      4  C3A BZF d   1      -1.286   0.555   1.032  0.00  0.00    -0.107 A 
ATOM      5  C4  BZF d   1      -2.573   0.771   0.630  0.00  0.00     0.055 A 
ATOM      6  C5  BZF d   1      -3.428   1.412   1.470  0.00  0.00    -0.016 A 
ATOM      7  C6  BZF d   1      -3.032   1.846   2.718  0.00  0.00     0.022 A 
ATOM      8  C7  BZF d   1      -1.764   1.658   3.159  0.00  0.00     0.029 A 
ATOM      9  C7A BZF d   1      -0.889   1.040   2.300  0.00  0.00     0.058 A 
ENDROOT
TORSDOF 0
ENDMDL
