MODEL 1
REMARK minimizedAffinity 5.03370857
REMARK minimizedRMSD -1
REMARK  1 active torsions:
REMARK  status: ('A' for Active; 'I' for Inactive)
REMARK    1  A    between atoms: C1_2  and  C2_3 
ROOT
ATOM      1  C2  UNL d   1      -0.508  -3.754   5.470  0.00  0.00    -0.076 A 
ATOM      2  C3  UNL d   1       0.692  -3.238   4.951  0.00  0.00     0.004 A 
ATOM      3  C4  UNL d   1       1.690  -4.086   4.474  0.00  0.00    -0.003 A 
ATOM      4  C5  UNL d   1       1.503  -5.463   4.506  0.00  0.00     0.000 A 
ATOM      5  C6  UNL d   1       0.311  -5.992   5.001  0.00  0.00     0.000 A 
ATOM      6  C7  UNL d   1      -0.712  -5.150   5.471  0.00  0.00    -0.073 A 
ATOM      7  C8  UNL d   1      -1.974  -5.774   5.999  0.00  0.00     0.078 C 
ENDROOT
BRANCH   1   8
ATOM      8  C1  UNL d   1      -1.543  -2.786   5.998  0.00  0.00     0.053 C 
ATOM      9  C   UNL d   1      -1.058  -1.345   5.979  0.00  0.00     0.018 C 
ENDBRANCH   1   8
TORSDOF 1
ENDMDL
