MODEL 1
REMARK minimizedAffinity 8.57202339
REMARK minimizedRMSD -1
REMARK  1 active torsions:
REMARK  status: ('A' for Active; 'I' for Inactive)
REMARK    1  A    between atoms: C1_2  and  C2_3 
ROOT
ATOM      1  C2  UNL d   1      -1.094  -0.743   0.737  0.00  0.00    -0.076 A 
ATOM      2  C3  UNL d   1      -0.468  -0.206   1.875  0.00  0.00     0.004 A 
ATOM      3  C4  UNL d   1       0.845   0.259   1.820  0.00  0.00    -0.003 A 
ATOM      4  C5  UNL d   1       1.554   0.194   0.626  0.00  0.00     0.000 A 
ATOM      5  C6  UNL d   1       0.943  -0.319  -0.518  0.00  0.00     0.000 A 
ATOM      6  C7  UNL d   1      -0.386  -0.777  -0.484  0.00  0.00    -0.073 A 
ATOM      7  C8  UNL d   1      -0.993  -1.327  -1.745  0.00  0.00     0.078 C 
ENDROOT
BRANCH   1   8
ATOM      8  C1  UNL d   1      -2.510  -1.256   0.863  0.00  0.00     0.053 C 
ATOM      9  C   UNL d   1      -3.463  -0.208   1.418  0.00  0.00     0.018 C 
ENDBRANCH   1   8
TORSDOF 1
ENDMDL
