MODEL 1
REMARK minimizedAffinity 9.28739738
REMARK minimizedRMSD -1
REMARK  1 active torsions:
REMARK  status: ('A' for Active; 'I' for Inactive)
REMARK    1  A    between atoms: C1_2  and  C2_3 
ROOT
ATOM      1  C2  UNL d   1      -3.299   2.608   2.955  0.00  0.00    -0.076 A 
ATOM      2  C3  UNL d   1      -3.733   3.748   3.655  0.00  0.00     0.004 A 
ATOM      3  C4  UNL d   1      -5.073   4.133   3.638  0.00  0.00    -0.003 A 
ATOM      4  C5  UNL d   1      -6.000   3.385   2.920  0.00  0.00     0.000 A 
ATOM      5  C6  UNL d   1      -5.590   2.242   2.235  0.00  0.00     0.000 A 
ATOM      6  C7  UNL d   1      -4.246   1.831   2.256  0.00  0.00    -0.073 A 
ATOM      7  C8  UNL d   1      -3.858   0.593   1.493  0.00  0.00     0.078 C 
ENDROOT
BRANCH   1   8
ATOM      8  C1  UNL d   1      -1.829   2.254   2.989  0.00  0.00     0.053 C 
ATOM      9  C   UNL d   1      -0.933   3.483   2.966  0.00  0.00     0.018 C 
ENDBRANCH   1   8
TORSDOF 1
ENDMDL
