MODEL 1
REMARK minimizedAffinity 9.66688824
REMARK minimizedRMSD -1
REMARK  1 active torsions:
REMARK  status: ('A' for Active; 'I' for Inactive)
REMARK    1  A    between atoms: C1_2  and  C2_3 
ROOT
ATOM      1  C2  UNL d   1      -0.151   3.350   3.270  0.00  0.00    -0.076 A 
ATOM      2  C3  UNL d   1      -0.427   3.769   1.957  0.00  0.00     0.004 A 
ATOM      3  C4  UNL d   1      -0.457   2.855   0.905  0.00  0.00    -0.003 A 
ATOM      4  C5  UNL d   1      -0.213   1.508   1.149  0.00  0.00     0.000 A 
ATOM      5  C6  UNL d   1       0.045   1.073   2.448  0.00  0.00     0.000 A 
ATOM      6  C7  UNL d   1       0.063   1.978   3.523  0.00  0.00    -0.073 A 
ATOM      7  C8  UNL d   1       0.352   1.455   4.903  0.00  0.00     0.078 C 
ENDROOT
BRANCH   1   8
ATOM      8  C1  UNL d   1      -0.105   4.390   4.367  0.00  0.00     0.053 C 
ATOM      9  C   UNL d   1       1.136   5.266   4.287  0.00  0.00     0.018 C 
ENDBRANCH   1   8
TORSDOF 1
ENDMDL
