MODEL 1
REMARK minimizedAffinity 14.0384741
REMARK minimizedRMSD -1
REMARK  1 active torsions:
REMARK  status: ('A' for Active; 'I' for Inactive)
REMARK    1  A    between atoms: C1_2  and  C2_3 
ROOT
ATOM      1  C2  UNL d   1      -4.294  -0.307  -0.004  0.00  0.00    -0.076 A 
ATOM      2  C3  UNL d   1      -5.644  -0.381  -0.392  0.00  0.00     0.004 A 
ATOM      3  C4  UNL d   1      -6.000  -0.485  -1.735  0.00  0.00    -0.003 A 
ATOM      4  C5  UNL d   1      -5.012  -0.517  -2.714  0.00  0.00     0.000 A 
ATOM      5  C6  UNL d   1      -3.668  -0.462  -2.346  0.00  0.00     0.000 A 
ATOM      6  C7  UNL d   1      -3.291  -0.374  -0.995  0.00  0.00    -0.073 A 
ATOM      7  C8  UNL d   1      -1.827  -0.312  -0.656  0.00  0.00     0.078 C 
ENDROOT
BRANCH   1   8
ATOM      8  C1  UNL d   1      -3.969  -0.168   1.466  0.00  0.00     0.053 C 
ATOM      9  C   UNL d   1      -4.510   1.122   2.063  0.00  0.00     0.018 C 
ENDBRANCH   1   8
TORSDOF 1
ENDMDL
