MODEL 1
REMARK minimizedAffinity 20.1470222
REMARK minimizedRMSD -1
REMARK  1 active torsions:
REMARK  status: ('A' for Active; 'I' for Inactive)
REMARK    1  A    between atoms: C1_2  and  C2_3 
ROOT
ATOM      1  C2  UNL d   1      -4.807   0.344  -2.378  0.00  0.00    -0.076 A 
ATOM      2  C3  UNL d   1      -4.481   1.704  -2.238  0.00  0.00     0.004 A 
ATOM      3  C4  UNL d   1      -4.899   2.643  -3.179  0.00  0.00    -0.003 A 
ATOM      4  C5  UNL d   1      -5.651   2.237  -4.276  0.00  0.00     0.000 A 
ATOM      5  C6  UNL d   1      -5.999   0.895  -4.422  0.00  0.00     0.000 A 
ATOM      6  C7  UNL d   1      -5.600  -0.062  -3.473  0.00  0.00    -0.073 A 
ATOM      7  C8  UNL d   1      -5.998  -1.497  -3.683  0.00  0.00     0.078 C 
ENDROOT
BRANCH   1   8
ATOM      8  C1  UNL d   1      -4.303  -0.632  -1.340  0.00  0.00     0.053 C 
ATOM      9  C   UNL d   1      -5.175  -0.660  -0.094  0.00  0.00     0.018 C 
ENDBRANCH   1   8
TORSDOF 1
ENDMDL
