MODEL 1
REMARK minimizedAffinity 6.78367472
REMARK minimizedRMSD -1
REMARK  1 active torsions:
REMARK  status: ('A' for Active; 'I' for Inactive)
REMARK    1  A    between atoms: C1_2  and  C2_3 
ROOT
ATOM      1  C2  UNL d   1      -0.051  -1.847  -1.262  0.00  0.00    -0.076 A 
ATOM      2  C3  UNL d   1      -1.004  -0.839  -1.035  0.00  0.00     0.004 A 
ATOM      3  C4  UNL d   1      -0.678   0.306  -0.309  0.00  0.00    -0.003 A 
ATOM      4  C5  UNL d   1       0.606   0.461   0.201  0.00  0.00     0.000 A 
ATOM      5  C6  UNL d   1       1.569  -0.521  -0.030  0.00  0.00     0.000 A 
ATOM      6  C7  UNL d   1       1.262  -1.673  -0.773  0.00  0.00    -0.073 A 
ATOM      7  C8  UNL d   1       2.337  -2.703  -0.986  0.00  0.00     0.078 C 
ENDROOT
BRANCH   1   8
ATOM      8  C1  UNL d   1      -0.469  -3.078  -2.033  0.00  0.00     0.053 C 
ATOM      9  C   UNL d   1      -1.164  -2.738  -3.342  0.00  0.00     0.018 C 
ENDBRANCH   1   8
TORSDOF 1
ENDMDL
