MODEL 1
REMARK minimizedAffinity 6.95128536
REMARK minimizedRMSD -1
REMARK  1 active torsions:
REMARK  status: ('A' for Active; 'I' for Inactive)
REMARK    1  A    between atoms: C1_2  and  C2_3 
ROOT
ATOM      1  C2  UNL d   1       3.144   5.221   5.494  0.00  0.00    -0.076 A 
ATOM      2  C3  UNL d   1       4.314   6.000   5.515  0.00  0.00     0.004 A 
ATOM      3  C4  UNL d   1       5.531   5.477   5.083  0.00  0.00    -0.003 A 
ATOM      4  C5  UNL d   1       5.599   4.167   4.622  0.00  0.00     0.000 A 
ATOM      5  C6  UNL d   1       4.444   3.386   4.577  0.00  0.00     0.000 A 
ATOM      6  C7  UNL d   1       3.206   3.903   4.994  0.00  0.00    -0.073 A 
ATOM      7  C8  UNL d   1       1.994   3.014   4.930  0.00  0.00     0.078 C 
ENDROOT
BRANCH   1   8
ATOM      8  C1  UNL d   1       1.857   5.833   6.000  0.00  0.00     0.053 C 
ATOM      9  C   UNL d   1       0.819   5.999   4.901  0.00  0.00     0.018 C 
ENDBRANCH   1   8
TORSDOF 1
ENDMDL
