MODEL 1
REMARK minimizedAffinity 10.2897558
REMARK minimizedRMSD -1
REMARK  1 active torsions:
REMARK  status: ('A' for Active; 'I' for Inactive)
REMARK    1  A    between atoms: C1_2  and  C2_3 
ROOT
ATOM      1  C2  UNL d   1       0.605  -0.659   0.885  0.00  0.00    -0.076 A 
ATOM      2  C3  UNL d   1       1.256  -1.715   0.224  0.00  0.00     0.004 A 
ATOM      3  C4  UNL d   1       0.561  -2.557  -0.642  0.00  0.00    -0.003 A 
ATOM      4  C5  UNL d   1      -0.798  -2.356  -0.861  0.00  0.00     0.000 A 
ATOM      5  C6  UNL d   1      -1.456  -1.303  -0.227  0.00  0.00     0.000 A 
ATOM      6  C7  UNL d   1      -0.766  -0.435   0.636  0.00  0.00    -0.073 A 
ATOM      7  C8  UNL d   1      -1.527   0.681   1.298  0.00  0.00     0.078 C 
ENDROOT
BRANCH   1   8
ATOM      8  C1  UNL d   1       1.406   0.205   1.834  0.00  0.00     0.053 C 
ATOM      9  C   UNL d   1       2.187  -0.614   2.849  0.00  0.00     0.018 C 
ENDBRANCH   1   8
TORSDOF 1
ENDMDL
