MODEL 1
REMARK minimizedAffinity 12.5715485
REMARK minimizedRMSD -1
REMARK  1 active torsions:
REMARK  status: ('A' for Active; 'I' for Inactive)
REMARK    1  A    between atoms: C1_2  and  C2_3 
ROOT
ATOM      1  C2  UNL d   1      -0.722  -1.057  -0.607  0.00  0.00    -0.076 A 
ATOM      2  C3  UNL d   1      -1.319  -0.117   0.250  0.00  0.00     0.004 A 
ATOM      3  C4  UNL d   1      -0.594   0.476   1.282  0.00  0.00    -0.003 A 
ATOM      4  C5  UNL d   1       0.742   0.139   1.472  0.00  0.00     0.000 A 
ATOM      5  C6  UNL d   1       1.356  -0.778   0.620  0.00  0.00     0.000 A 
ATOM      6  C7  UNL d   1       0.643  -1.373  -0.435  0.00  0.00    -0.073 A 
ATOM      7  C8  UNL d   1       1.354  -2.360  -1.320  0.00  0.00     0.078 C 
ENDROOT
BRANCH   1   8
ATOM      8  C1  UNL d   1      -1.566  -1.688  -1.691  0.00  0.00     0.053 C 
ATOM      9  C   UNL d   1      -2.494  -2.766  -1.154  0.00  0.00     0.018 C 
ENDBRANCH   1   8
TORSDOF 1
ENDMDL
