MODEL 1
REMARK minimizedAffinity 14.2013359
REMARK minimizedRMSD -1
REMARK  1 active torsions:
REMARK  status: ('A' for Active; 'I' for Inactive)
REMARK    1  A    between atoms: C1_2  and  C2_3 
ROOT
ATOM      1  C2  UNL d   1       2.914  -3.987   3.067  0.00  0.00    -0.076 A 
ATOM      2  C3  UNL d   1       3.549  -4.879   3.948  0.00  0.00     0.004 A 
ATOM      3  C4  UNL d   1       3.937  -4.473   5.224  0.00  0.00    -0.003 A 
ATOM      4  C5  UNL d   1       3.695  -3.169   5.640  0.00  0.00     0.000 A 
ATOM      5  C6  UNL d   1       3.050  -2.275   4.785  0.00  0.00     0.000 A 
ATOM      6  C7  UNL d   1       2.638  -2.673   3.501  0.00  0.00    -0.073 A 
ATOM      7  C8  UNL d   1       1.952  -1.666   2.619  0.00  0.00     0.078 C 
ENDROOT
BRANCH   1   8
ATOM      8  C1  UNL d   1       2.541  -4.475   1.685  0.00  0.00     0.053 C 
ATOM      9  C   UNL d   1       3.600  -5.385   1.083  0.00  0.00     0.018 C 
ENDBRANCH   1   8
TORSDOF 1
ENDMDL
