MODEL 1
REMARK minimizedAffinity 6.21081686
REMARK minimizedRMSD -1
REMARK  1 active torsions:
REMARK  status: ('A' for Active; 'I' for Inactive)
REMARK    1  A    between atoms: C1_2  and  C2_3 
ROOT
ATOM      1  C2  UNL d   1       3.549  -2.862   3.739  0.00  0.00    -0.076 A 
ATOM      2  C3  UNL d   1       4.658  -2.066   3.402  0.00  0.00     0.004 A 
ATOM      3  C4  UNL d   1       5.872  -2.644   3.037  0.00  0.00    -0.003 A 
ATOM      4  C5  UNL d   1       5.998  -4.028   3.002  0.00  0.00     0.000 A 
ATOM      5  C6  UNL d   1       4.904  -4.834   3.315  0.00  0.00     0.000 A 
ATOM      6  C7  UNL d   1       3.668  -4.267   3.670  0.00  0.00    -0.073 A 
ATOM      7  C8  UNL d   1       2.523  -5.183   4.005  0.00  0.00     0.078 C 
ENDROOT
BRANCH   1   8
ATOM      8  C1  UNL d   1       2.266  -2.179   4.153  0.00  0.00     0.053 C 
ATOM      9  C   UNL d   1       1.831  -1.107   3.167  0.00  0.00     0.018 C 
ENDBRANCH   1   8
TORSDOF 1
ENDMDL
