MODEL 1
REMARK minimizedAffinity 5.872437
REMARK minimizedRMSD -1
REMARK  1 active torsions:
REMARK  status: ('A' for Active; 'I' for Inactive)
REMARK    1  A    between atoms: C1_2  and  C2_3 
ROOT
ATOM      1  C2  UNL d   1       2.095  -0.663   3.063  0.00  0.00    -0.076 A 
ATOM      2  C3  UNL d   1       2.157  -1.929   2.455  0.00  0.00     0.004 A 
ATOM      3  C4  UNL d   1       2.238  -3.090   3.222  0.00  0.00    -0.003 A 
ATOM      4  C5  UNL d   1       2.258  -3.005   4.610  0.00  0.00     0.000 A 
ATOM      5  C6  UNL d   1       2.180  -1.758   5.230  0.00  0.00     0.000 A 
ATOM      6  C7  UNL d   1       2.081  -0.579   4.472  0.00  0.00    -0.073 A 
ATOM      7  C8  UNL d   1       2.006   0.739   5.194  0.00  0.00     0.078 C 
ENDROOT
BRANCH   1   8
ATOM      8  C1  UNL d   1       2.036   0.562   2.180  0.00  0.00     0.053 C 
ATOM      9  C   UNL d   1       3.415   1.037   1.749  0.00  0.00     0.018 C 
ENDBRANCH   1   8
TORSDOF 1
ENDMDL
