MODEL 1
REMARK minimizedAffinity 11.2611361
REMARK minimizedRMSD -1
REMARK  1 active torsions:
REMARK  status: ('A' for Active; 'I' for Inactive)
REMARK    1  A    between atoms: C1_2  and  C2_3 
ROOT
ATOM      1  C2  UNL d   1       3.470  -0.753   2.309  0.00  0.00    -0.076 A 
ATOM      2  C3  UNL d   1       3.874   0.076   1.248  0.00  0.00     0.004 A 
ATOM      3  C4  UNL d   1       3.139   1.208   0.901  0.00  0.00    -0.003 A 
ATOM      4  C5  UNL d   1       1.987   1.530   1.611  0.00  0.00     0.000 A 
ATOM      5  C6  UNL d   1       1.581   0.729   2.677  0.00  0.00     0.000 A 
ATOM      6  C7  UNL d   1       2.320  -0.407   3.050  0.00  0.00    -0.073 A 
ATOM      7  C8  UNL d   1       1.832  -1.239   4.204  0.00  0.00     0.078 C 
ENDROOT
BRANCH   1   8
ATOM      8  C1  UNL d   1       4.292  -1.983   2.621  0.00  0.00     0.053 C 
ATOM      9  C   UNL d   1       5.783  -1.688   2.674  0.00  0.00     0.018 C 
ENDBRANCH   1   8
TORSDOF 1
ENDMDL
