MODEL 1
REMARK minimizedAffinity 7.95371866
REMARK minimizedRMSD -1
REMARK  1 active torsions:
REMARK  status: ('A' for Active; 'I' for Inactive)
REMARK    1  A    between atoms: C1_2  and  C2_3 
ROOT
ATOM      1  C2  UNL d   1       3.574  -1.208   2.394  0.00  0.00    -0.076 A 
ATOM      2  C3  UNL d   1       3.771  -0.375   1.279  0.00  0.00     0.004 A 
ATOM      3  C4  UNL d   1       2.894   0.672   1.002  0.00  0.00    -0.003 A 
ATOM      4  C5  UNL d   1       1.806   0.904   1.836  0.00  0.00     0.000 A 
ATOM      5  C6  UNL d   1       1.606   0.099   2.957  0.00  0.00     0.000 A 
ATOM      6  C7  UNL d   1       2.490  -0.951   3.260  0.00  0.00    -0.073 A 
ATOM      7  C8  UNL d   1       2.222  -1.791   4.478  0.00  0.00     0.078 C 
ENDROOT
BRANCH   1   8
ATOM      8  C1  UNL d   1       4.543  -2.345   2.629  0.00  0.00     0.053 C 
ATOM      9  C   UNL d   1       5.993  -1.889   2.607  0.00  0.00     0.018 C 
ENDBRANCH   1   8
TORSDOF 1
ENDMDL
