MODEL 1
REMARK minimizedAffinity 14.2939816
REMARK minimizedRMSD -1
REMARK  1 active torsions:
REMARK  status: ('A' for Active; 'I' for Inactive)
REMARK    1  A    between atoms: C1_2  and  C2_3 
ROOT
ATOM      1  C2  UNL d   1       2.798  -3.006   3.655  0.00  0.00    -0.076 A 
ATOM      2  C3  UNL d   1       3.000  -4.190   2.924  0.00  0.00     0.004 A 
ATOM      3  C4  UNL d   1       2.789  -5.438   3.507  0.00  0.00    -0.003 A 
ATOM      4  C5  UNL d   1       2.373  -5.523   4.831  0.00  0.00     0.000 A 
ATOM      5  C6  UNL d   1       2.150  -4.359   5.566  0.00  0.00     0.000 A 
ATOM      6  C7  UNL d   1       2.342  -3.093   4.988  0.00  0.00    -0.073 A 
ATOM      7  C8  UNL d   1       2.093  -1.870   5.829  0.00  0.00     0.078 C 
ENDROOT
BRANCH   1   8
ATOM      8  C1  UNL d   1       3.069  -1.682   2.978  0.00  0.00     0.053 C 
ATOM      9  C   UNL d   1       1.796  -1.006   2.491  0.00  0.00     0.018 C 
ENDBRANCH   1   8
TORSDOF 1
ENDMDL
