MODEL 1
REMARK minimizedAffinity 6.27800274
REMARK minimizedRMSD -1
REMARK  0 active torsions:
REMARK  status: ('A' for Active; 'I' for Inactive)
ROOT
ATOM      1  C1  DEN d   1      -0.487  -1.204   1.809  0.00  0.00     0.130 A 
ATOM      2  C2  DEN d   1       0.167  -0.500   2.909  0.00  0.00    -0.031 A 
ATOM      3  C3  DEN d   1      -0.786   0.491   3.447  0.00  0.00     0.027 A 
ATOM      4  C4  DEN d   1      -3.199   1.000   2.689  0.00  0.00     0.027 A 
ATOM      5  C5  DEN d   1      -4.185   0.669   1.787  0.00  0.00    -0.003 A 
ATOM      6  C6  DEN d   1      -3.998  -0.277   0.815  0.00  0.00     0.001 A 
ATOM      7  C7  DEN d   1      -2.811  -0.959   0.751  0.00  0.00     0.017 A 
ATOM      8  C8  DEN d   1      -1.809  -0.626   1.652  0.00  0.00    -0.094 A 
ATOM      9  C9  DEN d   1      -2.022   0.326   2.635  0.00  0.00    -0.072 A 
ENDROOT
TORSDOF 0
ENDMDL
