MODEL 1
REMARK minimizedAffinity 5.39014912
REMARK minimizedRMSD -1
REMARK  0 active torsions:
REMARK  status: ('A' for Active; 'I' for Inactive)
ROOT
ATOM      1  C1  DEN d   1      -1.366   0.412  -4.654  0.00  0.00     0.130 A 
ATOM      2  C2  DEN d   1      -0.855   0.168  -6.000  0.00  0.00    -0.031 A 
ATOM      3  C3  DEN d   1      -0.000  -1.035  -5.952  0.00  0.00     0.027 A 
ATOM      4  C4  DEN d   1       0.575  -2.539  -3.937  0.00  0.00     0.027 A 
ATOM      5  C5  DEN d   1       0.386  -2.725  -2.585  0.00  0.00    -0.003 A 
ATOM      6  C6  DEN d   1      -0.366  -1.866  -1.828  0.00  0.00     0.001 A 
ATOM      7  C7  DEN d   1      -0.994  -0.806  -2.426  0.00  0.00     0.017 A 
ATOM      8  C8  DEN d   1      -0.803  -0.608  -3.787  0.00  0.00    -0.094 A 
ATOM      9  C9  DEN d   1      -0.049  -1.494  -4.538  0.00  0.00    -0.072 A 
ENDROOT
TORSDOF 0
ENDMDL
