MODEL 1
REMARK minimizedAffinity -1.37583303
REMARK minimizedRMSD -1
REMARK  0 active torsions:
REMARK  status: ('A' for Active; 'I' for Inactive)
ROOT
ATOM      1  C1  DEN d   1       1.186  -0.477  -6.000  0.00  0.00     0.130 A 
ATOM      2  C2  DEN d   1       2.346   0.035  -5.276  0.00  0.00    -0.031 A 
ATOM      3  C3  DEN d   1       1.856   0.783  -4.100  0.00  0.00     0.027 A 
ATOM      4  C4  DEN d   1      -0.572   1.191  -3.332  0.00  0.00     0.027 A 
ATOM      5  C5  DEN d   1      -1.897   0.962  -3.631  0.00  0.00    -0.003 A 
ATOM      6  C6  DEN d   1      -2.285   0.273  -4.749  0.00  0.00     0.001 A 
ATOM      7  C7  DEN d   1      -1.336  -0.251  -5.586  0.00  0.00     0.017 A 
ATOM      8  C8  DEN d   1       0.002  -0.019  -5.296  0.00  0.00    -0.094 A 
ATOM      9  C9  DEN d   1       0.374   0.669  -4.154  0.00  0.00    -0.072 A 
ENDROOT
TORSDOF 0
ENDMDL
