MODEL 1
REMARK minimizedAffinity -1.26139998
REMARK minimizedRMSD -1
REMARK  0 active torsions:
REMARK  status: ('A' for Active; 'I' for Inactive)
ROOT
ATOM      1  C1  DEN d   1      -0.751   0.548  -4.491  0.00  0.00     0.130 A 
ATOM      2  C2  DEN d   1      -0.545   0.242  -5.904  0.00  0.00    -0.031 A 
ATOM      3  C3  DEN d   1       0.009  -1.123  -6.000  0.00  0.00     0.027 A 
ATOM      4  C4  DEN d   1       0.562  -2.787  -4.108  0.00  0.00     0.027 A 
ATOM      5  C5  DEN d   1       0.569  -2.973  -2.743  0.00  0.00    -0.003 A 
ATOM      6  C6  DEN d   1       0.172  -1.994  -1.871  0.00  0.00     0.001 A 
ATOM      7  C7  DEN d   1      -0.292  -0.800  -2.356  0.00  0.00     0.017 A 
ATOM      8  C8  DEN d   1      -0.295  -0.602  -3.731  0.00  0.00    -0.094 A 
ATOM      9  C9  DEN d   1       0.099  -1.608  -4.596  0.00  0.00    -0.072 A 
ENDROOT
TORSDOF 0
ENDMDL
