MODEL 1
REMARK minimizedAffinity 0.394747585
REMARK minimizedRMSD -1
REMARK  0 active torsions:
REMARK  status: ('A' for Active; 'I' for Inactive)
ROOT
ATOM      1  C1  DEN d   1       2.046   1.350  -4.870  0.00  0.00     0.130 A 
ATOM      2  C2  DEN d   1       2.898   0.450  -5.642  0.00  0.00    -0.031 A 
ATOM      3  C3  DEN d   1       2.099  -0.740  -6.000  0.00  0.00     0.027 A 
ATOM      4  C4  DEN d   1      -0.362  -1.270  -5.441  0.00  0.00     0.027 A 
ATOM      5  C5  DEN d   1      -1.491  -0.813  -4.797  0.00  0.00    -0.003 A 
ATOM      6  C6  DEN d   1      -1.509   0.372  -4.109  0.00  0.00     0.001 A 
ATOM      7  C7  DEN d   1      -0.390   1.162  -4.087  0.00  0.00     0.017 A 
ATOM      8  C8  DEN d   1       0.753   0.704  -4.728  0.00  0.00    -0.094 A 
ATOM      9  C9  DEN d   1       0.749  -0.490  -5.428  0.00  0.00    -0.072 A 
ENDROOT
TORSDOF 0
ENDMDL
