MODEL 1
REMARK minimizedAffinity 7.56377602
REMARK minimizedRMSD -1
REMARK  0 active torsions:
REMARK  status: ('A' for Active; 'I' for Inactive)
ROOT
ATOM      1  C1  DEN d   1       0.884   0.227   4.034  0.00  0.00     0.130 A 
ATOM      2  C2  DEN d   1       1.766  -0.931   3.916  0.00  0.00    -0.031 A 
ATOM      3  C3  DEN d   1       1.143  -1.886   2.979  0.00  0.00     0.027 A 
ATOM      4  C4  DEN d   1      -1.088  -1.684   1.700  0.00  0.00     0.027 A 
ATOM      5  C5  DEN d   1      -2.191  -0.887   1.486  0.00  0.00    -0.003 A 
ATOM      6  C6  DEN d   1      -2.361   0.312   2.127  0.00  0.00     0.001 A 
ATOM      7  C7  DEN d   1      -1.391   0.769   2.979  0.00  0.00     0.017 A 
ATOM      8  C8  DEN d   1      -0.280  -0.032   3.206  0.00  0.00    -0.094 A 
ATOM      9  C9  DEN d   1      -0.120  -1.235   2.539  0.00  0.00    -0.072 A 
ENDROOT
TORSDOF 0
ENDMDL
