MODEL 1
REMARK minimizedAffinity 3.25705147
REMARK minimizedRMSD -1
REMARK  0 active torsions:
REMARK  status: ('A' for Active; 'I' for Inactive)
ROOT
ATOM      1  C1  DEN d   1      -4.611   1.563   1.599  0.00  0.00     0.130 A 
ATOM      2  C2  DEN d   1      -5.231   0.946   0.430  0.00  0.00    -0.031 A 
ATOM      3  C3  DEN d   1      -4.338  -0.130  -0.046  0.00  0.00     0.027 A 
ATOM      4  C4  DEN d   1      -2.071  -0.900   0.914  0.00  0.00     0.027 A 
ATOM      5  C5  DEN d   1      -1.131  -0.670   1.893  0.00  0.00    -0.003 A 
ATOM      6  C6  DEN d   1      -1.267   0.333   2.816  0.00  0.00     0.001 A 
ATOM      7  C7  DEN d   1      -2.391   1.117   2.805  0.00  0.00     0.017 A 
ATOM      8  C8  DEN d   1      -3.340   0.896   1.816  0.00  0.00    -0.094 A 
ATOM      9  C9  DEN d   1      -3.190  -0.131   0.900  0.00  0.00    -0.072 A 
ENDROOT
TORSDOF 0
ENDMDL
