MODEL 1
REMARK minimizedAffinity -5.40535402
REMARK minimizedRMSD -1
REMARK  1 active torsions:
REMARK  status: ('A' for Active; 'I' for Inactive)
REMARK    1  A    between atoms: C1_2  and  C2_3 
ROOT
ATOM      1  C2  UNL d   1      -0.566  -0.428  -0.187  0.00  0.00    -0.081 A 
ATOM      2  C3  UNL d   1      -1.066   0.296   0.902  0.00  0.00     0.006 A 
ATOM      3  C4  UNL d   1      -0.348   1.375   1.425  0.00  0.00     0.002 A 
ATOM      4  C5  UNL d   1       0.876   1.752   0.863  0.00  0.00    -0.080 A 
ATOM      5  C6  UNL d   1       1.641   2.927   1.395  0.00  0.00     0.076 C 
ATOM      6  C7  UNL d   1       1.384   1.018  -0.214  0.00  0.00     0.002 A 
ATOM      7  C8  UNL d   1       0.668  -0.061  -0.737  0.00  0.00     0.006 A 
ENDROOT
BRANCH   1   8
ATOM      8  C1  UNL d   1      -1.367  -1.551  -0.794  0.00  0.00     0.054 C 
ATOM      9  C   UNL d   1      -1.739  -1.247  -2.239  0.00  0.00     0.018 C 
ENDBRANCH   1   8
TORSDOF 1
ENDMDL
