MODEL 1
REMARK minimizedAffinity -3.76362586
REMARK minimizedRMSD -1
REMARK  1 active torsions:
REMARK  status: ('A' for Active; 'I' for Inactive)
REMARK    1  A    between atoms: C1_2  and  C2_3 
ROOT
ATOM      1  C2  UNL d   1      -1.124  -0.411  -0.795  0.00  0.00    -0.081 A 
ATOM      2  C3  UNL d   1      -0.635   0.706  -1.482  0.00  0.00     0.006 A 
ATOM      3  C4  UNL d   1       0.216   1.613  -0.845  0.00  0.00     0.002 A 
ATOM      4  C5  UNL d   1       0.599   1.412   0.485  0.00  0.00    -0.080 A 
ATOM      5  C6  UNL d   1       1.536   2.361   1.171  0.00  0.00     0.076 C 
ATOM      6  C7  UNL d   1       0.096   0.305   1.177  0.00  0.00     0.002 A 
ATOM      7  C8  UNL d   1      -0.755  -0.601   0.541  0.00  0.00     0.006 A 
ENDROOT
BRANCH   1   8
ATOM      8  C1  UNL d   1      -1.990  -1.425  -1.498  0.00  0.00     0.054 C 
ATOM      9  C   UNL d   1      -1.934  -1.247  -3.009  0.00  0.00     0.018 C 
ENDBRANCH   1   8
TORSDOF 1
ENDMDL
