MODEL 1
REMARK minimizedAffinity -3.52543783
REMARK minimizedRMSD -1
REMARK  1 active torsions:
REMARK  status: ('A' for Active; 'I' for Inactive)
REMARK    1  A    between atoms: C1_2  and  C2_3 
ROOT
ATOM      1  C2  UNL d   1      -0.332  -0.620  -0.468  0.00  0.00    -0.081 A 
ATOM      2  C3  UNL d   1      -0.543   0.385   0.484  0.00  0.00     0.006 A 
ATOM      3  C4  UNL d   1       0.540   1.053   1.061  0.00  0.00     0.002 A 
ATOM      4  C5  UNL d   1       1.850   0.732   0.690  0.00  0.00    -0.080 A 
ATOM      5  C6  UNL d   1       3.021   1.462   1.279  0.00  0.00     0.076 C 
ATOM      6  C7  UNL d   1       2.062  -0.284  -0.248  0.00  0.00     0.002 A 
ATOM      7  C8  UNL d   1       0.979  -0.952  -0.825  0.00  0.00     0.006 A 
ENDROOT
BRANCH   1   8
ATOM      8  C1  UNL d   1      -1.500  -1.296  -1.140  0.00  0.00     0.054 C 
ATOM      9  C   UNL d   1      -1.621  -0.874  -2.597  0.00  0.00     0.018 C 
ENDBRANCH   1   8
TORSDOF 1
ENDMDL
