MODEL 1
REMARK minimizedAffinity -5.66823149
REMARK minimizedRMSD -1
REMARK  1 active torsions:
REMARK  status: ('A' for Active; 'I' for Inactive)
REMARK    1  A    between atoms: C1_2  and  C2_3 
ROOT
ATOM      1  C2  UNL d   1      -0.476   0.381   1.296  0.00  0.00    -0.081 A 
ATOM      2  C3  UNL d   1      -0.089  -0.477   0.259  0.00  0.00     0.006 A 
ATOM      3  C4  UNL d   1       1.188  -0.382  -0.299  0.00  0.00     0.002 A 
ATOM      4  C5  UNL d   1       2.102   0.566   0.175  0.00  0.00    -0.080 A 
ATOM      5  C6  UNL d   1       3.486   0.658  -0.394  0.00  0.00     0.076 C 
ATOM      6  C7  UNL d   1       1.709   1.434   1.200  0.00  0.00     0.002 A 
ATOM      7  C8  UNL d   1       0.432   1.341   1.757  0.00  0.00     0.006 A 
ENDROOT
BRANCH   1   8
ATOM      8  C1  UNL d   1      -1.829   0.239   1.944  0.00  0.00     0.054 C 
ATOM      9  C   UNL d   1      -2.040  -1.170   2.480  0.00  0.00     0.018 C 
ENDBRANCH   1   8
TORSDOF 1
ENDMDL
