MODEL 1
REMARK minimizedAffinity -3.80516601
REMARK minimizedRMSD -1
REMARK  1 active torsions:
REMARK  status: ('A' for Active; 'I' for Inactive)
REMARK    1  A    between atoms: C1_2  and  C2_3 
ROOT
ATOM      1  C2  UNL d   1       1.015  -0.140  -0.350  0.00  0.00    -0.081 A 
ATOM      2  C3  UNL d   1       2.392   0.057  -0.506  0.00  0.00     0.006 A 
ATOM      3  C4  UNL d   1       3.001   1.216  -0.019  0.00  0.00     0.002 A 
ATOM      4  C5  UNL d   1       2.245   2.193   0.638  0.00  0.00    -0.080 A 
ATOM      5  C6  UNL d   1       2.891   3.428   1.192  0.00  0.00     0.076 C 
ATOM      6  C7  UNL d   1       0.866   2.004   0.779  0.00  0.00     0.002 A 
ATOM      7  C8  UNL d   1       0.256   0.845   0.292  0.00  0.00     0.006 A 
ENDROOT
BRANCH   1   8
ATOM      8  C1  UNL d   1       0.366  -1.419  -0.816  0.00  0.00     0.054 C 
ATOM      9  C   UNL d   1      -1.152  -1.302  -0.813  0.00  0.00     0.018 C 
ENDBRANCH   1   8
TORSDOF 1
ENDMDL
