MODEL 1
REMARK minimizedAffinity -6.01753092
REMARK minimizedRMSD -1
REMARK  1 active torsions:
REMARK  status: ('A' for Active; 'I' for Inactive)
REMARK    1  A    between atoms: C1_2  and  C2_3 
ROOT
ATOM      1  C2  UNL d   1       1.583  -0.192   0.152  0.00  0.00    -0.081 A 
ATOM      2  C3  UNL d   1       0.759   0.618   0.943  0.00  0.00     0.006 A 
ATOM      3  C4  UNL d   1       1.186   1.885   1.346  0.00  0.00     0.002 A 
ATOM      4  C5  UNL d   1       2.441   2.367   0.959  0.00  0.00    -0.080 A 
ATOM      5  C6  UNL d   1       2.900   3.737   1.360  0.00  0.00     0.076 C 
ATOM      6  C7  UNL d   1       3.273   1.551   0.184  0.00  0.00     0.002 A 
ATOM      7  C8  UNL d   1       2.846   0.284  -0.219  0.00  0.00     0.006 A 
ENDROOT
BRANCH   1   8
ATOM      8  C1  UNL d   1       1.099  -1.532  -0.338  0.00  0.00     0.054 C 
ATOM      9  C   UNL d   1      -0.402  -1.520  -0.589  0.00  0.00     0.018 C 
ENDBRANCH   1   8
TORSDOF 1
ENDMDL
