MODEL 1
REMARK minimizedAffinity -5.83696222
REMARK minimizedRMSD -1
REMARK  1 active torsions:
REMARK  status: ('A' for Active; 'I' for Inactive)
REMARK    1  A    between atoms: C1_2  and  C2_3 
ROOT
ATOM      1  C2  UNL d   1       1.174   0.006  -0.005  0.00  0.00    -0.081 A 
ATOM      2  C3  UNL d   1       2.520   0.328  -0.214  0.00  0.00     0.006 A 
ATOM      3  C4  UNL d   1       3.073   1.474   0.364  0.00  0.00     0.002 A 
ATOM      4  C5  UNL d   1       2.291   2.311   1.167  0.00  0.00    -0.080 A 
ATOM      5  C6  UNL d   1       2.879   3.527   1.819  0.00  0.00     0.076 C 
ATOM      6  C7  UNL d   1       0.941   1.998   1.362  0.00  0.00     0.002 A 
ATOM      7  C8  UNL d   1       0.388   0.854   0.784  0.00  0.00     0.006 A 
ENDROOT
BRANCH   1   8
ATOM      8  C1  UNL d   1       0.592  -1.263  -0.574  0.00  0.00     0.054 C 
ATOM      9  C   UNL d   1      -0.881  -1.091  -0.916  0.00  0.00     0.018 C 
ENDBRANCH   1   8
TORSDOF 1
ENDMDL
