MODEL 1
REMARK minimizedAffinity -2.6766603
REMARK minimizedRMSD -1
REMARK  1 active torsions:
REMARK  status: ('A' for Active; 'I' for Inactive)
REMARK    1  A    between atoms: C1_2  and  C2_3 
ROOT
ATOM      1  C2  UNL d   1       0.090  -1.166  -0.251  0.00  0.00    -0.081 A 
ATOM      2  C3  UNL d   1      -0.468  -0.293   0.691  0.00  0.00     0.006 A 
ATOM      3  C4  UNL d   1       0.340   0.612   1.383  0.00  0.00     0.002 A 
ATOM      4  C5  UNL d   1       1.716   0.664   1.140  0.00  0.00    -0.080 A 
ATOM      5  C6  UNL d   1       2.590   1.652   1.855  0.00  0.00     0.076 C 
ATOM      6  C7  UNL d   1       2.277  -0.220   0.212  0.00  0.00     0.002 A 
ATOM      7  C8  UNL d   1       1.469  -1.126  -0.480  0.00  0.00     0.006 A 
ENDROOT
BRANCH   1   8
ATOM      8  C1  UNL d   1      -0.788  -2.099  -1.046  0.00  0.00     0.054 C 
ATOM      9  C   UNL d   1      -1.529  -1.356  -2.149  0.00  0.00     0.018 C 
ENDBRANCH   1   8
TORSDOF 1
ENDMDL
