MODEL 1
REMARK minimizedAffinity -0.890214562
REMARK minimizedRMSD -1
REMARK  1 active torsions:
REMARK  status: ('A' for Active; 'I' for Inactive)
REMARK    1  A    between atoms: C1_2  and  C2_3 
ROOT
ATOM      1  C2  UNL d   1       0.532   0.044  -0.000  0.00  0.00    -0.081 A 
ATOM      2  C3  UNL d   1       0.861   0.938   1.026  0.00  0.00     0.006 A 
ATOM      3  C4  UNL d   1      -0.104   1.338   1.953  0.00  0.00     0.002 A 
ATOM      4  C5  UNL d   1      -1.412   0.847   1.874  0.00  0.00    -0.080 A 
ATOM      5  C6  UNL d   1      -2.450   1.246   2.880  0.00  0.00     0.076 C 
ATOM      6  C7  UNL d   1      -1.745  -0.032   0.838  0.00  0.00     0.002 A 
ATOM      7  C8  UNL d   1      -0.781  -0.433  -0.089  0.00  0.00     0.006 A 
ENDROOT
BRANCH   1   8
ATOM      8  C1  UNL d   1       1.586  -0.440  -0.962  0.00  0.00     0.054 C 
ATOM      9  C   UNL d   1       2.948   0.157  -0.638  0.00  0.00     0.018 C 
ENDBRANCH   1   8
TORSDOF 1
ENDMDL
