MODEL 1
REMARK minimizedAffinity -4.74073982
REMARK minimizedRMSD -1
REMARK  1 active torsions:
REMARK  status: ('A' for Active; 'I' for Inactive)
REMARK    1  A    between atoms: C1_2  and  C2_3 
ROOT
ATOM      1  C2  UNL d   1       1.032   1.249   1.577  0.00  0.00    -0.081 A 
ATOM      2  C3  UNL d   1       1.757   0.907   0.429  0.00  0.00     0.006 A 
ATOM      3  C4  UNL d   1       1.290  -0.087  -0.434  0.00  0.00     0.002 A 
ATOM      4  C5  UNL d   1       0.087  -0.750  -0.168  0.00  0.00    -0.080 A 
ATOM      5  C6  UNL d   1      -0.441  -1.797  -1.103  0.00  0.00     0.076 C 
ATOM      6  C7  UNL d   1      -0.629  -0.421   0.988  0.00  0.00     0.002 A 
ATOM      7  C8  UNL d   1      -0.162   0.573   1.851  0.00  0.00     0.006 A 
ENDROOT
BRANCH   1   8
ATOM      8  C1  UNL d   1       1.500   2.365   2.476  0.00  0.00     0.054 C 
ATOM      9  C   UNL d   1       2.358   3.365   1.714  0.00  0.00     0.018 C 
ENDBRANCH   1   8
TORSDOF 1
ENDMDL
