MODEL 1
REMARK minimizedAffinity -4.71248531
REMARK minimizedRMSD -1
REMARK  0 active torsions:
REMARK  status: ('A' for Active; 'I' for Inactive)
ROOT
ATOM      1  C1  DEN d   1       0.561  -2.402  -2.484  0.00  0.00     0.130 A 
ATOM      2  C2  DEN d   1      -0.551  -3.051  -3.173  0.00  0.00    -0.031 A 
ATOM      3  C3  DEN d   1      -0.671  -4.427  -2.651  0.00  0.00     0.027 A 
ATOM      4  C4  DEN d   1       0.747  -5.609  -0.849  0.00  0.00     0.027 A 
ATOM      5  C5  DEN d   1       1.811  -5.466   0.014  0.00  0.00    -0.003 A 
ATOM      6  C6  DEN d   1       2.549  -4.314   0.079  0.00  0.00     0.001 A 
ATOM      7  C7  DEN d   1       2.204  -3.242  -0.700  0.00  0.00     0.017 A 
ATOM      8  C8  DEN d   1       1.136  -3.380  -1.578  0.00  0.00    -0.094 A 
ATOM      9  C9  DEN d   1       0.395  -4.549  -1.620  0.00  0.00    -0.072 A 
ENDROOT
TORSDOF 0
ENDMDL
