MODEL 1
REMARK minimizedAffinity -5.33680964
REMARK minimizedRMSD -1
REMARK  0 active torsions:
REMARK  status: ('A' for Active; 'I' for Inactive)
ROOT
ATOM      1  C1  DEN d   1      -0.350   1.521  -1.195  0.00  0.00     0.130 A 
ATOM      2  C2  DEN d   1       0.489   0.380  -1.550  0.00  0.00    -0.031 A 
ATOM      3  C3  DEN d   1       0.553  -0.521  -0.381  0.00  0.00     0.027 A 
ATOM      4  C4  DEN d   1      -0.564  -0.262   1.929  0.00  0.00     0.027 A 
ATOM      5  C5  DEN d   1      -1.363   0.549   2.705  0.00  0.00    -0.003 A 
ATOM      6  C6  DEN d   1      -1.849   1.746   2.251  0.00  0.00     0.001 A 
ATOM      7  C7  DEN d   1      -1.576   2.147   0.970  0.00  0.00     0.017 A 
ATOM      8  C8  DEN d   1      -0.765   1.339   0.184  0.00  0.00    -0.094 A 
ATOM      9  C9  DEN d   1      -0.295   0.126   0.657  0.00  0.00    -0.072 A 
ENDROOT
TORSDOF 0
ENDMDL
