MODEL 1
REMARK minimizedAffinity -4.69075251
REMARK minimizedRMSD -1
REMARK  0 active torsions:
REMARK  status: ('A' for Active; 'I' for Inactive)
ROOT
ATOM      1  C1  DEN d   1       0.448   1.768  -1.213  0.00  0.00     0.130 A 
ATOM      2  C2  DEN d   1       1.362   0.651  -1.440  0.00  0.00    -0.031 A 
ATOM      3  C3  DEN d   1       1.040  -0.408  -0.463  0.00  0.00     0.027 A 
ATOM      4  C4  DEN d   1      -0.777  -0.429   1.367  0.00  0.00     0.027 A 
ATOM      5  C5  DEN d   1      -1.790   0.299   1.952  0.00  0.00    -0.003 A 
ATOM      6  C6  DEN d   1      -2.103   1.569   1.548  0.00  0.00     0.001 A 
ATOM      7  C7  DEN d   1      -1.426   2.135   0.500  0.00  0.00     0.017 A 
ATOM      8  C8  DEN d   1      -0.398   1.411  -0.089  0.00  0.00    -0.094 A 
ATOM      9  C9  DEN d   1      -0.105   0.123   0.325  0.00  0.00    -0.072 A 
ENDROOT
TORSDOF 0
ENDMDL
