MODEL 1
REMARK minimizedAffinity -2.47016692
REMARK minimizedRMSD -1
REMARK  0 active torsions:
REMARK  status: ('A' for Active; 'I' for Inactive)
ROOT
ATOM      1  C1  DEN d   1       0.332  -1.580   0.505  0.00  0.00     0.130 A 
ATOM      2  C2  DEN d   1       1.002  -1.717  -0.786  0.00  0.00    -0.031 A 
ATOM      3  C3  DEN d   1       1.075  -0.379  -1.406  0.00  0.00     0.027 A 
ATOM      4  C4  DEN d   1       0.225   1.880  -0.497  0.00  0.00     0.027 A 
ATOM      5  C5  DEN d   1      -0.422   2.496   0.552  0.00  0.00    -0.003 A 
ATOM      6  C6  DEN d   1      -0.889   1.798   1.633  0.00  0.00     0.001 A 
ATOM      7  C7  DEN d   1      -0.675   0.447   1.713  0.00  0.00     0.017 A 
ATOM      8  C8  DEN d   1      -0.031  -0.183   0.656  0.00  0.00    -0.094 A 
ATOM      9  C9  DEN d   1       0.444   0.543  -0.424  0.00  0.00    -0.072 A 
ENDROOT
TORSDOF 0
ENDMDL
