MODEL 1
REMARK minimizedAffinity 3.18464684
REMARK minimizedRMSD -1
REMARK  0 active torsions:
REMARK  status: ('A' for Active; 'I' for Inactive)
ROOT
ATOM      1  C1  DEN d   1       3.585  -2.807  -4.296  0.00  0.00     0.130 A 
ATOM      2  C2  DEN d   1       4.785  -2.864  -3.466  0.00  0.00    -0.031 A 
ATOM      3  C3  DEN d   1       4.368  -3.167  -2.082  0.00  0.00     0.027 A 
ATOM      4  C4  DEN d   1       1.995  -3.556  -1.150  0.00  0.00     0.027 A 
ATOM      5  C5  DEN d   1       0.656  -3.597  -1.471  0.00  0.00    -0.003 A 
ATOM      6  C6  DEN d   1       0.200  -3.347  -2.739  0.00  0.00     0.001 A 
ATOM      7  C7  DEN d   1       1.096  -3.088  -3.743  0.00  0.00     0.017 A 
ATOM      8  C8  DEN d   1       2.447  -3.037  -3.425  0.00  0.00    -0.094 A 
ATOM      9  C9  DEN d   1       2.888  -3.305  -2.141  0.00  0.00    -0.072 A 
ENDROOT
TORSDOF 0
ENDMDL
