MODEL 1
REMARK minimizedAffinity 0.559049547
REMARK minimizedRMSD -1
REMARK  0 active torsions:
REMARK  status: ('A' for Active; 'I' for Inactive)
ROOT
ATOM      1  C1  DEN d   1       0.858   0.118   2.320  0.00  0.00     0.130 A 
ATOM      2  C2  DEN d   1      -0.129  -0.837   2.816  0.00  0.00    -0.031 A 
ATOM      3  C3  DEN d   1      -1.084  -1.116   1.724  0.00  0.00     0.027 A 
ATOM      4  C4  DEN d   1      -1.126  -0.169  -0.675  0.00  0.00     0.027 A 
ATOM      5  C5  DEN d   1      -0.499   0.684  -1.556  0.00  0.00    -0.003 A 
ATOM      6  C6  DEN d   1       0.595   1.428  -1.200  0.00  0.00     0.001 A 
ATOM      7  C7  DEN d   1       1.123   1.299   0.058  0.00  0.00     0.017 A 
ATOM      8  C8  DEN d   1       0.492   0.446   0.954  0.00  0.00    -0.094 A 
ATOM      9  C9  DEN d   1      -0.605  -0.307   0.571  0.00  0.00    -0.072 A 
ENDROOT
TORSDOF 0
ENDMDL
