MODEL 1
REMARK minimizedAffinity -4.19425917
REMARK minimizedRMSD -1
REMARK  0 active torsions:
REMARK  status: ('A' for Active; 'I' for Inactive)
ROOT
ATOM      1  C1  DEN d   1       0.268  -3.324  -1.551  0.00  0.00     0.130 A 
ATOM      2  C2  DEN d   1      -0.099  -3.302  -2.964  0.00  0.00    -0.031 A 
ATOM      3  C3  DEN d   1      -0.243  -1.891  -3.376  0.00  0.00     0.027 A 
ATOM      4  C4  DEN d   1       0.071   0.250  -1.972  0.00  0.00     0.027 A 
ATOM      5  C5  DEN d   1       0.372   0.736  -0.719  0.00  0.00    -0.003 A 
ATOM      6  C6  DEN d   1       0.625  -0.090   0.344  0.00  0.00     0.001 A 
ATOM      7  C7  DEN d   1       0.625  -1.448   0.163  0.00  0.00     0.017 A 
ATOM      8  C8  DEN d   1       0.314  -1.946  -1.095  0.00  0.00    -0.094 A 
ATOM      9  C9  DEN d   1       0.074  -1.094  -2.160  0.00  0.00    -0.072 A 
ENDROOT
TORSDOF 0
ENDMDL
