MODEL 1
REMARK minimizedAffinity -6.74963093
REMARK minimizedRMSD -1
REMARK  0 active torsions:
REMARK  status: ('A' for Active; 'I' for Inactive)
ROOT
ATOM      1  C1  DEN d   1      -2.048   2.426   0.345  0.00  0.00     0.130 A 
ATOM      2  C2  DEN d   1      -2.345   2.590   1.765  0.00  0.00    -0.031 A 
ATOM      3  C3  DEN d   1      -1.512   1.631   2.519  0.00  0.00     0.027 A 
ATOM      4  C4  DEN d   1       0.203  -0.078   1.630  0.00  0.00     0.027 A 
ATOM      5  C5  DEN d   1       0.789  -0.593   0.495  0.00  0.00    -0.003 A 
ATOM      6  C6  DEN d   1       0.449  -0.166  -0.761  0.00  0.00     0.001 A 
ATOM      7  C7  DEN d   1      -0.471   0.838  -0.910  0.00  0.00     0.017 A 
ATOM      8  C8  DEN d   1      -1.072   1.358   0.229  0.00  0.00    -0.094 A 
ATOM      9  C9  DEN d   1      -0.706   0.920   1.491  0.00  0.00    -0.072 A 
ENDROOT
TORSDOF 0
ENDMDL
