MODEL 1
REMARK minimizedAffinity -6.9048028
REMARK minimizedRMSD -1
REMARK  0 active torsions:
REMARK  status: ('A' for Active; 'I' for Inactive)
ROOT
ATOM      1  C1  DEN d   1       0.853   1.855  -1.358  0.00  0.00     0.130 A 
ATOM      2  C2  DEN d   1       1.525   0.559  -1.346  0.00  0.00    -0.031 A 
ATOM      3  C3  DEN d   1       0.834  -0.305  -0.368  0.00  0.00     0.027 A 
ATOM      4  C4  DEN d   1      -1.203   0.234   1.119  0.00  0.00     0.027 A 
ATOM      5  C5  DEN d   1      -2.111   1.210   1.468  0.00  0.00    -0.003 A 
ATOM      6  C6  DEN d   1      -2.074   2.469   0.930  0.00  0.00     0.001 A 
ATOM      7  C7  DEN d   1      -1.136   2.772  -0.022  0.00  0.00     0.017 A 
ATOM      8  C8  DEN d   1      -0.213   1.797  -0.374  0.00  0.00    -0.094 A 
ATOM      9  C9  DEN d   1      -0.275   0.526   0.173  0.00  0.00    -0.072 A 
ENDROOT
TORSDOF 0
ENDMDL
