MODEL 1
REMARK minimizedAffinity -5.840837
REMARK minimizedRMSD -1
REMARK  0 active torsions:
REMARK  status: ('A' for Active; 'I' for Inactive)
ROOT
ATOM      1  C1  DEN d   1       0.071   2.462  -1.525  0.00  0.00     0.130 A 
ATOM      2  C2  DEN d   1       1.188   1.668  -2.027  0.00  0.00    -0.031 A 
ATOM      3  C3  DEN d   1       1.360   0.505  -1.133  0.00  0.00     0.027 A 
ATOM      4  C4  DEN d   1       0.009  -0.141   0.967  0.00  0.00     0.027 A 
ATOM      5  C5  DEN d   1      -1.028   0.232   1.793  0.00  0.00    -0.003 A 
ATOM      6  C6  DEN d   1      -1.744   1.382   1.592  0.00  0.00     0.001 A 
ATOM      7  C7  DEN d   1      -1.461   2.178   0.513  0.00  0.00     0.017 A 
ATOM      8  C8  DEN d   1      -0.412   1.813  -0.319  0.00  0.00    -0.094 A 
ATOM      9  C9  DEN d   1       0.292   0.640  -0.107  0.00  0.00    -0.072 A 
ENDROOT
TORSDOF 0
ENDMDL
