MODEL 1
REMARK minimizedAffinity -4.26535749
REMARK minimizedRMSD -1
REMARK  0 active torsions:
REMARK  status: ('A' for Active; 'I' for Inactive)
ROOT
ATOM      1  C1  DEN d   1       0.704  -0.101  -0.922  0.00  0.00     0.130 A 
ATOM      2  C2  DEN d   1       0.490  -1.535  -0.752  0.00  0.00    -0.031 A 
ATOM      3  C3  DEN d   1      -0.362  -1.733   0.437  0.00  0.00     0.027 A 
ATOM      4  C4  DEN d   1      -1.370   0.035   2.022  0.00  0.00     0.027 A 
ATOM      5  C5  DEN d   1      -1.457   1.383   2.290  0.00  0.00    -0.003 A 
ATOM      6  C6  DEN d   1      -0.807   2.321   1.533  0.00  0.00     0.001 A 
ATOM      7  C7  DEN d   1      -0.078   1.927   0.442  0.00  0.00     0.017 A 
ATOM      8  C8  DEN d   1       0.020   0.569   0.170  0.00  0.00    -0.094 A 
ATOM      9  C9  DEN d   1      -0.654  -0.363   0.941  0.00  0.00    -0.072 A 
ENDROOT
TORSDOF 0
ENDMDL
