MODEL 1
REMARK minimizedAffinity -6.10921907
REMARK minimizedRMSD -1
REMARK  0 active torsions:
REMARK  status: ('A' for Active; 'I' for Inactive)
ROOT
ATOM      1  C1  DEN d   1       0.662   2.159  -1.261  0.00  0.00     0.130 A 
ATOM      2  C2  DEN d   1       0.518   3.590  -1.010  0.00  0.00    -0.031 A 
ATOM      3  C3  DEN d   1      -0.148   3.760   0.297  0.00  0.00     0.027 A 
ATOM      4  C4  DEN d   1      -0.960   1.955   1.951  0.00  0.00     0.027 A 
ATOM      5  C5  DEN d   1      -1.066   0.600   2.170  0.00  0.00    -0.003 A 
ATOM      6  C6  DEN d   1      -0.639  -0.324   1.253  0.00  0.00     0.001 A 
ATOM      7  C7  DEN d   1      -0.043   0.097   0.093  0.00  0.00     0.017 A 
ATOM      8  C8  DEN d   1       0.062   1.462  -0.138  0.00  0.00    -0.094 A 
ATOM      9  C9  DEN d   1      -0.366   2.380   0.807  0.00  0.00    -0.072 A 
ENDROOT
TORSDOF 0
ENDMDL
