MODEL 1
REMARK minimizedAffinity -3.89955282
REMARK minimizedRMSD -1
REMARK  0 active torsions:
REMARK  status: ('A' for Active; 'I' for Inactive)
ROOT
ATOM      1  C1  DEN d   1       0.013  -3.502  -1.235  0.00  0.00     0.130 A 
ATOM      2  C2  DEN d   1      -0.327  -3.374  -2.650  0.00  0.00    -0.031 A 
ATOM      3  C3  DEN d   1      -0.390  -1.935  -2.976  0.00  0.00     0.027 A 
ATOM      4  C4  DEN d   1       0.009   0.096  -1.438  0.00  0.00     0.027 A 
ATOM      5  C5  DEN d   1       0.312   0.489  -0.153  0.00  0.00    -0.003 A 
ATOM      6  C6  DEN d   1       0.501  -0.413   0.861  0.00  0.00     0.001 A 
ATOM      7  C7  DEN d   1       0.434  -1.755   0.596  0.00  0.00     0.017 A 
ATOM      8  C8  DEN d   1       0.122  -2.159  -0.695  0.00  0.00    -0.094 A 
ATOM      9  C9  DEN d   1      -0.054  -1.232  -1.709  0.00  0.00    -0.072 A 
ENDROOT
TORSDOF 0
ENDMDL
