MODEL 1
REMARK minimizedAffinity 1.91472757
REMARK minimizedRMSD -1
REMARK  0 active torsions:
REMARK  status: ('A' for Active; 'I' for Inactive)
ROOT
ATOM      1  C1  DEN d   1      -2.513   4.281  -3.410  0.00  0.00     0.130 A 
ATOM      2  C2  DEN d   1      -3.669   4.271  -4.302  0.00  0.00    -0.031 A 
ATOM      3  C3  DEN d   1      -4.425   3.027  -4.056  0.00  0.00     0.027 A 
ATOM      4  C4  DEN d   1      -3.923   1.126  -2.387  0.00  0.00     0.027 A 
ATOM      5  C5  DEN d   1      -3.045   0.681  -1.423  0.00  0.00    -0.003 A 
ATOM      6  C6  DEN d   1      -1.920   1.383  -1.081  0.00  0.00     0.001 A 
ATOM      7  C7  DEN d   1      -1.666   2.590  -1.676  0.00  0.00     0.017 A 
ATOM      8  C8  DEN d   1      -2.542   3.042  -2.654  0.00  0.00    -0.094 A 
ATOM      9  C9  DEN d   1      -3.681   2.324  -2.977  0.00  0.00    -0.072 A 
ENDROOT
TORSDOF 0
ENDMDL
