MODEL 1
REMARK minimizedAffinity -5.76272964
REMARK minimizedRMSD -1
REMARK  0 active torsions:
REMARK  status: ('A' for Active; 'I' for Inactive)
ROOT
ATOM      1  C   UNL d   1      -1.108   2.170   1.369  0.00  0.00     0.077 C 
ATOM      2  C1  UNL d   1      -0.955   1.504   0.034  0.00  0.00    -0.074 A 
ATOM      3  C2  UNL d   1      -0.936   2.254  -1.146  0.00  0.00    -0.005 A 
ATOM      4  C3  UNL d   1      -0.784   1.621  -2.380  0.00  0.00     0.006 A 
ATOM      5  C4  UNL d   1      -0.649   0.234  -2.445  0.00  0.00    -0.005 A 
ATOM      6  C5  UNL d   1      -0.666  -0.533  -1.276  0.00  0.00    -0.074 A 
ATOM      7  C6  UNL d   1      -0.513  -2.024  -1.328  0.00  0.00     0.077 C 
ATOM      8  C7  UNL d   1      -0.812   0.111  -0.040  0.00  0.00    -0.001 A 
ENDROOT
TORSDOF 0
ENDMDL
