MODEL 1
REMARK minimizedAffinity -5.56927156
REMARK minimizedRMSD -1
REMARK  0 active torsions:
REMARK  status: ('A' for Active; 'I' for Inactive)
ROOT
ATOM      1  C   UNL d   1      -1.362   3.237  -1.284  0.00  0.00     0.077 C 
ATOM      2  C1  UNL d   1      -0.721   2.192  -0.420  0.00  0.00    -0.074 A 
ATOM      3  C2  UNL d   1      -0.239   1.000  -0.971  0.00  0.00    -0.005 A 
ATOM      4  C3  UNL d   1       0.364   0.042  -0.156  0.00  0.00     0.006 A 
ATOM      5  C4  UNL d   1       0.490   0.265   1.216  0.00  0.00    -0.005 A 
ATOM      6  C5  UNL d   1       0.015   1.451   1.784  0.00  0.00    -0.074 A 
ATOM      7  C6  UNL d   1       0.152   1.711   3.255  0.00  0.00     0.077 C 
ATOM      8  C7  UNL d   1      -0.583   2.412   0.958  0.00  0.00    -0.001 A 
ENDROOT
TORSDOF 0
ENDMDL
