MODEL 1
REMARK minimizedAffinity -0.131570071
REMARK minimizedRMSD -1
REMARK  0 active torsions:
REMARK  status: ('A' for Active; 'I' for Inactive)
ROOT
ATOM      1  C   UNL d   1       0.102  -0.278   2.139  0.00  0.00     0.077 C 
ATOM      2  C1  UNL d   1       0.003  -0.499   0.659  0.00  0.00    -0.074 A 
ATOM      3  C2  UNL d   1       0.452   0.469  -0.245  0.00  0.00    -0.005 A 
ATOM      4  C3  UNL d   1       0.362   0.245  -1.618  0.00  0.00     0.006 A 
ATOM      5  C4  UNL d   1      -0.178  -0.948  -2.102  0.00  0.00    -0.005 A 
ATOM      6  C5  UNL d   1      -0.631  -1.928  -1.213  0.00  0.00    -0.074 A 
ATOM      7  C6  UNL d   1      -1.205  -3.220  -1.716  0.00  0.00     0.077 C 
ATOM      8  C7  UNL d   1      -0.531  -1.698   0.166  0.00  0.00    -0.001 A 
ENDROOT
TORSDOF 0
ENDMDL
