MODEL 1
REMARK minimizedAffinity -3.97510934
REMARK minimizedRMSD -1
REMARK  0 active torsions:
REMARK  status: ('A' for Active; 'I' for Inactive)
ROOT
ATOM      1  C   UNL d   1       1.307   2.397   2.756  0.00  0.00     0.077 C 
ATOM      2  C1  UNL d   1       0.406   1.590   1.869  0.00  0.00    -0.074 A 
ATOM      3  C2  UNL d   1      -0.912   1.990   1.630  0.00  0.00    -0.005 A 
ATOM      4  C3  UNL d   1      -1.736   1.234   0.795  0.00  0.00     0.006 A 
ATOM      5  C4  UNL d   1      -1.249   0.073   0.192  0.00  0.00    -0.005 A 
ATOM      6  C5  UNL d   1       0.067  -0.341   0.419  0.00  0.00    -0.074 A 
ATOM      7  C6  UNL d   1       0.608  -1.581  -0.229  0.00  0.00     0.077 C 
ATOM      8  C7  UNL d   1       0.890   0.427   1.253  0.00  0.00    -0.001 A 
ENDROOT
TORSDOF 0
ENDMDL
