MODEL 1
REMARK minimizedAffinity -4.54050016
REMARK minimizedRMSD -1
REMARK  0 active torsions:
REMARK  status: ('A' for Active; 'I' for Inactive)
ROOT
ATOM      1  C   UNL d   1      -1.141   3.370   1.801  0.00  0.00     0.077 C 
ATOM      2  C1  UNL d   1      -0.792   2.652   0.531  0.00  0.00    -0.074 A 
ATOM      3  C2  UNL d   1      -0.825   3.313  -0.701  0.00  0.00    -0.005 A 
ATOM      4  C3  UNL d   1      -0.488   2.634  -1.872  0.00  0.00     0.006 A 
ATOM      5  C4  UNL d   1      -0.116   1.290  -1.824  0.00  0.00    -0.005 A 
ATOM      6  C5  UNL d   1      -0.076   0.613  -0.601  0.00  0.00    -0.074 A 
ATOM      7  C6  UNL d   1       0.332  -0.828  -0.529  0.00  0.00     0.077 C 
ATOM      8  C7  UNL d   1      -0.409   1.304   0.573  0.00  0.00    -0.001 A 
ENDROOT
TORSDOF 0
ENDMDL
