MODEL 1
REMARK minimizedAffinity -3.85465002
REMARK minimizedRMSD -1
REMARK  0 active torsions:
REMARK  status: ('A' for Active; 'I' for Inactive)
ROOT
ATOM      1  C   UNL d   1      -0.729   3.771   0.788  0.00  0.00     0.077 C 
ATOM      2  C1  UNL d   1      -0.284   2.360   1.037  0.00  0.00    -0.074 A 
ATOM      3  C2  UNL d   1      -0.021   1.907   2.334  0.00  0.00    -0.005 A 
ATOM      4  C3  UNL d   1       0.382   0.590   2.551  0.00  0.00     0.006 A 
ATOM      5  C4  UNL d   1       0.527  -0.287   1.475  0.00  0.00    -0.005 A 
ATOM      6  C5  UNL d   1       0.267   0.147   0.171  0.00  0.00    -0.074 A 
ATOM      7  C6  UNL d   1       0.408  -0.785  -0.995  0.00  0.00     0.077 C 
ATOM      8  C7  UNL d   1      -0.145   1.471  -0.038  0.00  0.00    -0.001 A 
ENDROOT
TORSDOF 0
ENDMDL
