MODEL 1
REMARK minimizedAffinity -5.05832911
REMARK minimizedRMSD -1
REMARK  0 active torsions:
REMARK  status: ('A' for Active; 'I' for Inactive)
ROOT
ATOM      1  C   UNL d   1      -0.620   1.826   2.646  0.00  0.00     0.077 C 
ATOM      2  C1  UNL d   1      -0.185   1.257   1.328  0.00  0.00    -0.074 A 
ATOM      3  C2  UNL d   1       0.413  -0.004   1.252  0.00  0.00    -0.005 A 
ATOM      4  C3  UNL d   1       0.804  -0.524   0.018  0.00  0.00     0.006 A 
ATOM      5  C4  UNL d   1       0.600   0.211  -1.150  0.00  0.00    -0.005 A 
ATOM      6  C5  UNL d   1       0.002   1.474  -1.094  0.00  0.00    -0.074 A 
ATOM      7  C6  UNL d   1      -0.233   2.274  -2.341  0.00  0.00     0.077 C 
ATOM      8  C7  UNL d   1      -0.394   1.987   0.149  0.00  0.00    -0.001 A 
ENDROOT
TORSDOF 0
ENDMDL
