MODEL 1
REMARK minimizedAffinity -3.8615787
REMARK minimizedRMSD -1
REMARK  0 active torsions:
REMARK  status: ('A' for Active; 'I' for Inactive)
ROOT
ATOM      1  C   UNL d   1      -0.168   1.539  -0.865  0.00  0.00     0.077 C 
ATOM      2  C1  UNL d   1       0.259   1.500   0.572  0.00  0.00    -0.074 A 
ATOM      3  C2  UNL d   1       0.024   2.586   1.422  0.00  0.00    -0.005 A 
ATOM      4  C3  UNL d   1       0.419   2.531   2.758  0.00  0.00     0.006 A 
ATOM      5  C4  UNL d   1       1.052   1.392   3.258  0.00  0.00    -0.005 A 
ATOM      6  C5  UNL d   1       1.295   0.296   2.423  0.00  0.00    -0.074 A 
ATOM      7  C6  UNL d   1       1.965  -0.939   2.947  0.00  0.00     0.077 C 
ATOM      8  C7  UNL d   1       0.889   0.356   1.083  0.00  0.00    -0.001 A 
ENDROOT
TORSDOF 0
ENDMDL
