MODEL 1
REMARK minimizedAffinity -2.57624006
REMARK minimizedRMSD -1
REMARK  0 active torsions:
REMARK  status: ('A' for Active; 'I' for Inactive)
ROOT
ATOM      1  O1  BZF d   1       0.486   0.165  -1.680  0.00  0.00    -0.204 OA
ATOM      2  C2  BZF d   1       0.759  -1.188  -1.621  0.00  0.00     0.174 A 
ATOM      3  C3  BZF d   1       0.703  -1.632  -0.349  0.00  0.00    -0.012 A 
ATOM      4  C3A BZF d   1       0.283  -0.504   0.425  0.00  0.00    -0.107 A 
ATOM      5  C4  BZF d   1       0.030  -0.320   1.754  0.00  0.00     0.055 A 
ATOM      6  C5  BZF d   1      -0.292   0.923   2.199  0.00  0.00    -0.016 A 
ATOM      7  C6  BZF d   1      -0.364   2.004   1.345  0.00  0.00     0.022 A 
ATOM      8  C7  BZF d   1      -0.126   1.869   0.017  0.00  0.00     0.029 A 
ATOM      9  C7A BZF d   1       0.167   0.608  -0.441  0.00  0.00     0.058 A 
ENDROOT
TORSDOF 0
ENDMDL
