MODEL 1
REMARK minimizedAffinity -6.2145896
REMARK minimizedRMSD -1
REMARK  0 active torsions:
REMARK  status: ('A' for Active; 'I' for Inactive)
ROOT
ATOM      1  O1  BZF d   1       0.098   0.118  -0.974  0.00  0.00    -0.204 OA
ATOM      2  C2  BZF d   1       0.825  -0.694  -0.125  0.00  0.00     0.174 A 
ATOM      3  C3  BZF d   1       0.983  -0.108   1.080  0.00  0.00    -0.012 A 
ATOM      4  C3A BZF d   1       0.234   1.109   1.007  0.00  0.00    -0.107 A 
ATOM      5  C4  BZF d   1      -0.008   2.117   1.895  0.00  0.00     0.055 A 
ATOM      6  C5  BZF d   1      -0.720   3.201   1.488  0.00  0.00    -0.016 A 
ATOM      7  C6  BZF d   1      -1.199   3.311   0.199  0.00  0.00     0.022 A 
ATOM      8  C7  BZF d   1      -0.989   2.334  -0.717  0.00  0.00     0.029 A 
ATOM      9  C7A BZF d   1      -0.299   1.223  -0.298  0.00  0.00     0.058 A 
ENDROOT
TORSDOF 0
ENDMDL
