MODEL 1
REMARK minimizedAffinity 0.826600969
REMARK minimizedRMSD -1
REMARK  0 active torsions:
REMARK  status: ('A' for Active; 'I' for Inactive)
ROOT
ATOM      1  O1  BZF d   1       0.505   0.404   1.872  0.00  0.00    -0.204 OA
ATOM      2  C2  BZF d   1       0.257   1.712   2.244  0.00  0.00     0.174 A 
ATOM      3  C3  BZF d   1      -0.049   2.466   1.169  0.00  0.00    -0.012 A 
ATOM      4  C3A BZF d   1      -0.080   1.554   0.066  0.00  0.00    -0.107 A 
ATOM      5  C4  BZF d   1      -0.343   1.700  -1.266  0.00  0.00     0.055 A 
ATOM      6  C5  BZF d   1      -0.217   0.624  -2.086  0.00  0.00    -0.016 A 
ATOM      7  C6  BZF d   1       0.174  -0.610  -1.609  0.00  0.00     0.022 A 
ATOM      8  C7  BZF d   1       0.440  -0.806  -0.295  0.00  0.00     0.029 A 
ATOM      9  C7A BZF d   1       0.282   0.272   0.542  0.00  0.00     0.058 A 
ENDROOT
TORSDOF 0
ENDMDL
