MODEL 1
REMARK minimizedAffinity -4.63224411
REMARK minimizedRMSD -1
REMARK  0 active torsions:
REMARK  status: ('A' for Active; 'I' for Inactive)
ROOT
ATOM      1  O1  BZF d   1      -0.006   0.967  -2.167  0.00  0.00    -0.204 OA
ATOM      2  C2  BZF d   1       0.099  -0.308  -1.645  0.00  0.00     0.174 A 
ATOM      3  C3  BZF d   1       0.210  -0.268  -0.302  0.00  0.00    -0.012 A 
ATOM      4  C3A BZF d   1       0.080   1.114   0.045  0.00  0.00    -0.107 A 
ATOM      5  C4  BZF d   1       0.090   1.789   1.232  0.00  0.00     0.055 A 
ATOM      6  C5  BZF d   1       0.013   3.146   1.222  0.00  0.00    -0.016 A 
ATOM      7  C6  BZF d   1      -0.070   3.859   0.044  0.00  0.00     0.022 A 
ATOM      8  C7  BZF d   1      -0.088   3.233  -1.158  0.00  0.00     0.029 A 
ATOM      9  C7A BZF d   1      -0.043   1.861  -1.149  0.00  0.00     0.058 A 
ENDROOT
TORSDOF 0
ENDMDL
