MODEL 1
REMARK minimizedAffinity -3.08945513
REMARK minimizedRMSD -1
REMARK  0 active torsions:
REMARK  status: ('A' for Active; 'I' for Inactive)
ROOT
ATOM      1  O1  BZF d   1      -0.376   2.259  -1.645  0.00  0.00    -0.204 OA
ATOM      2  C2  BZF d   1      -0.381   3.605  -1.334  0.00  0.00     0.174 A 
ATOM      3  C3  BZF d   1      -0.276   3.789  -0.002  0.00  0.00    -0.012 A 
ATOM      4  C3A BZF d   1      -0.107   2.478   0.546  0.00  0.00    -0.107 A 
ATOM      5  C4  BZF d   1       0.066   2.007   1.816  0.00  0.00     0.055 A 
ATOM      6  C5  BZF d   1       0.126   0.665   2.021  0.00  0.00    -0.016 A 
ATOM      7  C6  BZF d   1       0.011  -0.234   0.980  0.00  0.00     0.022 A 
ATOM      8  C7  BZF d   1      -0.157   0.186  -0.297  0.00  0.00     0.029 A 
ATOM      9  C7A BZF d   1      -0.185   1.542  -0.511  0.00  0.00     0.058 A 
ENDROOT
TORSDOF 0
ENDMDL
