MODEL 1
REMARK minimizedAffinity -5.0743289
REMARK minimizedRMSD -1
REMARK  0 active torsions:
REMARK  status: ('A' for Active; 'I' for Inactive)
ROOT
ATOM      1  O1  BZF d   1      -0.820   2.068   2.210  0.00  0.00    -0.204 OA
ATOM      2  C2  BZF d   1      -1.593   2.951   1.481  0.00  0.00     0.174 A 
ATOM      3  C3  BZF d   1      -1.441   2.741   0.158  0.00  0.00    -0.012 A 
ATOM      4  C3A BZF d   1      -0.586   1.598   0.054  0.00  0.00    -0.107 A 
ATOM      5  C4  BZF d   1      -0.082   0.895  -1.003  0.00  0.00     0.055 A 
ATOM      6  C5  BZF d   1       0.783  -0.125  -0.765  0.00  0.00    -0.016 A 
ATOM      7  C6  BZF d   1       1.169  -0.467   0.515  0.00  0.00     0.022 A 
ATOM      8  C7  BZF d   1       0.692   0.199   1.595  0.00  0.00     0.029 A 
ATOM      9  C7A BZF d   1      -0.207   1.209   1.360  0.00  0.00     0.058 A 
ENDROOT
TORSDOF 0
ENDMDL
