MODEL 1
REMARK minimizedAffinity -5.11149549
REMARK minimizedRMSD -1
REMARK  0 active torsions:
REMARK  status: ('A' for Active; 'I' for Inactive)
ROOT
ATOM      1  O1  BZF d   1       0.520   0.938  -1.089  0.00  0.00    -0.204 OA
ATOM      2  C2  BZF d   1       0.753  -0.408  -0.880  0.00  0.00     0.174 A 
ATOM      3  C3  BZF d   1       0.372  -0.772   0.362  0.00  0.00    -0.012 A 
ATOM      4  C3A BZF d   1      -0.216   0.400   0.934  0.00  0.00    -0.107 A 
ATOM      5  C4  BZF d   1      -0.794   0.666   2.142  0.00  0.00     0.055 A 
ATOM      6  C5  BZF d   1      -1.203   1.933   2.414  0.00  0.00    -0.016 A 
ATOM      7  C6  BZF d   1      -1.044   2.958   1.504  0.00  0.00     0.022 A 
ATOM      8  C7  BZF d   1      -0.481   2.742   0.291  0.00  0.00     0.029 A 
ATOM      9  C7A BZF d   1      -0.097   1.455   0.001  0.00  0.00     0.058 A 
ENDROOT
TORSDOF 0
ENDMDL
