MODEL 1
REMARK minimizedAffinity 2.32661915
REMARK minimizedRMSD -1
REMARK  0 active torsions:
REMARK  status: ('A' for Active; 'I' for Inactive)
ROOT
ATOM      1  O1  BZF d   1      -2.406  -2.932  -2.894  0.00  0.00    -0.204 OA
ATOM      2  C2  BZF d   1      -2.145  -3.526  -4.114  0.00  0.00     0.174 A 
ATOM      3  C3  BZF d   1      -1.074  -4.340  -4.030  0.00  0.00    -0.012 A 
ATOM      4  C3A BZF d   1      -0.693  -4.321  -2.651  0.00  0.00    -0.107 A 
ATOM      5  C4  BZF d   1       0.292  -4.945  -1.940  0.00  0.00     0.055 A 
ATOM      6  C5  BZF d   1       0.439  -4.655  -0.621  0.00  0.00    -0.016 A 
ATOM      7  C6  BZF d   1      -0.377  -3.745   0.018  0.00  0.00     0.022 A 
ATOM      8  C7  BZF d   1      -1.372  -3.105  -0.644  0.00  0.00     0.029 A 
ATOM      9  C7A BZF d   1      -1.544  -3.420  -1.970  0.00  0.00     0.058 A 
ENDROOT
TORSDOF 0
ENDMDL
