MODEL 1
REMARK minimizedAffinity -0.833883703
REMARK minimizedRMSD -1
REMARK  0 active torsions:
REMARK  status: ('A' for Active; 'I' for Inactive)
ROOT
ATOM      1  C   UNL d   1      -1.344   1.358   0.999  0.00  0.00     0.077 C 
ATOM      2  C1  UNL d   1      -0.650   0.039   0.830  0.00  0.00    -0.074 A 
ATOM      3  C2  UNL d   1      -1.365  -1.162   0.881  0.00  0.00    -0.005 A 
ATOM      4  C3  UNL d   1      -0.707  -2.380   0.712  0.00  0.00     0.006 A 
ATOM      5  C4  UNL d   1       0.671  -2.410   0.492  0.00  0.00    -0.005 A 
ATOM      6  C5  UNL d   1       1.403  -1.219   0.437  0.00  0.00    -0.074 A 
ATOM      7  C6  UNL d   1       2.882  -1.233   0.191  0.00  0.00     0.077 C 
ATOM      8  C7  UNL d   1       0.733   0.001   0.600  0.00  0.00    -0.001 A 
ENDROOT
TORSDOF 0
ENDMDL
