MODEL 1
REMARK minimizedAffinity 0.05238159
REMARK minimizedRMSD -1
REMARK  0 active torsions:
REMARK  status: ('A' for Active; 'I' for Inactive)
ROOT
ATOM      1  C   UNL d   1       1.318  -0.855   0.751  0.00  0.00     0.077 C 
ATOM      2  C1  UNL d   1      -0.018  -1.153   0.137  0.00  0.00    -0.074 A 
ATOM      3  C2  UNL d   1      -0.901  -2.055   0.740  0.00  0.00    -0.005 A 
ATOM      4  C3  UNL d   1      -2.144  -2.315   0.163  0.00  0.00     0.006 A 
ATOM      5  C4  UNL d   1      -2.516  -1.676  -1.021  0.00  0.00    -0.005 A 
ATOM      6  C5  UNL d   1      -1.647  -0.770  -1.637  0.00  0.00    -0.074 A 
ATOM      7  C6  UNL d   1      -2.035  -0.067  -2.904  0.00  0.00     0.077 C 
ATOM      8  C7  UNL d   1      -0.402  -0.509  -1.047  0.00  0.00    -0.001 A 
ENDROOT
TORSDOF 0
ENDMDL
