MODEL 1
REMARK minimizedAffinity -1.42533302
REMARK minimizedRMSD -1
REMARK  0 active torsions:
REMARK  status: ('A' for Active; 'I' for Inactive)
ROOT
ATOM      1  C   UNL d   1      -1.291  -2.310   1.069  0.00  0.00     0.077 C 
ATOM      2  C1  UNL d   1      -0.351  -1.239   0.601  0.00  0.00    -0.074 A 
ATOM      3  C2  UNL d   1      -0.835  -0.035   0.079  0.00  0.00    -0.005 A 
ATOM      4  C3  UNL d   1       0.051   0.956  -0.343  0.00  0.00     0.006 A 
ATOM      5  C4  UNL d   1       1.429   0.754  -0.248  0.00  0.00    -0.005 A 
ATOM      6  C5  UNL d   1       1.931  -0.443   0.273  0.00  0.00    -0.074 A 
ATOM      7  C6  UNL d   1       3.409  -0.673   0.391  0.00  0.00     0.077 C 
ATOM      8  C7  UNL d   1       1.034  -1.431   0.701  0.00  0.00    -0.001 A 
ENDROOT
TORSDOF 0
ENDMDL
