MODEL 1
REMARK minimizedAffinity -0.722705364
REMARK minimizedRMSD -1
REMARK  0 active torsions:
REMARK  status: ('A' for Active; 'I' for Inactive)
ROOT
ATOM      1  C   UNL d   1       3.719  -0.569   1.072  0.00  0.00     0.077 C 
ATOM      2  C1  UNL d   1       2.238  -0.374   0.934  0.00  0.00    -0.074 A 
ATOM      3  C2  UNL d   1       1.707   0.871   0.582  0.00  0.00    -0.005 A 
ATOM      4  C3  UNL d   1       0.329   1.036   0.448  0.00  0.00     0.006 A 
ATOM      5  C4  UNL d   1      -0.531  -0.041   0.664  0.00  0.00    -0.005 A 
ATOM      6  C5  UNL d   1      -0.019  -1.294   1.016  0.00  0.00    -0.074 A 
ATOM      7  C6  UNL d   1      -0.929  -2.465   1.242  0.00  0.00     0.077 C 
ATOM      8  C7  UNL d   1       1.368  -1.453   1.142  0.00  0.00    -0.001 A 
ENDROOT
TORSDOF 0
ENDMDL
