MODEL 1
REMARK minimizedAffinity -3.97342944
REMARK minimizedRMSD -1
REMARK  0 active torsions:
REMARK  status: ('A' for Active; 'I' for Inactive)
ROOT
ATOM      1  C   UNL d   1       3.417  -1.881   0.738  0.00  0.00     0.077 C 
ATOM      2  C1  UNL d   1       2.429  -0.754   0.697  0.00  0.00    -0.074 A 
ATOM      3  C2  UNL d   1       2.712   0.473   1.307  0.00  0.00    -0.005 A 
ATOM      4  C3  UNL d   1       1.787   1.516   1.252  0.00  0.00     0.006 A 
ATOM      5  C4  UNL d   1       0.572   1.343   0.588  0.00  0.00    -0.005 A 
ATOM      6  C5  UNL d   1       0.272   0.124  -0.028  0.00  0.00    -0.074 A 
ATOM      7  C6  UNL d   1      -1.025  -0.075  -0.754  0.00  0.00     0.077 C 
ATOM      8  C7  UNL d   1       1.209  -0.916   0.025  0.00  0.00    -0.001 A 
ENDROOT
TORSDOF 0
ENDMDL
