MODEL 1
REMARK minimizedAffinity -0.112301737
REMARK minimizedRMSD -1
REMARK  0 active torsions:
REMARK  status: ('A' for Active; 'I' for Inactive)
ROOT
ATOM      1  C   UNL d   1       2.848  -0.834   0.330  0.00  0.00     0.077 C 
ATOM      2  C1  UNL d   1       1.357  -0.696   0.422  0.00  0.00    -0.074 A 
ATOM      3  C2  UNL d   1       0.554  -1.788   0.764  0.00  0.00    -0.005 A 
ATOM      4  C3  UNL d   1      -0.830  -1.642   0.855  0.00  0.00     0.006 A 
ATOM      5  C4  UNL d   1      -1.424  -0.404   0.605  0.00  0.00    -0.005 A 
ATOM      6  C5  UNL d   1      -0.636   0.700   0.262  0.00  0.00    -0.074 A 
ATOM      7  C6  UNL d   1      -1.258   2.039  -0.000  0.00  0.00     0.077 C 
ATOM      8  C7  UNL d   1       0.754   0.546   0.180  0.00  0.00    -0.001 A 
ENDROOT
TORSDOF 0
ENDMDL
