MODEL 1
REMARK minimizedAffinity -1.46951425
REMARK minimizedRMSD -1
REMARK  0 active torsions:
REMARK  status: ('A' for Active; 'I' for Inactive)
ROOT
ATOM      1  C   UNL d   1       2.786   2.005   2.331  0.00  0.00     0.077 C 
ATOM      2  C1  UNL d   1       2.260   0.838   1.550  0.00  0.00    -0.074 A 
ATOM      3  C2  UNL d   1       2.963  -0.371   1.503  0.00  0.00    -0.005 A 
ATOM      4  C3  UNL d   1       2.457  -1.451   0.780  0.00  0.00     0.006 A 
ATOM      5  C4  UNL d   1       1.245  -1.334   0.098  0.00  0.00    -0.005 A 
ATOM      6  C5  UNL d   1       0.528  -0.134   0.135  0.00  0.00    -0.074 A 
ATOM      7  C6  UNL d   1      -0.781   0.005  -0.584  0.00  0.00     0.077 C 
ATOM      8  C7  UNL d   1       1.039   0.945   0.869  0.00  0.00    -0.001 A 
ENDROOT
TORSDOF 0
ENDMDL
