MODEL 1
REMARK minimizedAffinity -3.35573626
REMARK minimizedRMSD -1
REMARK  0 active torsions:
REMARK  status: ('A' for Active; 'I' for Inactive)
ROOT
ATOM      1  C   UNL d   1       3.357  -0.999   0.584  0.00  0.00     0.077 C 
ATOM      2  C1  UNL d   1       1.858  -1.025   0.630  0.00  0.00    -0.074 A 
ATOM      3  C2  UNL d   1       1.170  -2.186   0.993  0.00  0.00    -0.005 A 
ATOM      4  C3  UNL d   1      -0.224  -2.192   1.041  0.00  0.00     0.006 A 
ATOM      5  C4  UNL d   1      -0.943  -1.038   0.726  0.00  0.00    -0.005 A 
ATOM      6  C5  UNL d   1      -0.271   0.133   0.361  0.00  0.00    -0.074 A 
ATOM      7  C6  UNL d   1      -1.028   1.385   0.029  0.00  0.00     0.077 C 
ATOM      8  C7  UNL d   1       1.130   0.133   0.322  0.00  0.00    -0.001 A 
ENDROOT
TORSDOF 0
ENDMDL
