MODEL 1
REMARK minimizedAffinity 5.73147583
REMARK minimizedRMSD -1
REMARK  1 active torsions:
REMARK  status: ('A' for Active; 'I' for Inactive)
REMARK    1  A    between atoms: C1_2  and  C2_3 
ROOT
ATOM      1  C2  UNL d   1       0.653   4.503  -3.640  0.00  0.00    -0.076 A 
ATOM      2  C3  UNL d   1      -0.668   4.977  -3.726  0.00  0.00     0.004 A 
ATOM      3  C4  UNL d   1      -1.127   5.619  -4.875  0.00  0.00    -0.003 A 
ATOM      4  C5  UNL d   1      -0.273   5.796  -5.958  0.00  0.00     0.000 A 
ATOM      5  C6  UNL d   1       1.035   5.316  -5.897  0.00  0.00     0.000 A 
ATOM      6  C7  UNL d   1       1.509   4.652  -4.752  0.00  0.00    -0.073 A 
ATOM      7  C8  UNL d   1       2.930   4.161  -4.739  0.00  0.00     0.078 C 
ENDROOT
BRANCH   1   8
ATOM      8  C1  UNL d   1       1.102   3.839  -2.358  0.00  0.00     0.053 C 
ATOM      9  C   UNL d   1       1.153   2.324  -2.473  0.00  0.00     0.018 C 
ENDBRANCH   1   8
TORSDOF 1
ENDMDL
