MODEL 1
REMARK minimizedAffinity 13.0864563
REMARK minimizedRMSD -1
REMARK  1 active torsions:
REMARK  status: ('A' for Active; 'I' for Inactive)
REMARK    1  A    between atoms: C1_2  and  C2_3 
ROOT
ATOM      1  C2  UNL d   1      -0.220   4.500  -4.016  0.00  0.00    -0.076 A 
ATOM      2  C3  UNL d   1      -0.082   3.725  -2.852  0.00  0.00     0.004 A 
ATOM      3  C4  UNL d   1       1.169   3.272  -2.435  0.00  0.00    -0.003 A 
ATOM      4  C5  UNL d   1       2.303   3.589  -3.176  0.00  0.00     0.000 A 
ATOM      5  C6  UNL d   1       2.187   4.373  -4.323  0.00  0.00     0.000 A 
ATOM      6  C7  UNL d   1       0.935   4.850  -4.748  0.00  0.00    -0.073 A 
ATOM      7  C8  UNL d   1       0.867   5.686  -5.997  0.00  0.00     0.078 C 
ENDROOT
BRANCH   1   8
ATOM      8  C1  UNL d   1      -1.605   4.940  -4.434  0.00  0.00     0.053 C 
ATOM      9  C   UNL d   1      -1.764   5.008  -5.945  0.00  0.00     0.018 C 
ENDBRANCH   1   8
TORSDOF 1
ENDMDL
