MODEL 1
REMARK minimizedAffinity 1.88118339
REMARK minimizedRMSD -1
REMARK  1 active torsions:
REMARK  status: ('A' for Active; 'I' for Inactive)
REMARK    1  A    between atoms: C1_2  and  C2_3 
ROOT
ATOM      1  C2  UNL d   1      -2.360  -5.115  -3.635  0.00  0.00    -0.076 A 
ATOM      2  C3  UNL d   1      -3.603  -4.888  -3.018  0.00  0.00     0.004 A 
ATOM      3  C4  UNL d   1      -4.795  -5.203  -3.668  0.00  0.00    -0.003 A 
ATOM      4  C5  UNL d   1      -4.764  -5.751  -4.946  0.00  0.00     0.000 A 
ATOM      5  C6  UNL d   1      -3.539  -6.000  -5.566  0.00  0.00     0.000 A 
ATOM      6  C7  UNL d   1      -2.328  -5.703  -4.917  0.00  0.00    -0.073 A 
ATOM      7  C8  UNL d   1      -1.037  -5.986  -5.635  0.00  0.00     0.078 C 
ENDROOT
BRANCH   1   8
ATOM      8  C1  UNL d   1      -1.102  -4.728  -2.892  0.00  0.00     0.053 C 
ATOM      9  C   UNL d   1      -1.319  -4.627  -1.390  0.00  0.00     0.018 C 
ENDBRANCH   1   8
TORSDOF 1
ENDMDL
