MODEL 1
REMARK minimizedAffinity 9.05286884
REMARK minimizedRMSD -1
REMARK  1 active torsions:
REMARK  status: ('A' for Active; 'I' for Inactive)
REMARK    1  A    between atoms: C1_2  and  C2_3 
ROOT
ATOM      1  C2  UNL d   1       0.804   3.239  -3.317  0.00  0.00    -0.076 A 
ATOM      2  C3  UNL d   1      -0.485   3.513  -3.807  0.00  0.00     0.004 A 
ATOM      3  C4  UNL d   1      -0.704   4.554  -4.707  0.00  0.00    -0.003 A 
ATOM      4  C5  UNL d   1       0.363   5.338  -5.133  0.00  0.00     0.000 A 
ATOM      5  C6  UNL d   1       1.651   5.069  -4.671  0.00  0.00     0.000 A 
ATOM      6  C7  UNL d   1       1.891   4.013  -3.776  0.00  0.00    -0.073 A 
ATOM      7  C8  UNL d   1       3.299   3.772  -3.305  0.00  0.00     0.078 C 
ENDROOT
BRANCH   1   8
ATOM      8  C1  UNL d   1       0.976   2.114  -2.322  0.00  0.00     0.053 C 
ATOM      9  C   UNL d   1       1.360   2.614  -0.938  0.00  0.00     0.018 C 
ENDBRANCH   1   8
TORSDOF 1
ENDMDL
