MODEL 1
REMARK minimizedAffinity 6.64228201
REMARK minimizedRMSD -1
REMARK  1 active torsions:
REMARK  status: ('A' for Active; 'I' for Inactive)
REMARK    1  A    between atoms: C1_2  and  C2_3 
ROOT
ATOM      1  C2  UNL d   1       1.590   3.082  -2.086  0.00  0.00    -0.076 A 
ATOM      2  C3  UNL d   1       1.331   1.760  -2.490  0.00  0.00     0.004 A 
ATOM      3  C4  UNL d   1       1.214   0.734  -1.554  0.00  0.00    -0.003 A 
ATOM      4  C5  UNL d   1       1.352   1.013  -0.199  0.00  0.00     0.000 A 
ATOM      5  C6  UNL d   1       1.591   2.321   0.221  0.00  0.00     0.000 A 
ATOM      6  C7  UNL d   1       1.696   3.370  -0.709  0.00  0.00    -0.073 A 
ATOM      7  C8  UNL d   1       1.960   4.761  -0.201  0.00  0.00     0.078 C 
ENDROOT
BRANCH   1   8
ATOM      8  C1  UNL d   1       1.734   4.149  -3.148  0.00  0.00     0.053 C 
ATOM      9  C   UNL d   1       0.561   4.170  -4.116  0.00  0.00     0.018 C 
ENDBRANCH   1   8
TORSDOF 1
ENDMDL
