MODEL 1
REMARK minimizedAffinity 4.80699301
REMARK minimizedRMSD -1
REMARK  1 active torsions:
REMARK  status: ('A' for Active; 'I' for Inactive)
REMARK    1  A    between atoms: C1_2  and  C2_3 
ROOT
ATOM      1  C2  UNL d   1      -2.581  -5.683  -4.697  0.00  0.00    -0.076 A 
ATOM      2  C3  UNL d   1      -3.234  -5.848  -5.931  0.00  0.00     0.004 A 
ATOM      3  C4  UNL d   1      -4.618  -5.999  -5.997  0.00  0.00    -0.003 A 
ATOM      4  C5  UNL d   1      -5.372  -5.985  -4.829  0.00  0.00     0.000 A 
ATOM      5  C6  UNL d   1      -4.744  -5.805  -3.597  0.00  0.00     0.000 A 
ATOM      6  C7  UNL d   1      -3.351  -5.636  -3.515  0.00  0.00    -0.073 A 
ATOM      7  C8  UNL d   1      -2.725  -5.451  -2.160  0.00  0.00     0.078 C 
ENDROOT
BRANCH   1   8
ATOM      8  C1  UNL d   1      -1.075  -5.553  -4.686  0.00  0.00     0.053 C 
ATOM      9  C   UNL d   1      -0.441  -6.000  -5.994  0.00  0.00     0.018 C 
ENDBRANCH   1   8
TORSDOF 1
ENDMDL
