MODEL 1
REMARK minimizedAffinity 8.55012608
REMARK minimizedRMSD -1
REMARK  1 active torsions:
REMARK  status: ('A' for Active; 'I' for Inactive)
REMARK    1  A    between atoms: C1_2  and  C2_3 
ROOT
ATOM      1  C2  UNL d   1       0.685   4.309  -3.718  0.00  0.00    -0.076 A 
ATOM      2  C3  UNL d   1      -0.664   4.683  -3.848  0.00  0.00     0.004 A 
ATOM      3  C4  UNL d   1      -1.111   5.375  -4.973  0.00  0.00    -0.003 A 
ATOM      4  C5  UNL d   1      -0.217   5.704  -5.985  0.00  0.00     0.000 A 
ATOM      5  C6  UNL d   1       1.121   5.326  -5.880  0.00  0.00     0.000 A 
ATOM      6  C7  UNL d   1       1.585   4.614  -4.761  0.00  0.00    -0.073 A 
ATOM      7  C8  UNL d   1       3.040   4.237  -4.697  0.00  0.00     0.078 C 
ENDROOT
BRANCH   1   8
ATOM      8  C1  UNL d   1       1.117   3.584  -2.464  0.00  0.00     0.053 C 
ATOM      9  C   UNL d   1       1.176   2.076  -2.653  0.00  0.00     0.018 C 
ENDBRANCH   1   8
TORSDOF 1
ENDMDL
