MODEL 1
REMARK minimizedAffinity 7.82392168
REMARK minimizedRMSD -1
REMARK  1 active torsions:
REMARK  status: ('A' for Active; 'I' for Inactive)
REMARK    1  A    between atoms: C1_2  and  C2_3 
ROOT
ATOM      1  C2  UNL d   1      -5.993   1.985  -3.589  0.00  0.00    -0.076 A 
ATOM      2  C3  UNL d   1      -6.000   2.491  -4.900  0.00  0.00     0.004 A 
ATOM      3  C4  UNL d   1      -5.975   1.635  -6.000  0.00  0.00    -0.003 A 
ATOM      4  C5  UNL d   1      -5.944   0.258  -5.806  0.00  0.00     0.000 A 
ATOM      5  C6  UNL d   1      -5.955  -0.262  -4.512  0.00  0.00     0.000 A 
ATOM      6  C7  UNL d   1      -5.996   0.587  -3.393  0.00  0.00    -0.073 A 
ATOM      7  C8  UNL d   1      -6.000  -0.028  -2.020  0.00  0.00     0.078 C 
ENDROOT
BRANCH   1   8
ATOM      8  C1  UNL d   1      -5.993   2.962  -2.435  0.00  0.00     0.053 C 
ATOM      9  C   UNL d   1      -5.020   4.112  -2.646  0.00  0.00     0.018 C 
ENDBRANCH   1   8
TORSDOF 1
ENDMDL
