MODEL 1
REMARK minimizedAffinity 4.39860249
REMARK minimizedRMSD -1
REMARK  1 active torsions:
REMARK  status: ('A' for Active; 'I' for Inactive)
REMARK    1  A    between atoms: C1_2  and  C2_3 
ROOT
ATOM      1  C2  UNL d   1       1.532   3.963  -1.997  0.00  0.00    -0.076 A 
ATOM      2  C3  UNL d   1       1.877   4.939  -1.046  0.00  0.00     0.004 A 
ATOM      3  C4  UNL d   1       1.839   4.657   0.318  0.00  0.00    -0.003 A 
ATOM      4  C5  UNL d   1       1.455   3.394   0.754  0.00  0.00     0.000 A 
ATOM      5  C6  UNL d   1       1.126   2.408  -0.175  0.00  0.00     0.000 A 
ATOM      6  C7  UNL d   1       1.175   2.671  -1.555  0.00  0.00    -0.073 A 
ATOM      7  C8  UNL d   1       0.803   1.572  -2.513  0.00  0.00     0.078 C 
ENDROOT
BRANCH   1   8
ATOM      8  C1  UNL d   1       1.566   4.334  -3.462  0.00  0.00     0.053 C 
ATOM      9  C   UNL d   1       0.176   4.557  -4.039  0.00  0.00     0.018 C 
ENDBRANCH   1   8
TORSDOF 1
ENDMDL
