MODEL 1
REMARK minimizedAffinity 9.1601162
REMARK minimizedRMSD -1
REMARK  1 active torsions:
REMARK  status: ('A' for Active; 'I' for Inactive)
REMARK    1  A    between atoms: C1_2  and  C2_3 
ROOT
ATOM      1  C2  UNL d   1      -3.505  -3.415   1.911  0.00  0.00    -0.076 A 
ATOM      2  C3  UNL d   1      -4.540  -2.476   2.054  0.00  0.00     0.004 A 
ATOM      3  C4  UNL d   1      -4.356  -1.143   1.689  0.00  0.00    -0.003 A 
ATOM      4  C5  UNL d   1      -3.132  -0.729   1.173  0.00  0.00     0.000 A 
ATOM      5  C6  UNL d   1      -2.100  -1.652   1.008  0.00  0.00     0.000 A 
ATOM      6  C7  UNL d   1      -2.275  -3.002   1.356  0.00  0.00    -0.073 A 
ATOM      7  C8  UNL d   1      -1.125  -3.952   1.162  0.00  0.00     0.078 C 
ENDROOT
BRANCH   1   8
ATOM      8  C1  UNL d   1      -3.755  -4.841   2.349  0.00  0.00     0.053 C 
ATOM      9  C   UNL d   1      -5.077  -5.001   3.083  0.00  0.00     0.018 C 
ENDBRANCH   1   8
TORSDOF 1
ENDMDL
