MODEL 1
REMARK minimizedAffinity 7.37534046
REMARK minimizedRMSD -1
REMARK  1 active torsions:
REMARK  status: ('A' for Active; 'I' for Inactive)
REMARK    1  A    between atoms: C1_2  and  C2_3 
ROOT
ATOM      1  C2  UNL d   1       0.251   3.962  -4.047  0.00  0.00    -0.076 A 
ATOM      2  C3  UNL d   1      -0.753   3.958  -5.032  0.00  0.00     0.004 A 
ATOM      3  C4  UNL d   1      -0.813   4.959  -6.000  0.00  0.00    -0.003 A 
ATOM      4  C5  UNL d   1       0.131   5.980  -5.999  0.00  0.00     0.000 A 
ATOM      5  C6  UNL d   1       1.144   5.991  -5.041  0.00  0.00     0.000 A 
ATOM      6  C7  UNL d   1       1.228   4.980  -4.068  0.00  0.00    -0.073 A 
ATOM      7  C8  UNL d   1       2.338   5.044  -3.055  0.00  0.00     0.078 C 
ENDROOT
BRANCH   1   8
ATOM      8  C1  UNL d   1       0.249   2.865  -3.007  0.00  0.00     0.053 C 
ATOM      9  C   UNL d   1       1.651   2.389  -2.661  0.00  0.00     0.018 C 
ENDBRANCH   1   8
TORSDOF 1
ENDMDL
