MODEL 1
REMARK minimizedAffinity 11.1683683
REMARK minimizedRMSD -1
REMARK  1 active torsions:
REMARK  status: ('A' for Active; 'I' for Inactive)
REMARK    1  A    between atoms: C1_2  and  C2_3 
ROOT
ATOM      1  C2  UNL d   1       1.734   3.084  -1.231  0.00  0.00    -0.076 A 
ATOM      2  C3  UNL d   1       1.974   1.940  -2.012  0.00  0.00     0.004 A 
ATOM      3  C4  UNL d   1       2.193   0.698  -1.417  0.00  0.00    -0.003 A 
ATOM      4  C5  UNL d   1       2.176   0.581  -0.031  0.00  0.00     0.000 A 
ATOM      5  C6  UNL d   1       1.923   1.702   0.758  0.00  0.00     0.000 A 
ATOM      6  C7  UNL d   1       1.684   2.958   0.174  0.00  0.00    -0.073 A 
ATOM      7  C8  UNL d   1       1.422   4.134   1.074  0.00  0.00     0.078 C 
ENDROOT
BRANCH   1   8
ATOM      8  C1  UNL d   1       1.530   4.408  -1.931  0.00  0.00     0.053 C 
ATOM      9  C   UNL d   1       1.522   4.272  -3.445  0.00  0.00     0.018 C 
ENDBRANCH   1   8
TORSDOF 1
ENDMDL
