MODEL 1
REMARK minimizedAffinity 11.1285515
REMARK minimizedRMSD -1
REMARK  1 active torsions:
REMARK  status: ('A' for Active; 'I' for Inactive)
REMARK    1  A    between atoms: C1_2  and  C2_3 
ROOT
ATOM      1  C2  UNL d   1       2.699  -0.037   2.227  0.00  0.00    -0.076 A 
ATOM      2  C3  UNL d   1       1.569  -0.551   2.886  0.00  0.00     0.004 A 
ATOM      3  C4  UNL d   1       1.631  -1.757   3.582  0.00  0.00    -0.003 A 
ATOM      4  C5  UNL d   1       2.825  -2.469   3.630  0.00  0.00     0.000 A 
ATOM      5  C6  UNL d   1       3.960  -1.966   2.996  0.00  0.00     0.000 A 
ATOM      6  C7  UNL d   1       3.919  -0.743   2.304  0.00  0.00    -0.073 A 
ATOM      7  C8  UNL d   1       5.172  -0.250   1.633  0.00  0.00     0.078 C 
ENDROOT
BRANCH   1   8
ATOM      8  C1  UNL d   1       2.565   1.263   1.466  0.00  0.00     0.053 C 
ATOM      9  C   UNL d   1       1.154   1.489   0.944  0.00  0.00     0.018 C 
ENDBRANCH   1   8
TORSDOF 1
ENDMDL
