MODEL 1
REMARK minimizedAffinity 1.04872084
REMARK minimizedRMSD -1
REMARK  1 active torsions:
REMARK  status: ('A' for Active; 'I' for Inactive)
REMARK    1  A    between atoms: N_2  and  C1_3 
ROOT
ATOM      1  C1  UNL d   1      -3.739   4.508   2.930  0.00  0.00     0.143 A 
ATOM      2  C2  UNL d   1      -2.634   5.322   3.201  0.00  0.00    -0.057 A 
ATOM      3  C3  UNL d   1      -1.472   5.252   2.423  0.00  0.00     0.033 A 
ATOM      4  C4  UNL d   1      -1.385   4.343   1.373  0.00  0.00    -0.042 A 
ATOM      5  C5  UNL d   1      -2.462   3.507   1.101  0.00  0.00     0.033 A 
ATOM      6  C6  UNL d   1      -3.622   3.586   1.878  0.00  0.00    -0.057 A 
ENDROOT
BRANCH   1   7
ATOM      7  N   UNL d   1      -4.885   4.461   3.728  0.00  0.00    -0.732 N 
ATOM      8  C   UNL d   1      -5.974   5.389   3.509  0.00  0.00     0.284 C 
ATOM      9  H3  UNL d   1      -5.183   3.508   3.923  0.00  0.00     0.395 HD
ENDBRANCH   1   7
TORSDOF 1
ENDMDL
