MODEL 1
REMARK minimizedAffinity 8.13633347
REMARK minimizedRMSD -1
REMARK  1 active torsions:
REMARK  status: ('A' for Active; 'I' for Inactive)
REMARK    1  A    between atoms: N_2  and  C1_3 
ROOT
ATOM      1  C1  UNL d   1       3.108  -0.633  -1.026  0.00  0.00     0.143 A 
ATOM      2  C2  UNL d   1       4.261  -0.318  -1.753  0.00  0.00    -0.057 A 
ATOM      3  C3  UNL d   1       5.062   0.776  -1.406  0.00  0.00     0.033 A 
ATOM      4  C4  UNL d   1       4.707   1.596  -0.340  0.00  0.00    -0.042 A 
ATOM      5  C5  UNL d   1       3.551   1.318   0.381  0.00  0.00     0.033 A 
ATOM      6  C6  UNL d   1       2.759   0.219   0.034  0.00  0.00    -0.057 A 
ENDROOT
BRANCH   1   7
ATOM      7  N   UNL d   1       2.217  -1.649  -1.381  0.00  0.00    -0.732 N 
ATOM      8  C   UNL d   1       2.081  -2.831  -0.557  0.00  0.00     0.284 C 
ATOM      9  H3  UNL d   1       1.336  -1.286  -1.736  0.00  0.00     0.395 HD
ENDBRANCH   1   7
TORSDOF 1
ENDMDL
