MODEL 1
REMARK minimizedAffinity 8.1494894
REMARK minimizedRMSD -1
REMARK  1 active torsions:
REMARK  status: ('A' for Active; 'I' for Inactive)
REMARK    1  A    between atoms: N_2  and  C1_3 
ROOT
ATOM      1  C1  UNL d   1      -5.725   3.028   3.821  0.00  0.00     0.143 A 
ATOM      2  C2  UNL d   1      -5.865   2.940   5.210  0.00  0.00    -0.057 A 
ATOM      3  C3  UNL d   1      -6.000   4.088   6.000  0.00  0.00     0.033 A 
ATOM      4  C4  UNL d   1      -5.968   5.350   5.415  0.00  0.00    -0.042 A 
ATOM      5  C5  UNL d   1      -5.805   5.462   4.039  0.00  0.00     0.033 A 
ATOM      6  C6  UNL d   1      -5.678   4.311   3.255  0.00  0.00    -0.057 A 
ENDROOT
BRANCH   1   7
ATOM      7  N   UNL d   1      -5.488   1.928   2.992  0.00  0.00    -0.732 N 
ATOM      8  C   UNL d   1      -4.446   1.973   1.988  0.00  0.00     0.284 C 
ATOM      9  H3  UNL d   1      -5.544   1.045   3.493  0.00  0.00     0.395 HD
ENDBRANCH   1   7
TORSDOF 1
ENDMDL
