MODEL 1
REMARK minimizedAffinity 13.85044
REMARK minimizedRMSD -1
REMARK  1 active torsions:
REMARK  status: ('A' for Active; 'I' for Inactive)
REMARK    1  A    between atoms: N_2  and  C1_3 
ROOT
ATOM      1  C1  UNL d   1      -4.405   2.528  -4.546  0.00  0.00     0.143 A 
ATOM      2  C2  UNL d   1      -4.869   1.942  -3.363  0.00  0.00    -0.057 A 
ATOM      3  C3  UNL d   1      -5.670   2.657  -2.464  0.00  0.00     0.033 A 
ATOM      4  C4  UNL d   1      -5.999   3.984  -2.720  0.00  0.00    -0.042 A 
ATOM      5  C5  UNL d   1      -5.528   4.595  -3.877  0.00  0.00     0.033 A 
ATOM      6  C6  UNL d   1      -4.734   3.874  -4.774  0.00  0.00    -0.057 A 
ENDROOT
BRANCH   1   7
ATOM      7  N   UNL d   1      -3.525   1.902  -5.431  0.00  0.00    -0.732 N 
ATOM      8  C   UNL d   1      -3.134   0.523  -5.230  0.00  0.00     0.284 C 
ATOM      9  H3  UNL d   1      -3.712   2.143  -6.401  0.00  0.00     0.395 HD
ENDBRANCH   1   7
TORSDOF 1
ENDMDL
