MODEL 1
REMARK minimizedAffinity 7.60435057
REMARK minimizedRMSD -1
REMARK  1 active torsions:
REMARK  status: ('A' for Active; 'I' for Inactive)
REMARK    1  A    between atoms: N_2  and  C1_3 
ROOT
ATOM      1  C1  UNL d   1      -4.751   0.896  -3.014  0.00  0.00     0.143 A 
ATOM      2  C2  UNL d   1      -3.730  -0.057  -2.929  0.00  0.00    -0.057 A 
ATOM      3  C3  UNL d   1      -2.733  -0.141  -3.908  0.00  0.00     0.033 A 
ATOM      4  C4  UNL d   1      -2.756   0.710  -5.008  0.00  0.00    -0.042 A 
ATOM      5  C5  UNL d   1      -3.775   1.648  -5.126  0.00  0.00     0.033 A 
ATOM      6  C6  UNL d   1      -4.764   1.732  -4.141  0.00  0.00    -0.057 A 
ENDROOT
BRANCH   1   7
ATOM      7  N   UNL d   1      -5.826   0.965  -2.124  0.00  0.00    -0.732 N 
ATOM      8  C   UNL d   1      -5.918   0.050  -1.007  0.00  0.00     0.284 C 
ATOM      9  H3  UNL d   1      -6.083   1.923  -1.899  0.00  0.00     0.395 HD
ENDBRANCH   1   7
TORSDOF 1
ENDMDL
