MODEL 1
REMARK minimizedAffinity 4.14174795
REMARK minimizedRMSD -1
REMARK  1 active torsions:
REMARK  status: ('A' for Active; 'I' for Inactive)
REMARK    1  A    between atoms: N_2  and  C1_3 
ROOT
ATOM      1  C1  UNL d   1       1.890  -3.121  -0.889  0.00  0.00     0.143 A 
ATOM      2  C2  UNL d   1       1.754  -2.069  -1.802  0.00  0.00    -0.057 A 
ATOM      3  C3  UNL d   1       2.491  -0.887  -1.663  0.00  0.00     0.033 A 
ATOM      4  C4  UNL d   1       3.359  -0.724  -0.588  0.00  0.00    -0.042 A 
ATOM      5  C5  UNL d   1       3.492  -1.746   0.345  0.00  0.00     0.033 A 
ATOM      6  C6  UNL d   1       2.758  -2.926   0.197  0.00  0.00    -0.057 A 
ENDROOT
BRANCH   1   7
ATOM      7  N   UNL d   1       1.113  -4.281  -0.917  0.00  0.00    -0.732 N 
ATOM      8  C   UNL d   1      -0.282  -4.225  -1.301  0.00  0.00     0.284 C 
ATOM      9  H3  UNL d   1       1.617  -5.077  -1.300  0.00  0.00     0.395 HD
ENDBRANCH   1   7
TORSDOF 1
ENDMDL
