MODEL 1
REMARK minimizedAffinity 7.73337126
REMARK minimizedRMSD -1
REMARK  1 active torsions:
REMARK  status: ('A' for Active; 'I' for Inactive)
REMARK    1  A    between atoms: N_2  and  C1_3 
ROOT
ATOM      1  C1  UNL d   1       4.839   1.109   0.004  0.00  0.00     0.143 A 
ATOM      2  C2  UNL d   1       4.850   1.917  -1.138  0.00  0.00    -0.057 A 
ATOM      3  C3  UNL d   1       5.437   3.187  -1.123  0.00  0.00     0.033 A 
ATOM      4  C4  UNL d   1       6.000   3.686   0.048  0.00  0.00    -0.042 A 
ATOM      5  C5  UNL d   1       5.978   2.911   1.201  0.00  0.00     0.033 A 
ATOM      6  C6  UNL d   1       5.396   1.640   1.178  0.00  0.00    -0.057 A 
ENDROOT
BRANCH   1   7
ATOM      7  N   UNL d   1       4.184  -0.123   0.079  0.00  0.00    -0.732 N 
ATOM      8  C   UNL d   1       2.993  -0.373  -0.704  0.00  0.00     0.284 C 
ATOM      9  H3  UNL d   1       4.832  -0.906   0.111  0.00  0.00     0.395 HD
ENDBRANCH   1   7
TORSDOF 1
ENDMDL
