MODEL 1
REMARK minimizedAffinity 7.44072342
REMARK minimizedRMSD -1
REMARK  1 active torsions:
REMARK  status: ('A' for Active; 'I' for Inactive)
REMARK    1  A    between atoms: N_2  and  C1_3 
ROOT
ATOM      1  C1  UNL d   1       2.510   0.239   0.335  0.00  0.00     0.143 A 
ATOM      2  C2  UNL d   1       2.012   0.563   1.601  0.00  0.00    -0.057 A 
ATOM      3  C3  UNL d   1       0.706   1.038   1.769  0.00  0.00     0.033 A 
ATOM      4  C4  UNL d   1      -0.119   1.225   0.665  0.00  0.00    -0.042 A 
ATOM      5  C5  UNL d   1       0.362   0.933  -0.606  0.00  0.00     0.033 A 
ATOM      6  C6  UNL d   1       1.665   0.452  -0.766  0.00  0.00    -0.057 A 
ENDROOT
BRANCH   1   7
ATOM      7  N   UNL d   1       3.831  -0.145   0.092  0.00  0.00    -0.732 N 
ATOM      8  C   UNL d   1       4.803   0.818  -0.380  0.00  0.00     0.284 C 
ATOM      9  H3  UNL d   1       4.187  -0.781   0.802  0.00  0.00     0.395 HD
ENDBRANCH   1   7
TORSDOF 1
ENDMDL
