MODEL 1
REMARK minimizedAffinity 9.2237854
REMARK minimizedRMSD -1
REMARK  0 active torsions:
REMARK  status: ('A' for Active; 'I' for Inactive)
ROOT
ATOM      1  O1  BZF d   1       1.068   2.927   0.052  0.00  0.00    -0.204 OA
ATOM      2  C2  BZF d   1       1.923   1.991   0.599  0.00  0.00     0.174 A 
ATOM      3  C3  BZF d   1       2.877   1.638  -0.286  0.00  0.00    -0.012 A 
ATOM      4  C3A BZF d   1       2.655   2.470  -1.429  0.00  0.00    -0.107 A 
ATOM      5  C4  BZF d   1       3.288   2.600  -2.633  0.00  0.00     0.055 A 
ATOM      6  C5  BZF d   1       2.776   3.453  -3.559  0.00  0.00    -0.016 A 
ATOM      7  C6  BZF d   1       1.633   4.186  -3.317  0.00  0.00     0.022 A 
ATOM      8  C7  BZF d   1       0.974   4.095  -2.137  0.00  0.00     0.029 A 
ATOM      9  C7A BZF d   1       1.507   3.258  -1.186  0.00  0.00     0.058 A 
ENDROOT
TORSDOF 0
ENDMDL
