MODEL 1
REMARK minimizedAffinity -0.626096666
REMARK minimizedRMSD -1
REMARK  0 active torsions:
REMARK  status: ('A' for Active; 'I' for Inactive)
ROOT
ATOM      1  O1  BZF d   1      -3.019  -0.426  -0.282  0.00  0.00    -0.204 OA
ATOM      2  C2  BZF d   1      -4.193   0.278  -0.470  0.00  0.00     0.174 A 
ATOM      3  C3  BZF d   1      -4.568   0.896   0.669  0.00  0.00    -0.012 A 
ATOM      4  C3A BZF d   1      -3.517   0.632   1.604  0.00  0.00    -0.107 A 
ATOM      5  C4  BZF d   1      -3.304   0.993   2.904  0.00  0.00     0.055 A 
ATOM      6  C5  BZF d   1      -2.213   0.509   3.553  0.00  0.00    -0.016 A 
ATOM      7  C6  BZF d   1      -1.318  -0.340   2.935  0.00  0.00     0.022 A 
ATOM      8  C7  BZF d   1      -1.484  -0.721   1.645  0.00  0.00     0.029 A 
ATOM      9  C7A BZF d   1      -2.568  -0.208   0.977  0.00  0.00     0.058 A 
ENDROOT
TORSDOF 0
ENDMDL
