MODEL 1
REMARK minimizedAffinity 4.85285902
REMARK minimizedRMSD -1
REMARK  0 active torsions:
REMARK  status: ('A' for Active; 'I' for Inactive)
ROOT
ATOM      1  O1  BZF d   1      -5.988  -2.679   4.768  0.00  0.00    -0.204 OA
ATOM      2  C2  BZF d   1      -5.966  -3.309   5.998  0.00  0.00     0.174 A 
ATOM      3  C3  BZF d   1      -5.991  -4.649   5.850  0.00  0.00    -0.012 A 
ATOM      4  C3A BZF d   1      -5.937  -4.872   4.438  0.00  0.00    -0.107 A 
ATOM      5  C4  BZF d   1      -5.916  -5.999   3.665  0.00  0.00     0.055 A 
ATOM      6  C5  BZF d   1      -5.936  -5.872   2.313  0.00  0.00    -0.016 A 
ATOM      7  C6  BZF d   1      -5.983  -4.637   1.699  0.00  0.00     0.022 A 
ATOM      8  C7  BZF d   1      -6.000  -3.492   2.423  0.00  0.00     0.029 A 
ATOM      9  C7A BZF d   1      -5.946  -3.615   3.790  0.00  0.00     0.058 A 
ENDROOT
TORSDOF 0
ENDMDL
