MODEL 1
REMARK minimizedAffinity 2.09275341
REMARK minimizedRMSD -1
REMARK  0 active torsions:
REMARK  status: ('A' for Active; 'I' for Inactive)
ROOT
ATOM      1  O1  BZF d   1      -4.338  -3.059   2.812  0.00  0.00    -0.204 OA
ATOM      2  C2  BZF d   1      -5.237  -3.415   3.799  0.00  0.00     0.174 A 
ATOM      3  C3  BZF d   1      -5.200  -2.534   4.820  0.00  0.00    -0.012 A 
ATOM      4  C3A BZF d   1      -4.282  -1.517   4.406  0.00  0.00    -0.107 A 
ATOM      5  C4  BZF d   1      -3.836  -0.364   4.985  0.00  0.00     0.055 A 
ATOM      6  C5  BZF d   1      -2.884   0.369   4.350  0.00  0.00    -0.016 A 
ATOM      7  C6  BZF d   1      -2.353  -0.025   3.139  0.00  0.00     0.022 A 
ATOM      8  C7  BZF d   1      -2.767  -1.159   2.524  0.00  0.00     0.029 A 
ATOM      9  C7A BZF d   1      -3.753  -1.884   3.147  0.00  0.00     0.058 A 
ENDROOT
TORSDOF 0
ENDMDL
