MODEL 1
REMARK minimizedAffinity 11.4371252
REMARK minimizedRMSD -1
REMARK  0 active torsions:
REMARK  status: ('A' for Active; 'I' for Inactive)
ROOT
ATOM      1  O1  BZF d   1      -5.902  -1.971   3.836  0.00  0.00    -0.204 OA
ATOM      2  C2  BZF d   1      -5.895  -1.860   5.213  0.00  0.00     0.174 A 
ATOM      3  C3  BZF d   1      -5.973  -3.076   5.792  0.00  0.00    -0.012 A 
ATOM      4  C3A BZF d   1      -5.940  -4.011   4.709  0.00  0.00    -0.107 A 
ATOM      5  C4  BZF d   1      -5.969  -5.375   4.645  0.00  0.00     0.055 A 
ATOM      6  C5  BZF d   1      -5.995  -5.978   3.428  0.00  0.00    -0.016 A 
ATOM      7  C6  BZF d   1      -5.999  -5.250   2.256  0.00  0.00     0.022 A 
ATOM      8  C7  BZF d   1      -5.966  -3.895   2.269  0.00  0.00     0.029 A 
ATOM      9  C7A BZF d   1      -5.905  -3.283   3.497  0.00  0.00     0.058 A 
ENDROOT
TORSDOF 0
ENDMDL
