MODEL 1
REMARK minimizedAffinity 8.27367401
REMARK minimizedRMSD -1
REMARK  0 active torsions:
REMARK  status: ('A' for Active; 'I' for Inactive)
ROOT
ATOM      1  O1  BZF d   1      -5.902  -5.912   2.420  0.00  0.00    -0.204 OA
ATOM      2  C2  BZF d   1      -5.844  -4.930   1.450  0.00  0.00     0.174 A 
ATOM      3  C3  BZF d   1      -5.869  -3.703   2.009  0.00  0.00    -0.012 A 
ATOM      4  C3A BZF d   1      -5.854  -3.933   3.421  0.00  0.00    -0.107 A 
ATOM      5  C4  BZF d   1      -5.851  -3.105   4.507  0.00  0.00     0.055 A 
ATOM      6  C5  BZF d   1      -5.911  -3.648   5.752  0.00  0.00    -0.016 A 
ATOM      7  C6  BZF d   1      -5.978  -5.012   5.947  0.00  0.00     0.022 A 
ATOM      8  C7  BZF d   1      -5.979  -5.873   4.900  0.00  0.00     0.029 A 
ATOM      9  C7A BZF d   1      -5.886  -5.329   3.643  0.00  0.00     0.058 A 
ENDROOT
TORSDOF 0
ENDMDL
