MODEL 1
REMARK minimizedAffinity 9.64589787
REMARK minimizedRMSD -1
REMARK  0 active torsions:
REMARK  status: ('A' for Active; 'I' for Inactive)
ROOT
ATOM      1  O1  BZF d   1      -3.937   1.518   5.682  0.00  0.00    -0.204 OA
ATOM      2  C2  BZF d   1      -4.934   2.406   5.329  0.00  0.00     0.174 A 
ATOM      3  C3  BZF d   1      -4.875   2.695   4.013  0.00  0.00    -0.012 A 
ATOM      4  C3A BZF d   1      -3.829   1.868   3.494  0.00  0.00    -0.107 A 
ATOM      5  C4  BZF d   1      -3.305   1.691   2.245  0.00  0.00     0.055 A 
ATOM      6  C5  BZF d   1      -2.240   0.862   2.088  0.00  0.00    -0.016 A 
ATOM      7  C6  BZF d   1      -1.671   0.199   3.156  0.00  0.00     0.022 A 
ATOM      8  C7  BZF d   1      -2.160   0.340   4.412  0.00  0.00     0.029 A 
ATOM      9  C7A BZF d   1      -3.257   1.151   4.570  0.00  0.00     0.058 A 
ENDROOT
TORSDOF 0
ENDMDL
