MODEL 1
REMARK minimizedAffinity 1.73086822
REMARK minimizedRMSD -1
REMARK  0 active torsions:
REMARK  status: ('A' for Active; 'I' for Inactive)
ROOT
ATOM      1  O1  BZF d   1      -1.821   0.734   3.840  0.00  0.00    -0.204 OA
ATOM      2  C2  BZF d   1      -2.926   1.100   3.096  0.00  0.00     0.174 A 
ATOM      3  C3  BZF d   1      -3.117   0.245   2.071  0.00  0.00    -0.012 A 
ATOM      4  C3A BZF d   1      -2.120  -0.768   2.234  0.00  0.00    -0.107 A 
ATOM      5  C4  BZF d   1      -1.809  -1.900   1.537  0.00  0.00     0.055 A 
ATOM      6  C5  BZF d   1      -0.730  -2.634   1.917  0.00  0.00    -0.016 A 
ATOM      7  C6  BZF d   1       0.062  -2.262   2.983  0.00  0.00     0.022 A 
ATOM      8  C7  BZF d   1      -0.209  -1.149   3.708  0.00  0.00     0.029 A 
ATOM      9  C7A BZF d   1      -1.319  -0.424   3.348  0.00  0.00     0.058 A 
ENDROOT
TORSDOF 0
ENDMDL
