MODEL 1
REMARK minimizedAffinity 9.17473888
REMARK minimizedRMSD -1
REMARK  0 active torsions:
REMARK  status: ('A' for Active; 'I' for Inactive)
ROOT
ATOM      1  O1  BZF d   1       3.848   3.489   2.132  0.00  0.00    -0.204 OA
ATOM      2  C2  BZF d   1       5.100   3.976   1.812  0.00  0.00     0.174 A 
ATOM      3  C3  BZF d   1       5.441   3.629   0.554  0.00  0.00    -0.012 A 
ATOM      4  C3A BZF d   1       4.294   2.956   0.026  0.00  0.00    -0.107 A 
ATOM      5  C4  BZF d   1       4.012   2.390  -1.185  0.00  0.00     0.055 A 
ATOM      6  C5  BZF d   1       2.826   1.749  -1.354  0.00  0.00    -0.016 A 
ATOM      7  C6  BZF d   1       1.902   1.651  -0.335  0.00  0.00     0.022 A 
ATOM      8  C7  BZF d   1       2.134   2.201   0.882  0.00  0.00     0.029 A 
ATOM      9  C7A BZF d   1       3.318   2.878   1.046  0.00  0.00     0.058 A 
ENDROOT
TORSDOF 0
ENDMDL
