MODEL 1
REMARK minimizedAffinity 11.182745
REMARK minimizedRMSD -1
REMARK  0 active torsions:
REMARK  status: ('A' for Active; 'I' for Inactive)
ROOT
ATOM      1  O1  BZF d   1       4.243   1.707  -0.278  0.00  0.00    -0.204 OA
ATOM      2  C2  BZF d   1       3.279   1.082   0.489  0.00  0.00     0.174 A 
ATOM      3  C3  BZF d   1       2.061   1.214  -0.074  0.00  0.00    -0.012 A 
ATOM      4  C3A BZF d   1       2.290   1.889  -1.314  0.00  0.00    -0.107 A 
ATOM      5  C4  BZF d   1       1.470   2.292  -2.329  0.00  0.00     0.055 A 
ATOM      6  C5  BZF d   1       1.999   2.991  -3.367  0.00  0.00    -0.016 A 
ATOM      7  C6  BZF d   1       3.340   3.310  -3.420  0.00  0.00     0.022 A 
ATOM      8  C7  BZF d   1       4.193   2.928  -2.439  0.00  0.00     0.029 A 
ATOM      9  C7A BZF d   1       3.668   2.192  -1.405  0.00  0.00     0.058 A 
ENDROOT
TORSDOF 0
ENDMDL
