MODEL 1
REMARK minimizedAffinity 13.6970415
REMARK minimizedRMSD -1
REMARK  0 active torsions:
REMARK  status: ('A' for Active; 'I' for Inactive)
ROOT
ATOM      1  O1  BZF d   1       3.612   1.827  -3.030  0.00  0.00    -0.204 OA
ATOM      2  C2  BZF d   1       2.299   2.140  -2.736  0.00  0.00     0.174 A 
ATOM      3  C3  BZF d   1       1.944   3.306  -3.314  0.00  0.00    -0.012 A 
ATOM      4  C3A BZF d   1       3.080   3.703  -4.088  0.00  0.00    -0.107 A 
ATOM      5  C4  BZF d   1       3.335   4.770  -4.901  0.00  0.00     0.055 A 
ATOM      6  C5  BZF d   1       4.571   4.901  -5.451  0.00  0.00    -0.016 A 
ATOM      7  C6  BZF d   1       5.575   3.988  -5.205  0.00  0.00     0.022 A 
ATOM      8  C7  BZF d   1       5.368   2.910  -4.409  0.00  0.00     0.029 A 
ATOM      9  C7A BZF d   1       4.111   2.758  -3.879  0.00  0.00     0.058 A 
ENDROOT
TORSDOF 0
ENDMDL
