MODEL 1
REMARK minimizedAffinity 12.8316631
REMARK minimizedRMSD -1
REMARK  0 active torsions:
REMARK  status: ('A' for Active; 'I' for Inactive)
ROOT
ATOM      1  O1  BZF d   1      -1.861   0.695   2.926  0.00  0.00    -0.204 OA
ATOM      2  C2  BZF d   1      -3.140   0.991   2.497  0.00  0.00     0.174 A 
ATOM      3  C3  BZF d   1      -3.623   0.003   1.716  0.00  0.00    -0.012 A 
ATOM      4  C3A BZF d   1      -2.616  -1.014   1.729  0.00  0.00    -0.107 A 
ATOM      5  C4  BZF d   1      -2.520  -2.247   1.151  0.00  0.00     0.055 A 
ATOM      6  C5  BZF d   1      -1.372  -2.959   1.301  0.00  0.00    -0.016 A 
ATOM      7  C6  BZF d   1      -0.300  -2.466   2.015  0.00  0.00     0.022 A 
ATOM      8  C7  BZF d   1      -0.350  -1.249   2.610  0.00  0.00     0.029 A 
ATOM      9  C7A BZF d   1      -1.521  -0.542   2.489  0.00  0.00     0.058 A 
ENDROOT
TORSDOF 0
ENDMDL
