MODEL 1
REMARK minimizedAffinity 5.37965822
REMARK minimizedRMSD -1
REMARK  0 active torsions:
REMARK  status: ('A' for Active; 'I' for Inactive)
ROOT
ATOM      1  O1  BZF d   1      -5.004  -5.999   2.345  0.00  0.00    -0.204 OA
ATOM      2  C2  BZF d   1      -4.042  -5.226   1.722  0.00  0.00     0.174 A 
ATOM      3  C3  BZF d   1      -3.598  -4.258   2.549  0.00  0.00    -0.012 A 
ATOM      4  C3A BZF d   1      -4.261  -4.493   3.795  0.00  0.00    -0.107 A 
ATOM      5  C4  BZF d   1      -4.222  -3.873   5.011  0.00  0.00     0.055 A 
ATOM      6  C5  BZF d   1      -5.047  -4.306   6.000  0.00  0.00    -0.016 A 
ATOM      7  C6  BZF d   1      -5.927  -5.351   5.806  0.00  0.00     0.022 A 
ATOM      8  C7  BZF d   1      -5.999  -6.000   4.618  0.00  0.00     0.029 A 
ATOM      9  C7A BZF d   1      -5.142  -5.586   3.627  0.00  0.00     0.058 A 
ENDROOT
TORSDOF 0
ENDMDL
