MODEL 1
REMARK minimizedAffinity 14.7107306
REMARK minimizedRMSD -1
REMARK  0 active torsions:
REMARK  status: ('A' for Active; 'I' for Inactive)
ROOT
ATOM      1  O1  BZF d   1      -5.331  -3.927   5.537  0.00  0.00    -0.204 OA
ATOM      2  C2  BZF d   1      -5.925  -5.115   5.917  0.00  0.00     0.174 A 
ATOM      3  C3  BZF d   1      -5.922  -5.998   4.898  0.00  0.00    -0.012 A 
ATOM      4  C3A BZF d   1      -5.202  -5.353   3.843  0.00  0.00    -0.107 A 
ATOM      5  C4  BZF d   1      -4.851  -5.731   2.579  0.00  0.00     0.055 A 
ATOM      6  C5  BZF d   1      -4.213  -4.839   1.776  0.00  0.00    -0.016 A 
ATOM      7  C6  BZF d   1      -3.916  -3.561   2.203  0.00  0.00     0.022 A 
ATOM      8  C7  BZF d   1      -4.240  -3.142   3.450  0.00  0.00     0.029 A 
ATOM      9  C7A BZF d   1      -4.855  -4.052   4.275  0.00  0.00     0.058 A 
ENDROOT
TORSDOF 0
ENDMDL
