MODEL 1
REMARK minimizedAffinity 16.9459534
REMARK minimizedRMSD -1
REMARK  0 active torsions:
REMARK  status: ('A' for Active; 'I' for Inactive)
ROOT
ATOM      1  O1  BZF d   1      -2.058   0.001   0.594  0.00  0.00    -0.204 OA
ATOM      2  C2  BZF d   1      -1.717  -0.277   1.904  0.00  0.00     0.174 A 
ATOM      3  C3  BZF d   1      -2.786  -0.138   2.716  0.00  0.00    -0.012 A 
ATOM      4  C3A BZF d   1      -3.882   0.161   1.846  0.00  0.00    -0.107 A 
ATOM      5  C4  BZF d   1      -5.211   0.392   2.057  0.00  0.00     0.055 A 
ATOM      6  C5  BZF d   1      -5.999   0.728   1.002  0.00  0.00    -0.016 A 
ATOM      7  C6  BZF d   1      -5.490   0.847  -0.275  0.00  0.00     0.022 A 
ATOM      8  C7  BZF d   1      -4.179   0.622  -0.534  0.00  0.00     0.029 A 
ATOM      9  C7A BZF d   1      -3.387   0.250   0.525  0.00  0.00     0.058 A 
ENDROOT
TORSDOF 0
ENDMDL
