MODEL 1
REMARK minimizedAffinity 15.12644
REMARK minimizedRMSD -1
REMARK  0 active torsions:
REMARK  status: ('A' for Active; 'I' for Inactive)
ROOT
ATOM      1  O1  BZF d   1       2.683   2.764  -4.020  0.00  0.00    -0.204 OA
ATOM      2  C2  BZF d   1       1.938   2.621  -2.865  0.00  0.00     0.174 A 
ATOM      3  C3  BZF d   1       2.632   3.056  -1.793  0.00  0.00    -0.012 A 
ATOM      4  C3A BZF d   1       3.852   3.582  -2.322  0.00  0.00    -0.107 A 
ATOM      5  C4  BZF d   1       4.945   4.173  -1.753  0.00  0.00     0.055 A 
ATOM      6  C5  BZF d   1       6.000   4.507  -2.541  0.00  0.00    -0.016 A 
ATOM      7  C6  BZF d   1       5.999   4.261  -3.899  0.00  0.00     0.022 A 
ATOM      8  C7  BZF d   1       4.936   3.682  -4.509  0.00  0.00     0.029 A 
ATOM      9  C7A BZF d   1       3.855   3.373  -3.720  0.00  0.00     0.058 A 
ENDROOT
TORSDOF 0
ENDMDL
