MODEL 1
REMARK minimizedAffinity -0.818588614
REMARK minimizedRMSD -1
REMARK  1 active torsions:
REMARK  status: ('A' for Active; 'I' for Inactive)
REMARK    1  A    between atoms: N_2  and  C1_3 
ROOT
ATOM      1  C1  UNL d   1       0.233   0.237  -0.950  0.00  0.00     0.143 A 
ATOM      2  C2  UNL d   1       0.029   0.013   0.416  0.00  0.00    -0.057 A 
ATOM      3  C3  UNL d   1       0.918  -0.767   1.165  0.00  0.00     0.033 A 
ATOM      4  C4  UNL d   1       2.016  -1.364   0.552  0.00  0.00    -0.042 A 
ATOM      5  C5  UNL d   1       2.225  -1.175  -0.810  0.00  0.00     0.033 A 
ATOM      6  C6  UNL d   1       1.337  -0.389  -1.551  0.00  0.00    -0.057 A 
ENDROOT
BRANCH   1   7
ATOM      7  N   UNL d   1      -0.668   0.921  -1.769  0.00  0.00    -0.732 N 
ATOM      8  C   UNL d   1      -0.383   2.269  -2.213  0.00  0.00     0.284 C 
ATOM      9  H3  UNL d   1      -1.072   0.324  -2.487  0.00  0.00     0.395 HD
ENDBRANCH   1   7
TORSDOF 1
ENDMDL
