MODEL 1
REMARK minimizedAffinity -0.511854827
REMARK minimizedRMSD -1
REMARK  1 active torsions:
REMARK  status: ('A' for Active; 'I' for Inactive)
REMARK    1  A    between atoms: N_2  and  C1_3 
ROOT
ATOM      1  C1  UNL d   1       0.771  -1.179   1.042  0.00  0.00     0.143 A 
ATOM      2  C2  UNL d   1      -0.476  -0.572   0.864  0.00  0.00    -0.057 A 
ATOM      3  C3  UNL d   1      -1.475  -0.665   1.841  0.00  0.00     0.033 A 
ATOM      4  C4  UNL d   1      -1.252  -1.394   3.004  0.00  0.00    -0.042 A 
ATOM      5  C5  UNL d   1      -0.029  -2.027   3.191  0.00  0.00     0.033 A 
ATOM      6  C6  UNL d   1       0.967  -1.925   2.215  0.00  0.00    -0.057 A 
ENDROOT
BRANCH   1   7
ATOM      7  N   UNL d   1       1.770  -1.206   0.065  0.00  0.00    -0.732 N 
ATOM      8  C   UNL d   1       2.098  -0.013  -0.687  0.00  0.00     0.284 C 
ATOM      9  H3  UNL d   1       2.579  -1.752   0.351  0.00  0.00     0.395 HD
ENDBRANCH   1   7
TORSDOF 1
ENDMDL
