MODEL 1
REMARK minimizedAffinity -1.94055128
REMARK minimizedRMSD -1
REMARK  1 active torsions:
REMARK  status: ('A' for Active; 'I' for Inactive)
REMARK    1  A    between atoms: N_2  and  C1_3 
ROOT
ATOM      1  C1  UNL d   1      -1.603   1.741  -0.162  0.00  0.00     0.143 A 
ATOM      2  C2  UNL d   1      -0.999   2.990  -0.343  0.00  0.00    -0.057 A 
ATOM      3  C3  UNL d   1      -1.037   3.642  -1.581  0.00  0.00     0.033 A 
ATOM      4  C4  UNL d   1      -1.657   3.041  -2.672  0.00  0.00    -0.042 A 
ATOM      5  C5  UNL d   1      -2.242   1.789  -2.522  0.00  0.00     0.033 A 
ATOM      6  C6  UNL d   1      -2.206   1.146  -1.281  0.00  0.00    -0.057 A 
ENDROOT
BRANCH   1   7
ATOM      7  N   UNL d   1      -1.514   0.998   1.018  0.00  0.00    -0.732 N 
ATOM      8  C   UNL d   1      -0.614  -0.132   1.112  0.00  0.00     0.284 C 
ATOM      9  H3  UNL d   1      -1.533   1.584   1.849  0.00  0.00     0.395 HD
ENDBRANCH   1   7
TORSDOF 1
ENDMDL
