MODEL 1
REMARK minimizedAffinity -4.36409569
REMARK minimizedRMSD -1
REMARK  1 active torsions:
REMARK  status: ('A' for Active; 'I' for Inactive)
REMARK    1  A    between atoms: N_2  and  C1_3 
ROOT
ATOM      1  C1  UNL d   1      -0.071  -1.279   0.420  0.00  0.00     0.143 A 
ATOM      2  C2  UNL d   1      -0.887  -0.762   1.432  0.00  0.00    -0.057 A 
ATOM      3  C3  UNL d   1      -1.359   0.555   1.382  0.00  0.00     0.033 A 
ATOM      4  C4  UNL d   1      -0.997   1.391   0.331  0.00  0.00    -0.042 A 
ATOM      5  C5  UNL d   1      -0.166   0.907  -0.673  0.00  0.00     0.033 A 
ATOM      6  C6  UNL d   1       0.296  -0.412  -0.622  0.00  0.00    -0.057 A 
ENDROOT
BRANCH   1   7
ATOM      7  N   UNL d   1       0.510  -2.548   0.462  0.00  0.00    -0.732 N 
ATOM      8  C   UNL d   1       1.344  -2.941   1.577  0.00  0.00     0.284 C 
ATOM      9  H3  UNL d   1      -0.124  -3.276   0.140  0.00  0.00     0.395 HD
ENDBRANCH   1   7
TORSDOF 1
ENDMDL
