MODEL 1
REMARK minimizedAffinity 4.88993025
REMARK minimizedRMSD -1
REMARK  1 active torsions:
REMARK  status: ('A' for Active; 'I' for Inactive)
REMARK    1  A    between atoms: N_2  and  C1_3 
ROOT
ATOM      1  C1  UNL d   1      -2.965   1.386  -0.778  0.00  0.00     0.143 A 
ATOM      2  C2  UNL d   1      -3.938   1.148  -1.754  0.00  0.00    -0.057 A 
ATOM      3  C3  UNL d   1      -3.745   1.546  -3.083  0.00  0.00     0.033 A 
ATOM      4  C4  UNL d   1      -2.585   2.218  -3.453  0.00  0.00    -0.042 A 
ATOM      5  C5  UNL d   1      -1.615   2.487  -2.494  0.00  0.00     0.033 A 
ATOM      6  C6  UNL d   1      -1.810   2.081  -1.170  0.00  0.00    -0.057 A 
ENDROOT
BRANCH   1   7
ATOM      7  N   UNL d   1      -3.139   1.102   0.579  0.00  0.00    -0.732 N 
ATOM      8  C   UNL d   1      -2.000   1.029   1.469  0.00  0.00     0.284 C 
ATOM      9  H3  UNL d   1      -3.946   1.579   0.975  0.00  0.00     0.395 HD
ENDBRANCH   1   7
TORSDOF 1
ENDMDL
