MODEL 1
REMARK minimizedAffinity 1.5150702
REMARK minimizedRMSD -1
REMARK  1 active torsions:
REMARK  status: ('A' for Active; 'I' for Inactive)
REMARK    1  A    between atoms: N_2  and  C1_3 
ROOT
ATOM      1  C1  UNL d   1       2.871  -1.498  -0.913  0.00  0.00     0.143 A 
ATOM      2  C2  UNL d   1       2.121  -2.669  -1.064  0.00  0.00    -0.057 A 
ATOM      3  C3  UNL d   1       1.452  -3.248   0.022  0.00  0.00     0.033 A 
ATOM      4  C4  UNL d   1       1.545  -2.679   1.287  0.00  0.00    -0.042 A 
ATOM      5  C5  UNL d   1       2.305  -1.528   1.466  0.00  0.00     0.033 A 
ATOM      6  C6  UNL d   1       2.966  -0.952   0.377  0.00  0.00    -0.057 A 
ENDROOT
BRANCH   1   7
ATOM      7  N   UNL d   1       3.640  -0.930  -1.932  0.00  0.00    -0.732 N 
ATOM      8  C   UNL d   1       3.678   0.506  -2.113  0.00  0.00     0.284 C 
ATOM      9  H3  UNL d   1       4.543  -1.387  -2.038  0.00  0.00     0.395 HD
ENDBRANCH   1   7
TORSDOF 1
ENDMDL
