MODEL 1
REMARK minimizedAffinity 3.32381248
REMARK minimizedRMSD -1
REMARK  1 active torsions:
REMARK  status: ('A' for Active; 'I' for Inactive)
REMARK    1  A    between atoms: N_2  and  C1_3 
ROOT
ATOM      1  C1  UNL d   1       2.985  -0.640  -0.897  0.00  0.00     0.143 A 
ATOM      2  C2  UNL d   1       2.308   0.049   0.115  0.00  0.00    -0.057 A 
ATOM      3  C3  UNL d   1       1.644  -0.636   1.140  0.00  0.00     0.033 A 
ATOM      4  C4  UNL d   1       1.620  -2.026   1.155  0.00  0.00    -0.042 A 
ATOM      5  C5  UNL d   1       2.265  -2.732   0.145  0.00  0.00     0.033 A 
ATOM      6  C6  UNL d   1       2.933  -2.043  -0.872  0.00  0.00    -0.057 A 
ENDROOT
BRANCH   1   7
ATOM      7  N   UNL d   1       3.580  -0.018  -1.997  0.00  0.00    -0.732 N 
ATOM      8  C   UNL d   1       3.340   1.382  -2.272  0.00  0.00     0.284 C 
ATOM      9  H3  UNL d   1       4.546  -0.308  -2.132  0.00  0.00     0.395 HD
ENDBRANCH   1   7
TORSDOF 1
ENDMDL
