MODEL 1
REMARK minimizedAffinity 4.25193071
REMARK minimizedRMSD -1
REMARK  1 active torsions:
REMARK  status: ('A' for Active; 'I' for Inactive)
REMARK    1  A    between atoms: N_2  and  C1_3 
ROOT
ATOM      1  C1  UNL d   1      -1.802   2.534  -1.688  0.00  0.00     0.143 A 
ATOM      2  C2  UNL d   1      -1.631   2.583  -0.300  0.00  0.00    -0.057 A 
ATOM      3  C3  UNL d   1      -2.241   1.643   0.539  0.00  0.00     0.033 A 
ATOM      4  C4  UNL d   1      -3.058   0.651   0.006  0.00  0.00    -0.042 A 
ATOM      5  C5  UNL d   1      -3.262   0.599  -1.368  0.00  0.00     0.033 A 
ATOM      6  C6  UNL d   1      -2.645   1.537  -2.202  0.00  0.00    -0.057 A 
ENDROOT
BRANCH   1   7
ATOM      7  N   UNL d   1      -1.303   3.498  -2.567  0.00  0.00    -0.732 N 
ATOM      8  C   UNL d   1       0.094   3.499  -2.945  0.00  0.00     0.284 C 
ATOM      9  H3  UNL d   1      -1.941   3.691  -3.336  0.00  0.00     0.395 HD
ENDBRANCH   1   7
TORSDOF 1
ENDMDL
