MODEL 1
REMARK minimizedAffinity 4.9127121
REMARK minimizedRMSD -1
REMARK  1 active torsions:
REMARK  status: ('A' for Active; 'I' for Inactive)
REMARK    1  A    between atoms: N_2  and  C1_3 
ROOT
ATOM      1  C1  UNL d   1      -1.879  -1.119   1.754  0.00  0.00     0.143 A 
ATOM      2  C2  UNL d   1      -2.428   0.147   1.525  0.00  0.00    -0.057 A 
ATOM      3  C3  UNL d   1      -3.101   0.443   0.333  0.00  0.00     0.033 A 
ATOM      4  C4  UNL d   1      -3.211  -0.518  -0.667  0.00  0.00    -0.042 A 
ATOM      5  C5  UNL d   1      -2.651  -1.775  -0.472  0.00  0.00     0.033 A 
ATOM      6  C6  UNL d   1      -1.986  -2.066   0.723  0.00  0.00    -0.057 A 
ENDROOT
BRANCH   1   7
ATOM      7  N   UNL d   1      -1.114  -1.444   2.876  0.00  0.00    -0.732 N 
ATOM      8  C   UNL d   1       0.274  -1.828   2.736  0.00  0.00     0.284 C 
ATOM      9  H3  UNL d   1      -1.297  -0.825   3.663  0.00  0.00     0.395 HD
ENDBRANCH   1   7
TORSDOF 1
ENDMDL
