MODEL 1
REMARK minimizedAffinity 4.52524948
REMARK minimizedRMSD -1
REMARK  1 active torsions:
REMARK  status: ('A' for Active; 'I' for Inactive)
REMARK    1  A    between atoms: N_2  and  C1_3 
ROOT
ATOM      1  C1  UNL d   1      -1.918  -1.307   0.240  0.00  0.00     0.143 A 
ATOM      2  C2  UNL d   1      -2.046  -2.559   0.849  0.00  0.00    -0.057 A 
ATOM      3  C3  UNL d   1      -1.388  -2.854   2.049  0.00  0.00     0.033 A 
ATOM      4  C4  UNL d   1      -0.562  -1.908   2.647  0.00  0.00    -0.042 A 
ATOM      5  C5  UNL d   1      -0.400  -0.665   2.046  0.00  0.00     0.033 A 
ATOM      6  C6  UNL d   1      -1.066  -0.374   0.851  0.00  0.00    -0.057 A 
ENDROOT
BRANCH   1   7
ATOM      7  N   UNL d   1      -2.468  -0.986  -1.004  0.00  0.00    -0.732 N 
ATOM      8  C   UNL d   1      -2.572   0.392  -1.431  0.00  0.00     0.284 C 
ATOM      9  H3  UNL d   1      -2.171  -1.627  -1.737  0.00  0.00     0.395 HD
ENDBRANCH   1   7
TORSDOF 1
ENDMDL
