MODEL 1
REMARK minimizedAffinity -1.64102924
REMARK minimizedRMSD -1
REMARK  1 active torsions:
REMARK  status: ('A' for Active; 'I' for Inactive)
REMARK    1  A    between atoms: N_2  and  C1_3 
ROOT
ATOM      1  C1  UNL d   1      -2.208   0.190  -1.543  0.00  0.00     0.143 A 
ATOM      2  C2  UNL d   1      -1.508   0.743  -0.465  0.00  0.00    -0.057 A 
ATOM      3  C3  UNL d   1      -1.245  -0.005   0.690  0.00  0.00     0.033 A 
ATOM      4  C4  UNL d   1      -1.704  -1.313   0.798  0.00  0.00    -0.042 A 
ATOM      5  C5  UNL d   1      -2.423  -1.875  -0.251  0.00  0.00     0.033 A 
ATOM      6  C6  UNL d   1      -2.677  -1.126  -1.404  0.00  0.00    -0.057 A 
ENDROOT
BRANCH   1   7
ATOM      7  N   UNL d   1      -2.586   0.913  -2.677  0.00  0.00    -0.732 N 
ATOM      8  C   UNL d   1      -1.813   2.055  -3.115  0.00  0.00     0.284 C 
ATOM      9  H3  UNL d   1      -2.903   0.311  -3.434  0.00  0.00     0.395 HD
ENDBRANCH   1   7
TORSDOF 1
ENDMDL
