MODEL 1
REMARK minimizedAffinity -0.833692551
REMARK minimizedRMSD -1
REMARK  0 active torsions:
REMARK  status: ('A' for Active; 'I' for Inactive)
ROOT
ATOM      1  C1  DEN d   1      -1.665  -1.071   1.174  0.00  0.00     0.130 A 
ATOM      2  C2  DEN d   1      -1.169  -0.872   2.533  0.00  0.00    -0.031 A 
ATOM      3  C3  DEN d   1       0.126  -0.168   2.448  0.00  0.00     0.027 A 
ATOM      4  C4  DEN d   1       1.402   0.634   0.354  0.00  0.00     0.027 A 
ATOM      5  C5  DEN d   1       1.384   0.681  -1.022  0.00  0.00    -0.003 A 
ATOM      6  C6  DEN d   1       0.373   0.122  -1.758  0.00  0.00     0.001 A 
ATOM      7  C7  DEN d   1      -0.685  -0.469  -1.119  0.00  0.00     0.017 A 
ATOM      8  C8  DEN d   1      -0.670  -0.527   0.268  0.00  0.00    -0.094 A 
ATOM      9  C9  DEN d   1       0.355   0.054   0.995  0.00  0.00    -0.072 A 
ENDROOT
TORSDOF 0
ENDMDL
