MODEL 1
REMARK minimizedAffinity -5.88436127
REMARK minimizedRMSD -1
REMARK  0 active torsions:
REMARK  status: ('A' for Active; 'I' for Inactive)
ROOT
ATOM      1  C1  DEN d   1      -0.280  -0.588   2.820  0.00  0.00     0.130 A 
ATOM      2  C2  DEN d   1      -1.629  -1.128   2.677  0.00  0.00    -0.031 A 
ATOM      3  C3  DEN d   1      -2.102  -0.819   1.313  0.00  0.00     0.027 A 
ATOM      4  C4  DEN d   1      -0.881   0.432  -0.584  0.00  0.00     0.027 A 
ATOM      5  C5  DEN d   1       0.280   1.087  -0.930  0.00  0.00    -0.003 A 
ATOM      6  C6  DEN d   1       1.314   1.259  -0.048  0.00  0.00     0.001 A 
ATOM      7  C7  DEN d   1       1.225   0.729   1.213  0.00  0.00     0.017 A 
ATOM      8  C8  DEN d   1       0.055   0.073   1.572  0.00  0.00    -0.094 A 
ATOM      9  C9  DEN d   1      -0.974  -0.100   0.661  0.00  0.00    -0.072 A 
ENDROOT
TORSDOF 0
ENDMDL
