MODEL 1
REMARK minimizedAffinity -5.15004253
REMARK minimizedRMSD -1
REMARK  0 active torsions:
REMARK  status: ('A' for Active; 'I' for Inactive)
ROOT
ATOM      1  C1  DEN d   1       1.691   0.664   0.155  0.00  0.00     0.130 A 
ATOM      2  C2  DEN d   1       1.175   0.443  -1.193  0.00  0.00    -0.031 A 
ATOM      3  C3  DEN d   1      -0.172  -0.152  -1.074  0.00  0.00     0.027 A 
ATOM      4  C4  DEN d   1      -1.502  -0.745   1.055  0.00  0.00     0.027 A 
ATOM      5  C5  DEN d   1      -1.472  -0.751   2.432  0.00  0.00    -0.003 A 
ATOM      6  C6  DEN d   1      -0.381  -0.321   3.141  0.00  0.00     0.001 A 
ATOM      7  C7  DEN d   1       0.708   0.176   2.475  0.00  0.00     0.017 A 
ATOM      8  C8  DEN d   1       0.688   0.178   1.086  0.00  0.00    -0.094 A 
ATOM      9  C9  DEN d   1      -0.429  -0.249   0.388  0.00  0.00    -0.072 A 
ENDROOT
TORSDOF 0
ENDMDL
