MODEL 1
REMARK minimizedAffinity -3.76637387
REMARK minimizedRMSD -1
REMARK  0 active torsions:
REMARK  status: ('A' for Active; 'I' for Inactive)
ROOT
ATOM      1  C1  DEN d   1      -1.411  -0.938   2.100  0.00  0.00     0.130 A 
ATOM      2  C2  DEN d   1      -0.667  -0.577   3.304  0.00  0.00    -0.031 A 
ATOM      3  C3  DEN d   1       0.621   0.012   2.884  0.00  0.00     0.027 A 
ATOM      4  C4  DEN d   1       1.527   0.403   0.501  0.00  0.00     0.027 A 
ATOM      5  C5  DEN d   1       1.259   0.248  -0.841  0.00  0.00    -0.003 A 
ATOM      6  C6  DEN d   1       0.107  -0.339  -1.293  0.00  0.00     0.001 A 
ATOM      7  C7  DEN d   1      -0.842  -0.752  -0.395  0.00  0.00     0.017 A 
ATOM      8  C8  DEN d   1      -0.575  -0.606   0.961  0.00  0.00    -0.094 A 
ATOM      9  C9  DEN d   1       0.590   0.001   1.397  0.00  0.00    -0.072 A 
ENDROOT
TORSDOF 0
ENDMDL
