MODEL 1
REMARK minimizedAffinity -5.64019394
REMARK minimizedRMSD -1
REMARK  0 active torsions:
REMARK  status: ('A' for Active; 'I' for Inactive)
ROOT
ATOM      1  C1  DEN d   1      -1.221  -1.334   1.611  0.00  0.00     0.130 A 
ATOM      2  C2  DEN d   1      -0.735  -0.710   2.838  0.00  0.00    -0.031 A 
ATOM      3  C3  DEN d   1       0.367   0.206   2.479  0.00  0.00     0.027 A 
ATOM      4  C4  DEN d   1       1.358   0.719   0.154  0.00  0.00     0.027 A 
ATOM      5  C5  DEN d   1       1.282   0.423  -1.189  0.00  0.00    -0.003 A 
ATOM      6  C6  DEN d   1       0.396  -0.497  -1.685  0.00  0.00     0.001 A 
ATOM      7  C7  DEN d   1      -0.480  -1.121  -0.837  0.00  0.00     0.017 A 
ATOM      8  C8  DEN d   1      -0.404  -0.833   0.520  0.00  0.00    -0.094 A 
ATOM      9  C9  DEN d   1       0.490   0.109   1.000  0.00  0.00    -0.072 A 
ENDROOT
TORSDOF 0
ENDMDL
