MODEL 1
REMARK minimizedAffinity -5.04712009
REMARK minimizedRMSD -1
REMARK  0 active torsions:
REMARK  status: ('A' for Active; 'I' for Inactive)
ROOT
ATOM      1  C1  DEN d   1       0.882  -0.561  -1.237  0.00  0.00     0.130 A 
ATOM      2  C2  DEN d   1       0.222   0.111  -2.353  0.00  0.00    -0.031 A 
ATOM      3  C3  DEN d   1      -1.095   0.587  -1.885  0.00  0.00     0.027 A 
ATOM      4  C4  DEN d   1      -2.169   0.356   0.449  0.00  0.00     0.027 A 
ATOM      5  C5  DEN d   1      -1.995  -0.147   1.720  0.00  0.00    -0.003 A 
ATOM      6  C6  DEN d   1      -0.874  -0.846   2.081  0.00  0.00     0.001 A 
ATOM      7  C7  DEN d   1       0.137  -1.023   1.175  0.00  0.00     0.017 A 
ATOM      8  C8  DEN d   1      -0.034  -0.526  -0.111  0.00  0.00    -0.094 A 
ATOM      9  C9  DEN d   1      -1.169   0.189  -0.453  0.00  0.00    -0.072 A 
ENDROOT
TORSDOF 0
ENDMDL
