MODEL 1
REMARK minimizedAffinity -4.00327635
REMARK minimizedRMSD -1
REMARK  0 active torsions:
REMARK  status: ('A' for Active; 'I' for Inactive)
ROOT
ATOM      1  C1  DEN d   1       1.308   0.345   0.305  0.00  0.00     0.130 A 
ATOM      2  C2  DEN d   1       0.731   0.397  -1.036  0.00  0.00    -0.031 A 
ATOM      3  C3  DEN d   1      -0.696   0.031  -0.933  0.00  0.00     0.027 A 
ATOM      4  C4  DEN d   1      -2.062  -0.604   1.161  0.00  0.00     0.027 A 
ATOM      5  C5  DEN d   1      -2.002  -0.799   2.523  0.00  0.00    -0.003 A 
ATOM      6  C6  DEN d   1      -0.838  -0.660   3.231  0.00  0.00     0.001 A 
ATOM      7  C7  DEN d   1       0.307  -0.273   2.585  0.00  0.00     0.017 A 
ATOM      8  C8  DEN d   1       0.257  -0.082   1.210  0.00  0.00    -0.094 A 
ATOM      9  C9  DEN d   1      -0.933  -0.215   0.515  0.00  0.00    -0.072 A 
ENDROOT
TORSDOF 0
ENDMDL
