MODEL 1
REMARK minimizedAffinity -3.99249148
REMARK minimizedRMSD -1
REMARK  0 active torsions:
REMARK  status: ('A' for Active; 'I' for Inactive)
ROOT
ATOM      1  C1  DEN d   1       1.110   0.560  -0.186  0.00  0.00     0.130 A 
ATOM      2  C2  DEN d   1       0.289   0.620  -1.392  0.00  0.00    -0.031 A 
ATOM      3  C3  DEN d   1      -1.078   0.191  -1.035  0.00  0.00     0.027 A 
ATOM      4  C4  DEN d   1      -1.999  -0.554   1.256  0.00  0.00     0.027 A 
ATOM      5  C5  DEN d   1      -1.676  -0.780   2.576  0.00  0.00    -0.003 A 
ATOM      6  C6  DEN d   1      -0.404  -0.609   3.056  0.00  0.00     0.001 A 
ATOM      7  C7  DEN d   1       0.582  -0.157   2.220  0.00  0.00     0.017 A 
ATOM      8  C8  DEN d   1       0.266   0.066   0.886  0.00  0.00    -0.094 A 
ATOM      9  C9  DEN d   1      -1.028  -0.101   0.423  0.00  0.00    -0.072 A 
ENDROOT
TORSDOF 0
ENDMDL
