MODEL 1
REMARK minimizedAffinity -3.80256486
REMARK minimizedRMSD -1
REMARK  0 active torsions:
REMARK  status: ('A' for Active; 'I' for Inactive)
ROOT
ATOM      1  C1  DEN d   1      -1.103  -0.605  -0.773  0.00  0.00     0.130 A 
ATOM      2  C2  DEN d   1      -0.190   0.030  -1.720  0.00  0.00    -0.031 A 
ATOM      3  C3  DEN d   1       0.988   0.509  -0.968  0.00  0.00     0.027 A 
ATOM      4  C4  DEN d   1       1.486   0.325   1.556  0.00  0.00     0.027 A 
ATOM      5  C5  DEN d   1       1.002  -0.121   2.766  0.00  0.00    -0.003 A 
ATOM      6  C6  DEN d   1      -0.222  -0.724   2.886  0.00  0.00     0.001 A 
ATOM      7  C7  DEN d   1      -0.985  -0.938   1.768  0.00  0.00     0.017 A 
ATOM      8  C8  DEN d   1      -0.507  -0.485   0.546  0.00  0.00    -0.094 A 
ATOM      9  C9  DEN d   1       0.738   0.112   0.444  0.00  0.00    -0.072 A 
ENDROOT
TORSDOF 0
ENDMDL
