MODEL 1
REMARK minimizedAffinity -6.65196466
REMARK minimizedRMSD -1
REMARK  0 active torsions:
REMARK  status: ('A' for Active; 'I' for Inactive)
ROOT
ATOM      1  C1  DEN d   1       0.829   0.024   0.884  0.00  0.00     0.130 A 
ATOM      2  C2  DEN d   1       0.255   0.036  -0.458  0.00  0.00    -0.031 A 
ATOM      3  C3  DEN d   1      -1.213  -0.057  -0.328  0.00  0.00     0.027 A 
ATOM      4  C4  DEN d   1      -2.645  -0.212   1.811  0.00  0.00     0.027 A 
ATOM      5  C5  DEN d   1      -2.606  -0.269   3.187  0.00  0.00    -0.003 A 
ATOM      6  C6  DEN d   1      -1.427  -0.266   3.884  0.00  0.00     0.001 A 
ATOM      7  C7  DEN d   1      -0.240  -0.160   3.210  0.00  0.00     0.017 A 
ATOM      8  C8  DEN d   1      -0.271  -0.110   1.822  0.00  0.00    -0.094 A 
ATOM      9  C9  DEN d   1      -1.473  -0.102   1.136  0.00  0.00    -0.072 A 
ENDROOT
TORSDOF 0
ENDMDL
