MODEL 1
REMARK minimizedAffinity -3.6742084
REMARK minimizedRMSD -1
REMARK  0 active torsions:
REMARK  status: ('A' for Active; 'I' for Inactive)
ROOT
ATOM      1  C1  DEN d   1       0.517   1.385   0.763  0.00  0.00     0.130 A 
ATOM      2  C2  DEN d   1       0.707   1.029  -0.640  0.00  0.00    -0.031 A 
ATOM      3  C3  DEN d   1       0.030  -0.261  -0.880  0.00  0.00     0.027 A 
ATOM      4  C4  DEN d   1      -1.291  -1.732   0.775  0.00  0.00     0.027 A 
ATOM      5  C5  DEN d   1      -1.715  -1.851   2.081  0.00  0.00    -0.003 A 
ATOM      6  C6  DEN d   1      -1.398  -0.924   3.038  0.00  0.00     0.001 A 
ATOM      7  C7  DEN d   1      -0.673   0.186   2.695  0.00  0.00     0.017 A 
ATOM      8  C8  DEN d   1      -0.236   0.309   1.382  0.00  0.00    -0.094 A 
ATOM      9  C9  DEN d   1      -0.578  -0.632   0.426  0.00  0.00    -0.072 A 
ENDROOT
TORSDOF 0
ENDMDL
