MODEL 1
REMARK minimizedAffinity -6.44597197
REMARK minimizedRMSD -1
REMARK  0 active torsions:
REMARK  status: ('A' for Active; 'I' for Inactive)
ROOT
ATOM      1  C1  DEN d   1       0.735   0.190   0.632  0.00  0.00     0.130 A 
ATOM      2  C2  DEN d   1       0.317   0.367  -0.756  0.00  0.00    -0.031 A 
ATOM      3  C3  DEN d   1      -1.157   0.467  -0.779  0.00  0.00     0.027 A 
ATOM      4  C4  DEN d   1      -2.820   0.369   1.190  0.00  0.00     0.027 A 
ATOM      5  C5  DEN d   1      -2.938   0.218   2.554  0.00  0.00    -0.003 A 
ATOM      6  C6  DEN d   1      -1.851   0.016   3.362  0.00  0.00     0.001 A 
ATOM      7  C7  DEN d   1      -0.594   0.003   2.819  0.00  0.00     0.017 A 
ATOM      8  C8  DEN d   1      -0.468   0.147   1.443  0.00  0.00    -0.094 A 
ATOM      9  C9  DEN d   1      -1.578   0.363   0.644  0.00  0.00    -0.072 A 
ENDROOT
TORSDOF 0
ENDMDL
