MODEL 1
REMARK minimizedAffinity -4.48344946
REMARK minimizedRMSD -1
REMARK  0 active torsions:
REMARK  status: ('A' for Active; 'I' for Inactive)
ROOT
ATOM      1  C1  DEN d   1       1.144  -0.037   1.796  0.00  0.00     0.130 A 
ATOM      2  C2  DEN d   1       0.417  -0.295   3.036  0.00  0.00    -0.031 A 
ATOM      3  C3  DEN d   1      -1.028  -0.248   2.736  0.00  0.00     0.027 A 
ATOM      4  C4  DEN d   1      -2.204   0.192   0.483  0.00  0.00     0.027 A 
ATOM      5  C5  DEN d   1      -2.006   0.475  -0.850  0.00  0.00    -0.003 A 
ATOM      6  C6  DEN d   1      -0.755   0.640  -1.383  0.00  0.00     0.001 A 
ATOM      7  C7  DEN d   1       0.349   0.477  -0.588  0.00  0.00     0.017 A 
ATOM      8  C8  DEN d   1       0.157   0.199   0.759  0.00  0.00    -0.094 A 
ATOM      9  C9  DEN d   1      -1.116   0.025   1.276  0.00  0.00    -0.072 A 
ENDROOT
TORSDOF 0
ENDMDL
