MODEL 1
REMARK minimizedAffinity -3.00452447
REMARK minimizedRMSD -1
REMARK  0 active torsions:
REMARK  status: ('A' for Active; 'I' for Inactive)
ROOT
ATOM      1  C1  DEN d   1       1.072  -0.222  -1.417  0.00  0.00     0.130 A 
ATOM      2  C2  DEN d   1       0.730   0.904  -2.281  0.00  0.00    -0.031 A 
ATOM      3  C3  DEN d   1      -0.540   1.482  -1.797  0.00  0.00     0.027 A 
ATOM      4  C4  DEN d   1      -2.000   0.747   0.199  0.00  0.00     0.027 A 
ATOM      5  C5  DEN d   1      -2.125  -0.166   1.222  0.00  0.00    -0.003 A 
ATOM      6  C6  DEN d   1      -1.219  -1.175   1.415  0.00  0.00     0.001 A 
ATOM      7  C7  DEN d   1      -0.122  -1.267   0.599  0.00  0.00     0.017 A 
ATOM      8  C8  DEN d   1       0.007  -0.354  -0.439  0.00  0.00    -0.094 A 
ATOM      9  C9  DEN d   1      -0.913   0.666  -0.610  0.00  0.00    -0.072 A 
ENDROOT
TORSDOF 0
ENDMDL
