MODEL 1
REMARK minimizedAffinity -1.31191587
REMARK minimizedRMSD -1
REMARK  0 active torsions:
REMARK  status: ('A' for Active; 'I' for Inactive)
ROOT
ATOM      1  C1  DEN d   1       1.356   0.033   1.109  0.00  0.00     0.130 A 
ATOM      2  C2  DEN d   1       0.768  -0.491   2.338  0.00  0.00    -0.031 A 
ATOM      3  C3  DEN d   1      -0.696  -0.552   2.155  0.00  0.00     0.027 A 
ATOM      4  C4  DEN d   1      -2.102   0.108   0.096  0.00  0.00     0.027 A 
ATOM      5  C5  DEN d   1      -2.049   0.615  -1.184  0.00  0.00    -0.003 A 
ATOM      6  C6  DEN d   1      -0.871   0.992  -1.772  0.00  0.00     0.001 A 
ATOM      7  C7  DEN d   1       0.309   0.826  -1.096  0.00  0.00     0.017 A 
ATOM      8  C8  DEN d   1       0.263   0.322   0.198  0.00  0.00    -0.094 A 
ATOM      9  C9  DEN d   1      -0.937  -0.065   0.770  0.00  0.00    -0.072 A 
ENDROOT
TORSDOF 0
ENDMDL
