MODEL 1
REMARK minimizedAffinity -3.25003529
REMARK minimizedRMSD -1
REMARK  0 active torsions:
REMARK  status: ('A' for Active; 'I' for Inactive)
ROOT
ATOM      1  C1  DEN d   1      -1.466  -0.276   2.590  0.00  0.00     0.130 A 
ATOM      2  C2  DEN d   1      -0.648   0.052   3.754  0.00  0.00    -0.031 A 
ATOM      3  C3  DEN d   1       0.683   0.473   3.272  0.00  0.00     0.027 A 
ATOM      4  C4  DEN d   1       1.550   0.653   0.849  0.00  0.00     0.027 A 
ATOM      5  C5  DEN d   1       1.223   0.470  -0.476  0.00  0.00    -0.003 A 
ATOM      6  C6  DEN d   1      -0.002  -0.003  -0.868  0.00  0.00     0.001 A 
ATOM      7  C7  DEN d   1      -0.960  -0.267   0.075  0.00  0.00     0.017 A 
ATOM      8  C8  DEN d   1      -0.636  -0.092   1.413  0.00  0.00    -0.094 A 
ATOM      9  C9  DEN d   1       0.603   0.399   1.788  0.00  0.00    -0.072 A 
ENDROOT
TORSDOF 0
ENDMDL
