MODEL 1
REMARK minimizedAffinity -4.39553642
REMARK minimizedRMSD -1
REMARK  0 active torsions:
REMARK  status: ('A' for Active; 'I' for Inactive)
ROOT
ATOM      1  C1  BNZ d   1      -0.187  -1.301   2.055  0.00  0.00     0.000 A 
ATOM      2  C2  BNZ d   1      -0.752  -0.660   3.124  0.00  0.00     0.000 A 
ATOM      3  C3  BNZ d   1      -2.059  -0.260   3.090  0.00  0.00     0.000 A 
ATOM      4  C4  BNZ d   1      -2.786  -0.464   1.972  0.00  0.00     0.000 A 
ATOM      5  C5  BNZ d   1      -2.227  -1.101   0.882  0.00  0.00     0.000 A 
ATOM      6  C6  BNZ d   1      -0.923  -1.537   0.935  0.00  0.00     0.000 A 
ENDROOT
TORSDOF 0
ENDMDL
