MODEL 1
REMARK minimizedAffinity -1.1535002
REMARK minimizedRMSD -1
REMARK  0 active torsions:
REMARK  status: ('A' for Active; 'I' for Inactive)
ROOT
ATOM      1  C1  BNZ d   1      -3.595   2.524  -2.754  0.00  0.00     0.000 A 
ATOM      2  C2  BNZ d   1      -3.461   2.650  -4.111  0.00  0.00     0.000 A 
ATOM      3  C3  BNZ d   1      -3.290   3.877  -4.687  0.00  0.00     0.000 A 
ATOM      4  C4  BNZ d   1      -3.294   4.980  -3.911  0.00  0.00     0.000 A 
ATOM      5  C5  BNZ d   1      -3.438   4.871  -2.542  0.00  0.00     0.000 A 
ATOM      6  C6  BNZ d   1      -3.571   3.631  -1.962  0.00  0.00     0.000 A 
ENDROOT
TORSDOF 0
ENDMDL
