MODEL 1
REMARK minimizedAffinity 0.369869351
REMARK minimizedRMSD -1
REMARK  0 active torsions:
REMARK  status: ('A' for Active; 'I' for Inactive)
ROOT
ATOM      1  C1  BNZ d   1       0.378  -1.890   1.991  0.00  0.00     0.000 A 
ATOM      2  C2  BNZ d   1       1.546  -2.356   1.447  0.00  0.00     0.000 A 
ATOM      3  C3  BNZ d   1       1.700  -2.445   0.091  0.00  0.00     0.000 A 
ATOM      4  C4  BNZ d   1       0.674  -2.107  -0.716  0.00  0.00     0.000 A 
ATOM      5  C5  BNZ d   1      -0.513  -1.645  -0.183  0.00  0.00     0.000 A 
ATOM      6  C6  BNZ d   1      -0.651  -1.520   1.181  0.00  0.00     0.000 A 
ENDROOT
TORSDOF 0
ENDMDL
