MODEL 1
REMARK minimizedAffinity -0.0759172961
REMARK minimizedRMSD -1
REMARK  0 active torsions:
REMARK  status: ('A' for Active; 'I' for Inactive)
ROOT
ATOM      1  C1  BNZ d   1      -3.133   2.812  -2.610  0.00  0.00     0.000 A 
ATOM      2  C2  BNZ d   1      -2.553   3.325  -3.739  0.00  0.00     0.000 A 
ATOM      3  C3  BNZ d   1      -2.882   4.573  -4.191  0.00  0.00     0.000 A 
ATOM      4  C4  BNZ d   1      -3.820   5.288  -3.536  0.00  0.00     0.000 A 
ATOM      5  C5  BNZ d   1      -4.421   4.781  -2.402  0.00  0.00     0.000 A 
ATOM      6  C6  BNZ d   1      -4.058   3.541  -1.928  0.00  0.00     0.000 A 
ENDROOT
TORSDOF 0
ENDMDL
