MODEL 1
REMARK minimizedAffinity -3.83879066
REMARK minimizedRMSD -1
REMARK  0 active torsions:
REMARK  status: ('A' for Active; 'I' for Inactive)
ROOT
ATOM      1  C1  BNZ d   1      -2.273   1.294  -2.459  0.00  0.00     0.000 A 
ATOM      2  C2  BNZ d   1      -3.096   1.913  -3.361  0.00  0.00     0.000 A 
ATOM      3  C3  BNZ d   1      -2.980   3.252  -3.610  0.00  0.00     0.000 A 
ATOM      4  C4  BNZ d   1      -2.070   3.977  -2.928  0.00  0.00     0.000 A 
ATOM      5  C5  BNZ d   1      -1.239   3.369  -2.008  0.00  0.00     0.000 A 
ATOM      6  C6  BNZ d   1      -1.332   2.013  -1.789  0.00  0.00     0.000 A 
ENDROOT
TORSDOF 0
ENDMDL
