MODEL 1
REMARK minimizedAffinity -4.69016838
REMARK minimizedRMSD -1
REMARK  2 active torsions:
REMARK  status: ('A' for Active; 'I' for Inactive)
REMARK    1  A    between atoms: C1_2  and  C2_3 
REMARK    2  A    between atoms: C2_3  and  C3_4 
ROOT
ATOM      1  C3  UNL d   1      -0.768  -0.140   0.352  0.00  0.00    -0.075 A 
ATOM      2  C4  UNL d   1      -1.643  -1.082   0.913  0.00  0.00     0.002 A 
ATOM      3  C5  UNL d   1      -1.551  -1.419   2.263  0.00  0.00     0.002 A 
ATOM      4  C6  UNL d   1      -0.579  -0.827   3.067  0.00  0.00    -0.004 A 
ATOM      5  C7  UNL d   1       0.306   0.098   2.518  0.00  0.00     0.002 A 
ATOM      6  C8  UNL d   1       0.213   0.440   1.167  0.00  0.00     0.002 A 
ENDROOT
BRANCH   1   7
ATOM      7  C2  UNL d   1      -0.881   0.251  -1.102  0.00  0.00     0.056 C 
BRANCH   7   8
ATOM      8  C1  UNL d   1       0.356  -0.094  -1.938  0.00  0.00     0.007 C 
ATOM      9  C   UNL d   1       0.087  -1.152  -3.000  0.00  0.00     0.009 C 
ENDBRANCH   7   8
ENDBRANCH   1   7
TORSDOF 2
ENDMDL
