MODEL 1
REMARK minimizedAffinity -4.77600718
REMARK minimizedRMSD -1
REMARK  2 active torsions:
REMARK  status: ('A' for Active; 'I' for Inactive)
REMARK    1  A    between atoms: C1_2  and  C2_3 
REMARK    2  A    between atoms: C2_3  and  C3_4 
ROOT
ATOM      1  C3  UNL d   1       0.119   0.331  -0.213  0.00  0.00    -0.075 A 
ATOM      2  C4  UNL d   1      -0.859  -0.322   0.551  0.00  0.00     0.002 A 
ATOM      3  C5  UNL d   1      -0.696  -0.477   1.928  0.00  0.00     0.002 A 
ATOM      4  C6  UNL d   1       0.449   0.009   2.556  0.00  0.00    -0.004 A 
ATOM      5  C7  UNL d   1       1.434   0.645   1.805  0.00  0.00     0.002 A 
ATOM      6  C8  UNL d   1       1.272   0.805   0.427  0.00  0.00     0.002 A 
ENDROOT
BRANCH   1   7
ATOM      7  C2  UNL d   1      -0.065   0.528  -1.699  0.00  0.00     0.056 C 
BRANCH   7   8
ATOM      8  C1  UNL d   1       0.859  -0.337  -2.561  0.00  0.00     0.007 C 
ATOM      9  C   UNL d   1       0.106  -1.305  -3.464  0.00  0.00     0.009 C 
ENDBRANCH   7   8
ENDBRANCH   1   7
TORSDOF 2
ENDMDL
