MODEL 1
REMARK minimizedAffinity -4.85141039
REMARK minimizedRMSD -1
REMARK  2 active torsions:
REMARK  status: ('A' for Active; 'I' for Inactive)
REMARK    1  A    between atoms: C1_2  and  C2_3 
REMARK    2  A    between atoms: C2_3  and  C3_4 
ROOT
ATOM      1  C3  UNL d   1      -0.030  -0.086  -0.221  0.00  0.00    -0.075 A 
ATOM      2  C4  UNL d   1       1.103   0.200   0.554  0.00  0.00     0.002 A 
ATOM      3  C5  UNL d   1       1.083   0.004   1.936  0.00  0.00     0.002 A 
ATOM      4  C6  UNL d   1      -0.069  -0.469   2.559  0.00  0.00    -0.004 A 
ATOM      5  C7  UNL d   1      -1.206  -0.741   1.801  0.00  0.00     0.002 A 
ATOM      6  C8  UNL d   1      -1.188  -0.550   0.418  0.00  0.00     0.002 A 
ENDROOT
BRANCH   1   7
ATOM      7  C2  UNL d   1      -0.007   0.096  -1.720  0.00  0.00     0.056 C 
BRANCH   7   8
ATOM      8  C1  UNL d   1       1.150  -0.628  -2.418  0.00  0.00     0.007 C 
ATOM      9  C   UNL d   1       0.687  -1.733  -3.358  0.00  0.00     0.009 C 
ENDBRANCH   7   8
ENDBRANCH   1   7
TORSDOF 2
ENDMDL
