MODEL 1
REMARK minimizedAffinity -4.8826685
REMARK minimizedRMSD -1
REMARK  2 active torsions:
REMARK  status: ('A' for Active; 'I' for Inactive)
REMARK    1  A    between atoms: C1_2  and  C2_3 
REMARK    2  A    between atoms: C2_3  and  C3_4 
ROOT
ATOM      1  C3  UNL d   1      -0.182  -0.046   1.396  0.00  0.00    -0.075 A 
ATOM      2  C4  UNL d   1      -1.292  -0.257   0.566  0.00  0.00     0.002 A 
ATOM      3  C5  UNL d   1      -1.183  -0.103  -0.816  0.00  0.00     0.002 A 
ATOM      4  C6  UNL d   1       0.032   0.272  -1.385  0.00  0.00    -0.004 A 
ATOM      5  C7  UNL d   1       1.138   0.501  -0.569  0.00  0.00     0.002 A 
ATOM      6  C8  UNL d   1       1.033   0.343   0.814  0.00  0.00     0.002 A 
ENDROOT
BRANCH   1   7
ATOM      7  C2  UNL d   1      -0.285  -0.240   2.890  0.00  0.00     0.056 C 
BRANCH   7   8
ATOM      8  C1  UNL d   1      -1.010  -1.525   3.303  0.00  0.00     0.007 C 
ATOM      9  C   UNL d   1      -2.007  -1.314   4.435  0.00  0.00     0.009 C 
ENDBRANCH   7   8
ENDBRANCH   1   7
TORSDOF 2
ENDMDL
