MODEL 1
REMARK minimizedAffinity -3.11418867
REMARK minimizedRMSD -1
REMARK  2 active torsions:
REMARK  status: ('A' for Active; 'I' for Inactive)
REMARK    1  A    between atoms: C1_2  and  C2_3 
REMARK    2  A    between atoms: C2_3  and  C3_4 
ROOT
ATOM      1  C3  UNL d   1       0.126   0.065  -0.354  0.00  0.00    -0.075 A 
ATOM      2  C4  UNL d   1       0.944   0.961   0.350  0.00  0.00     0.002 A 
ATOM      3  C5  UNL d   1       0.970   0.949   1.745  0.00  0.00     0.002 A 
ATOM      4  C6  UNL d   1       0.174   0.051   2.452  0.00  0.00    -0.004 A 
ATOM      5  C7  UNL d   1      -0.654  -0.833   1.763  0.00  0.00     0.002 A 
ATOM      6  C8  UNL d   1      -0.679  -0.826   0.367  0.00  0.00     0.002 A 
ENDROOT
BRANCH   1   7
ATOM      7  C2  UNL d   1       0.115   0.052  -1.864  0.00  0.00     0.056 C 
BRANCH   7   8
ATOM      8  C1  UNL d   1       0.427  -1.317  -2.479  0.00  0.00     0.007 C 
ATOM      9  C   UNL d   1       1.616  -1.292  -3.429  0.00  0.00     0.009 C 
ENDBRANCH   7   8
ENDBRANCH   1   7
TORSDOF 2
ENDMDL
