MODEL 1
REMARK minimizedAffinity -4.4417243
REMARK minimizedRMSD -1
REMARK  2 active torsions:
REMARK  status: ('A' for Active; 'I' for Inactive)
REMARK    1  A    between atoms: C1_2  and  C2_3 
REMARK    2  A    between atoms: C2_3  and  C3_4 
ROOT
ATOM      1  C3  UNL d   1      -0.194   0.034  -0.220  0.00  0.00    -0.075 A 
ATOM      2  C4  UNL d   1      -1.185  -0.651   0.498  0.00  0.00     0.002 A 
ATOM      3  C5  UNL d   1      -1.135  -0.715   1.891  0.00  0.00     0.002 A 
ATOM      4  C6  UNL d   1      -0.090  -0.104   2.582  0.00  0.00    -0.004 A 
ATOM      5  C7  UNL d   1       0.909   0.565   1.878  0.00  0.00     0.002 A 
ATOM      6  C8  UNL d   1       0.858   0.634   0.484  0.00  0.00     0.002 A 
ENDROOT
BRANCH   1   7
ATOM      7  C2  UNL d   1      -0.259   0.132  -1.725  0.00  0.00     0.056 C 
BRANCH   7   8
ATOM      8  C1  UNL d   1       0.761  -0.750  -2.452  0.00  0.00     0.007 C 
ATOM      9  C   UNL d   1       0.119  -1.762  -3.392  0.00  0.00     0.009 C 
ENDBRANCH   7   8
ENDBRANCH   1   7
TORSDOF 2
ENDMDL
