MODEL 1
REMARK minimizedAffinity -6.82035112
REMARK minimizedRMSD -1
REMARK  2 active torsions:
REMARK  status: ('A' for Active; 'I' for Inactive)
REMARK    1  A    between atoms: C1_2  and  C2_3 
REMARK    2  A    between atoms: C2_3  and  C3_4 
ROOT
ATOM      1  C3  UNL d   1      -0.106   0.122  -0.019  0.00  0.00    -0.075 A 
ATOM      2  C4  UNL d   1      -1.201  -0.233   0.782  0.00  0.00     0.002 A 
ATOM      3  C5  UNL d   1      -1.009  -0.660   2.096  0.00  0.00     0.002 A 
ATOM      4  C6  UNL d   1       0.278  -0.746   2.622  0.00  0.00    -0.004 A 
ATOM      5  C7  UNL d   1       1.374  -0.411   1.830  0.00  0.00     0.002 A 
ATOM      6  C8  UNL d   1       1.184   0.020   0.516  0.00  0.00     0.002 A 
ENDROOT
BRANCH   1   7
ATOM      7  C2  UNL d   1      -0.310   0.613  -1.433  0.00  0.00     0.056 C 
BRANCH   7   8
ATOM      8  C1  UNL d   1       0.848   0.284  -2.380  0.00  0.00     0.007 C 
ATOM      9  C   UNL d   1       0.756  -1.114  -2.978  0.00  0.00     0.009 C 
ENDBRANCH   7   8
ENDBRANCH   1   7
TORSDOF 2
ENDMDL
