MODEL 1
REMARK minimizedAffinity -2.64428639
REMARK minimizedRMSD -1
REMARK  2 active torsions:
REMARK  status: ('A' for Active; 'I' for Inactive)
REMARK    1  A    between atoms: C1_2  and  C2_3 
REMARK    2  A    between atoms: C2_3  and  C3_4 
ROOT
ATOM      1  C3  UNL d   1      -0.615   0.291   1.659  0.00  0.00    -0.075 A 
ATOM      2  C4  UNL d   1       0.559   0.328   0.894  0.00  0.00     0.002 A 
ATOM      3  C5  UNL d   1       0.499   0.270  -0.499  0.00  0.00     0.002 A 
ATOM      4  C6  UNL d   1      -0.732   0.164  -1.142  0.00  0.00    -0.004 A 
ATOM      5  C7  UNL d   1      -1.904   0.110  -0.391  0.00  0.00     0.002 A 
ATOM      6  C8  UNL d   1      -1.847   0.172   1.003  0.00  0.00     0.002 A 
ENDROOT
BRANCH   1   7
ATOM      7  C2  UNL d   1      -0.559   0.383   3.165  0.00  0.00     0.056 C 
BRANCH   7   8
ATOM      8  C1  UNL d   1       0.325   1.521   3.688  0.00  0.00     0.007 C 
ATOM      9  C   UNL d   1      -0.472   2.685   4.262  0.00  0.00     0.009 C 
ENDBRANCH   7   8
ENDBRANCH   1   7
TORSDOF 2
ENDMDL
