MODEL 1
REMARK minimizedAffinity -6.11980391
REMARK minimizedRMSD -1
REMARK  2 active torsions:
REMARK  status: ('A' for Active; 'I' for Inactive)
REMARK    1  A    between atoms: C1_2  and  C2_3 
REMARK    2  A    between atoms: C2_3  and  C3_4 
ROOT
ATOM      1  C3  UNL d   1      -0.312  -0.397   0.955  0.00  0.00    -0.075 A 
ATOM      2  C4  UNL d   1      -1.651  -0.164   0.611  0.00  0.00     0.002 A 
ATOM      3  C5  UNL d   1      -2.615   0.023   1.603  0.00  0.00     0.002 A 
ATOM      4  C6  UNL d   1      -2.255  -0.032   2.947  0.00  0.00    -0.004 A 
ATOM      5  C7  UNL d   1      -0.930  -0.280   3.300  0.00  0.00     0.002 A 
ATOM      6  C8  UNL d   1       0.037  -0.463   2.310  0.00  0.00     0.002 A 
ENDROOT
BRANCH   1   7
ATOM      7  C2  UNL d   1       0.741  -0.570  -0.113  0.00  0.00     0.056 C 
BRANCH   7   8
ATOM      8  C1  UNL d   1       0.242  -0.284  -1.534  0.00  0.00     0.007 C 
ATOM      9  C   UNL d   1       0.882  -1.178  -2.587  0.00  0.00     0.009 C 
ENDBRANCH   7   8
ENDBRANCH   1   7
TORSDOF 2
ENDMDL
