MODEL 1
REMARK minimizedAffinity -3.93197751
REMARK minimizedRMSD -1
REMARK  2 active torsions:
REMARK  status: ('A' for Active; 'I' for Inactive)
REMARK    1  A    between atoms: C1_2  and  C2_3 
REMARK    2  A    between atoms: C2_3  and  C3_4 
ROOT
ATOM      1  C3  UNL d   1      -0.025   0.220  -0.732  0.00  0.00    -0.075 A 
ATOM      2  C4  UNL d   1      -1.178  -0.003   0.034  0.00  0.00     0.002 A 
ATOM      3  C5  UNL d   1      -1.089  -0.171   1.416  0.00  0.00     0.002 A 
ATOM      4  C6  UNL d   1       0.153  -0.130   2.047  0.00  0.00    -0.004 A 
ATOM      5  C7  UNL d   1       1.307   0.074   1.294  0.00  0.00     0.002 A 
ATOM      6  C8  UNL d   1       1.220   0.247  -0.089  0.00  0.00     0.002 A 
ENDROOT
BRANCH   1   7
ATOM      7  C2  UNL d   1      -0.118   0.432  -2.224  0.00  0.00     0.056 C 
BRANCH   7   8
ATOM      8  C1  UNL d   1       0.889  -0.390  -3.036  0.00  0.00     0.007 C 
ATOM      9  C   UNL d   1       0.228  -1.378  -3.988  0.00  0.00     0.009 C 
ENDBRANCH   7   8
ENDBRANCH   1   7
TORSDOF 2
ENDMDL
