MODEL 1
REMARK minimizedAffinity -5.27370548
REMARK minimizedRMSD -1
REMARK  2 active torsions:
REMARK  status: ('A' for Active; 'I' for Inactive)
REMARK    1  A    between atoms: C1_2  and  C2_3 
REMARK    2  A    between atoms: C2_3  and  C3_4 
ROOT
ATOM      1  C3  UNL d   1       0.206  -0.175  -0.297  0.00  0.00    -0.075 A 
ATOM      2  C4  UNL d   1       1.158   0.189   0.667  0.00  0.00     0.002 A 
ATOM      3  C5  UNL d   1       0.898   0.002   2.025  0.00  0.00     0.002 A 
ATOM      4  C6  UNL d   1      -0.317  -0.540   2.437  0.00  0.00    -0.004 A 
ATOM      5  C7  UNL d   1      -1.276  -0.890   1.489  0.00  0.00     0.002 A 
ATOM      6  C8  UNL d   1      -1.018  -0.708   0.129  0.00  0.00     0.002 A 
ENDROOT
BRANCH   1   7
ATOM      7  C2  UNL d   1       0.493  -0.002  -1.769  0.00  0.00     0.056 C 
BRANCH   7   8
ATOM      8  C1  UNL d   1       0.703  -1.320  -2.522  0.00  0.00     0.007 C 
ATOM      9  C   UNL d   1       1.293  -1.129  -3.913  0.00  0.00     0.009 C 
ENDBRANCH   7   8
ENDBRANCH   1   7
TORSDOF 2
ENDMDL
