MODEL 1
REMARK minimizedAffinity 5.16333246
REMARK minimizedRMSD -1
REMARK  2 active torsions:
REMARK  status: ('A' for Active; 'I' for Inactive)
REMARK    1  A    between atoms: C2'_3  and  C1'_4 
REMARK    2  A    between atoms: C1'_4  and  C1_5 
ROOT
ATOM      1  C1  I4B d   1       2.776   1.079  -3.767  0.00  0.00    -0.075 A 
ATOM      2  C2  I4B d   1       2.774   0.389  -2.581  0.00  0.00     0.003 A 
ATOM      3  C3  I4B d   1       1.568  -0.151  -2.072  0.00  0.00     0.002 A 
ATOM      4  C4  I4B d   1       0.387   0.066  -2.751  0.00  0.00    -0.004 A 
ATOM      5  C5  I4B d   1       0.394   0.747  -3.965  0.00  0.00     0.002 A 
ATOM      6  C6  I4B d   1       1.598   1.246  -4.483  0.00  0.00     0.003 A 
ENDROOT
BRANCH   1   7
ATOM      7  C1' I4B d   1       4.062   1.663  -4.259  0.00  0.00     0.060 C 
BRANCH   7   8
ATOM      8  C2' I4B d   1       4.993   0.518  -4.605  0.00  0.00    -0.013 C 
ATOM      9  C4' I4B d   1       5.668   0.747  -5.932  0.00  0.00     0.013 C 
ATOM     10  C3' I4B d   1       5.998   0.389  -3.501  0.00  0.00     0.013 C 
ENDBRANCH   7   8
ENDBRANCH   1   7
TORSDOF 2
ENDMDL
