MODEL 1
REMARK minimizedAffinity 15.4282799
REMARK minimizedRMSD -1
REMARK  2 active torsions:
REMARK  status: ('A' for Active; 'I' for Inactive)
REMARK    1  A    between atoms: C2'_3  and  C1'_4 
REMARK    2  A    between atoms: C1'_4  and  C1_5 
ROOT
ATOM      1  C1  I4B d   1      -3.219   3.792   4.101  0.00  0.00    -0.075 A 
ATOM      2  C2  I4B d   1      -4.180   3.555   5.053  0.00  0.00     0.003 A 
ATOM      3  C3  I4B d   1      -4.507   4.555   6.000  0.00  0.00     0.002 A 
ATOM      4  C4  I4B d   1      -3.819   5.751   5.991  0.00  0.00    -0.004 A 
ATOM      5  C5  I4B d   1      -2.861   5.999   5.011  0.00  0.00     0.002 A 
ATOM      6  C6  I4B d   1      -2.568   5.018   4.052  0.00  0.00     0.003 A 
ENDROOT
BRANCH   1   7
ATOM      7  C1' I4B d   1      -2.876   2.702   3.137  0.00  0.00     0.060 C 
BRANCH   7   8
ATOM      8  C2' I4B d   1      -3.756   1.509   3.448  0.00  0.00    -0.013 C 
ATOM      9  C4' I4B d   1      -5.136   1.684   2.871  0.00  0.00     0.013 C 
ATOM     10  C3' I4B d   1      -3.090   0.285   2.894  0.00  0.00     0.013 C 
ENDBRANCH   7   8
ENDBRANCH   1   7
TORSDOF 2
ENDMDL
