MODEL 1
REMARK minimizedAffinity 13.5574265
REMARK minimizedRMSD -1
REMARK  2 active torsions:
REMARK  status: ('A' for Active; 'I' for Inactive)
REMARK    1  A    between atoms: C2'_3  and  C1'_4 
REMARK    2  A    between atoms: C1'_4  and  C1_5 
ROOT
ATOM      1  C1  I4B d   1      -0.183   0.834  -1.639  0.00  0.00    -0.075 A 
ATOM      2  C2  I4B d   1       0.081   0.469  -2.936  0.00  0.00     0.003 A 
ATOM      3  C3  I4B d   1       1.417   0.400  -3.399  0.00  0.00     0.002 A 
ATOM      4  C4  I4B d   1       2.449   0.751  -2.552  0.00  0.00    -0.004 A 
ATOM      5  C5  I4B d   1       2.180   1.099  -1.232  0.00  0.00     0.002 A 
ATOM      6  C6  I4B d   1       0.857   1.129  -0.768  0.00  0.00     0.003 A 
ENDROOT
BRANCH   1   7
ATOM      7  C1' I4B d   1      -1.608   0.928  -1.193  0.00  0.00     0.060 C 
BRANCH   7   8
ATOM      8  C2' I4B d   1      -1.841  -0.141  -0.145  0.00  0.00    -0.013 C 
ATOM      9  C4' I4B d   1      -2.177   0.468   1.190  0.00  0.00     0.013 C 
ATOM     10  C3' I4B d   1      -2.947  -1.030  -0.629  0.00  0.00     0.013 C 
ENDBRANCH   7   8
ENDBRANCH   1   7
TORSDOF 2
ENDMDL
