MODEL 1
REMARK minimizedAffinity 11.277276
REMARK minimizedRMSD -1
REMARK  2 active torsions:
REMARK  status: ('A' for Active; 'I' for Inactive)
REMARK    1  A    between atoms: C2'_3  and  C1'_4 
REMARK    2  A    between atoms: C1'_4  and  C1_5 
ROOT
ATOM      1  C1  I4B d   1      -2.817   3.750   4.326  0.00  0.00    -0.075 A 
ATOM      2  C2  I4B d   1      -1.946   4.804   4.451  0.00  0.00     0.003 A 
ATOM      3  C3  I4B d   1      -2.306   5.939   5.217  0.00  0.00     0.002 A 
ATOM      4  C4  I4B d   1      -3.557   6.000   5.796  0.00  0.00    -0.004 A 
ATOM      5  C5  I4B d   1      -4.430   4.921   5.688  0.00  0.00     0.002 A 
ATOM      6  C6  I4B d   1      -4.053   3.783   4.959  0.00  0.00     0.003 A 
ENDROOT
BRANCH   1   7
ATOM      7  C1' I4B d   1      -2.418   2.581   3.482  0.00  0.00     0.060 C 
BRANCH   7   8
ATOM      8  C2' I4B d   1      -3.592   1.625   3.424  0.00  0.00    -0.013 C 
ATOM      9  C4' I4B d   1      -4.505   1.952   2.271  0.00  0.00     0.013 C 
ATOM     10  C3' I4B d   1      -3.050   0.232   3.307  0.00  0.00     0.013 C 
ENDBRANCH   7   8
ENDBRANCH   1   7
TORSDOF 2
ENDMDL
