MODEL 1
REMARK minimizedAffinity 11.2266045
REMARK minimizedRMSD -1
REMARK  2 active torsions:
REMARK  status: ('A' for Active; 'I' for Inactive)
REMARK    1  A    between atoms: C2'_3  and  C1'_4 
REMARK    2  A    between atoms: C1'_4  and  C1_5 
ROOT
ATOM      1  C1  I4B d   1       1.611   0.431  -3.349  0.00  0.00    -0.075 A 
ATOM      2  C2  I4B d   1       0.776   0.231  -4.420  0.00  0.00     0.003 A 
ATOM      3  C3  I4B d   1       1.085   0.798  -5.680  0.00  0.00     0.002 A 
ATOM      4  C4  I4B d   1       2.205   1.593  -5.811  0.00  0.00    -0.004 A 
ATOM      5  C5  I4B d   1       3.062   1.776  -4.730  0.00  0.00     0.002 A 
ATOM      6  C6  I4B d   1       2.770   1.181  -3.494  0.00  0.00     0.003 A 
ENDROOT
BRANCH   1   7
ATOM      7  C1' I4B d   1       1.236  -0.154  -2.024  0.00  0.00     0.060 C 
BRANCH   7   8
ATOM      8  C2' I4B d   1       0.420   0.877  -1.272  0.00  0.00    -0.013 C 
ATOM      9  C4' I4B d   1       0.355   2.178  -2.028  0.00  0.00     0.013 C 
ATOM     10  C3' I4B d   1      -0.951   0.311  -1.050  0.00  0.00     0.013 C 
ENDBRANCH   7   8
ENDBRANCH   1   7
TORSDOF 2
ENDMDL
