MODEL 1
REMARK minimizedAffinity 2.25265908
REMARK minimizedRMSD -1
REMARK  2 active torsions:
REMARK  status: ('A' for Active; 'I' for Inactive)
REMARK    1  A    between atoms: C2'_3  and  C1'_4 
REMARK    2  A    between atoms: C1'_4  and  C1_5 
ROOT
ATOM      1  C1  I4B d   1       1.835   0.960  -3.331  0.00  0.00    -0.075 A 
ATOM      2  C2  I4B d   1       2.588   2.084  -3.102  0.00  0.00     0.003 A 
ATOM      3  C3  I4B d   1       2.804   3.021  -4.142  0.00  0.00     0.002 A 
ATOM      4  C4  I4B d   1       2.295   2.770  -5.400  0.00  0.00    -0.004 A 
ATOM      5  C5  I4B d   1       1.513   1.641  -5.624  0.00  0.00     0.002 A 
ATOM      6  C6  I4B d   1       1.271   0.736  -4.581  0.00  0.00     0.003 A 
ENDROOT
BRANCH   1   7
ATOM      7  C1' I4B d   1       1.655  -0.025  -2.220  0.00  0.00     0.060 C 
BRANCH   7   8
ATOM      8  C2' I4B d   1       0.954   0.683  -1.078  0.00  0.00    -0.013 C 
ATOM      9  C4' I4B d   1       1.708   1.916  -0.657  0.00  0.00     0.013 C 
ATOM     10  C3' I4B d   1      -0.435   1.025  -1.528  0.00  0.00     0.013 C 
ENDBRANCH   7   8
ENDBRANCH   1   7
TORSDOF 2
ENDMDL
