MODEL 1
REMARK minimizedAffinity 12.9372549
REMARK minimizedRMSD -1
REMARK  2 active torsions:
REMARK  status: ('A' for Active; 'I' for Inactive)
REMARK    1  A    between atoms: C2'_3  and  C1'_4 
REMARK    2  A    between atoms: C1'_4  and  C1_5 
ROOT
ATOM      1  C1  I4B d   1       2.178  -3.698  -0.927  0.00  0.00    -0.075 A 
ATOM      2  C2  I4B d   1       1.226  -3.557  -1.905  0.00  0.00     0.003 A 
ATOM      3  C3  I4B d   1       1.182  -2.381  -2.692  0.00  0.00     0.002 A 
ATOM      4  C4  I4B d   1       2.072  -1.358  -2.436  0.00  0.00    -0.004 A 
ATOM      5  C5  I4B d   1       3.051  -1.512  -1.459  0.00  0.00     0.002 A 
ATOM      6  C6  I4B d   1       3.113  -2.695  -0.708  0.00  0.00     0.003 A 
ENDROOT
BRANCH   1   7
ATOM      7  C1' I4B d   1       2.175  -4.939  -0.092  0.00  0.00     0.060 C 
BRANCH   7   8
ATOM      8  C2' I4B d   1       1.139  -4.764   1.000  0.00  0.00    -0.013 C 
ATOM      9  C4' I4B d   1      -0.019  -5.708   0.809  0.00  0.00     0.013 C 
ATOM     10  C3' I4B d   1       1.814  -4.995   2.320  0.00  0.00     0.013 C 
ENDBRANCH   7   8
ENDBRANCH   1   7
TORSDOF 2
ENDMDL
