MODEL 1
REMARK minimizedAffinity 14.0903206
REMARK minimizedRMSD -1
REMARK  2 active torsions:
REMARK  status: ('A' for Active; 'I' for Inactive)
REMARK    1  A    between atoms: C2'_3  and  C1'_4 
REMARK    2  A    between atoms: C1'_4  and  C1_5 
ROOT
ATOM      1  C1  I4B d   1      -2.925   3.916   4.240  0.00  0.00    -0.075 A 
ATOM      2  C2  I4B d   1      -4.154   3.965   4.849  0.00  0.00     0.003 A 
ATOM      3  C3  I4B d   1      -4.474   5.031   5.724  0.00  0.00     0.002 A 
ATOM      4  C4  I4B d   1      -3.524   5.993   6.000  0.00  0.00    -0.004 A 
ATOM      5  C5  I4B d   1      -2.286   5.954   5.364  0.00  0.00     0.002 A 
ATOM      6  C6  I4B d   1      -1.989   4.916   4.469  0.00  0.00     0.003 A 
ENDROOT
BRANCH   1   7
ATOM      7  C1' I4B d   1      -2.608   2.758   3.348  0.00  0.00     0.060 C 
BRANCH   7   8
ATOM      8  C2' I4B d   1      -3.806   1.830   3.344  0.00  0.00    -0.013 C 
ATOM      9  C4' I4B d   1      -4.828   2.264   2.327  0.00  0.00     0.013 C 
ATOM     10  C3' I4B d   1      -3.315   0.442   3.060  0.00  0.00     0.013 C 
ENDBRANCH   7   8
ENDBRANCH   1   7
TORSDOF 2
ENDMDL
