MODEL 1
REMARK minimizedAffinity 13.4664421
REMARK minimizedRMSD -1
REMARK  2 active torsions:
REMARK  status: ('A' for Active; 'I' for Inactive)
REMARK    1  A    between atoms: C2'_3  and  C1'_4 
REMARK    2  A    between atoms: C1'_4  and  C1_5 
ROOT
ATOM      1  C1  I4B d   1       2.034   3.275  -3.648  0.00  0.00    -0.075 A 
ATOM      2  C2  I4B d   1       1.124   3.278  -4.676  0.00  0.00     0.003 A 
ATOM      3  C3  I4B d   1       0.281   2.160  -4.884  0.00  0.00     0.002 A 
ATOM      4  C4  I4B d   1       0.415   1.048  -4.079  0.00  0.00    -0.004 A 
ATOM      5  C5  I4B d   1       1.323   1.056  -3.023  0.00  0.00     0.002 A 
ATOM      6  C6  I4B d   1       2.129   2.181  -2.798  0.00  0.00     0.003 A 
ENDROOT
BRANCH   1   7
ATOM      7  C1' I4B d   1       2.932   4.460  -3.477  0.00  0.00     0.060 C 
BRANCH   7   8
ATOM      8  C2' I4B d   1       3.229   4.610  -1.999  0.00  0.00    -0.013 C 
ATOM      9  C4' I4B d   1       4.697   4.851  -1.760  0.00  0.00     0.013 C 
ATOM     10  C3' I4B d   1       2.402   5.745  -1.473  0.00  0.00     0.013 C 
ENDBRANCH   7   8
ENDBRANCH   1   7
TORSDOF 2
ENDMDL
