MODEL 1
REMARK minimizedAffinity 19.2038364
REMARK minimizedRMSD -1
REMARK  2 active torsions:
REMARK  status: ('A' for Active; 'I' for Inactive)
REMARK    1  A    between atoms: C2'_3  and  C1'_4 
REMARK    2  A    between atoms: C1'_4  and  C1_5 
ROOT
ATOM      1  C1  I4B d   1       3.050   1.617  -2.784  0.00  0.00    -0.075 A 
ATOM      2  C2  I4B d   1       2.248   1.529  -3.895  0.00  0.00     0.003 A 
ATOM      3  C3  I4B d   1       1.250   0.527  -3.976  0.00  0.00     0.002 A 
ATOM      4  C4  I4B d   1       1.123  -0.390  -2.952  0.00  0.00    -0.004 A 
ATOM      5  C5  I4B d   1       1.921  -0.284  -1.817  0.00  0.00     0.002 A 
ATOM      6  C6  I4B d   1       2.882   0.733  -1.726  0.00  0.00     0.003 A 
ENDROOT
BRANCH   1   7
ATOM      7  C1' I4B d   1       4.115   2.667  -2.746  0.00  0.00     0.060 C 
BRANCH   7   8
ATOM      8  C2' I4B d   1       3.474   3.967  -2.307  0.00  0.00    -0.013 C 
ATOM      9  C4' I4B d   1       2.711   3.791  -1.020  0.00  0.00     0.013 C 
ATOM     10  C3' I4B d   1       4.560   4.991  -2.157  0.00  0.00     0.013 C 
ENDBRANCH   7   8
ENDBRANCH   1   7
TORSDOF 2
ENDMDL
