MODEL 1
REMARK minimizedAffinity 9.9149189
REMARK minimizedRMSD -1
REMARK  2 active torsions:
REMARK  status: ('A' for Active; 'I' for Inactive)
REMARK    1  A    between atoms: C2'_3  and  C1'_4 
REMARK    2  A    between atoms: C1'_4  and  C1_5 
ROOT
ATOM      1  C1  I4B d   1       1.104  -0.009  -2.994  0.00  0.00    -0.075 A 
ATOM      2  C2  I4B d   1       0.650   0.880  -2.052  0.00  0.00     0.003 A 
ATOM      3  C3  I4B d   1      -0.028   2.057  -2.450  0.00  0.00     0.002 A 
ATOM      4  C4  I4B d   1      -0.184   2.329  -3.794  0.00  0.00    -0.004 A 
ATOM      5  C5  I4B d   1       0.257   1.416  -4.748  0.00  0.00     0.002 A 
ATOM      6  C6  I4B d   1       0.894   0.233  -4.345  0.00  0.00     0.003 A 
ENDROOT
BRANCH   1   7
ATOM      7  C1' I4B d   1       1.845  -1.226  -2.539  0.00  0.00     0.060 C 
BRANCH   7   8
ATOM      8  C2' I4B d   1       0.826  -2.249  -2.079  0.00  0.00    -0.013 C 
ATOM      9  C4' I4B d   1       0.276  -3.031  -3.242  0.00  0.00     0.013 C 
ATOM     10  C3' I4B d   1       1.492  -3.152  -1.085  0.00  0.00     0.013 C 
ENDBRANCH   7   8
ENDBRANCH   1   7
TORSDOF 2
ENDMDL
