MODEL 1
REMARK minimizedAffinity 13.7555113
REMARK minimizedRMSD -1
REMARK  2 active torsions:
REMARK  status: ('A' for Active; 'I' for Inactive)
REMARK    1  A    between atoms: C2'_3  and  C1'_4 
REMARK    2  A    between atoms: C1'_4  and  C1_5 
ROOT
ATOM      1  C1  I4B d   1       0.655   1.037  -3.352  0.00  0.00    -0.075 A 
ATOM      2  C2  I4B d   1      -0.267   0.097  -3.739  0.00  0.00     0.003 A 
ATOM      3  C3  I4B d   1      -0.691   0.028  -5.088  0.00  0.00     0.002 A 
ATOM      4  C4  I4B d   1      -0.208   0.945  -6.000  0.00  0.00    -0.004 A 
ATOM      5  C5  I4B d   1       0.744   1.883  -5.611  0.00  0.00     0.002 A 
ATOM      6  C6  I4B d   1       1.188   1.922  -4.281  0.00  0.00     0.003 A 
ENDROOT
BRANCH   1   7
ATOM      7  C1' I4B d   1       1.056   1.103  -1.912  0.00  0.00     0.060 C 
BRANCH   7   8
ATOM      8  C2' I4B d   1       2.183   2.109  -1.787  0.00  0.00    -0.013 C 
ATOM      9  C4' I4B d   1       1.843   3.187  -0.791  0.00  0.00     0.013 C 
ATOM     10  C3' I4B d   1       3.422   1.368  -1.381  0.00  0.00     0.013 C 
ENDBRANCH   7   8
ENDBRANCH   1   7
TORSDOF 2
ENDMDL
