MODEL 1
REMARK minimizedAffinity -4.33682537
REMARK minimizedRMSD -1
REMARK  0 active torsions:
REMARK  status: ('A' for Active; 'I' for Inactive)
ROOT
ATOM      1  C2' OXE d   1       1.643   1.433   0.861  0.00  0.00     0.078 C 
ATOM      2  C1' OXE d   1      -0.104  -0.237  -0.566  0.00  0.00     0.078 C 
ATOM      3  C1  OXE d   1      -0.261  -0.172   0.932  0.00  0.00    -0.078 A 
ATOM      4  C2  OXE d   1       0.628   0.612   1.627  0.00  0.00    -0.078 A 
ATOM      5  C3  OXE d   1       0.493   0.751   3.006  0.00  0.00     0.003 A 
ATOM      6  C4  OXE d   1      -0.442  -0.019   3.708  0.00  0.00    -0.002 A 
ATOM      7  C5  OXE d   1      -1.331  -0.854   3.023  0.00  0.00    -0.002 A 
ATOM      8  C6  OXE d   1      -1.282  -0.909   1.634  0.00  0.00     0.003 A 
ENDROOT
TORSDOF 0
ENDMDL
