MODEL 1
REMARK minimizedAffinity 0.980508029
REMARK minimizedRMSD -1
REMARK  0 active torsions:
REMARK  status: ('A' for Active; 'I' for Inactive)
ROOT
ATOM      1  C2' OXE d   1       1.104   1.214   0.250  0.00  0.00     0.078 C 
ATOM      2  C1' OXE d   1       0.394   1.552   2.945  0.00  0.00     0.078 C 
ATOM      3  C1  OXE d   1      -0.195   0.377   2.205  0.00  0.00    -0.078 A 
ATOM      4  C2  OXE d   1       0.121   0.246   0.874  0.00  0.00    -0.078 A 
ATOM      5  C3  OXE d   1      -0.351  -0.850   0.158  0.00  0.00     0.003 A 
ATOM      6  C4  OXE d   1      -1.267  -1.735   0.740  0.00  0.00    -0.002 A 
ATOM      7  C5  OXE d   1      -1.633  -1.597   2.083  0.00  0.00    -0.002 A 
ATOM      8  C6  OXE d   1      -1.074  -0.573   2.840  0.00  0.00     0.003 A 
ENDROOT
TORSDOF 0
ENDMDL
