MODEL 1
REMARK minimizedAffinity -4.68431139
REMARK minimizedRMSD -1
REMARK  0 active torsions:
REMARK  status: ('A' for Active; 'I' for Inactive)
ROOT
ATOM      1  C2' OXE d   1       2.293   1.016   0.703  0.00  0.00     0.078 C 
ATOM      2  C1' OXE d   1       0.446   0.169  -1.233  0.00  0.00     0.078 C 
ATOM      3  C1  OXE d   1       0.083  -0.027   0.218  0.00  0.00    -0.078 A 
ATOM      4  C2  OXE d   1       1.013   0.347   1.158  0.00  0.00    -0.078 A 
ATOM      5  C3  OXE d   1       0.707   0.239   2.511  0.00  0.00     0.003 A 
ATOM      6  C4  OXE d   1      -0.474  -0.390   2.923  0.00  0.00    -0.002 A 
ATOM      7  C5  OXE d   1      -1.417  -0.815   1.981  0.00  0.00    -0.002 A 
ATOM      8  C6  OXE d   1      -1.173  -0.603   0.629  0.00  0.00     0.003 A 
ENDROOT
TORSDOF 0
ENDMDL
