MODEL 1
REMARK minimizedAffinity 0.983977139
REMARK minimizedRMSD -1
REMARK  0 active torsions:
REMARK  status: ('A' for Active; 'I' for Inactive)
ROOT
ATOM      1  C2' OXE d   1      -1.726   0.035  -0.348  0.00  0.00     0.078 C 
ATOM      2  C1' OXE d   1       0.886   1.062  -0.347  0.00  0.00     0.078 C 
ATOM      3  C1  OXE d   1       0.562  -0.036  -1.329  0.00  0.00    -0.078 A 
ATOM      4  C2  OXE d   1      -0.705  -0.565  -1.290  0.00  0.00    -0.078 A 
ATOM      5  C3  OXE d   1      -1.073  -1.542  -2.211  0.00  0.00     0.003 A 
ATOM      6  C4  OXE d   1      -0.120  -2.098  -3.073  0.00  0.00    -0.002 A 
ATOM      7  C5  OXE d   1       1.188  -1.601  -3.101  0.00  0.00    -0.002 A 
ATOM      8  C6  OXE d   1       1.533  -0.543  -2.267  0.00  0.00     0.003 A 
ENDROOT
TORSDOF 0
ENDMDL
