MODEL 1
REMARK minimizedAffinity -4.30604458
REMARK minimizedRMSD -1
REMARK  0 active torsions:
REMARK  status: ('A' for Active; 'I' for Inactive)
ROOT
ATOM      1  C2' OXE d   1       0.803   0.836  -0.518  0.00  0.00     0.078 C 
ATOM      2  C1' OXE d   1      -1.993   0.850  -0.772  0.00  0.00     0.078 C 
ATOM      3  C1  OXE d   1      -1.413   0.830   0.620  0.00  0.00    -0.078 A 
ATOM      4  C2  OXE d   1      -0.044   0.777   0.734  0.00  0.00    -0.078 A 
ATOM      5  C3  OXE d   1       0.544   0.812   1.995  0.00  0.00     0.003 A 
ATOM      6  C4  OXE d   1      -0.247   0.746   3.149  0.00  0.00    -0.002 A 
ATOM      7  C5  OXE d   1      -1.642   0.760   3.054  0.00  0.00    -0.002 A 
ATOM      8  C6  OXE d   1      -2.240   0.845   1.801  0.00  0.00     0.003 A 
ENDROOT
TORSDOF 0
ENDMDL
