MODEL 1
REMARK minimizedAffinity -5.45697117
REMARK minimizedRMSD -1
REMARK  0 active torsions:
REMARK  status: ('A' for Active; 'I' for Inactive)
ROOT
ATOM      1  C2' OXE d   1      -2.412  -0.645   0.092  0.00  0.00     0.078 C 
ATOM      2  C1' OXE d   1      -0.243   0.705  -1.071  0.00  0.00     0.078 C 
ATOM      3  C1  OXE d   1      -0.127   0.305   0.379  0.00  0.00    -0.078 A 
ATOM      4  C2  OXE d   1      -1.212  -0.313   0.953  0.00  0.00    -0.078 A 
ATOM      5  C3  OXE d   1      -1.137  -0.751   2.272  0.00  0.00     0.003 A 
ATOM      6  C4  OXE d   1      -0.028  -0.431   3.064  0.00  0.00    -0.002 A 
ATOM      7  C5  OXE d   1       1.072   0.233   2.510  0.00  0.00    -0.002 A 
ATOM      8  C6  OXE d   1       1.056   0.570   1.161  0.00  0.00     0.003 A 
ENDROOT
TORSDOF 0
ENDMDL
