MODEL 1
REMARK minimizedAffinity -4.93399429
REMARK minimizedRMSD -1
REMARK  0 active torsions:
REMARK  status: ('A' for Active; 'I' for Inactive)
ROOT
ATOM      1  C2' OXE d   1      -0.344   0.755  -1.063  0.00  0.00     0.078 C 
ATOM      2  C1' OXE d   1      -2.614   0.077   0.442  0.00  0.00     0.078 C 
ATOM      3  C1  OXE d   1      -1.267  -0.033   1.112  0.00  0.00    -0.078 A 
ATOM      4  C2  OXE d   1      -0.158   0.255   0.354  0.00  0.00    -0.078 A 
ATOM      5  C3  OXE d   1       1.104   0.222   0.938  0.00  0.00     0.003 A 
ATOM      6  C4  OXE d   1       1.268  -0.251   2.246  0.00  0.00    -0.002 A 
ATOM      7  C5  OXE d   1       0.155  -0.588   3.023  0.00  0.00    -0.002 A 
ATOM      8  C6  OXE d   1      -1.120  -0.445   2.486  0.00  0.00     0.003 A 
ENDROOT
TORSDOF 0
ENDMDL
