MODEL 1
REMARK minimizedAffinity -4.72027874
REMARK minimizedRMSD -1
REMARK  0 active torsions:
REMARK  status: ('A' for Active; 'I' for Inactive)
ROOT
ATOM      1  C2' OXE d   1       2.194   0.740   0.741  0.00  0.00     0.078 C 
ATOM      2  C1' OXE d   1       0.915   0.372   3.213  0.00  0.00     0.078 C 
ATOM      3  C1  OXE d   1       0.049   0.489   1.984  0.00  0.00    -0.078 A 
ATOM      4  C2  OXE d   1       0.681   0.716   0.785  0.00  0.00    -0.078 A 
ATOM      5  C3  OXE d   1      -0.067   0.777  -0.388  0.00  0.00     0.003 A 
ATOM      6  C4  OXE d   1      -1.466   0.763  -0.337  0.00  0.00    -0.002 A 
ATOM      7  C5  OXE d   1      -2.131   0.573   0.879  0.00  0.00    -0.002 A 
ATOM      8  C6  OXE d   1      -1.388   0.392   2.040  0.00  0.00     0.003 A 
ENDROOT
TORSDOF 0
ENDMDL
