MODEL 1
REMARK minimizedAffinity 0.703424454
REMARK minimizedRMSD -1
REMARK  0 active torsions:
REMARK  status: ('A' for Active; 'I' for Inactive)
ROOT
ATOM      1  C2' OXE d   1      -3.117   0.616   0.851  0.00  0.00     0.078 C 
ATOM      2  C1' OXE d   1      -1.153  -1.087   1.912  0.00  0.00     0.078 C 
ATOM      3  C1  OXE d   1      -0.861  -0.409   0.597  0.00  0.00    -0.078 A 
ATOM      4  C2  OXE d   1      -1.846   0.386   0.062  0.00  0.00    -0.078 A 
ATOM      5  C3  OXE d   1      -1.606   1.078  -1.121  0.00  0.00     0.003 A 
ATOM      6  C4  OXE d   1      -0.432   0.852  -1.850  0.00  0.00    -0.002 A 
ATOM      7  C5  OXE d   1       0.568   0.015  -1.343  0.00  0.00    -0.002 A 
ATOM      8  C6  OXE d   1       0.388  -0.588  -0.103  0.00  0.00     0.003 A 
ENDROOT
TORSDOF 0
ENDMDL
