MODEL 1
REMARK minimizedAffinity -4.61207771
REMARK minimizedRMSD -1
REMARK  0 active torsions:
REMARK  status: ('A' for Active; 'I' for Inactive)
ROOT
ATOM      1  C2' OXE d   1       2.658   0.607   1.684  0.00  0.00     0.078 C 
ATOM      2  C1' OXE d   1       0.175   0.442   2.982  0.00  0.00     0.078 C 
ATOM      3  C1  OXE d   1       0.183   0.421   1.474  0.00  0.00    -0.078 A 
ATOM      4  C2  OXE d   1       1.399   0.549   0.847  0.00  0.00    -0.078 A 
ATOM      5  C3  OXE d   1       1.469   0.481  -0.542  0.00  0.00     0.003 A 
ATOM      6  C4  OXE d   1       0.299   0.437  -1.309  0.00  0.00    -0.002 A 
ATOM      7  C5  OXE d   1      -0.953   0.346  -0.691  0.00  0.00    -0.002 A 
ATOM      8  C6  OXE d   1      -1.025   0.294   0.697  0.00  0.00     0.003 A 
ENDROOT
TORSDOF 0
ENDMDL
