MODEL 1
REMARK minimizedAffinity -0.465951115
REMARK minimizedRMSD -1
REMARK  0 active torsions:
REMARK  status: ('A' for Active; 'I' for Inactive)
ROOT
ATOM      1  C2' OXE d   1      -1.687  -1.566   0.447  0.00  0.00     0.078 C 
ATOM      2  C1' OXE d   1      -0.273   0.795  -0.105  0.00  0.00     0.078 C 
ATOM      3  C1  OXE d   1      -0.695   0.545   1.321  0.00  0.00    -0.078 A 
ATOM      4  C2  OXE d   1      -1.427  -0.590   1.574  0.00  0.00    -0.078 A 
ATOM      5  C3  OXE d   1      -1.795  -0.896   2.881  0.00  0.00     0.003 A 
ATOM      6  C4  OXE d   1      -1.559   0.017   3.916  0.00  0.00    -0.002 A 
ATOM      7  C5  OXE d   1      -0.850   1.198   3.673  0.00  0.00    -0.002 A 
ATOM      8  C6  OXE d   1      -0.375   1.456   2.392  0.00  0.00     0.003 A 
ENDROOT
TORSDOF 0
ENDMDL
