MODEL 1
REMARK minimizedAffinity -4.87840271
REMARK minimizedRMSD -1
REMARK  0 active torsions:
REMARK  status: ('A' for Active; 'I' for Inactive)
ROOT
ATOM      1  C2' OXE d   1       0.506   0.270   0.272  0.00  0.00     0.078 C 
ATOM      2  C1' OXE d   1       0.807   0.914   2.988  0.00  0.00     0.078 C 
ATOM      3  C1  OXE d   1      -0.404   0.110   2.586  0.00  0.00    -0.078 A 
ATOM      4  C2  OXE d   1      -0.568  -0.160   1.249  0.00  0.00    -0.078 A 
ATOM      5  C3  OXE d   1      -1.639  -0.945   0.830  0.00  0.00     0.003 A 
ATOM      6  C4  OXE d   1      -2.632  -1.330   1.738  0.00  0.00    -0.002 A 
ATOM      7  C5  OXE d   1      -2.505  -1.031   3.099  0.00  0.00    -0.002 A 
ATOM      8  C6  OXE d   1      -1.378  -0.350   3.544  0.00  0.00     0.003 A 
ENDROOT
TORSDOF 0
ENDMDL
