MODEL 1
REMARK minimizedAffinity -3.54207349
REMARK minimizedRMSD -1
REMARK  0 active torsions:
REMARK  status: ('A' for Active; 'I' for Inactive)
ROOT
ATOM      1  C2' OXE d   1      -1.863  -0.064   0.455  0.00  0.00     0.078 C 
ATOM      2  C1' OXE d   1       0.255   0.462  -1.310  0.00  0.00     0.078 C 
ATOM      3  C1  OXE d   1       0.477   0.735   0.157  0.00  0.00    -0.078 A 
ATOM      4  C2  OXE d   1      -0.581   0.519   1.007  0.00  0.00    -0.078 A 
ATOM      5  C3  OXE d   1      -0.413   0.703   2.377  0.00  0.00     0.003 A 
ATOM      6  C4  OXE d   1       0.773   1.252   2.878  0.00  0.00    -0.002 A 
ATOM      7  C5  OXE d   1       1.849   1.517   2.024  0.00  0.00    -0.002 A 
ATOM      8  C6  OXE d   1       1.733   1.225   0.670  0.00  0.00     0.003 A 
ENDROOT
TORSDOF 0
ENDMDL
