MODEL 1
REMARK minimizedAffinity -4.38217163
REMARK minimizedRMSD -1
REMARK  0 active torsions:
REMARK  status: ('A' for Active; 'I' for Inactive)
ROOT
ATOM      1  C2' OXE d   1      -0.300  -0.605  -0.456  0.00  0.00     0.078 C 
ATOM      2  C1' OXE d   1      -2.971   0.248  -0.319  0.00  0.00     0.078 C 
ATOM      3  C1  OXE d   1      -2.229   0.045   0.979  0.00  0.00    -0.078 A 
ATOM      4  C2  OXE d   1      -0.937  -0.417   0.903  0.00  0.00    -0.078 A 
ATOM      5  C3  OXE d   1      -0.190  -0.569   2.068  0.00  0.00     0.003 A 
ATOM      6  C4  OXE d   1      -0.791  -0.402   3.322  0.00  0.00    -0.002 A 
ATOM      7  C5  OXE d   1      -2.117   0.030   3.422  0.00  0.00    -0.002 A 
ATOM      8  C6  OXE d   1      -2.836   0.299   2.262  0.00  0.00     0.003 A 
ENDROOT
TORSDOF 0
ENDMDL
