MODEL 1
REMARK minimizedAffinity -1.78815198
REMARK minimizedRMSD -1
REMARK  0 active torsions:
REMARK  status: ('A' for Active; 'I' for Inactive)
ROOT
ATOM      1  C2' OXE d   1      -1.388  -1.907  -2.616  0.00  0.00     0.078 C 
ATOM      2  C1' OXE d   1       0.097  -4.010  -1.499  0.00  0.00     0.078 C 
ATOM      3  C1  OXE d   1       0.854  -2.819  -2.030  0.00  0.00    -0.078 A 
ATOM      4  C2  OXE d   1       0.122  -1.815  -2.617  0.00  0.00    -0.078 A 
ATOM      5  C3  OXE d   1       0.766  -0.669  -3.073  0.00  0.00     0.003 A 
ATOM      6  C4  OXE d   1       2.164  -0.596  -3.079  0.00  0.00    -0.002 A 
ATOM      7  C5  OXE d   1       2.931  -1.624  -2.522  0.00  0.00    -0.002 A 
ATOM      8  C6  OXE d   1       2.291  -2.721  -1.956  0.00  0.00     0.003 A 
ENDROOT
TORSDOF 0
ENDMDL
