MODEL 1
REMARK minimizedAffinity -6.00578165
REMARK minimizedRMSD -1
REMARK  0 active torsions:
REMARK  status: ('A' for Active; 'I' for Inactive)
ROOT
ATOM      1  C2' OXE d   1       0.368   0.354  -1.182  0.00  0.00     0.078 C 
ATOM      2  C1' OXE d   1      -2.377   0.572  -0.635  0.00  0.00     0.078 C 
ATOM      3  C1  OXE d   1      -1.446   0.326   0.526  0.00  0.00    -0.078 A 
ATOM      4  C2  OXE d   1      -0.110   0.174   0.243  0.00  0.00    -0.078 A 
ATOM      5  C3  OXE d   1       0.799   0.001   1.283  0.00  0.00     0.003 A 
ATOM      6  C4  OXE d   1       0.349  -0.174   2.597  0.00  0.00    -0.002 A 
ATOM      7  C5  OXE d   1      -1.012  -0.063   2.901  0.00  0.00    -0.002 A 
ATOM      8  C6  OXE d   1      -1.916   0.229   1.886  0.00  0.00     0.003 A 
ENDROOT
TORSDOF 0
ENDMDL
