MODEL 1
REMARK minimizedAffinity 6.71163702
REMARK minimizedRMSD -1
REMARK  0 active torsions:
REMARK  status: ('A' for Active; 'I' for Inactive)
ROOT
ATOM      1  C   UNL d   1      -3.080  -0.023   2.452  0.00  0.00     0.078 C 
ATOM      2  C1  UNL d   1      -3.736  -0.865   1.399  0.00  0.00    -0.077 A 
ATOM      3  C2  UNL d   1      -4.987  -1.452   1.621  0.00  0.00    -0.001 A 
ATOM      4  C3  UNL d   1      -5.582  -2.241   0.635  0.00  0.00     0.003 A 
ATOM      5  C4  UNL d   1      -4.931  -2.452  -0.579  0.00  0.00    -0.005 A 
ATOM      6  C5  UNL d   1      -3.685  -1.873  -0.808  0.00  0.00     0.003 A 
ATOM      7  C6  UNL d   1      -3.089  -1.084   0.176  0.00  0.00    -0.001 A 
ENDROOT
TORSDOF 0
ENDMDL
