MODEL 1
REMARK minimizedAffinity 1.66971374
REMARK minimizedRMSD -1
REMARK  0 active torsions:
REMARK  status: ('A' for Active; 'I' for Inactive)
ROOT
ATOM      1  C   UNL d   1       5.653   5.315   5.819  0.00  0.00     0.078 C 
ATOM      2  C1  UNL d   1       5.243   5.311   4.377  0.00  0.00    -0.077 A 
ATOM      3  C2  UNL d   1       4.102   6.000   3.950  0.00  0.00    -0.001 A 
ATOM      4  C3  UNL d   1       3.726   5.979   2.605  0.00  0.00     0.003 A 
ATOM      5  C4  UNL d   1       4.486   5.270   1.677  0.00  0.00    -0.005 A 
ATOM      6  C5  UNL d   1       5.622   4.579   2.093  0.00  0.00     0.003 A 
ATOM      7  C6  UNL d   1       5.999   4.599   3.437  0.00  0.00    -0.001 A 
ENDROOT
TORSDOF 0
ENDMDL
