MODEL 1
REMARK minimizedAffinity -3.18410707
REMARK minimizedRMSD -1
REMARK  0 active torsions:
REMARK  status: ('A' for Active; 'I' for Inactive)
ROOT
ATOM      1  C   UNL d   1       6.000  -2.251   5.848  0.00  0.00     0.078 C 
ATOM      2  C1  UNL d   1       5.374  -3.561   5.475  0.00  0.00    -0.077 A 
ATOM      3  C2  UNL d   1       5.977  -4.775   5.827  0.00  0.00    -0.001 A 
ATOM      4  C3  UNL d   1       5.388  -5.987   5.466  0.00  0.00     0.003 A 
ATOM      5  C4  UNL d   1       4.193  -5.998   4.749  0.00  0.00    -0.005 A 
ATOM      6  C5  UNL d   1       3.586  -4.796   4.392  0.00  0.00     0.003 A 
ATOM      7  C6  UNL d   1       4.174  -3.582   4.753  0.00  0.00    -0.001 A 
ENDROOT
TORSDOF 0
ENDMDL
