MODEL 1
REMARK minimizedAffinity 0.323545814
REMARK minimizedRMSD -1
REMARK  0 active torsions:
REMARK  status: ('A' for Active; 'I' for Inactive)
ROOT
ATOM      1  C   UNL d   1       5.742   5.153   5.481  0.00  0.00     0.078 C 
ATOM      2  C1  UNL d   1       5.301   5.191   4.048  0.00  0.00    -0.077 A 
ATOM      3  C2  UNL d   1       6.000   4.488   3.059  0.00  0.00    -0.001 A 
ATOM      4  C3  UNL d   1       5.583   4.540   1.728  0.00  0.00     0.003 A 
ATOM      5  C4  UNL d   1       4.467   5.295   1.373  0.00  0.00    -0.005 A 
ATOM      6  C5  UNL d   1       3.767   6.000   2.350  0.00  0.00     0.003 A 
ATOM      7  C6  UNL d   1       4.182   5.949   3.681  0.00  0.00    -0.001 A 
ENDROOT
TORSDOF 0
ENDMDL
