MODEL 1
REMARK minimizedAffinity -0.440634608
REMARK minimizedRMSD -1
REMARK  0 active torsions:
REMARK  status: ('A' for Active; 'I' for Inactive)
ROOT
ATOM      1  C   UNL d   1       5.893   5.042   5.239  0.00  0.00     0.078 C 
ATOM      2  C1  UNL d   1       5.468   5.063   3.801  0.00  0.00    -0.077 A 
ATOM      3  C2  UNL d   1       4.536   5.999   3.338  0.00  0.00    -0.001 A 
ATOM      4  C3  UNL d   1       4.142   6.000   1.999  0.00  0.00     0.003 A 
ATOM      5  C4  UNL d   1       4.675   5.066   1.112  0.00  0.00    -0.005 A 
ATOM      6  C5  UNL d   1       5.602   4.130   1.564  0.00  0.00     0.003 A 
ATOM      7  C6  UNL d   1       5.997   4.127   2.903  0.00  0.00    -0.001 A 
ENDROOT
TORSDOF 0
ENDMDL
