MODEL 1
REMARK minimizedAffinity 8.81461525
REMARK minimizedRMSD -1
REMARK  0 active torsions:
REMARK  status: ('A' for Active; 'I' for Inactive)
ROOT
ATOM      1  C   UNL d   1      -3.215   5.237   2.327  0.00  0.00     0.078 C 
ATOM      2  C1  UNL d   1      -2.313   5.248   1.129  0.00  0.00    -0.077 A 
ATOM      3  C2  UNL d   1      -1.126   5.991   1.127  0.00  0.00    -0.001 A 
ATOM      4  C3  UNL d   1      -0.301   6.000   0.001  0.00  0.00     0.003 A 
ATOM      5  C4  UNL d   1      -0.655   5.269  -1.132  0.00  0.00    -0.005 A 
ATOM      6  C5  UNL d   1      -1.835   4.529  -1.140  0.00  0.00     0.003 A 
ATOM      7  C6  UNL d   1      -2.662   4.518  -0.015  0.00  0.00    -0.001 A 
ENDROOT
TORSDOF 0
ENDMDL
