MODEL 1
REMARK minimizedAffinity 0.97711122
REMARK minimizedRMSD -1
REMARK  0 active torsions:
REMARK  status: ('A' for Active; 'I' for Inactive)
ROOT
ATOM      1  C   UNL d   1      -2.126   0.020   0.345  0.00  0.00     0.078 C 
ATOM      2  C1  UNL d   1      -2.269   1.002   1.470  0.00  0.00    -0.077 A 
ATOM      3  C2  UNL d   1      -2.962   2.206   1.293  0.00  0.00    -0.001 A 
ATOM      4  C3  UNL d   1      -3.078   3.115   2.345  0.00  0.00     0.003 A 
ATOM      5  C4  UNL d   1      -2.503   2.830   3.582  0.00  0.00    -0.005 A 
ATOM      6  C5  UNL d   1      -1.809   1.636   3.767  0.00  0.00     0.003 A 
ATOM      7  C6  UNL d   1      -1.692   0.726   2.716  0.00  0.00    -0.001 A 
ENDROOT
TORSDOF 0
ENDMDL
