MODEL 1
REMARK minimizedAffinity 7.53444004
REMARK minimizedRMSD -1
REMARK  0 active torsions:
REMARK  status: ('A' for Active; 'I' for Inactive)
ROOT
ATOM      1  C   UNL d   1      -1.998  -0.588  -0.195  0.00  0.00     0.078 C 
ATOM      2  C1  UNL d   1      -0.827  -0.925  -1.069  0.00  0.00    -0.077 A 
ATOM      3  C2  UNL d   1      -0.689  -2.200  -1.631  0.00  0.00    -0.001 A 
ATOM      4  C3  UNL d   1       0.412  -2.502  -2.434  0.00  0.00     0.003 A 
ATOM      5  C4  UNL d   1       1.384  -1.534  -2.682  0.00  0.00    -0.005 A 
ATOM      6  C5  UNL d   1       1.256  -0.263  -2.126  0.00  0.00     0.003 A 
ATOM      7  C6  UNL d   1       0.156   0.041  -1.322  0.00  0.00    -0.001 A 
ENDROOT
TORSDOF 0
ENDMDL
