MODEL 1
REMARK minimizedAffinity 5.15838909
REMARK minimizedRMSD -1
REMARK  0 active torsions:
REMARK  status: ('A' for Active; 'I' for Inactive)
ROOT
ATOM      1  C   UNL d   1      -2.163  -0.777  -0.316  0.00  0.00     0.078 C 
ATOM      2  C1  UNL d   1      -2.200  -0.211   1.072  0.00  0.00    -0.077 A 
ATOM      3  C2  UNL d   1      -1.136   0.553   1.568  0.00  0.00    -0.001 A 
ATOM      4  C3  UNL d   1      -1.179   1.065   2.866  0.00  0.00     0.003 A 
ATOM      5  C4  UNL d   1      -2.284   0.818   3.679  0.00  0.00    -0.005 A 
ATOM      6  C5  UNL d   1      -3.346   0.057   3.195  0.00  0.00     0.003 A 
ATOM      7  C6  UNL d   1      -3.304  -0.456   1.898  0.00  0.00    -0.001 A 
ENDROOT
TORSDOF 0
ENDMDL
