MODEL 1
REMARK minimizedAffinity 10.2837467
REMARK minimizedRMSD -1
REMARK  0 active torsions:
REMARK  status: ('A' for Active; 'I' for Inactive)
ROOT
ATOM      1  C   UNL d   1      -2.576  -0.453  -0.528  0.00  0.00     0.078 C 
ATOM      2  C1  UNL d   1      -2.734   0.212   0.806  0.00  0.00    -0.077 A 
ATOM      3  C2  UNL d   1      -3.768   1.127   1.038  0.00  0.00    -0.001 A 
ATOM      4  C3  UNL d   1      -3.898   1.746   2.282  0.00  0.00     0.003 A 
ATOM      5  C4  UNL d   1      -2.996   1.457   3.304  0.00  0.00    -0.005 A 
ATOM      6  C5  UNL d   1      -1.962   0.550   3.083  0.00  0.00     0.003 A 
ATOM      7  C6  UNL d   1      -1.831  -0.070   1.839  0.00  0.00    -0.001 A 
ENDROOT
TORSDOF 0
ENDMDL
