MODEL 1
REMARK minimizedAffinity 4.91683912
REMARK minimizedRMSD -1
REMARK  0 active torsions:
REMARK  status: ('A' for Active; 'I' for Inactive)
ROOT
ATOM      1  C   UNL d   1       3.778   4.476  -1.590  0.00  0.00     0.078 C 
ATOM      2  C1  UNL d   1       4.241   4.975  -0.254  0.00  0.00    -0.077 A 
ATOM      3  C2  UNL d   1       5.584   4.872   0.128  0.00  0.00    -0.001 A 
ATOM      4  C3  UNL d   1       6.000   5.332   1.379  0.00  0.00     0.003 A 
ATOM      5  C4  UNL d   1       5.078   5.895   2.259  0.00  0.00    -0.005 A 
ATOM      6  C5  UNL d   1       3.739   6.000   1.889  0.00  0.00     0.003 A 
ATOM      7  C6  UNL d   1       3.321   5.541   0.638  0.00  0.00    -0.001 A 
ENDROOT
TORSDOF 0
ENDMDL
