MODEL 1
REMARK minimizedAffinity 1.45496702
REMARK minimizedRMSD -1
REMARK  0 active torsions:
REMARK  status: ('A' for Active; 'I' for Inactive)
ROOT
ATOM      1  C   UNL d   1       5.996   5.656   3.751  0.00  0.00     0.078 C 
ATOM      2  C1  UNL d   1       5.314   5.573   2.418  0.00  0.00    -0.077 A 
ATOM      3  C2  UNL d   1       3.989   5.998   2.258  0.00  0.00    -0.001 A 
ATOM      4  C3  UNL d   1       3.364   5.906   1.014  0.00  0.00     0.003 A 
ATOM      5  C4  UNL d   1       4.054   5.388  -0.080  0.00  0.00    -0.005 A 
ATOM      6  C5  UNL d   1       5.372   4.960   0.070  0.00  0.00     0.003 A 
ATOM      7  C6  UNL d   1       5.999   5.051   1.314  0.00  0.00    -0.001 A 
ENDROOT
TORSDOF 0
ENDMDL
