MODEL 1
REMARK minimizedAffinity 7.59747744
REMARK minimizedRMSD -1
REMARK  0 active torsions:
REMARK  status: ('A' for Active; 'I' for Inactive)
ROOT
ATOM      1  C   UNL d   1       1.459  -2.545  -2.270  0.00  0.00     0.078 C 
ATOM      2  C1  UNL d   1       1.677  -1.067  -2.399  0.00  0.00    -0.077 A 
ATOM      3  C2  UNL d   1       0.704  -0.154  -1.973  0.00  0.00    -0.001 A 
ATOM      4  C3  UNL d   1       0.916   1.219  -2.108  0.00  0.00     0.003 A 
ATOM      5  C4  UNL d   1       2.100   1.691  -2.671  0.00  0.00    -0.005 A 
ATOM      6  C5  UNL d   1       3.073   0.791  -3.100  0.00  0.00     0.003 A 
ATOM      7  C6  UNL d   1       2.863  -0.582  -2.965  0.00  0.00    -0.001 A 
ENDROOT
TORSDOF 0
ENDMDL
