MODEL 1
REMARK minimizedAffinity -4.94213438
REMARK minimizedRMSD -1
REMARK  2 active torsions:
REMARK  status: ('A' for Active; 'I' for Inactive)
REMARK    1  A    between atoms: C2'_3  and  C1'_4 
REMARK    2  A    between atoms: C1'_4  and  C1_5 
ROOT
ATOM      1  C1  I4B d   1      -0.060  -0.028  -0.009  0.00  0.00    -0.075 A 
ATOM      2  C2  I4B d   1       0.678  -0.093   1.146  0.00  0.00     0.003 A 
ATOM      3  C3  I4B d   1       0.409   0.797   2.214  0.00  0.00     0.002 A 
ATOM      4  C4  I4B d   1      -0.565   1.763   2.065  0.00  0.00    -0.004 A 
ATOM      5  C5  I4B d   1      -1.328   1.812   0.902  0.00  0.00     0.002 A 
ATOM      6  C6  I4B d   1      -1.082   0.904  -0.138  0.00  0.00     0.003 A 
ENDROOT
BRANCH   1   7
ATOM      7  C1' I4B d   1       0.273  -0.961  -1.130  0.00  0.00     0.060 C 
BRANCH   7   8
ATOM      8  C2' I4B d   1      -0.237  -2.339  -0.757  0.00  0.00    -0.013 C 
ATOM      9  C4' I4B d   1      -1.370  -2.762  -1.654  0.00  0.00     0.013 C 
ATOM     10  C3' I4B d   1       0.912  -3.298  -0.847  0.00  0.00     0.013 C 
ENDBRANCH   7   8
ENDBRANCH   1   7
TORSDOF 2
ENDMDL
