MODEL 1
REMARK minimizedAffinity -6.59682751
REMARK minimizedRMSD -1
REMARK  2 active torsions:
REMARK  status: ('A' for Active; 'I' for Inactive)
REMARK    1  A    between atoms: C2'_3  and  C1'_4 
REMARK    2  A    between atoms: C1'_4  and  C1_5 
ROOT
ATOM      1  C1  I4B d   1      -0.043   0.042  -0.121  0.00  0.00    -0.075 A 
ATOM      2  C2  I4B d   1       0.663  -0.001   1.055  0.00  0.00     0.003 A 
ATOM      3  C3  I4B d   1       0.251   0.779   2.163  0.00  0.00     0.002 A 
ATOM      4  C4  I4B d   1      -0.835   1.621   2.035  0.00  0.00    -0.004 A 
ATOM      5  C5  I4B d   1      -1.563   1.646   0.849  0.00  0.00     0.002 A 
ATOM      6  C6  I4B d   1      -1.173   0.843  -0.232  0.00  0.00     0.003 A 
ENDROOT
BRANCH   1   7
ATOM      7  C1' I4B d   1       0.439  -0.769  -1.281  0.00  0.00     0.060 C 
BRANCH   7   8
ATOM      8  C2' I4B d   1      -0.101  -2.176  -1.124  0.00  0.00    -0.013 C 
ATOM      9  C4' I4B d   1      -0.906  -2.589  -2.327  0.00  0.00     0.013 C 
ATOM     10  C3' I4B d   1       1.063  -3.097  -0.909  0.00  0.00     0.013 C 
ENDBRANCH   7   8
ENDBRANCH   1   7
TORSDOF 2
ENDMDL
