MODEL 1
REMARK minimizedAffinity -2.78943682
REMARK minimizedRMSD -1
REMARK  2 active torsions:
REMARK  status: ('A' for Active; 'I' for Inactive)
REMARK    1  A    between atoms: C2'_3  and  C1'_4 
REMARK    2  A    between atoms: C1'_4  and  C1_5 
ROOT
ATOM      1  C1  I4B d   1       0.202  -0.277   0.753  0.00  0.00    -0.075 A 
ATOM      2  C2  I4B d   1      -0.709   0.723   0.983  0.00  0.00     0.003 A 
ATOM      3  C3  I4B d   1      -1.210   1.493  -0.094  0.00  0.00     0.002 A 
ATOM      4  C4  I4B d   1      -0.736   1.265  -1.370  0.00  0.00    -0.004 A 
ATOM      5  C5  I4B d   1       0.171   0.235  -1.605  0.00  0.00     0.002 A 
ATOM      6  C6  I4B d   1       0.634  -0.549  -0.538  0.00  0.00     0.003 A 
ENDROOT
BRANCH   1   7
ATOM      7  C1' I4B d   1       0.734  -1.050   1.919  0.00  0.00     0.060 C 
BRANCH   7   8
ATOM      8  C2' I4B d   1       1.919  -0.290   2.480  0.00  0.00    -0.013 C 
ATOM      9  C4' I4B d   1       1.478   0.972   3.173  0.00  0.00     0.013 C 
ATOM     10  C3' I4B d   1       2.647  -1.200   3.424  0.00  0.00     0.013 C 
ENDBRANCH   7   8
ENDBRANCH   1   7
TORSDOF 2
ENDMDL
