MODEL 1
REMARK minimizedAffinity -6.62681389
REMARK minimizedRMSD -1
REMARK  2 active torsions:
REMARK  status: ('A' for Active; 'I' for Inactive)
REMARK    1  A    between atoms: C2'_3  and  C1'_4 
REMARK    2  A    between atoms: C1'_4  and  C1_5 
ROOT
ATOM      1  C1  I4B d   1      -0.140  -0.278  -0.144  0.00  0.00    -0.075 A 
ATOM      2  C2  I4B d   1       0.123  -0.108   1.193  0.00  0.00     0.003 A 
ATOM      3  C3  I4B d   1      -0.319   1.059   1.863  0.00  0.00     0.002 A 
ATOM      4  C4  I4B d   1      -0.971   2.046   1.152  0.00  0.00    -0.004 A 
ATOM      5  C5  I4B d   1      -1.256   1.861  -0.197  0.00  0.00     0.002 A 
ATOM      6  C6  I4B d   1      -0.849   0.687  -0.847  0.00  0.00     0.003 A 
ENDROOT
BRANCH   1   7
ATOM      7  C1' I4B d   1       0.370  -1.506  -0.828  0.00  0.00     0.060 C 
BRANCH   7   8
ATOM      8  C2' I4B d   1      -0.819  -2.245  -1.408  0.00  0.00    -0.013 C 
ATOM      9  C4' I4B d   1      -0.564  -2.654  -2.835  0.00  0.00     0.013 C 
ATOM     10  C3' I4B d   1      -1.090  -3.439  -0.542  0.00  0.00     0.013 C 
ENDBRANCH   7   8
ENDBRANCH   1   7
TORSDOF 2
ENDMDL
