MODEL 1
REMARK minimizedAffinity -1.61957109
REMARK minimizedRMSD -1
REMARK  2 active torsions:
REMARK  status: ('A' for Active; 'I' for Inactive)
REMARK    1  A    between atoms: C2'_3  and  C1'_4 
REMARK    2  A    between atoms: C1'_4  and  C1_5 
ROOT
ATOM      1  C1  I4B d   1       0.034  -1.284  -0.576  0.00  0.00    -0.075 A 
ATOM      2  C2  I4B d   1       0.859  -2.326  -0.234  0.00  0.00     0.003 A 
ATOM      3  C3  I4B d   1       0.570  -3.639  -0.677  0.00  0.00     0.002 A 
ATOM      4  C4  I4B d   1      -0.575  -3.872  -1.412  0.00  0.00    -0.004 A 
ATOM      5  C5  I4B d   1      -1.398  -2.810  -1.777  0.00  0.00     0.002 A 
ATOM      6  C6  I4B d   1      -1.085  -1.506  -1.367  0.00  0.00     0.003 A 
ENDROOT
BRANCH   1   7
ATOM      7  C1' I4B d   1       0.352   0.085  -0.063  0.00  0.00     0.060 C 
BRANCH   7   8
ATOM      8  C2' I4B d   1       0.597  -0.020   1.428  0.00  0.00    -0.013 C 
ATOM      9  C4' I4B d   1       1.990   0.429   1.785  0.00  0.00     0.013 C 
ATOM     10  C3' I4B d   1      -0.436   0.813   2.127  0.00  0.00     0.013 C 
ENDBRANCH   7   8
ENDBRANCH   1   7
TORSDOF 2
ENDMDL
