MODEL 1
REMARK minimizedAffinity -4.36207962
REMARK minimizedRMSD -1
REMARK  2 active torsions:
REMARK  status: ('A' for Active; 'I' for Inactive)
REMARK    1  A    between atoms: C2'_3  and  C1'_4 
REMARK    2  A    between atoms: C1'_4  and  C1_5 
ROOT
ATOM      1  C1  I4B d   1       0.227  -0.468  -0.014  0.00  0.00    -0.075 A 
ATOM      2  C2  I4B d   1       1.040  -0.726   1.062  0.00  0.00     0.003 A 
ATOM      3  C3  I4B d   1       0.946   0.065   2.232  0.00  0.00     0.002 A 
ATOM      4  C4  I4B d   1       0.068   1.129   2.265  0.00  0.00    -0.004 A 
ATOM      5  C5  I4B d   1      -0.771   1.375   1.183  0.00  0.00     0.002 A 
ATOM      6  C6  I4B d   1      -0.700   0.565   0.040  0.00  0.00     0.003 A 
ENDROOT
BRANCH   1   7
ATOM      7  C1' I4B d   1       0.375  -1.302  -1.246  0.00  0.00     0.060 C 
BRANCH   7   8
ATOM      8  C2' I4B d   1      -0.244  -2.657  -0.970  0.00  0.00    -0.013 C 
ATOM      9  C4' I4B d   1      -1.435  -2.904  -1.859  0.00  0.00     0.013 C 
ATOM     10  C3' I4B d   1       0.813  -3.701  -1.178  0.00  0.00     0.013 C 
ENDBRANCH   7   8
ENDBRANCH   1   7
TORSDOF 2
ENDMDL
