MODEL 1
REMARK minimizedAffinity 5.06009817
REMARK minimizedRMSD -1
REMARK  2 active torsions:
REMARK  status: ('A' for Active; 'I' for Inactive)
REMARK    1  A    between atoms: C2'_3  and  C1'_4 
REMARK    2  A    between atoms: C1'_4  and  C1_5 
ROOT
ATOM      1  C1  I4B d   1       3.821  -1.306  -0.495  0.00  0.00    -0.075 A 
ATOM      2  C2  I4B d   1       4.028  -2.662  -0.443  0.00  0.00     0.003 A 
ATOM      3  C3  I4B d   1       5.147  -3.237  -1.093  0.00  0.00     0.002 A 
ATOM      4  C4  I4B d   1       5.999  -2.431  -1.820  0.00  0.00    -0.004 A 
ATOM      5  C5  I4B d   1       5.800  -1.054  -1.852  0.00  0.00     0.002 A 
ATOM      6  C6  I4B d   1       4.711  -0.486  -1.175  0.00  0.00     0.003 A 
ENDROOT
BRANCH   1   7
ATOM      7  C1' I4B d   1       2.611  -0.737   0.175  0.00  0.00     0.060 C 
BRANCH   7   8
ATOM      8  C2' I4B d   1       1.425  -0.950  -0.743  0.00  0.00    -0.013 C 
ATOM      9  C4' I4B d   1       0.389  -1.835  -0.099  0.00  0.00     0.013 C 
ATOM     10  C3' I4B d   1       0.853   0.394  -1.081  0.00  0.00     0.013 C 
ENDBRANCH   7   8
ENDBRANCH   1   7
TORSDOF 2
ENDMDL
