MODEL 1
REMARK minimizedAffinity -1.58960414
REMARK minimizedRMSD -1
REMARK  0 active torsions:
REMARK  status: ('A' for Active; 'I' for Inactive)
ROOT
ATOM      1  C   UNL d   1       0.227   0.326  -0.303  0.00  0.00     0.172 C 
ATOM      2  N   UNL d   1      -0.727   0.958  -1.184  0.00  0.00    -0.070 N 
ATOM      3  C1  UNL d   1      -0.976   0.598  -2.481  0.00  0.00    -0.004 A 
ATOM      4  C2  UNL d   1      -1.950   1.440  -2.973  0.00  0.00    -0.047 A 
ATOM      5  C3  UNL d   1      -2.298   2.337  -1.936  0.00  0.00    -0.047 A 
ATOM      6  C4  UNL d   1      -1.526   2.016  -0.839  0.00  0.00    -0.004 A 
ENDROOT
TORSDOF 0
ENDMDL
