MODEL 1
REMARK minimizedAffinity -2.38346291
REMARK minimizedRMSD -1
REMARK  0 active torsions:
REMARK  status: ('A' for Active; 'I' for Inactive)
ROOT
ATOM      1  C   UNL d   1       0.175  -1.844   3.183  0.00  0.00     0.172 C 
ATOM      2  N   UNL d   1       0.547  -1.432   1.850  0.00  0.00    -0.070 N 
ATOM      3  C1  UNL d   1       1.628  -1.890   1.145  0.00  0.00    -0.004 A 
ATOM      4  C2  UNL d   1       1.633  -1.255  -0.078  0.00  0.00    -0.047 A 
ATOM      5  C3  UNL d   1       0.518  -0.385  -0.109  0.00  0.00    -0.047 A 
ATOM      6  C4  UNL d   1      -0.137  -0.514   1.098  0.00  0.00    -0.004 A 
ENDROOT
TORSDOF 0
ENDMDL
