MODEL 1
REMARK minimizedAffinity -3.57722998
REMARK minimizedRMSD -1
REMARK  0 active torsions:
REMARK  status: ('A' for Active; 'I' for Inactive)
ROOT
ATOM      1  C   UNL d   1      -0.133   0.256  -0.447  0.00  0.00     0.172 C 
ATOM      2  N   UNL d   1       0.436  -0.662   0.512  0.00  0.00    -0.070 N 
ATOM      3  C1  UNL d   1      -0.197  -1.149   1.624  0.00  0.00    -0.004 A 
ATOM      4  C2  UNL d   1       0.679  -1.990   2.274  0.00  0.00    -0.047 A 
ATOM      5  C3  UNL d   1       1.881  -2.009   1.528  0.00  0.00    -0.047 A 
ATOM      6  C4  UNL d   1       1.703  -1.178   0.442  0.00  0.00    -0.004 A 
ENDROOT
TORSDOF 0
ENDMDL
