MODEL 1
REMARK minimizedAffinity -3.36346269
REMARK minimizedRMSD -1
REMARK  0 active torsions:
REMARK  status: ('A' for Active; 'I' for Inactive)
ROOT
ATOM      1  C   UNL d   1      -0.597   0.602  -0.164  0.00  0.00     0.172 C 
ATOM      2  N   UNL d   1       0.253  -0.392   0.448  0.00  0.00    -0.070 N 
ATOM      3  C1  UNL d   1       0.075  -0.939   1.690  0.00  0.00    -0.004 A 
ATOM      4  C2  UNL d   1       1.092  -1.844   1.903  0.00  0.00    -0.047 A 
ATOM      5  C3  UNL d   1       1.911  -1.840   0.749  0.00  0.00    -0.047 A 
ATOM      6  C4  UNL d   1       1.368  -0.932  -0.136  0.00  0.00    -0.004 A 
ENDROOT
TORSDOF 0
ENDMDL
