MODEL 1
REMARK minimizedAffinity -3.21356606
REMARK minimizedRMSD -1
REMARK  0 active torsions:
REMARK  status: ('A' for Active; 'I' for Inactive)
ROOT
ATOM      1  C   UNL d   1      -1.054   1.372   0.117  0.00  0.00     0.172 C 
ATOM      2  N   UNL d   1      -1.507   1.279  -1.252  0.00  0.00    -0.070 N 
ATOM      3  C1  UNL d   1      -1.770   2.338  -2.079  0.00  0.00    -0.004 A 
ATOM      4  C2  UNL d   1      -2.175   1.833  -3.295  0.00  0.00    -0.047 A 
ATOM      5  C3  UNL d   1      -2.156   0.421  -3.195  0.00  0.00    -0.047 A 
ATOM      6  C4  UNL d   1      -1.738   0.106  -1.919  0.00  0.00    -0.004 A 
ENDROOT
TORSDOF 0
ENDMDL
