MODEL 1
REMARK minimizedAffinity -2.14701271
REMARK minimizedRMSD -1
REMARK  0 active torsions:
REMARK  status: ('A' for Active; 'I' for Inactive)
ROOT
ATOM      1  C   UNL d   1      -0.432   1.489  -0.183  0.00  0.00     0.172 C 
ATOM      2  N   UNL d   1      -1.353   1.728  -1.270  0.00  0.00    -0.070 N 
ATOM      3  C1  UNL d   1      -1.175   2.633  -2.283  0.00  0.00    -0.004 A 
ATOM      4  C2  UNL d   1      -2.271   2.556  -3.115  0.00  0.00    -0.047 A 
ATOM      5  C3  UNL d   1      -3.138   1.572  -2.583  0.00  0.00    -0.047 A 
ATOM      6  C4  UNL d   1      -2.545   1.076  -1.442  0.00  0.00    -0.004 A 
ENDROOT
TORSDOF 0
ENDMDL
