MODEL 1
REMARK minimizedAffinity 2.19452572
REMARK minimizedRMSD -1
REMARK  0 active torsions:
REMARK  status: ('A' for Active; 'I' for Inactive)
ROOT
ATOM      1  C   UNL d   1       1.989   0.924   0.732  0.00  0.00     0.172 C 
ATOM      2  N   UNL d   1       1.616  -0.463   0.877  0.00  0.00    -0.070 N 
ATOM      3  C1  UNL d   1       2.239  -1.524   0.277  0.00  0.00    -0.004 A 
ATOM      4  C2  UNL d   1       1.585  -2.673   0.668  0.00  0.00    -0.047 A 
ATOM      5  C3  UNL d   1       0.533  -2.289   1.532  0.00  0.00    -0.047 A 
ATOM      6  C4  UNL d   1       0.575  -0.915   1.644  0.00  0.00    -0.004 A 
ENDROOT
TORSDOF 0
ENDMDL
