MODEL 1
REMARK minimizedAffinity -1.79502928
REMARK minimizedRMSD -1
REMARK  0 active torsions:
REMARK  status: ('A' for Active; 'I' for Inactive)
ROOT
ATOM      1  C   UNL d   1      -1.837   1.603  -0.148  0.00  0.00     0.172 C 
ATOM      2  N   UNL d   1      -1.917   1.530  -1.588  0.00  0.00    -0.070 N 
ATOM      3  C1  UNL d   1      -2.989   1.072  -2.306  0.00  0.00    -0.004 A 
ATOM      4  C2  UNL d   1      -2.672   1.165  -3.644  0.00  0.00    -0.047 A 
ATOM      5  C3  UNL d   1      -1.364   1.696  -3.733  0.00  0.00    -0.047 A 
ATOM      6  C4  UNL d   1      -0.920   1.913  -2.446  0.00  0.00    -0.004 A 
ENDROOT
TORSDOF 0
ENDMDL
