MODEL 1
REMARK minimizedAffinity -2.62704849
REMARK minimizedRMSD -1
REMARK  0 active torsions:
REMARK  status: ('A' for Active; 'I' for Inactive)
ROOT
ATOM      1  C   UNL d   1      -0.508   0.370   0.026  0.00  0.00     0.172 C 
ATOM      2  N   UNL d   1       0.295  -0.548   0.801  0.00  0.00    -0.070 N 
ATOM      3  C1  UNL d   1       1.516  -1.047   0.434  0.00  0.00    -0.004 A 
ATOM      4  C2  UNL d   1       1.950  -1.883   1.439  0.00  0.00    -0.047 A 
ATOM      5  C3  UNL d   1       0.955  -1.887   2.446  0.00  0.00    -0.047 A 
ATOM      6  C4  UNL d   1      -0.058  -1.052   2.025  0.00  0.00    -0.004 A 
ENDROOT
TORSDOF 0
ENDMDL
