MODEL 1
REMARK minimizedAffinity -1.656703
REMARK minimizedRMSD -1
REMARK  0 active torsions:
REMARK  status: ('A' for Active; 'I' for Inactive)
ROOT
ATOM      1  C   UNL d   1      -1.766   1.081   0.127  0.00  0.00     0.172 C 
ATOM      2  N   UNL d   1      -2.130   1.517  -1.200  0.00  0.00    -0.070 N 
ATOM      3  C1  UNL d   1      -3.254   1.140  -1.885  0.00  0.00    -0.004 A 
ATOM      4  C2  UNL d   1      -3.235   1.772  -3.109  0.00  0.00    -0.047 A 
ATOM      5  C3  UNL d   1      -2.057   2.555  -3.163  0.00  0.00    -0.047 A 
ATOM      6  C4  UNL d   1      -1.392   2.379  -1.968  0.00  0.00    -0.004 A 
ENDROOT
TORSDOF 0
ENDMDL
