MODEL 1
REMARK minimizedAffinity -0.0460436158
REMARK minimizedRMSD -1
REMARK  0 active torsions:
REMARK  status: ('A' for Active; 'I' for Inactive)
ROOT
ATOM      1  C   UNL d   1      -0.894   1.286   0.102  0.00  0.00     0.172 C 
ATOM      2  N   UNL d   1      -1.218   1.556  -1.279  0.00  0.00    -0.070 N 
ATOM      3  C1  UNL d   1      -0.383   2.136  -2.196  0.00  0.00    -0.004 A 
ATOM      4  C2  UNL d   1      -1.062   2.218  -3.392  0.00  0.00    -0.047 A 
ATOM      5  C3  UNL d   1      -2.350   1.669  -3.187  0.00  0.00    -0.047 A 
ATOM      6  C4  UNL d   1      -2.420   1.267  -1.870  0.00  0.00    -0.004 A 
ENDROOT
TORSDOF 0
ENDMDL
