MODEL 1
REMARK minimizedAffinity -4.00814676
REMARK minimizedRMSD -1
REMARK  0 active torsions:
REMARK  status: ('A' for Active; 'I' for Inactive)
ROOT
ATOM      1  C   UNL d   1      -0.714   0.724  -0.539  0.00  0.00     0.172 C 
ATOM      2  N   UNL d   1       0.201  -0.249   0.010  0.00  0.00    -0.070 N 
ATOM      3  C1  UNL d   1      -0.151  -1.352   0.742  0.00  0.00    -0.004 A 
ATOM      4  C2  UNL d   1       1.005  -2.022   1.078  0.00  0.00    -0.047 A 
ATOM      5  C3  UNL d   1       2.090  -1.296   0.530  0.00  0.00    -0.047 A 
ATOM      6  C4  UNL d   1       1.563  -0.203  -0.126  0.00  0.00    -0.004 A 
ENDROOT
TORSDOF 0
ENDMDL
