MODEL 1
REMARK minimizedAffinity -3.39869905
REMARK minimizedRMSD -1
REMARK  0 active torsions:
REMARK  status: ('A' for Active; 'I' for Inactive)
ROOT
ATOM      1  C   UNL d   1       2.123  -1.612   0.348  0.00  0.00     0.172 C 
ATOM      2  N   UNL d   1       1.149  -0.565   0.150  0.00  0.00    -0.070 N 
ATOM      3  C1  UNL d   1      -0.135  -0.567   0.628  0.00  0.00    -0.004 A 
ATOM      4  C2  UNL d   1      -0.737   0.605   0.226  0.00  0.00    -0.047 A 
ATOM      5  C3  UNL d   1       0.217   1.338  -0.519  0.00  0.00    -0.047 A 
ATOM      6  C4  UNL d   1       1.376   0.590  -0.550  0.00  0.00    -0.004 A 
ENDROOT
TORSDOF 0
ENDMDL
