MODEL 1
REMARK minimizedAffinity -1.65724468
REMARK minimizedRMSD -1
REMARK  0 active torsions:
REMARK  status: ('A' for Active; 'I' for Inactive)
ROOT
ATOM      1  C   UNL d   1      -0.728   0.362   0.096  0.00  0.00     0.172 C 
ATOM      2  N   UNL d   1      -1.243   1.108  -1.028  0.00  0.00    -0.070 N 
ATOM      3  C1  UNL d   1      -2.284   0.724  -1.831  0.00  0.00    -0.004 A 
ATOM      4  C2  UNL d   1      -2.467   1.704  -2.783  0.00  0.00    -0.047 A 
ATOM      5  C3  UNL d   1      -1.501   2.711  -2.544  0.00  0.00    -0.047 A 
ATOM      6  C4  UNL d   1      -0.757   2.317  -1.452  0.00  0.00    -0.004 A 
ENDROOT
TORSDOF 0
ENDMDL
