MODEL 1
REMARK minimizedAffinity 4.02431774
REMARK minimizedRMSD -1
REMARK  0 active torsions:
REMARK  status: ('A' for Active; 'I' for Inactive)
ROOT
ATOM      1  C   UNL d   1       2.553  -0.384  -0.738  0.00  0.00     0.023 A 
ATOM      2  C1  UNL d   1       3.275  -0.271  -1.926  0.00  0.00     0.003 A 
ATOM      3  C2  UNL d   1       4.086   0.843  -2.149  0.00  0.00     0.048 A 
ATOM      4  C3  UNL d   1       4.171   1.841  -1.179  0.00  0.00     0.023 A 
ATOM      5  C4  UNL d   1       3.451   1.733   0.012  0.00  0.00     0.048 A 
ATOM      6  C5  UNL d   1       2.641   0.617   0.230  0.00  0.00     0.003 A 
ATOM      7  I   UNL d   1       5.378   3.501  -1.509  0.00  0.00    -0.146 I 
ENDROOT
TORSDOF 0
ENDMDL
