MODEL 1
REMARK minimizedAffinity 14.7894258
REMARK minimizedRMSD -1
REMARK  0 active torsions:
REMARK  status: ('A' for Active; 'I' for Inactive)
ROOT
ATOM      1  C   UNL d   1      -5.995   5.138   5.093  0.00  0.00     0.023 A 
ATOM      2  C1  UNL d   1      -5.533   4.751   3.836  0.00  0.00     0.003 A 
ATOM      3  C2  UNL d   1      -4.201   4.972   3.481  0.00  0.00     0.048 A 
ATOM      4  C3  UNL d   1      -3.336   5.580   4.390  0.00  0.00     0.023 A 
ATOM      5  C4  UNL d   1      -3.793   5.968   5.651  0.00  0.00     0.048 A 
ATOM      6  C5  UNL d   1      -5.127   5.746   6.000  0.00  0.00     0.003 A 
ATOM      7  I   UNL d   1      -1.352   5.910   3.866  0.00  0.00    -0.146 I 
ENDROOT
TORSDOF 0
ENDMDL
