MODEL 1
REMARK minimizedAffinity 8.09239483
REMARK minimizedRMSD -1
REMARK  0 active torsions:
REMARK  status: ('A' for Active; 'I' for Inactive)
ROOT
ATOM      1  C   UNL d   1       0.078   1.205   4.735  0.00  0.00     0.023 A 
ATOM      2  C1  UNL d   1       0.005  -0.047   4.125  0.00  0.00     0.003 A 
ATOM      3  C2  UNL d   1       0.749  -0.308   2.972  0.00  0.00     0.048 A 
ATOM      4  C3  UNL d   1       1.565   0.687   2.436  0.00  0.00     0.023 A 
ATOM      5  C4  UNL d   1       1.643   1.941   3.044  0.00  0.00     0.048 A 
ATOM      6  C5  UNL d   1       0.896   2.198   4.196  0.00  0.00     0.003 A 
ATOM      7  I   UNL d   1       2.674   0.301   0.721  0.00  0.00    -0.146 I 
ENDROOT
TORSDOF 0
ENDMDL
