MODEL 1
REMARK minimizedAffinity 12.1917734
REMARK minimizedRMSD -1
REMARK  0 active torsions:
REMARK  status: ('A' for Active; 'I' for Inactive)
ROOT
ATOM      1  C   UNL d   1       3.485   0.946  -1.725  0.00  0.00     0.023 A 
ATOM      2  C1  UNL d   1       2.852   0.030  -0.885  0.00  0.00     0.003 A 
ATOM      3  C2  UNL d   1       2.491   0.402   0.411  0.00  0.00     0.048 A 
ATOM      4  C3  UNL d   1       2.766   1.693   0.861  0.00  0.00     0.023 A 
ATOM      5  C4  UNL d   1       3.398   2.614   0.024  0.00  0.00     0.048 A 
ATOM      6  C5  UNL d   1       3.758   2.237  -1.271  0.00  0.00     0.003 A 
ATOM      7  I   UNL d   1       2.230   2.250   2.791  0.00  0.00    -0.146 I 
ENDROOT
TORSDOF 0
ENDMDL
