MODEL 1
REMARK minimizedAffinity 8.52676392
REMARK minimizedRMSD -1
REMARK  0 active torsions:
REMARK  status: ('A' for Active; 'I' for Inactive)
ROOT
ATOM      1  C   UNL d   1       4.377   3.090   2.961  0.00  0.00     0.023 A 
ATOM      2  C1  UNL d   1       4.271   3.424   4.311  0.00  0.00     0.003 A 
ATOM      3  C2  UNL d   1       3.119   3.090   5.026  0.00  0.00     0.048 A 
ATOM      4  C3  UNL d   1       2.078   2.420   4.384  0.00  0.00     0.023 A 
ATOM      5  C4  UNL d   1       2.180   2.083   3.034  0.00  0.00     0.048 A 
ATOM      6  C5  UNL d   1       3.333   2.420   2.323  0.00  0.00     0.003 A 
ATOM      7  I   UNL d   1       0.362   1.921   5.446  0.00  0.00    -0.146 I 
ENDROOT
TORSDOF 0
ENDMDL
