MODEL 1
REMARK minimizedAffinity 11.9917421
REMARK minimizedRMSD -1
REMARK  0 active torsions:
REMARK  status: ('A' for Active; 'I' for Inactive)
ROOT
ATOM      1  C   UNL d   1       2.629   1.316  -0.351  0.00  0.00     0.023 A 
ATOM      2  C1  UNL d   1       2.411  -0.056  -0.220  0.00  0.00     0.003 A 
ATOM      3  C2  UNL d   1       3.378  -0.863   0.383  0.00  0.00     0.048 A 
ATOM      4  C3  UNL d   1       4.560  -0.293   0.854  0.00  0.00     0.023 A 
ATOM      5  C4  UNL d   1       4.782   1.079   0.726  0.00  0.00     0.048 A 
ATOM      6  C5  UNL d   1       3.813   1.883   0.122  0.00  0.00     0.003 A 
ATOM      7  I   UNL d   1       6.000  -1.493   1.751  0.00  0.00    -0.146 I 
ENDROOT
TORSDOF 0
ENDMDL
