MODEL 1
REMARK minimizedAffinity 1.55426908
REMARK minimizedRMSD -1
REMARK  0 active torsions:
REMARK  status: ('A' for Active; 'I' for Inactive)
ROOT
ATOM      1  C   UNL d   1      -4.881   5.783   6.000  0.00  0.00     0.023 A 
ATOM      2  C1  UNL d   1      -5.997   5.115   5.494  0.00  0.00     0.003 A 
ATOM      3  C2  UNL d   1      -5.999   4.658   4.174  0.00  0.00     0.048 A 
ATOM      4  C3  UNL d   1      -4.883   4.871   3.366  0.00  0.00     0.023 A 
ATOM      5  C4  UNL d   1      -3.764   5.538   3.869  0.00  0.00     0.048 A 
ATOM      6  C5  UNL d   1      -3.767   5.994   5.188  0.00  0.00     0.003 A 
ATOM      7  I   UNL d   1      -4.885   4.192   1.402  0.00  0.00    -0.146 I 
ENDROOT
TORSDOF 0
ENDMDL
