MODEL 1
REMARK minimizedAffinity 8.86223412
REMARK minimizedRMSD -1
REMARK  0 active torsions:
REMARK  status: ('A' for Active; 'I' for Inactive)
ROOT
ATOM      1  C   UNL d   1       2.751   2.093  -0.433  0.00  0.00     0.023 A 
ATOM      2  C1  UNL d   1       2.424   0.785  -0.074  0.00  0.00     0.003 A 
ATOM      3  C2  UNL d   1       3.355  -0.010   0.598  0.00  0.00     0.048 A 
ATOM      4  C3  UNL d   1       4.611   0.510   0.909  0.00  0.00     0.023 A 
ATOM      5  C4  UNL d   1       4.943   1.818   0.552  0.00  0.00     0.048 A 
ATOM      6  C5  UNL d   1       4.009   2.609  -0.120  0.00  0.00     0.003 A 
ATOM      7  I   UNL d   1       5.999  -0.671   1.909  0.00  0.00    -0.146 I 
ENDROOT
TORSDOF 0
ENDMDL
