MODEL 1
REMARK minimizedAffinity -4.48150826
REMARK minimizedRMSD -1
REMARK  0 active torsions:
REMARK  status: ('A' for Active; 'I' for Inactive)
ROOT
ATOM      1  C   UNL d   1       0.653  -1.322  -0.201  0.00  0.00     0.023 A 
ATOM      2  C1  UNL d   1       0.448   0.055  -0.125  0.00  0.00     0.003 A 
ATOM      3  C2  UNL d   1       1.513   0.934  -0.333  0.00  0.00     0.048 A 
ATOM      4  C3  UNL d   1       2.781   0.428  -0.618  0.00  0.00     0.023 A 
ATOM      5  C4  UNL d   1       2.991  -0.950  -0.696  0.00  0.00     0.048 A 
ATOM      6  C5  UNL d   1       1.923  -1.824  -0.486  0.00  0.00     0.003 A 
ATOM      7  I   UNL d   1       4.368   1.734  -0.928  0.00  0.00    -0.146 I 
ENDROOT
TORSDOF 0
ENDMDL
