MODEL 1
REMARK minimizedAffinity 0.0345929563
REMARK minimizedRMSD -1
REMARK  0 active torsions:
REMARK  status: ('A' for Active; 'I' for Inactive)
ROOT
ATOM      1  C   UNL d   1      -4.500  -1.481  -5.020  0.00  0.00     0.077 C 
ATOM      2  C1  UNL d   1      -3.836  -0.142  -4.893  0.00  0.00    -0.074 A 
ATOM      3  C2  UNL d   1      -2.620  -0.004  -4.216  0.00  0.00    -0.005 A 
ATOM      4  C3  UNL d   1      -2.009   1.246  -4.115  0.00  0.00     0.006 A 
ATOM      5  C4  UNL d   1      -2.608   2.368  -4.688  0.00  0.00    -0.005 A 
ATOM      6  C5  UNL d   1      -3.823   2.250  -5.369  0.00  0.00    -0.074 A 
ATOM      7  C6  UNL d   1      -4.475   3.444  -6.000  0.00  0.00     0.077 C 
ATOM      8  C7  UNL d   1      -4.427   0.989  -5.473  0.00  0.00    -0.001 A 
ENDROOT
TORSDOF 0
ENDMDL
