MODEL 1
REMARK minimizedAffinity -1.77402186
REMARK minimizedRMSD -1
REMARK  0 active torsions:
REMARK  status: ('A' for Active; 'I' for Inactive)
ROOT
ATOM      1  C   UNL d   1      -4.639  -0.011  -5.855  0.00  0.00     0.077 C 
ATOM      2  C1  UNL d   1      -4.266   1.439  -5.767  0.00  0.00    -0.074 A 
ATOM      3  C2  UNL d   1      -2.939   1.829  -5.559  0.00  0.00    -0.005 A 
ATOM      4  C3  UNL d   1      -2.605   3.181  -5.489  0.00  0.00     0.006 A 
ATOM      5  C4  UNL d   1      -3.593   4.156  -5.628  0.00  0.00    -0.005 A 
ATOM      6  C5  UNL d   1      -4.925   3.786  -5.838  0.00  0.00    -0.074 A 
ATOM      7  C6  UNL d   1      -5.998   4.822  -5.999  0.00  0.00     0.077 C 
ATOM      8  C7  UNL d   1      -5.251   2.425  -5.913  0.00  0.00    -0.001 A 
ENDROOT
TORSDOF 0
ENDMDL
