MODEL 1
REMARK minimizedAffinity -4.78484821
REMARK minimizedRMSD -1
REMARK  0 active torsions:
REMARK  status: ('A' for Active; 'I' for Inactive)
ROOT
ATOM      1  C   UNL d   1       0.517   0.052  -0.579  0.00  0.00     0.077 C 
ATOM      2  C1  UNL d   1       1.938  -0.205  -0.987  0.00  0.00    -0.074 A 
ATOM      3  C2  UNL d   1       2.900   0.807  -0.913  0.00  0.00    -0.005 A 
ATOM      4  C3  UNL d   1       4.220   0.551  -1.287  0.00  0.00     0.006 A 
ATOM      5  C4  UNL d   1       4.589  -0.717  -1.737  0.00  0.00    -0.005 A 
ATOM      6  C5  UNL d   1       3.640  -1.741  -1.816  0.00  0.00    -0.074 A 
ATOM      7  C6  UNL d   1       4.023  -3.113  -2.288  0.00  0.00     0.077 C 
ATOM      8  C7  UNL d   1       2.318  -1.478  -1.432  0.00  0.00    -0.001 A 
ENDROOT
TORSDOF 0
ENDMDL
