MODEL 1
REMARK minimizedAffinity 1.70272112
REMARK minimizedRMSD -1
REMARK  0 active torsions:
REMARK  status: ('A' for Active; 'I' for Inactive)
ROOT
ATOM      1  C   UNL d   1       2.631   1.322  -1.882  0.00  0.00     0.077 C 
ATOM      2  C1  UNL d   1       1.413   0.456  -1.752  0.00  0.00    -0.074 A 
ATOM      3  C2  UNL d   1       0.587   0.207  -2.852  0.00  0.00    -0.005 A 
ATOM      4  C3  UNL d   1      -0.537  -0.607  -2.718  0.00  0.00     0.006 A 
ATOM      5  C4  UNL d   1      -0.846  -1.180  -1.484  0.00  0.00    -0.005 A 
ATOM      6  C5  UNL d   1      -0.031  -0.943  -0.372  0.00  0.00    -0.074 A 
ATOM      7  C6  UNL d   1      -0.344  -1.559   0.959  0.00  0.00     0.077 C 
ATOM      8  C7  UNL d   1       1.100  -0.129  -0.517  0.00  0.00    -0.001 A 
ENDROOT
TORSDOF 0
ENDMDL
