MODEL 1
REMARK minimizedAffinity -3.76518059
REMARK minimizedRMSD -1
REMARK  0 active torsions:
REMARK  status: ('A' for Active; 'I' for Inactive)
ROOT
ATOM      1  C   UNL d   1      -4.867  -0.021  -5.911  0.00  0.00     0.077 C 
ATOM      2  C1  UNL d   1      -4.590   1.452  -5.855  0.00  0.00    -0.074 A 
ATOM      3  C2  UNL d   1      -5.624   2.383  -6.000  0.00  0.00    -0.005 A 
ATOM      4  C3  UNL d   1      -5.353   3.750  -5.936  0.00  0.00     0.006 A 
ATOM      5  C4  UNL d   1      -4.048   4.199  -5.727  0.00  0.00    -0.005 A 
ATOM      6  C5  UNL d   1      -3.002   3.282  -5.579  0.00  0.00    -0.074 A 
ATOM      7  C6  UNL d   1      -1.596   3.747  -5.344  0.00  0.00     0.077 C 
ATOM      8  C7  UNL d   1      -3.283   1.910  -5.637  0.00  0.00    -0.001 A 
ENDROOT
TORSDOF 0
ENDMDL
