MODEL 1
REMARK minimizedAffinity -0.499228448
REMARK minimizedRMSD -1
REMARK  0 active torsions:
REMARK  status: ('A' for Active; 'I' for Inactive)
ROOT
ATOM      1  C   UNL d   1      -1.302   4.882  -5.925  0.00  0.00     0.077 C 
ATOM      2  C1  UNL d   1      -2.716   4.391  -5.836  0.00  0.00    -0.074 A 
ATOM      3  C2  UNL d   1      -3.793   5.268  -6.000  0.00  0.00    -0.005 A 
ATOM      4  C3  UNL d   1      -5.103   4.795  -5.924  0.00  0.00     0.006 A 
ATOM      5  C4  UNL d   1      -5.349   3.442  -5.683  0.00  0.00    -0.005 A 
ATOM      6  C5  UNL d   1      -4.285   2.550  -5.517  0.00  0.00    -0.074 A 
ATOM      7  C6  UNL d   1      -4.531   1.092  -5.268  0.00  0.00     0.077 C 
ATOM      8  C7  UNL d   1      -2.971   3.032  -5.602  0.00  0.00    -0.001 A 
ENDROOT
TORSDOF 0
ENDMDL
