MODEL 1
REMARK minimizedAffinity -1.33746564
REMARK minimizedRMSD -1
REMARK  0 active torsions:
REMARK  status: ('A' for Active; 'I' for Inactive)
ROOT
ATOM      1  C   UNL d   1      -6.000   5.980  -5.889  0.00  0.00     0.077 C 
ATOM      2  C1  UNL d   1      -5.186   4.720  -5.868  0.00  0.00    -0.074 A 
ATOM      3  C2  UNL d   1      -5.796   3.468  -5.998  0.00  0.00    -0.005 A 
ATOM      4  C3  UNL d   1      -5.025   2.306  -5.988  0.00  0.00     0.006 A 
ATOM      5  C4  UNL d   1      -3.639   2.384  -5.847  0.00  0.00    -0.005 A 
ATOM      6  C5  UNL d   1      -3.011   3.626  -5.716  0.00  0.00    -0.074 A 
ATOM      7  C6  UNL d   1      -1.522   3.728  -5.574  0.00  0.00     0.077 C 
ATOM      8  C7  UNL d   1      -3.792   4.790  -5.735  0.00  0.00    -0.001 A 
ENDROOT
TORSDOF 0
ENDMDL
