MODEL 1
REMARK minimizedAffinity -1.51593781
REMARK minimizedRMSD -1
REMARK  0 active torsions:
REMARK  status: ('A' for Active; 'I' for Inactive)
ROOT
ATOM      1  C   UNL d   1      -1.689   4.787  -5.998  0.00  0.00     0.077 C 
ATOM      2  C1  UNL d   1      -3.176   4.588  -5.990  0.00  0.00    -0.074 A 
ATOM      3  C2  UNL d   1      -4.047   5.682  -5.994  0.00  0.00    -0.005 A 
ATOM      4  C3  UNL d   1      -5.428   5.481  -5.996  0.00  0.00     0.006 A 
ATOM      5  C4  UNL d   1      -5.950   4.187  -5.994  0.00  0.00    -0.005 A 
ATOM      6  C5  UNL d   1      -5.094   3.081  -5.991  0.00  0.00    -0.074 A 
ATOM      7  C6  UNL d   1      -5.638   1.684  -6.000  0.00  0.00     0.077 C 
ATOM      8  C7  UNL d   1      -3.708   3.291  -5.997  0.00  0.00    -0.001 A 
ENDROOT
TORSDOF 0
ENDMDL
