MODEL 1
REMARK minimizedAffinity -3.30283928
REMARK minimizedRMSD -1
REMARK  0 active torsions:
REMARK  status: ('A' for Active; 'I' for Inactive)
ROOT
ATOM      1  C   UNL d   1      -1.469  -1.492  -3.475  0.00  0.00     0.077 C 
ATOM      2  C1  UNL d   1      -0.718  -1.069  -2.248  0.00  0.00    -0.074 A 
ATOM      3  C2  UNL d   1      -1.111  -1.503  -0.979  0.00  0.00    -0.005 A 
ATOM      4  C3  UNL d   1      -0.397  -1.109   0.152  0.00  0.00     0.006 A 
ATOM      5  C4  UNL d   1       0.716  -0.276   0.026  0.00  0.00    -0.005 A 
ATOM      6  C5  UNL d   1       1.125   0.168  -1.236  0.00  0.00    -0.074 A 
ATOM      7  C6  UNL d   1       2.324   1.055  -1.391  0.00  0.00     0.077 C 
ATOM      8  C7  UNL d   1       0.406  -0.239  -2.368  0.00  0.00    -0.001 A 
ENDROOT
TORSDOF 0
ENDMDL
