MODEL 1
REMARK minimizedAffinity 3.79310822
REMARK minimizedRMSD -1
REMARK  0 active torsions:
REMARK  status: ('A' for Active; 'I' for Inactive)
ROOT
ATOM      1  C   UNL d   1      -4.883   2.195  -5.818  0.00  0.00     0.077 C 
ATOM      2  C1  UNL d   1      -4.178   3.518  -5.868  0.00  0.00    -0.074 A 
ATOM      3  C2  UNL d   1      -4.899   4.713  -5.963  0.00  0.00    -0.005 A 
ATOM      4  C3  UNL d   1      -4.229   5.936  -5.999  0.00  0.00     0.006 A 
ATOM      5  C4  UNL d   1      -2.836   5.977  -5.940  0.00  0.00    -0.005 A 
ATOM      6  C5  UNL d   1      -2.099   4.792  -5.844  0.00  0.00    -0.074 A 
ATOM      7  C6  UNL d   1      -0.601   4.819  -5.769  0.00  0.00     0.077 C 
ATOM      8  C7  UNL d   1      -2.779   3.567  -5.801  0.00  0.00    -0.001 A 
ENDROOT
TORSDOF 0
ENDMDL
