MODEL 1
REMARK minimizedAffinity -3.72988605
REMARK minimizedRMSD -1
REMARK  0 active torsions:
REMARK  status: ('A' for Active; 'I' for Inactive)
ROOT
ATOM      1  C   UNL d   1      -1.732   3.777  -5.995  0.00  0.00     0.077 C 
ATOM      2  C1  UNL d   1      -3.221   3.597  -5.988  0.00  0.00    -0.074 A 
ATOM      3  C2  UNL d   1      -4.079   4.702  -5.994  0.00  0.00    -0.005 A 
ATOM      4  C3  UNL d   1      -5.461   4.519  -5.998  0.00  0.00     0.006 A 
ATOM      5  C4  UNL d   1      -6.000   3.232  -5.995  0.00  0.00    -0.005 A 
ATOM      6  C5  UNL d   1      -5.158   2.115  -5.990  0.00  0.00    -0.074 A 
ATOM      7  C6  UNL d   1      -5.720   0.725  -5.997  0.00  0.00     0.077 C 
ATOM      8  C7  UNL d   1      -3.770   2.307  -5.994  0.00  0.00    -0.001 A 
ENDROOT
TORSDOF 0
ENDMDL
