MODEL 1
REMARK minimizedAffinity -0.70944643
REMARK minimizedRMSD -1
REMARK  0 active torsions:
REMARK  status: ('A' for Active; 'I' for Inactive)
ROOT
ATOM      1  C   UNL d   1      -4.859   1.445  -5.996  0.00  0.00     0.077 C 
ATOM      2  C1  UNL d   1      -4.509   2.903  -6.000  0.00  0.00    -0.074 A 
ATOM      3  C2  UNL d   1      -5.508   3.882  -5.999  0.00  0.00    -0.005 A 
ATOM      4  C3  UNL d   1      -5.167   5.235  -5.993  0.00  0.00     0.006 A 
ATOM      5  C4  UNL d   1      -3.826   5.622  -5.987  0.00  0.00    -0.005 A 
ATOM      6  C5  UNL d   1      -2.814   4.657  -5.986  0.00  0.00    -0.074 A 
ATOM      7  C6  UNL d   1      -1.368   5.055  -5.969  0.00  0.00     0.077 C 
ATOM      8  C7  UNL d   1      -3.165   3.300  -5.985  0.00  0.00    -0.001 A 
ENDROOT
TORSDOF 0
ENDMDL
