MODEL 1
REMARK minimizedAffinity -2.89938188
REMARK minimizedRMSD -1
REMARK  0 active torsions:
REMARK  status: ('A' for Active; 'I' for Inactive)
ROOT
ATOM      1  C   UNL d   1       2.031   0.007  -2.241  0.00  0.00     0.077 C 
ATOM      2  C1  UNL d   1       3.027  -1.011  -2.709  0.00  0.00    -0.074 A 
ATOM      3  C2  UNL d   1       3.645  -1.882  -1.806  0.00  0.00    -0.005 A 
ATOM      4  C3  UNL d   1       4.562  -2.830  -2.258  0.00  0.00     0.006 A 
ATOM      5  C4  UNL d   1       4.871  -2.918  -3.616  0.00  0.00    -0.005 A 
ATOM      6  C5  UNL d   1       4.262  -2.057  -4.534  0.00  0.00    -0.074 A 
ATOM      7  C6  UNL d   1       4.574  -2.145  -5.999  0.00  0.00     0.077 C 
ATOM      8  C7  UNL d   1       3.336  -1.111  -4.073  0.00  0.00    -0.001 A 
ENDROOT
TORSDOF 0
ENDMDL
