MODEL 1
REMARK minimizedAffinity -3.18250155
REMARK minimizedRMSD -1
REMARK  0 active torsions:
REMARK  status: ('A' for Active; 'I' for Inactive)
ROOT
ATOM      1  C   UNL d   1      -0.829  -1.361  -3.742  0.00  0.00     0.077 C 
ATOM      2  C1  UNL d   1      -1.701  -2.316  -4.502  0.00  0.00    -0.074 A 
ATOM      3  C2  UNL d   1      -1.253  -3.602  -4.820  0.00  0.00    -0.005 A 
ATOM      4  C3  UNL d   1      -2.078  -4.482  -5.519  0.00  0.00     0.006 A 
ATOM      5  C4  UNL d   1      -3.359  -4.086  -5.907  0.00  0.00    -0.005 A 
ATOM      6  C5  UNL d   1      -3.825  -2.804  -5.598  0.00  0.00    -0.074 A 
ATOM      7  C6  UNL d   1      -5.202  -2.366  -5.999  0.00  0.00     0.077 C 
ATOM      8  C7  UNL d   1      -2.992  -1.928  -4.889  0.00  0.00    -0.001 A 
ENDROOT
TORSDOF 0
ENDMDL
