MODEL 1
REMARK minimizedAffinity 6.14374304
REMARK minimizedRMSD -1
REMARK  0 active torsions:
REMARK  status: ('A' for Active; 'I' for Inactive)
ROOT
ATOM      1  C   UNL d   1      -3.343   1.676   2.304  0.00  0.00     0.077 C 
ATOM      2  C1  UNL d   1      -3.107   2.453   3.566  0.00  0.00    -0.074 A 
ATOM      3  C2  UNL d   1      -3.527   1.956   4.804  0.00  0.00    -0.005 A 
ATOM      4  C3  UNL d   1      -3.292   2.686   5.970  0.00  0.00     0.006 A 
ATOM      5  C4  UNL d   1      -2.637   3.916   5.909  0.00  0.00    -0.005 A 
ATOM      6  C5  UNL d   1      -2.210   4.428   4.680  0.00  0.00    -0.074 A 
ATOM      7  C6  UNL d   1      -1.495   5.744   4.598  0.00  0.00     0.077 C 
ATOM      8  C7  UNL d   1      -2.443   3.686   3.514  0.00  0.00    -0.001 A 
ENDROOT
TORSDOF 0
ENDMDL
