MODEL 1
REMARK minimizedAffinity -3.48932648
REMARK minimizedRMSD -1
REMARK  0 active torsions:
REMARK  status: ('A' for Active; 'I' for Inactive)
ROOT
ATOM      1  C   UNL d   1      -2.259  -3.442  -5.989  0.00  0.00     0.077 C 
ATOM      2  C1  UNL d   1      -3.208  -2.281  -5.994  0.00  0.00    -0.074 A 
ATOM      3  C2  UNL d   1      -4.592  -2.483  -5.989  0.00  0.00    -0.005 A 
ATOM      4  C3  UNL d   1      -5.462  -1.393  -5.984  0.00  0.00     0.006 A 
ATOM      5  C4  UNL d   1      -4.959  -0.092  -5.984  0.00  0.00    -0.005 A 
ATOM      6  C5  UNL d   1      -3.578   0.130  -5.988  0.00  0.00    -0.074 A 
ATOM      7  C6  UNL d   1      -3.020   1.522  -5.978  0.00  0.00     0.077 C 
ATOM      8  C7  UNL d   1      -2.710  -0.970  -5.986  0.00  0.00    -0.001 A 
ENDROOT
TORSDOF 0
ENDMDL
