MODEL 1
REMARK minimizedAffinity -4.62328196
REMARK minimizedRMSD -1
REMARK  0 active torsions:
REMARK  status: ('A' for Active; 'I' for Inactive)
ROOT
ATOM      1  C   UNL d   1       1.602  -0.277  -1.873  0.00  0.00     0.077 C 
ATOM      2  C1  UNL d   1       2.619  -1.104  -2.601  0.00  0.00    -0.074 A 
ATOM      3  C2  UNL d   1       3.186  -2.235  -2.005  0.00  0.00    -0.005 A 
ATOM      4  C3  UNL d   1       4.124  -3.001  -2.699  0.00  0.00     0.006 A 
ATOM      5  C4  UNL d   1       4.503  -2.643  -3.993  0.00  0.00    -0.005 A 
ATOM      6  C5  UNL d   1       3.947  -1.516  -4.606  0.00  0.00    -0.074 A 
ATOM      7  C6  UNL d   1       4.336  -1.124  -6.000  0.00  0.00     0.077 C 
ATOM      8  C7  UNL d   1       3.000  -0.756  -3.905  0.00  0.00    -0.001 A 
ENDROOT
TORSDOF 0
ENDMDL
