MODEL 1
REMARK minimizedAffinity -2.09616733
REMARK minimizedRMSD -1
REMARK  0 active torsions:
REMARK  status: ('A' for Active; 'I' for Inactive)
ROOT
ATOM      1  C   UNL d   1      -1.500  -3.011  -5.241  0.00  0.00     0.077 C 
ATOM      2  C1  UNL d   1      -2.827  -2.366  -5.511  0.00  0.00    -0.074 A 
ATOM      3  C2  UNL d   1      -3.988  -3.136  -5.639  0.00  0.00    -0.005 A 
ATOM      4  C3  UNL d   1      -5.216  -2.521  -5.882  0.00  0.00     0.006 A 
ATOM      5  C4  UNL d   1      -5.296  -1.133  -5.999  0.00  0.00    -0.005 A 
ATOM      6  C5  UNL d   1      -4.146  -0.347  -5.873  0.00  0.00    -0.074 A 
ATOM      7  C6  UNL d   1      -4.216   1.147  -5.986  0.00  0.00     0.077 C 
ATOM      8  C7  UNL d   1      -2.917  -0.971  -5.622  0.00  0.00    -0.001 A 
ENDROOT
TORSDOF 0
ENDMDL
