MODEL 1
REMARK minimizedAffinity 1.13364744
REMARK minimizedRMSD -1
REMARK  0 active torsions:
REMARK  status: ('A' for Active; 'I' for Inactive)
ROOT
ATOM      1  C   UNL d   1      -1.971   4.406  -5.628  0.00  0.00     0.077 C 
ATOM      2  C1  UNL d   1      -3.380   3.891  -5.631  0.00  0.00    -0.074 A 
ATOM      3  C2  UNL d   1      -4.447   4.718  -5.993  0.00  0.00    -0.005 A 
ATOM      4  C3  UNL d   1      -5.751   4.222  -6.000  0.00  0.00     0.006 A 
ATOM      5  C4  UNL d   1      -6.000   2.896  -5.646  0.00  0.00    -0.005 A 
ATOM      6  C5  UNL d   1      -4.945   2.053  -5.282  0.00  0.00    -0.074 A 
ATOM      7  C6  UNL d   1      -5.194   0.622  -4.909  0.00  0.00     0.077 C 
ATOM      8  C7  UNL d   1      -3.637   2.557  -5.285  0.00  0.00    -0.001 A 
ENDROOT
TORSDOF 0
ENDMDL
