MODEL 1
REMARK minimizedAffinity -1.51236606
REMARK minimizedRMSD -1
REMARK  0 active torsions:
REMARK  status: ('A' for Active; 'I' for Inactive)
ROOT
ATOM      1  C   UNL d   1      -3.744   1.300  -4.467  0.00  0.00     0.077 C 
ATOM      2  C1  UNL d   1      -2.794   0.316  -3.849  0.00  0.00    -0.074 A 
ATOM      3  C2  UNL d   1      -2.853  -1.042  -4.176  0.00  0.00    -0.005 A 
ATOM      4  C3  UNL d   1      -1.957  -1.943  -3.601  0.00  0.00     0.006 A 
ATOM      5  C4  UNL d   1      -0.995  -1.496  -2.694  0.00  0.00    -0.005 A 
ATOM      6  C5  UNL d   1      -0.921  -0.141  -2.355  0.00  0.00    -0.074 A 
ATOM      7  C6  UNL d   1       0.112   0.358  -1.390  0.00  0.00     0.077 C 
ATOM      8  C7  UNL d   1      -1.820   0.760  -2.943  0.00  0.00    -0.001 A 
ENDROOT
TORSDOF 0
ENDMDL
