MODEL 1
REMARK minimizedAffinity 1.34645998
REMARK minimizedRMSD -1
REMARK  2 active torsions:
REMARK  status: ('A' for Active; 'I' for Inactive)
REMARK    1  A    between atoms: C2'_3  and  C1'_4 
REMARK    2  A    between atoms: C1'_4  and  C1_5 
ROOT
ATOM      1  C1  I4B d   1      -0.527   3.533   0.912  0.00  0.00    -0.075 A 
ATOM      2  C2  I4B d   1      -1.371   2.608   1.474  0.00  0.00     0.003 A 
ATOM      3  C3  I4B d   1      -1.056   2.025   2.726  0.00  0.00     0.002 A 
ATOM      4  C4  I4B d   1       0.128   2.357   3.352  0.00  0.00    -0.004 A 
ATOM      5  C5  I4B d   1       0.970   3.313   2.791  0.00  0.00     0.002 A 
ATOM      6  C6  I4B d   1       0.635   3.914   1.569  0.00  0.00     0.003 A 
ENDROOT
BRANCH   1   7
ATOM      7  C1' I4B d   1      -0.873   4.104  -0.427  0.00  0.00     0.060 C 
BRANCH   7   8
ATOM      8  C2' I4B d   1      -0.178   3.270  -1.484  0.00  0.00    -0.013 C 
ATOM      9  C4' I4B d   1      -1.155   2.381  -2.207  0.00  0.00     0.013 C 
ATOM     10  C3' I4B d   1       0.508   4.205  -2.434  0.00  0.00     0.013 C 
ENDBRANCH   7   8
ENDBRANCH   1   7
TORSDOF 2
ENDMDL
