MODEL 1
REMARK minimizedAffinity 8.41878986
REMARK minimizedRMSD -1
REMARK  2 active torsions:
REMARK  status: ('A' for Active; 'I' for Inactive)
REMARK    1  A    between atoms: C2'_3  and  C1'_4 
REMARK    2  A    between atoms: C1'_4  and  C1_5 
ROOT
ATOM      1  C1  I4B d   1      -0.884   3.834  -1.869  0.00  0.00    -0.075 A 
ATOM      2  C2  I4B d   1      -0.978   3.421  -0.563  0.00  0.00     0.003 A 
ATOM      3  C3  I4B d   1       0.159   3.455   0.280  0.00  0.00     0.002 A 
ATOM      4  C4  I4B d   1       1.374   3.859  -0.235  0.00  0.00    -0.004 A 
ATOM      5  C5  I4B d   1       1.463   4.300  -1.552  0.00  0.00     0.002 A 
ATOM      6  C6  I4B d   1       0.325   4.298  -2.371  0.00  0.00     0.003 A 
ENDROOT
BRANCH   1   7
ATOM      7  C1' I4B d   1      -2.097   3.753  -2.740  0.00  0.00     0.060 C 
BRANCH   7   8
ATOM      8  C2' I4B d   1      -2.222   2.326  -3.234  0.00  0.00    -0.013 C 
ATOM      9  C4' I4B d   1      -3.654   1.860  -3.197  0.00  0.00     0.013 C 
ATOM     10  C3' I4B d   1      -1.670   2.268  -4.627  0.00  0.00     0.013 C 
ENDBRANCH   7   8
ENDBRANCH   1   7
TORSDOF 2
ENDMDL
