MODEL 1
REMARK minimizedAffinity 5.06880426
REMARK minimizedRMSD -1
REMARK  2 active torsions:
REMARK  status: ('A' for Active; 'I' for Inactive)
REMARK    1  A    between atoms: C2'_3  and  C1'_4 
REMARK    2  A    between atoms: C1'_4  and  C1_5 
ROOT
ATOM      1  C1  I4B d   1      -0.110   2.542   0.291  0.00  0.00    -0.075 A 
ATOM      2  C2  I4B d   1      -0.912   1.554   0.806  0.00  0.00     0.003 A 
ATOM      3  C3  I4B d   1      -1.191   1.513   2.193  0.00  0.00     0.002 A 
ATOM      4  C4  I4B d   1      -0.610   2.443   3.031  0.00  0.00    -0.004 A 
ATOM      5  C5  I4B d   1       0.184   3.458   2.504  0.00  0.00     0.002 A 
ATOM      6  C6  I4B d   1       0.426   3.516   1.124  0.00  0.00     0.003 A 
ENDROOT
BRANCH   1   7
ATOM      7  C1' I4B d   1       0.190   2.536  -1.174  0.00  0.00     0.060 C 
BRANCH   7   8
ATOM      8  C2' I4B d   1      -0.625   3.637  -1.822  0.00  0.00    -0.013 C 
ATOM      9  C4' I4B d   1       0.261   4.736  -2.346  0.00  0.00     0.013 C 
ATOM     10  C3' I4B d   1      -1.437   3.024  -2.924  0.00  0.00     0.013 C 
ENDBRANCH   7   8
ENDBRANCH   1   7
TORSDOF 2
ENDMDL
