MODEL 1
REMARK minimizedAffinity 4.19254923
REMARK minimizedRMSD -1
REMARK  2 active torsions:
REMARK  status: ('A' for Active; 'I' for Inactive)
REMARK    1  A    between atoms: C2'_3  and  C1'_4 
REMARK    2  A    between atoms: C1'_4  and  C1_5 
ROOT
ATOM      1  C1  I4B d   1      -0.491   2.308  -0.078  0.00  0.00    -0.075 A 
ATOM      2  C2  I4B d   1       0.131   3.296   0.643  0.00  0.00     0.003 A 
ATOM      3  C3  I4B d   1       0.618   4.455  -0.008  0.00  0.00     0.002 A 
ATOM      4  C4  I4B d   1       0.508   4.561  -1.380  0.00  0.00    -0.004 A 
ATOM      5  C5  I4B d   1      -0.143   3.568  -2.107  0.00  0.00     0.002 A 
ATOM      6  C6  I4B d   1      -0.656   2.440  -1.451  0.00  0.00     0.003 A 
ENDROOT
BRANCH   1   7
ATOM      7  C1' I4B d   1      -0.964   1.082   0.637  0.00  0.00     0.060 C 
BRANCH   7   8
ATOM      8  C2' I4B d   1      -0.931   1.368   2.125  0.00  0.00    -0.013 C 
ATOM      9  C4' I4B d   1      -2.287   1.169   2.748  0.00  0.00     0.013 C 
ATOM     10  C3' I4B d   1       0.090   0.463   2.748  0.00  0.00     0.013 C 
ENDBRANCH   7   8
ENDBRANCH   1   7
TORSDOF 2
ENDMDL
