MODEL 1
REMARK minimizedAffinity 16.126545
REMARK minimizedRMSD -1
REMARK  2 active torsions:
REMARK  status: ('A' for Active; 'I' for Inactive)
REMARK    1  A    between atoms: C2'_3  and  C1'_4 
REMARK    2  A    between atoms: C1'_4  and  C1_5 
ROOT
ATOM      1  C1  I4B d   1      -3.279   2.727  -3.511  0.00  0.00    -0.075 A 
ATOM      2  C2  I4B d   1      -4.204   3.730  -3.662  0.00  0.00     0.003 A 
ATOM      3  C3  I4B d   1      -5.588   3.433  -3.642  0.00  0.00     0.002 A 
ATOM      4  C4  I4B d   1      -6.000   2.121  -3.519  0.00  0.00    -0.004 A 
ATOM      5  C5  I4B d   1      -5.062   1.108  -3.343  0.00  0.00     0.002 A 
ATOM      6  C6  I4B d   1      -3.693   1.414  -3.326  0.00  0.00     0.003 A 
ENDROOT
BRANCH   1   7
ATOM      7  C1' I4B d   1      -1.825   3.072  -3.570  0.00  0.00     0.060 C 
BRANCH   7   8
ATOM      8  C2' I4B d   1      -1.400   3.539  -2.193  0.00  0.00    -0.013 C 
ATOM      9  C4' I4B d   1      -1.268   2.379  -1.241  0.00  0.00     0.013 C 
ATOM     10  C3' I4B d   1      -0.100   4.274  -2.334  0.00  0.00     0.013 C 
ENDBRANCH   7   8
ENDBRANCH   1   7
TORSDOF 2
ENDMDL
