MODEL 1
REMARK minimizedAffinity 10.0724726
REMARK minimizedRMSD -1
REMARK  2 active torsions:
REMARK  status: ('A' for Active; 'I' for Inactive)
REMARK    1  A    between atoms: C2'_3  and  C1'_4 
REMARK    2  A    between atoms: C1'_4  and  C1_5 
ROOT
ATOM      1  C1  I4B d   1      -0.946   2.700  -1.552  0.00  0.00    -0.075 A 
ATOM      2  C2  I4B d   1      -0.217   3.855  -1.691  0.00  0.00     0.003 A 
ATOM      3  C3  I4B d   1       0.557   4.344  -0.612  0.00  0.00     0.002 A 
ATOM      4  C4  I4B d   1       0.534   3.679   0.597  0.00  0.00    -0.004 A 
ATOM      5  C5  I4B d   1      -0.188   2.497   0.730  0.00  0.00     0.002 A 
ATOM      6  C6  I4B d   1      -0.923   1.997  -0.354  0.00  0.00     0.003 A 
ENDROOT
BRANCH   1   7
ATOM      7  C1' I4B d   1      -1.779   2.230  -2.702  0.00  0.00     0.060 C 
BRANCH   7   8
ATOM      8  C2' I4B d   1      -3.038   1.601  -2.140  0.00  0.00    -0.013 C 
ATOM      9  C4' I4B d   1      -4.198   1.764  -3.087  0.00  0.00     0.013 C 
ATOM     10  C3' I4B d   1      -2.754   0.153  -1.876  0.00  0.00     0.013 C 
ENDBRANCH   7   8
ENDBRANCH   1   7
TORSDOF 2
ENDMDL
