MODEL 1
REMARK minimizedAffinity 7.24170685
REMARK minimizedRMSD -1
REMARK  2 active torsions:
REMARK  status: ('A' for Active; 'I' for Inactive)
REMARK    1  A    between atoms: C2'_3  and  C1'_4 
REMARK    2  A    between atoms: C1'_4  and  C1_5 
ROOT
ATOM      1  C1  I4B d   1      -1.004  -0.089   3.523  0.00  0.00    -0.075 A 
ATOM      2  C2  I4B d   1      -2.218  -0.360   4.104  0.00  0.00     0.003 A 
ATOM      3  C3  I4B d   1      -2.533  -1.678   4.514  0.00  0.00     0.002 A 
ATOM      4  C4  I4B d   1      -1.632  -2.697   4.279  0.00  0.00    -0.004 A 
ATOM      5  C5  I4B d   1      -0.393  -2.416   3.710  0.00  0.00     0.002 A 
ATOM      6  C6  I4B d   1      -0.072  -1.102   3.340  0.00  0.00     0.003 A 
ENDROOT
BRANCH   1   7
ATOM      7  C1' I4B d   1      -0.717   1.308   3.072  0.00  0.00     0.060 C 
BRANCH   7   8
ATOM      8  C2' I4B d   1      -1.310   1.483   1.688  0.00  0.00    -0.013 C 
ATOM      9  C4' I4B d   1      -2.806   1.647   1.753  0.00  0.00     0.013 C 
ATOM     10  C3' I4B d   1      -0.662   2.678   1.055  0.00  0.00     0.013 C 
ENDBRANCH   7   8
ENDBRANCH   1   7
TORSDOF 2
ENDMDL
