MODEL 1
REMARK minimizedAffinity 11.0323286
REMARK minimizedRMSD -1
REMARK  2 active torsions:
REMARK  status: ('A' for Active; 'I' for Inactive)
REMARK    1  A    between atoms: C2'_3  and  C1'_4 
REMARK    2  A    between atoms: C1'_4  and  C1_5 
ROOT
ATOM      1  C1  I4B d   1      -0.060   3.920  -0.369  0.00  0.00    -0.075 A 
ATOM      2  C2  I4B d   1      -0.018   3.302  -1.593  0.00  0.00     0.003 A 
ATOM      3  C3  I4B d   1      -0.516   3.962  -2.743  0.00  0.00     0.002 A 
ATOM      4  C4  I4B d   1      -1.089   5.210  -2.615  0.00  0.00    -0.004 A 
ATOM      5  C5  I4B d   1      -1.110   5.845  -1.376  0.00  0.00     0.002 A 
ATOM      6  C6  I4B d   1      -0.581   5.202  -0.248  0.00  0.00     0.003 A 
ENDROOT
BRANCH   1   7
ATOM      7  C1' I4B d   1       0.444   3.181   0.830  0.00  0.00     0.060 C 
BRANCH   7   8
ATOM      8  C2' I4B d   1      -0.309   1.869   0.920  0.00  0.00    -0.013 C 
ATOM      9  C4' I4B d   1      -0.042   1.176   2.230  0.00  0.00     0.013 C 
ATOM     10  C3' I4B d   1      -1.770   2.161   0.749  0.00  0.00     0.013 C 
ENDBRANCH   7   8
ENDBRANCH   1   7
TORSDOF 2
ENDMDL
