MODEL 1
REMARK minimizedAffinity 17.8412056
REMARK minimizedRMSD -1
REMARK  2 active torsions:
REMARK  status: ('A' for Active; 'I' for Inactive)
REMARK    1  A    between atoms: C2'_3  and  C1'_4 
REMARK    2  A    between atoms: C1'_4  and  C1_5 
ROOT
ATOM      1  C1  I4B d   1       0.210   2.897  -0.491  0.00  0.00    -0.075 A 
ATOM      2  C2  I4B d   1       0.543   3.845   0.444  0.00  0.00     0.003 A 
ATOM      3  C3  I4B d   1       0.918   5.148   0.035  0.00  0.00     0.002 A 
ATOM      4  C4  I4B d   1       0.994   5.442  -1.311  0.00  0.00    -0.004 A 
ATOM      5  C5  I4B d   1       0.634   4.486  -2.257  0.00  0.00     0.002 A 
ATOM      6  C6  I4B d   1       0.227   3.209  -1.844  0.00  0.00     0.003 A 
ENDROOT
BRANCH   1   7
ATOM      7  C1' I4B d   1      -0.150   1.521  -0.025  0.00  0.00     0.060 C 
BRANCH   7   8
ATOM      8  C2' I4B d   1      -0.505   1.604   1.445  0.00  0.00    -0.013 C 
ATOM      9  C4' I4B d   1      -1.943   1.224   1.681  0.00  0.00     0.013 C 
ATOM     10  C3' I4B d   1       0.424   0.700   2.198  0.00  0.00     0.013 C 
ENDBRANCH   7   8
ENDBRANCH   1   7
TORSDOF 2
ENDMDL
