MODEL 1
REMARK minimizedAffinity 9.23707962
REMARK minimizedRMSD -1
REMARK  2 active torsions:
REMARK  status: ('A' for Active; 'I' for Inactive)
REMARK    1  A    between atoms: C2'_3  and  C1'_4 
REMARK    2  A    between atoms: C1'_4  and  C1_5 
ROOT
ATOM      1  C1  I4B d   1      -0.103   3.925  -0.476  0.00  0.00    -0.075 A 
ATOM      2  C2  I4B d   1      -0.335   3.402  -1.725  0.00  0.00     0.003 A 
ATOM      3  C3  I4B d   1      -1.145   4.102  -2.651  0.00  0.00     0.002 A 
ATOM      4  C4  I4B d   1      -1.741   5.288  -2.273  0.00  0.00    -0.004 A 
ATOM      5  C5  I4B d   1      -1.487   5.827  -1.015  0.00  0.00     0.002 A 
ATOM      6  C6  I4B d   1      -0.653   5.148  -0.115  0.00  0.00     0.003 A 
ENDROOT
BRANCH   1   7
ATOM      7  C1' I4B d   1       0.731   3.143   0.489  0.00  0.00     0.060 C 
BRANCH   7   8
ATOM      8  C2' I4B d   1      -0.012   1.864   0.818  0.00  0.00    -0.013 C 
ATOM      9  C4' I4B d   1       0.378   1.341   2.175  0.00  0.00     0.013 C 
ATOM     10  C3' I4B d   1      -1.482   2.152   0.750  0.00  0.00     0.013 C 
ENDBRANCH   7   8
ENDBRANCH   1   7
TORSDOF 2
ENDMDL
