MODEL 1
REMARK minimizedAffinity 11.1517334
REMARK minimizedRMSD -1
REMARK  2 active torsions:
REMARK  status: ('A' for Active; 'I' for Inactive)
REMARK    1  A    between atoms: C2'_3  and  C1'_4 
REMARK    2  A    between atoms: C1'_4  and  C1_5 
ROOT
ATOM      1  C1  I4B d   1      -2.388   5.798   0.242  0.00  0.00    -0.075 A 
ATOM      2  C2  I4B d   1      -3.081   5.902   1.422  0.00  0.00     0.003 A 
ATOM      3  C3  I4B d   1      -4.495   5.979   1.414  0.00  0.00     0.002 A 
ATOM      4  C4  I4B d   1      -5.167   6.000   0.210  0.00  0.00    -0.004 A 
ATOM      5  C5  I4B d   1      -4.464   5.871  -0.985  0.00  0.00     0.002 A 
ATOM      6  C6  I4B d   1      -3.067   5.757  -0.968  0.00  0.00     0.003 A 
ENDROOT
BRANCH   1   7
ATOM      7  C1' I4B d   1      -0.893   5.751   0.286  0.00  0.00     0.060 C 
BRANCH   7   8
ATOM      8  C2' I4B d   1      -0.433   4.644  -0.640  0.00  0.00    -0.013 C 
ATOM      9  C4' I4B d   1       1.037   4.762  -0.944  0.00  0.00     0.013 C 
ATOM     10  C3' I4B d   1      -0.747   3.332   0.015  0.00  0.00     0.013 C 
ENDBRANCH   7   8
ENDBRANCH   1   7
TORSDOF 2
ENDMDL
