MODEL 1
REMARK minimizedAffinity 15.0221148
REMARK minimizedRMSD -1
REMARK  2 active torsions:
REMARK  status: ('A' for Active; 'I' for Inactive)
REMARK    1  A    between atoms: C2'_3  and  C1'_4 
REMARK    2  A    between atoms: C1'_4  and  C1_5 
ROOT
ATOM      1  C1  I4B d   1       0.410   0.668   0.873  0.00  0.00    -0.075 A 
ATOM      2  C2  I4B d   1      -0.926   0.626   0.559  0.00  0.00     0.003 A 
ATOM      3  C3  I4B d   1      -1.558   1.754  -0.019  0.00  0.00     0.002 A 
ATOM      4  C4  I4B d   1      -0.834   2.911  -0.218  0.00  0.00    -0.004 A 
ATOM      5  C5  I4B d   1       0.526   2.944   0.079  0.00  0.00     0.002 A 
ATOM      6  C6  I4B d   1       1.155   1.812   0.617  0.00  0.00     0.003 A 
ENDROOT
BRANCH   1   7
ATOM      7  C1' I4B d   1       1.038  -0.530   1.512  0.00  0.00     0.060 C 
BRANCH   7   8
ATOM      8  C2' I4B d   1       1.647  -1.379   0.415  0.00  0.00    -0.013 C 
ATOM      9  C4' I4B d   1       3.070  -1.750   0.740  0.00  0.00     0.013 C 
ATOM     10  C3' I4B d   1       0.793  -2.600   0.247  0.00  0.00     0.013 C 
ENDBRANCH   7   8
ENDBRANCH   1   7
TORSDOF 2
ENDMDL
