MODEL 1
REMARK minimizedAffinity 7.95985699
REMARK minimizedRMSD -1
REMARK  2 active torsions:
REMARK  status: ('A' for Active; 'I' for Inactive)
REMARK    1  A    between atoms: C2'_3  and  C1'_4 
REMARK    2  A    between atoms: C1'_4  and  C1_5 
ROOT
ATOM      1  C1  I4B d   1      -3.620  -3.254   5.593  0.00  0.00    -0.075 A 
ATOM      2  C2  I4B d   1      -4.792  -2.643   5.961  0.00  0.00     0.003 A 
ATOM      3  C3  I4B d   1      -6.000  -3.383   6.000  0.00  0.00     0.002 A 
ATOM      4  C4  I4B d   1      -5.997  -4.708   5.617  0.00  0.00    -0.004 A 
ATOM      5  C5  I4B d   1      -4.803  -5.332   5.266  0.00  0.00     0.002 A 
ATOM      6  C6  I4B d   1      -3.604  -4.604   5.266  0.00  0.00     0.003 A 
ENDROOT
BRANCH   1   7
ATOM      7  C1' I4B d   1      -2.369  -2.435   5.532  0.00  0.00     0.060 C 
BRANCH   7   8
ATOM      8  C2' I4B d   1      -2.002  -2.253   4.073  0.00  0.00    -0.013 C 
ATOM      9  C4' I4B d   1      -2.258  -0.840   3.619  0.00  0.00     0.013 C 
ATOM     10  C3' I4B d   1      -0.557  -2.621   3.910  0.00  0.00     0.013 C 
ENDBRANCH   7   8
ENDBRANCH   1   7
TORSDOF 2
ENDMDL
