MODEL 1
REMARK minimizedAffinity 7.83718586
REMARK minimizedRMSD -1
REMARK  2 active torsions:
REMARK  status: ('A' for Active; 'I' for Inactive)
REMARK    1  A    between atoms: C2'_3  and  C1'_4 
REMARK    2  A    between atoms: C1'_4  and  C1_5 
ROOT
ATOM      1  C1  I4B d   1      -1.358  -0.908   3.651  0.00  0.00    -0.075 A 
ATOM      2  C2  I4B d   1      -0.169  -1.537   3.378  0.00  0.00     0.003 A 
ATOM      3  C3  I4B d   1      -0.030  -2.928   3.600  0.00  0.00     0.002 A 
ATOM      4  C4  I4B d   1      -1.084  -3.639   4.138  0.00  0.00    -0.004 A 
ATOM      5  C5  I4B d   1      -2.296  -3.004   4.393  0.00  0.00     0.002 A 
ATOM      6  C6  I4B d   1      -2.439  -1.633   4.136  0.00  0.00     0.003 A 
ENDROOT
BRANCH   1   7
ATOM      7  C1' I4B d   1      -1.458   0.569   3.436  0.00  0.00     0.060 C 
BRANCH   7   8
ATOM      8  C2' I4B d   1      -0.100   1.069   2.990  0.00  0.00    -0.013 C 
ATOM      9  C4' I4B d   1      -0.204   1.864   1.715  0.00  0.00     0.013 C 
ATOM     10  C3' I4B d   1       0.476   1.898   4.099  0.00  0.00     0.013 C 
ENDBRANCH   7   8
ENDBRANCH   1   7
TORSDOF 2
ENDMDL
