MODEL 1
REMARK minimizedAffinity 8.89829826
REMARK minimizedRMSD -1
REMARK  2 active torsions:
REMARK  status: ('A' for Active; 'I' for Inactive)
REMARK    1  A    between atoms: C2'_3  and  C1'_4 
REMARK    2  A    between atoms: C1'_4  and  C1_5 
ROOT
ATOM      1  C1  I4B d   1      -0.001   3.551   0.562  0.00  0.00    -0.075 A 
ATOM      2  C2  I4B d   1       0.617   3.713  -0.653  0.00  0.00     0.003 A 
ATOM      3  C3  I4B d   1       0.565   4.962  -1.319  0.00  0.00     0.002 A 
ATOM      4  C4  I4B d   1      -0.153   6.000  -0.762  0.00  0.00    -0.004 A 
ATOM      5  C5  I4B d   1      -0.760   5.841   0.481  0.00  0.00     0.002 A 
ATOM      6  C6  I4B d   1      -0.673   4.613   1.153  0.00  0.00     0.003 A 
ENDROOT
BRANCH   1   7
ATOM      7  C1' I4B d   1       0.046   2.210   1.221  0.00  0.00     0.060 C 
BRANCH   7   8
ATOM      8  C2' I4B d   1      -0.392   2.382   2.662  0.00  0.00    -0.013 C 
ATOM      9  C4' I4B d   1      -1.447   1.375   3.035  0.00  0.00     0.013 C 
ATOM     10  C3' I4B d   1       0.821   2.245   3.533  0.00  0.00     0.013 C 
ENDBRANCH   7   8
ENDBRANCH   1   7
TORSDOF 2
ENDMDL
