MODEL 1
REMARK minimizedAffinity 0.702965736
REMARK minimizedRMSD -1
REMARK  2 active torsions:
REMARK  status: ('A' for Active; 'I' for Inactive)
REMARK    1  A    between atoms: C2'_3  and  C1'_4 
REMARK    2  A    between atoms: C1'_4  and  C1_5 
ROOT
ATOM      1  C1  I4B d   1      -0.590  -1.007   3.198  0.00  0.00    -0.075 A 
ATOM      2  C2  I4B d   1      -1.491  -0.061   3.618  0.00  0.00     0.003 A 
ATOM      3  C3  I4B d   1      -1.774   1.064   2.806  0.00  0.00     0.002 A 
ATOM      4  C4  I4B d   1      -1.100   1.228   1.613  0.00  0.00    -0.004 A 
ATOM      5  C5  I4B d   1      -0.204   0.256   1.178  0.00  0.00     0.002 A 
ATOM      6  C6  I4B d   1       0.044  -0.875   1.970  0.00  0.00     0.003 A 
ENDROOT
BRANCH   1   7
ATOM      7  C1' I4B d   1      -0.290  -2.166   4.095  0.00  0.00     0.060 C 
BRANCH   7   8
ATOM      8  C2' I4B d   1      -1.484  -3.098   4.068  0.00  0.00    -0.013 C 
ATOM      9  C4' I4B d   1      -1.165  -4.371   3.330  0.00  0.00     0.013 C 
ATOM     10  C3' I4B d   1      -1.884  -3.380   5.486  0.00  0.00     0.013 C 
ENDBRANCH   7   8
ENDBRANCH   1   7
TORSDOF 2
ENDMDL
