MODEL 1
REMARK minimizedAffinity -1.72797775
REMARK minimizedRMSD -1
REMARK  0 active torsions:
REMARK  status: ('A' for Active; 'I' for Inactive)
ROOT
ATOM      1  C   UNL d   1       0.009  -1.021   1.076  0.00  0.00     0.023 A 
ATOM      2  C1  UNL d   1      -0.539  -0.278   2.122  0.00  0.00     0.003 A 
ATOM      3  C2  UNL d   1      -0.499   1.117   2.085  0.00  0.00     0.048 A 
ATOM      4  C3  UNL d   1       0.088   1.764   0.998  0.00  0.00     0.023 A 
ATOM      5  C4  UNL d   1       0.637   1.024  -0.052  0.00  0.00     0.048 A 
ATOM      6  C5  UNL d   1       0.596  -0.370  -0.010  0.00  0.00     0.003 A 
ATOM      7  I   UNL d   1       0.148   3.840   0.940  0.00  0.00    -0.146 I 
ENDROOT
TORSDOF 0
ENDMDL
