MODEL 1
REMARK minimizedAffinity -2.19178224
REMARK minimizedRMSD -1
REMARK  0 active torsions:
REMARK  status: ('A' for Active; 'I' for Inactive)
ROOT
ATOM      1  C   UNL d   1       1.038  -3.904  -2.780  0.00  0.00     0.023 A 
ATOM      2  C1  UNL d   1       1.054  -2.598  -3.269  0.00  0.00     0.003 A 
ATOM      3  C2  UNL d   1       0.759  -1.529  -2.420  0.00  0.00     0.048 A 
ATOM      4  C3  UNL d   1       0.450  -1.774  -1.082  0.00  0.00     0.023 A 
ATOM      5  C4  UNL d   1       0.433  -3.080  -0.588  0.00  0.00     0.048 A 
ATOM      6  C5  UNL d   1       0.728  -4.145  -1.441  0.00  0.00     0.003 A 
ATOM      7  I   UNL d   1       0.010  -0.185   0.183  0.00  0.00    -0.146 I 
ENDROOT
TORSDOF 0
ENDMDL
