MODEL 1
REMARK minimizedAffinity -1.22440577
REMARK minimizedRMSD -1
REMARK  0 active torsions:
REMARK  status: ('A' for Active; 'I' for Inactive)
ROOT
ATOM      1  C   UNL d   1      -0.761   1.171   1.741  0.00  0.00     0.023 A 
ATOM      2  C1  UNL d   1       0.026   1.526   0.646  0.00  0.00     0.003 A 
ATOM      3  C2  UNL d   1       0.571   0.536  -0.174  0.00  0.00     0.048 A 
ATOM      4  C3  UNL d   1       0.324  -0.807   0.106  0.00  0.00     0.023 A 
ATOM      5  C4  UNL d   1      -0.464  -1.167   1.200  0.00  0.00     0.048 A 
ATOM      6  C5  UNL d   1      -1.006  -0.174   2.018  0.00  0.00     0.003 A 
ATOM      7  I   UNL d   1       1.133  -2.283  -1.114  0.00  0.00    -0.146 I 
ENDROOT
TORSDOF 0
ENDMDL
