MODEL 1
REMARK minimizedAffinity -2.52075315
REMARK minimizedRMSD -1
REMARK  0 active torsions:
REMARK  status: ('A' for Active; 'I' for Inactive)
ROOT
ATOM      1  C   UNL d   1      -0.611   0.216   1.264  0.00  0.00     0.023 A 
ATOM      2  C1  UNL d   1      -1.114  -1.076   1.115  0.00  0.00     0.003 A 
ATOM      3  C2  UNL d   1      -0.735  -1.852   0.018  0.00  0.00     0.048 A 
ATOM      4  C3  UNL d   1       0.149  -1.330  -0.926  0.00  0.00     0.023 A 
ATOM      5  C4  UNL d   1       0.655  -0.038  -0.780  0.00  0.00     0.048 A 
ATOM      6  C5  UNL d   1       0.273   0.735   0.317  0.00  0.00     0.003 A 
ATOM      7  I   UNL d   1       0.715  -2.484  -2.559  0.00  0.00    -0.146 I 
ENDROOT
TORSDOF 0
ENDMDL
