MODEL 1
REMARK minimizedAffinity -2.51924777
REMARK minimizedRMSD -1
REMARK  0 active torsions:
REMARK  status: ('A' for Active; 'I' for Inactive)
ROOT
ATOM      1  C   UNL d   1      -1.193   1.352   1.905  0.00  0.00     0.023 A 
ATOM      2  C1  UNL d   1      -0.832   1.745   0.616  0.00  0.00     0.003 A 
ATOM      3  C2  UNL d   1      -0.184   0.846  -0.234  0.00  0.00     0.048 A 
ATOM      4  C3  UNL d   1       0.098  -0.445   0.211  0.00  0.00     0.023 A 
ATOM      5  C4  UNL d   1      -0.262  -0.843   1.499  0.00  0.00     0.048 A 
ATOM      6  C5  UNL d   1      -0.908   0.059   2.346  0.00  0.00     0.003 A 
ATOM      7  I   UNL d   1       1.062  -1.785  -1.053  0.00  0.00    -0.146 I 
ENDROOT
TORSDOF 0
ENDMDL
