MODEL 1
REMARK minimizedAffinity 1.49585712
REMARK minimizedRMSD -1
REMARK  0 active torsions:
REMARK  status: ('A' for Active; 'I' for Inactive)
ROOT
ATOM      1  C   UNL d   1       0.884  -1.528  -2.539  0.00  0.00     0.023 A 
ATOM      2  C1  UNL d   1       0.789  -2.683  -3.314  0.00  0.00     0.003 A 
ATOM      3  C2  UNL d   1       1.010  -3.935  -2.735  0.00  0.00     0.048 A 
ATOM      4  C3  UNL d   1       1.324  -4.023  -1.379  0.00  0.00     0.023 A 
ATOM      5  C4  UNL d   1       1.419  -2.869  -0.599  0.00  0.00     0.048 A 
ATOM      6  C5  UNL d   1       1.199  -1.620  -1.183  0.00  0.00     0.003 A 
ATOM      7  I   UNL d   1       1.652  -5.884  -0.514  0.00  0.00    -0.146 I 
ENDROOT
TORSDOF 0
ENDMDL
