MODEL 1
REMARK minimizedAffinity 1.13559961
REMARK minimizedRMSD -1
REMARK  0 active torsions:
REMARK  status: ('A' for Active; 'I' for Inactive)
ROOT
ATOM      1  C   UNL d   1      -0.259   0.812   1.195  0.00  0.00     0.023 A 
ATOM      2  C1  UNL d   1       0.660   1.089   0.184  0.00  0.00     0.003 A 
ATOM      3  C2  UNL d   1       1.162   0.054  -0.608  0.00  0.00     0.048 A 
ATOM      4  C3  UNL d   1       0.740  -1.256  -0.383  0.00  0.00     0.023 A 
ATOM      5  C4  UNL d   1      -0.181  -1.537   0.628  0.00  0.00     0.048 A 
ATOM      6  C5  UNL d   1      -0.679  -0.499   1.417  0.00  0.00     0.003 A 
ATOM      7  I   UNL d   1       1.485  -2.798  -1.560  0.00  0.00    -0.146 I 
ENDROOT
TORSDOF 0
ENDMDL
