MODEL 1
REMARK minimizedAffinity 1.10828364
REMARK minimizedRMSD -1
REMARK  0 active torsions:
REMARK  status: ('A' for Active; 'I' for Inactive)
ROOT
ATOM      1  C   UNL d   1      -0.159  -0.200   2.976  0.00  0.00     0.023 A 
ATOM      2  C1  UNL d   1      -0.711   0.975   2.467  0.00  0.00     0.003 A 
ATOM      3  C2  UNL d   1      -0.405   1.387   1.169  0.00  0.00     0.048 A 
ATOM      4  C3  UNL d   1       0.454   0.619   0.384  0.00  0.00     0.023 A 
ATOM      5  C4  UNL d   1       1.009  -0.558   0.889  0.00  0.00     0.048 A 
ATOM      6  C5  UNL d   1       0.700  -0.966   2.188  0.00  0.00     0.003 A 
ATOM      7  I   UNL d   1       0.911   1.230  -1.549  0.00  0.00    -0.146 I 
ENDROOT
TORSDOF 0
ENDMDL
