MODEL 1
REMARK minimizedAffinity -3.58804989
REMARK minimizedRMSD -1
REMARK  0 active torsions:
REMARK  status: ('A' for Active; 'I' for Inactive)
ROOT
ATOM      1  C   UNL d   1      -1.549   3.089   1.832  0.00  0.00     0.023 A 
ATOM      2  C1  UNL d   1      -1.698   1.794   2.328  0.00  0.00     0.003 A 
ATOM      3  C2  UNL d   1      -1.120   0.716   1.654  0.00  0.00     0.048 A 
ATOM      4  C3  UNL d   1      -0.393   0.941   0.486  0.00  0.00     0.023 A 
ATOM      5  C4  UNL d   1      -0.240   2.235  -0.014  0.00  0.00     0.048 A 
ATOM      6  C5  UNL d   1      -0.821   3.309   0.662  0.00  0.00     0.003 A 
ATOM      7  I   UNL d   1       0.469  -0.662  -0.519  0.00  0.00    -0.146 I 
ENDROOT
TORSDOF 0
ENDMDL
