MODEL 1
REMARK minimizedAffinity -2.44981289
REMARK minimizedRMSD -1
REMARK  0 active torsions:
REMARK  status: ('A' for Active; 'I' for Inactive)
ROOT
ATOM      1  C   UNL d   1      -0.853   3.601   1.585  0.00  0.00     0.023 A 
ATOM      2  C1  UNL d   1      -1.081   2.389   2.237  0.00  0.00     0.003 A 
ATOM      3  C2  UNL d   1      -0.723   1.187   1.624  0.00  0.00     0.048 A 
ATOM      4  C3  UNL d   1      -0.136   1.204   0.359  0.00  0.00     0.023 A 
ATOM      5  C4  UNL d   1       0.095   2.414  -0.297  0.00  0.00     0.048 A 
ATOM      6  C5  UNL d   1      -0.266   3.614   0.320  0.00  0.00     0.003 A 
ATOM      7  I   UNL d   1       0.398  -0.584  -0.556  0.00  0.00    -0.146 I 
ENDROOT
TORSDOF 0
ENDMDL
