MODEL 1
REMARK minimizedAffinity -3.8126545
REMARK minimizedRMSD -1
REMARK  0 active torsions:
REMARK  status: ('A' for Active; 'I' for Inactive)
ROOT
ATOM      1  C   UNL d   1      -1.136   3.515   0.814  0.00  0.00     0.023 A 
ATOM      2  C1  UNL d   1      -0.276   3.478  -0.284  0.00  0.00     0.003 A 
ATOM      3  C2  UNL d   1       0.190   2.254  -0.767  0.00  0.00     0.048 A 
ATOM      4  C3  UNL d   1      -0.208   1.070  -0.148  0.00  0.00     0.023 A 
ATOM      5  C4  UNL d   1      -1.070   1.101   0.950  0.00  0.00     0.048 A 
ATOM      6  C5  UNL d   1      -1.532   2.327   1.430  0.00  0.00     0.003 A 
ATOM      7  I   UNL d   1       0.484  -0.754  -0.866  0.00  0.00    -0.146 I 
ENDROOT
TORSDOF 0
ENDMDL
