MODEL 1
REMARK minimizedAffinity -4.0530982
REMARK minimizedRMSD -1
REMARK  0 active torsions:
REMARK  status: ('A' for Active; 'I' for Inactive)
ROOT
ATOM      1  C   UNL d   1      -1.208   3.000   1.229  0.00  0.00     0.023 A 
ATOM      2  C1  UNL d   1      -0.513   3.122   0.025  0.00  0.00     0.003 A 
ATOM      3  C2  UNL d   1      -0.011   1.986  -0.612  0.00  0.00     0.048 A 
ATOM      4  C3  UNL d   1      -0.208   0.729  -0.040  0.00  0.00     0.023 A 
ATOM      5  C4  UNL d   1      -0.903   0.602   1.164  0.00  0.00     0.048 A 
ATOM      6  C5  UNL d   1      -1.402   1.741   1.797  0.00  0.00     0.003 A 
ATOM      7  I   UNL d   1       0.539  -0.964  -0.986  0.00  0.00    -0.146 I 
ENDROOT
TORSDOF 0
ENDMDL
