MODEL 1
REMARK minimizedAffinity -1.9827832
REMARK minimizedRMSD -1
REMARK  0 active torsions:
REMARK  status: ('A' for Active; 'I' for Inactive)
ROOT
ATOM      1  C   UNL d   1      -0.381   4.254   0.178  0.00  0.00     0.023 A 
ATOM      2  C1  UNL d   1      -0.982   3.727   1.321  0.00  0.00     0.003 A 
ATOM      3  C2  UNL d   1      -0.972   2.349   1.544  0.00  0.00     0.048 A 
ATOM      4  C3  UNL d   1      -0.358   1.503   0.621  0.00  0.00     0.023 A 
ATOM      5  C4  UNL d   1       0.245   2.026  -0.524  0.00  0.00     0.048 A 
ATOM      6  C5  UNL d   1       0.232   3.405  -0.744  0.00  0.00     0.003 A 
ATOM      7  I   UNL d   1      -0.342  -0.549   0.951  0.00  0.00    -0.146 I 
ENDROOT
TORSDOF 0
ENDMDL
