MODEL 1
REMARK minimizedAffinity -4.17312431
REMARK minimizedRMSD -1
REMARK  0 active torsions:
REMARK  status: ('A' for Active; 'I' for Inactive)
ROOT
ATOM      1  C   UNL d   1      -0.803   1.492   1.870  0.00  0.00     0.023 A 
ATOM      2  C1  UNL d   1      -1.014   0.143   2.153  0.00  0.00     0.003 A 
ATOM      3  C2  UNL d   1      -0.425  -0.840   1.354  0.00  0.00     0.048 A 
ATOM      4  C3  UNL d   1       0.375  -0.466   0.275  0.00  0.00     0.023 A 
ATOM      5  C4  UNL d   1       0.590   0.883  -0.011  0.00  0.00     0.048 A 
ATOM      6  C5  UNL d   1      -0.001   1.862   0.789  0.00  0.00     0.003 A 
ATOM      7  I   UNL d   1       1.253  -1.927  -0.914  0.00  0.00    -0.146 I 
ENDROOT
TORSDOF 0
ENDMDL
