MODEL 1
REMARK minimizedAffinity -1.56537819
REMARK minimizedRMSD -1
REMARK  0 active torsions:
REMARK  status: ('A' for Active; 'I' for Inactive)
ROOT
ATOM      1  C   UNL d   1       0.098   3.857   0.413  0.00  0.00     0.023 A 
ATOM      2  C1  UNL d   1       0.784   2.983  -0.430  0.00  0.00     0.003 A 
ATOM      3  C2  UNL d   1       0.713   1.605  -0.218  0.00  0.00     0.048 A 
ATOM      4  C3  UNL d   1      -0.048   1.107   0.840  0.00  0.00     0.023 A 
ATOM      5  C4  UNL d   1      -0.737   1.977   1.686  0.00  0.00     0.048 A 
ATOM      6  C5  UNL d   1      -0.662   3.355   1.470  0.00  0.00     0.003 A 
ATOM      7  I   UNL d   1      -0.156  -0.944   1.158  0.00  0.00    -0.146 I 
ENDROOT
TORSDOF 0
ENDMDL
