MODEL 1
REMARK minimizedAffinity -1.91419077
REMARK minimizedRMSD -1
REMARK  1 active torsions:
REMARK  status: ('A' for Active; 'I' for Inactive)
REMARK    1  A    between atoms: C1_2  and  C2_3 
ROOT
ATOM      1  C2  UNL d   1       0.729   0.186   0.430  0.00  0.00    -0.077 A 
ATOM      2  C3  UNL d   1       0.325   1.057  -0.592  0.00  0.00     0.002 A 
ATOM      3  C4  UNL d   1      -0.433   2.191  -0.294  0.00  0.00     0.002 A 
ATOM      4  C5  UNL d   1      -0.791   2.465   1.024  0.00  0.00    -0.004 A 
ATOM      5  C6  UNL d   1      -0.397   1.604   2.047  0.00  0.00     0.002 A 
ATOM      6  C7  UNL d   1       0.360   0.469   1.751  0.00  0.00     0.002 A 
ENDROOT
BRANCH   1   7
ATOM      7  C1  UNL d   1       1.588  -1.011   0.117  0.00  0.00     0.055 C 
ATOM      8  C   UNL d   1       3.046  -0.754   0.472  0.00  0.00     0.019 C 
ENDBRANCH   1   7
TORSDOF 1
ENDMDL
