MODEL 1
REMARK minimizedAffinity -2.32859826
REMARK minimizedRMSD -1
REMARK  1 active torsions:
REMARK  status: ('A' for Active; 'I' for Inactive)
REMARK    1  A    between atoms: C1_2  and  C2_3 
ROOT
ATOM      1  C2  UNL d   1      -0.384   2.705   0.758  0.00  0.00    -0.077 A 
ATOM      2  C3  UNL d   1       0.539   1.653   0.835  0.00  0.00     0.002 A 
ATOM      3  C4  UNL d   1       0.592   0.685  -0.169  0.00  0.00     0.002 A 
ATOM      4  C5  UNL d   1      -0.272   0.762  -1.259  0.00  0.00    -0.004 A 
ATOM      5  C6  UNL d   1      -1.196   1.803  -1.344  0.00  0.00     0.002 A 
ATOM      6  C7  UNL d   1      -1.251   2.771  -0.340  0.00  0.00     0.002 A 
ENDROOT
BRANCH   1   7
ATOM      7  C1  UNL d   1      -0.409   3.778   1.816  0.00  0.00     0.055 C 
ATOM      8  C   UNL d   1       0.977   4.362   2.045  0.00  0.00     0.019 C 
ENDBRANCH   1   7
TORSDOF 1
ENDMDL
