MODEL 1
REMARK minimizedAffinity -1.80199683
REMARK minimizedRMSD -1
REMARK  1 active torsions:
REMARK  status: ('A' for Active; 'I' for Inactive)
REMARK    1  A    between atoms: C1_2  and  C2_3 
ROOT
ATOM      1  C2  UNL d   1      -1.007  -1.358   0.024  0.00  0.00    -0.077 A 
ATOM      2  C3  UNL d   1      -1.960  -0.474   0.549  0.00  0.00     0.002 A 
ATOM      3  C4  UNL d   1      -1.711   0.900   0.573  0.00  0.00     0.002 A 
ATOM      4  C5  UNL d   1      -0.512   1.401   0.070  0.00  0.00    -0.004 A 
ATOM      5  C6  UNL d   1       0.443   0.530  -0.452  0.00  0.00     0.002 A 
ATOM      6  C7  UNL d   1       0.197  -0.844  -0.475  0.00  0.00     0.002 A 
ENDROOT
BRANCH   1   7
ATOM      7  C1  UNL d   1      -1.294  -2.835  -0.047  0.00  0.00     0.055 C 
ATOM      8  C   UNL d   1      -0.732  -3.447  -1.322  0.00  0.00     0.019 C 
ENDBRANCH   1   7
TORSDOF 1
ENDMDL
