MODEL 1
REMARK minimizedAffinity -3.35918999
REMARK minimizedRMSD -1
REMARK  0 active torsions:
REMARK  status: ('A' for Active; 'I' for Inactive)
ROOT
ATOM      1  C   UNL d   1      -0.041  -0.028  -2.019  0.00  0.00     0.077 C 
ATOM      2  C1  UNL d   1       0.478   0.147  -0.623  0.00  0.00    -0.074 A 
ATOM      3  C2  UNL d   1       1.723  -0.370  -0.248  0.00  0.00    -0.005 A 
ATOM      4  C3  UNL d   1       2.196  -0.192   1.051  0.00  0.00     0.006 A 
ATOM      5  C4  UNL d   1       1.431   0.504   1.988  0.00  0.00    -0.005 A 
ATOM      6  C5  UNL d   1       0.185   1.029   1.632  0.00  0.00    -0.074 A 
ATOM      7  C6  UNL d   1      -0.645   1.788   2.624  0.00  0.00     0.077 C 
ATOM      8  C7  UNL d   1      -0.281   0.852   0.322  0.00  0.00    -0.001 A 
ENDROOT
TORSDOF 0
ENDMDL
