MODEL 1
REMARK minimizedAffinity -0.818245769
REMARK minimizedRMSD -1
REMARK  0 active torsions:
REMARK  status: ('A' for Active; 'I' for Inactive)
ROOT
ATOM      1  C   UNL d   1       1.332   0.937  -4.685  0.00  0.00     0.077 C 
ATOM      2  C1  UNL d   1       1.309   0.297  -3.329  0.00  0.00    -0.074 A 
ATOM      3  C2  UNL d   1       2.497   0.000  -2.653  0.00  0.00    -0.005 A 
ATOM      4  C3  UNL d   1       2.460  -0.586  -1.388  0.00  0.00     0.006 A 
ATOM      5  C4  UNL d   1       1.236  -0.882  -0.787  0.00  0.00    -0.005 A 
ATOM      6  C5  UNL d   1       0.037  -0.592  -1.446  0.00  0.00    -0.074 A 
ATOM      7  C6  UNL d   1      -1.287  -0.894  -0.810  0.00  0.00     0.077 C 
ATOM      8  C7  UNL d   1       0.083   0.004  -2.714  0.00  0.00    -0.001 A 
ENDROOT
TORSDOF 0
ENDMDL
