MODEL 1
REMARK minimizedAffinity -4.62688684
REMARK minimizedRMSD -1
REMARK  0 active torsions:
REMARK  status: ('A' for Active; 'I' for Inactive)
ROOT
ATOM      1  C   UNL d   1       1.227  -0.776  -1.063  0.00  0.00     0.077 C 
ATOM      2  C1  UNL d   1       0.120  -0.214  -0.221  0.00  0.00    -0.074 A 
ATOM      3  C2  UNL d   1      -1.213  -0.308  -0.632  0.00  0.00    -0.005 A 
ATOM      4  C3  UNL d   1      -2.233   0.211   0.166  0.00  0.00     0.006 A 
ATOM      5  C4  UNL d   1      -1.930   0.828   1.380  0.00  0.00    -0.005 A 
ATOM      6  C5  UNL d   1      -0.602   0.931   1.807  0.00  0.00    -0.074 A 
ATOM      7  C6  UNL d   1      -0.260   1.583   3.114  0.00  0.00     0.077 C 
ATOM      8  C7  UNL d   1       0.416   0.401   1.003  0.00  0.00    -0.001 A 
ENDROOT
TORSDOF 0
ENDMDL
