MODEL 1
REMARK minimizedAffinity -3.4978528
REMARK minimizedRMSD -1
REMARK  0 active torsions:
REMARK  status: ('A' for Active; 'I' for Inactive)
ROOT
ATOM      1  C   UNL d   1      -0.055   1.214  -2.767  0.00  0.00     0.077 C 
ATOM      2  C1  UNL d   1       0.181   0.770  -1.353  0.00  0.00    -0.074 A 
ATOM      3  C2  UNL d   1       1.069  -0.271  -1.066  0.00  0.00    -0.005 A 
ATOM      4  C3  UNL d   1       1.285  -0.667   0.254  0.00  0.00     0.006 A 
ATOM      5  C4  UNL d   1       0.617  -0.026   1.298  0.00  0.00    -0.005 A 
ATOM      6  C5  UNL d   1      -0.274   1.018   1.030  0.00  0.00    -0.074 A 
ATOM      7  C6  UNL d   1      -0.993   1.724   2.141  0.00  0.00     0.077 C 
ATOM      8  C7  UNL d   1      -0.481   1.415  -0.299  0.00  0.00    -0.001 A 
ENDROOT
TORSDOF 0
ENDMDL
