MODEL 1
REMARK minimizedAffinity -4.15622807
REMARK minimizedRMSD -1
REMARK  0 active torsions:
REMARK  status: ('A' for Active; 'I' for Inactive)
ROOT
ATOM      1  C   UNL d   1      -0.293  -0.931  -2.093  0.00  0.00     0.077 C 
ATOM      2  C1  UNL d   1       0.449  -0.584  -0.837  0.00  0.00    -0.074 A 
ATOM      3  C2  UNL d   1       1.650  -1.223  -0.512  0.00  0.00    -0.005 A 
ATOM      4  C3  UNL d   1       2.334  -0.883   0.655  0.00  0.00     0.006 A 
ATOM      5  C4  UNL d   1       1.826   0.098   1.507  0.00  0.00    -0.005 A 
ATOM      6  C5  UNL d   1       0.627   0.748   1.199  0.00  0.00    -0.074 A 
ATOM      7  C6  UNL d   1       0.072   1.811   2.099  0.00  0.00     0.077 C 
ATOM      8  C7  UNL d   1      -0.051   0.406   0.021  0.00  0.00    -0.001 A 
ENDROOT
TORSDOF 0
ENDMDL
