MODEL 1
REMARK minimizedAffinity -3.62085748
REMARK minimizedRMSD -1
REMARK  1 active torsions:
REMARK  status: ('A' for Active; 'I' for Inactive)
REMARK    1  A    between atoms: C1_2  and  C2_3 
ROOT
ATOM      1  C2  UNL d   1      -2.033  -0.727   1.988  0.00  0.00    -0.077 A 
ATOM      2  C3  UNL d   1      -1.372  -0.418   0.790  0.00  0.00     0.002 A 
ATOM      3  C4  UNL d   1      -0.084  -0.900   0.549  0.00  0.00     0.002 A 
ATOM      4  C5  UNL d   1       0.553  -1.696   1.499  0.00  0.00    -0.004 A 
ATOM      5  C6  UNL d   1      -0.095  -2.007   2.694  0.00  0.00     0.002 A 
ATOM      6  C7  UNL d   1      -1.382  -1.525   2.937  0.00  0.00     0.002 A 
ENDROOT
BRANCH   1   7
ATOM      7  C1  UNL d   1      -3.441  -0.250   2.228  0.00  0.00     0.055 C 
ATOM      8  C   UNL d   1      -4.406  -0.836   1.207  0.00  0.00     0.019 C 
ENDBRANCH   1   7
TORSDOF 1
ENDMDL
