MODEL 1
REMARK minimizedAffinity -1.30885434
REMARK minimizedRMSD -1
REMARK  1 active torsions:
REMARK  status: ('A' for Active; 'I' for Inactive)
REMARK    1  A    between atoms: C1_2  and  C2_3 
ROOT
ATOM      1  C2  UNL d   1      -3.345   0.355   2.611  0.00  0.00    -0.077 A 
ATOM      2  C3  UNL d   1      -2.802   0.541   1.332  0.00  0.00     0.002 A 
ATOM      3  C4  UNL d   1      -1.501   0.121   1.050  0.00  0.00     0.002 A 
ATOM      4  C5  UNL d   1      -0.734  -0.492   2.039  0.00  0.00    -0.004 A 
ATOM      5  C6  UNL d   1      -1.265  -0.680   3.314  0.00  0.00     0.002 A 
ATOM      6  C7  UNL d   1      -2.564  -0.259   3.599  0.00  0.00     0.002 A 
ENDROOT
BRANCH   1   7
ATOM      7  C1  UNL d   1      -4.765   0.763   2.905  0.00  0.00     0.055 C 
ATOM      8  C   UNL d   1      -5.749   0.023   2.012  0.00  0.00     0.019 C 
ENDBRANCH   1   7
TORSDOF 1
ENDMDL
