MODEL 1
REMARK minimizedAffinity 1.68904471
REMARK minimizedRMSD -1
REMARK  1 active torsions:
REMARK  status: ('A' for Active; 'I' for Inactive)
REMARK    1  A    between atoms: C1_2  and  C2_3 
ROOT
ATOM      1  C2  UNL d   1      -3.042  -0.728   0.948  0.00  0.00    -0.077 A 
ATOM      2  C3  UNL d   1      -2.444  -0.039  -0.116  0.00  0.00     0.002 A 
ATOM      3  C4  UNL d   1      -1.056  -0.030  -0.261  0.00  0.00     0.002 A 
ATOM      4  C5  UNL d   1      -0.254  -0.711   0.652  0.00  0.00    -0.004 A 
ATOM      5  C6  UNL d   1      -0.838  -1.398   1.715  0.00  0.00     0.002 A 
ATOM      6  C7  UNL d   1      -2.226  -1.407   1.863  0.00  0.00     0.002 A 
ENDROOT
BRANCH   1   7
ATOM      7  C1  UNL d   1      -4.542  -0.780   1.078  0.00  0.00     0.055 C 
ATOM      8  C   UNL d   1      -5.023   0.040   2.267  0.00  0.00     0.019 C 
ENDBRANCH   1   7
TORSDOF 1
ENDMDL
