MODEL 1
REMARK minimizedAffinity -0.402839929
REMARK minimizedRMSD -1
REMARK  1 active torsions:
REMARK  status: ('A' for Active; 'I' for Inactive)
REMARK    1  A    between atoms: C1_2  and  C2_3 
ROOT
ATOM      1  C2  UNL d   1       1.891   5.629   4.524  0.00  0.00    -0.077 A 
ATOM      2  C3  UNL d   1       1.317   4.951   3.441  0.00  0.00     0.002 A 
ATOM      3  C4  UNL d   1      -0.046   4.648   3.439  0.00  0.00     0.002 A 
ATOM      4  C5  UNL d   1      -0.846   5.024   4.516  0.00  0.00    -0.004 A 
ATOM      5  C6  UNL d   1      -0.284   5.698   5.600  0.00  0.00     0.002 A 
ATOM      6  C7  UNL d   1       1.079   6.000   5.603  0.00  0.00     0.002 A 
ENDROOT
BRANCH   1   7
ATOM      7  C1  UNL d   1       3.351   6.000   4.506  0.00  0.00     0.055 C 
ATOM      8  C   UNL d   1       3.940   6.000   5.909  0.00  0.00     0.019 C 
ENDBRANCH   1   7
TORSDOF 1
ENDMDL
