MODEL 1
REMARK minimizedAffinity -1.96855259
REMARK minimizedRMSD -1
REMARK  1 active torsions:
REMARK  status: ('A' for Active; 'I' for Inactive)
REMARK    1  A    between atoms: C1_2  and  C2_3 
ROOT
ATOM      1  C2  UNL d   1       0.273  -1.033  -0.342  0.00  0.00    -0.077 A 
ATOM      2  C3  UNL d   1      -0.806  -0.191  -0.036  0.00  0.00     0.002 A 
ATOM      3  C4  UNL d   1      -1.429  -0.266   1.211  0.00  0.00     0.002 A 
ATOM      4  C5  UNL d   1      -0.977  -1.178   2.163  0.00  0.00    -0.004 A 
ATOM      5  C6  UNL d   1       0.093  -2.020   1.868  0.00  0.00     0.002 A 
ATOM      6  C7  UNL d   1       0.716  -1.948   0.621  0.00  0.00     0.002 A 
ENDROOT
BRANCH   1   7
ATOM      7  C1  UNL d   1       0.978  -0.919  -1.669  0.00  0.00     0.055 C 
ATOM      8  C   UNL d   1       1.689   0.419  -1.805  0.00  0.00     0.019 C 
ENDBRANCH   1   7
TORSDOF 1
ENDMDL
