MODEL 1
REMARK minimizedAffinity -0.498683959
REMARK minimizedRMSD -1
REMARK  1 active torsions:
REMARK  status: ('A' for Active; 'I' for Inactive)
REMARK    1  A    between atoms: C1_2  and  C2_3 
ROOT
ATOM      1  C2  UNL d   1      -0.598  -1.220   1.041  0.00  0.00    -0.077 A 
ATOM      2  C3  UNL d   1       0.414  -1.628   0.161  0.00  0.00     0.002 A 
ATOM      3  C4  UNL d   1       1.327  -2.613   0.543  0.00  0.00     0.002 A 
ATOM      4  C5  UNL d   1       1.235  -3.200   1.804  0.00  0.00    -0.004 A 
ATOM      5  C6  UNL d   1       0.233  -2.799   2.687  0.00  0.00     0.002 A 
ATOM      6  C7  UNL d   1      -0.680  -1.814   2.307  0.00  0.00     0.002 A 
ENDROOT
BRANCH   1   7
ATOM      7  C1  UNL d   1      -1.614  -0.193   0.612  0.00  0.00     0.055 C 
ATOM      8  C   UNL d   1      -2.949  -0.842   0.278  0.00  0.00     0.019 C 
ENDBRANCH   1   7
TORSDOF 1
ENDMDL
