MODEL 1
REMARK minimizedAffinity 2.37103033
REMARK minimizedRMSD -1
REMARK  1 active torsions:
REMARK  status: ('A' for Active; 'I' for Inactive)
REMARK    1  A    between atoms: C1_2  and  C2_3 
ROOT
ATOM      1  C2  UNL d   1      -0.629  -1.452   1.485  0.00  0.00    -0.077 A 
ATOM      2  C3  UNL d   1      -1.940  -1.076   1.164  0.00  0.00     0.002 A 
ATOM      3  C4  UNL d   1      -2.221  -0.466  -0.060  0.00  0.00     0.002 A 
ATOM      4  C5  UNL d   1      -1.196  -0.231  -0.975  0.00  0.00    -0.004 A 
ATOM      5  C6  UNL d   1       0.112  -0.600  -0.664  0.00  0.00     0.002 A 
ATOM      6  C7  UNL d   1       0.395  -1.208   0.560  0.00  0.00     0.002 A 
ENDROOT
BRANCH   1   7
ATOM      7  C1  UNL d   1      -0.332  -2.155   2.784  0.00  0.00     0.055 C 
ATOM      8  C   UNL d   1      -1.556  -2.893   3.306  0.00  0.00     0.019 C 
ENDBRANCH   1   7
TORSDOF 1
ENDMDL
