MODEL 1
REMARK minimizedAffinity -1.70893764
REMARK minimizedRMSD -1
REMARK  1 active torsions:
REMARK  status: ('A' for Active; 'I' for Inactive)
REMARK    1  A    between atoms: C1_2  and  C2_3 
ROOT
ATOM      1  C2  UNL d   1       0.548  -2.067   1.685  0.00  0.00    -0.077 A 
ATOM      2  C3  UNL d   1       0.629  -1.574   0.376  0.00  0.00     0.002 A 
ATOM      3  C4  UNL d   1      -0.246  -0.577  -0.059  0.00  0.00     0.002 A 
ATOM      4  C5  UNL d   1      -1.205  -0.061   0.810  0.00  0.00    -0.004 A 
ATOM      5  C6  UNL d   1      -1.295  -0.547   2.114  0.00  0.00     0.002 A 
ATOM      6  C7  UNL d   1      -0.422  -1.544   2.550  0.00  0.00     0.002 A 
ENDROOT
BRANCH   1   7
ATOM      7  C1  UNL d   1       1.522  -3.108   2.171  0.00  0.00     0.055 C 
ATOM      8  C   UNL d   1       2.007  -3.989   1.029  0.00  0.00     0.019 C 
ENDBRANCH   1   7
TORSDOF 1
ENDMDL
