MODEL 1
REMARK minimizedAffinity -3.74612927
REMARK minimizedRMSD -1
REMARK  1 active torsions:
REMARK  status: ('A' for Active; 'I' for Inactive)
REMARK    1  A    between atoms: C1_2  and  C2_3 
ROOT
ATOM      1  C2  UNL d   1       0.376  -0.494  -0.746  0.00  0.00    -0.077 A 
ATOM      2  C3  UNL d   1       1.316   0.304  -0.077  0.00  0.00     0.002 A 
ATOM      3  C4  UNL d   1       2.634   0.375  -0.533  0.00  0.00     0.002 A 
ATOM      4  C5  UNL d   1       3.023  -0.344  -1.661  0.00  0.00    -0.004 A 
ATOM      5  C6  UNL d   1       2.096  -1.142  -2.332  0.00  0.00     0.002 A 
ATOM      6  C7  UNL d   1       0.779  -1.216  -1.877  0.00  0.00     0.002 A 
ENDROOT
BRANCH   1   7
ATOM      7  C1  UNL d   1      -1.057  -0.534  -0.285  0.00  0.00     0.055 C 
ATOM      8  C   UNL d   1      -1.159  -0.351   1.222  0.00  0.00     0.019 C 
ENDBRANCH   1   7
TORSDOF 1
ENDMDL
