MODEL 1
REMARK minimizedAffinity -5.23249531
REMARK minimizedRMSD -1
REMARK  0 active torsions:
REMARK  status: ('A' for Active; 'I' for Inactive)
ROOT
ATOM      1  O1  BZF d   1       0.464   0.683   0.246  0.00  0.00    -0.204 OA
ATOM      2  C2  BZF d   1       1.775   0.254   0.321  0.00  0.00     0.174 A 
ATOM      3  C3  BZF d   1       1.843  -0.994   0.825  0.00  0.00    -0.012 A 
ATOM      4  C3A BZF d   1       0.483  -1.405   0.996  0.00  0.00    -0.107 A 
ATOM      5  C4  BZF d   1      -0.101  -2.555   1.447  0.00  0.00     0.055 A 
ATOM      6  C5  BZF d   1      -1.454  -2.608   1.559  0.00  0.00    -0.016 A 
ATOM      7  C6  BZF d   1      -2.253  -1.531   1.234  0.00  0.00     0.022 A 
ATOM      8  C7  BZF d   1      -1.719  -0.371   0.778  0.00  0.00     0.029 A 
ATOM      9  C7A BZF d   1      -0.354  -0.325   0.633  0.00  0.00     0.058 A 
ENDROOT
TORSDOF 0
ENDMDL
