MODEL 1
REMARK minimizedAffinity -3.70150495
REMARK minimizedRMSD -1
REMARK  0 active torsions:
REMARK  status: ('A' for Active; 'I' for Inactive)
ROOT
ATOM      1  O1  BZF d   1       1.014  -0.240   0.542  0.00  0.00    -0.204 OA
ATOM      2  C2  BZF d   1       0.515   1.014   0.246  0.00  0.00     0.174 A 
ATOM      3  C3  BZF d   1      -0.829   0.982   0.141  0.00  0.00    -0.012 A 
ATOM      4  C3A BZF d   1      -1.201  -0.359   0.478  0.00  0.00    -0.107 A 
ATOM      5  C4  BZF d   1      -2.400  -1.006   0.569  0.00  0.00     0.055 A 
ATOM      6  C5  BZF d   1      -2.413  -2.335   0.850  0.00  0.00    -0.016 A 
ATOM      7  C6  BZF d   1      -1.248  -3.049   1.040  0.00  0.00     0.022 A 
ATOM      8  C7  BZF d   1      -0.035  -2.450   0.964  0.00  0.00     0.029 A 
ATOM      9  C7A BZF d   1      -0.019  -1.099   0.713  0.00  0.00     0.058 A 
ENDROOT
TORSDOF 0
ENDMDL
