MODEL 1
REMARK minimizedAffinity -3.29753208
REMARK minimizedRMSD -1
REMARK  0 active torsions:
REMARK  status: ('A' for Active; 'I' for Inactive)
ROOT
ATOM      1  O1  BZF d   1       0.953   0.018   0.825  0.00  0.00    -0.204 OA
ATOM      2  C2  BZF d   1       1.068   0.801  -0.307  0.00  0.00     0.174 A 
ATOM      3  C3  BZF d   1       0.196   0.401  -1.255  0.00  0.00    -0.012 A 
ATOM      4  C3A BZF d   1      -0.571  -0.641  -0.646  0.00  0.00    -0.107 A 
ATOM      5  C4  BZF d   1      -1.604  -1.423  -1.079  0.00  0.00     0.055 A 
ATOM      6  C5  BZF d   1      -2.082  -2.398  -0.263  0.00  0.00    -0.016 A 
ATOM      7  C6  BZF d   1      -1.548  -2.623   0.989  0.00  0.00     0.022 A 
ATOM      8  C7  BZF d   1      -0.526  -1.870   1.465  0.00  0.00     0.029 A 
ATOM      9  C7A BZF d   1      -0.063  -0.862   0.655  0.00  0.00     0.058 A 
ENDROOT
TORSDOF 0
ENDMDL
