MODEL 1
REMARK minimizedAffinity -4.36469889
REMARK minimizedRMSD -1
REMARK  0 active torsions:
REMARK  status: ('A' for Active; 'I' for Inactive)
ROOT
ATOM      1  O1  BZF d   1      -0.526   1.170   0.911  0.00  0.00    -0.204 OA
ATOM      2  C2  BZF d   1      -1.882   1.247   1.161  0.00  0.00     0.174 A 
ATOM      3  C3  BZF d   1      -2.457   0.031   1.056  0.00  0.00    -0.012 A 
ATOM      4  C3A BZF d   1      -1.378  -0.875   0.809  0.00  0.00    -0.107 A 
ATOM      5  C4  BZF d   1      -1.311  -2.227   0.629  0.00  0.00     0.055 A 
ATOM      6  C5  BZF d   1      -0.112  -2.795   0.335  0.00  0.00    -0.016 A 
ATOM      7  C6  BZF d   1       1.037  -2.042   0.210  0.00  0.00     0.022 A 
ATOM      8  C7  BZF d   1       1.021  -0.698   0.386  0.00  0.00     0.029 A 
ATOM      9  C7A BZF d   1      -0.183  -0.126   0.715  0.00  0.00     0.058 A 
ENDROOT
TORSDOF 0
ENDMDL
