MODEL 1
REMARK minimizedAffinity -5.01664782
REMARK minimizedRMSD -1
REMARK  0 active torsions:
REMARK  status: ('A' for Active; 'I' for Inactive)
ROOT
ATOM      1  O1  BZF d   1       1.424  -0.542   0.804  0.00  0.00    -0.204 OA
ATOM      2  C2  BZF d   1       1.236   0.781   0.456  0.00  0.00     0.174 A 
ATOM      3  C3  BZF d   1      -0.068   1.034   0.225  0.00  0.00    -0.012 A 
ATOM      4  C3A BZF d   1      -0.749  -0.187   0.531  0.00  0.00    -0.107 A 
ATOM      5  C4  BZF d   1      -2.062  -0.560   0.511  0.00  0.00     0.055 A 
ATOM      6  C5  BZF d   1      -2.387  -1.848   0.796  0.00  0.00    -0.016 A 
ATOM      7  C6  BZF d   1      -1.425  -2.790   1.099  0.00  0.00     0.022 A 
ATOM      8  C7  BZF d   1      -0.110  -2.465   1.136  0.00  0.00     0.029 A 
ATOM      9  C7A BZF d   1       0.219  -1.156   0.881  0.00  0.00     0.058 A 
ENDROOT
TORSDOF 0
ENDMDL
