MODEL 1
REMARK minimizedAffinity -2.56877089
REMARK minimizedRMSD -1
REMARK  0 active torsions:
REMARK  status: ('A' for Active; 'I' for Inactive)
ROOT
ATOM      1  O1  BZF d   1      -0.015  -0.008   1.111  0.00  0.00    -0.204 OA
ATOM      2  C2  BZF d   1       1.108  -0.351   0.383  0.00  0.00     0.174 A 
ATOM      3  C3  BZF d   1       1.605  -1.534   0.799  0.00  0.00    -0.012 A 
ATOM      4  C3A BZF d   1       0.686  -2.000   1.791  0.00  0.00    -0.107 A 
ATOM      5  C4  BZF d   1       0.627  -3.126   2.562  0.00  0.00     0.055 A 
ATOM      6  C5  BZF d   1      -0.363  -3.243   3.486  0.00  0.00    -0.016 A 
ATOM      7  C6  BZF d   1      -1.305  -2.253   3.669  0.00  0.00     0.022 A 
ATOM      8  C7  BZF d   1      -1.291  -1.121   2.925  0.00  0.00     0.029 A 
ATOM      9  C7A BZF d   1      -0.312  -1.014   1.968  0.00  0.00     0.058 A 
ENDROOT
TORSDOF 0
ENDMDL
