MODEL 1
REMARK minimizedAffinity -3.06159043
REMARK minimizedRMSD -1
REMARK  0 active torsions:
REMARK  status: ('A' for Active; 'I' for Inactive)
ROOT
ATOM      1  O1  BZF d   1       0.220   0.277   1.701  0.00  0.00    -0.204 OA
ATOM      2  C2  BZF d   1       0.910  -0.264   0.633  0.00  0.00     0.174 A 
ATOM      3  C3  BZF d   1       0.755  -1.603   0.593  0.00  0.00    -0.012 A 
ATOM      4  C3A BZF d   1      -0.160  -1.908   1.650  0.00  0.00    -0.107 A 
ATOM      5  C4  BZF d   1      -0.717  -3.069   2.104  0.00  0.00     0.055 A 
ATOM      6  C5  BZF d   1      -1.514  -3.033   3.204  0.00  0.00    -0.016 A 
ATOM      7  C6  BZF d   1      -1.771  -1.857   3.876  0.00  0.00     0.022 A 
ATOM      8  C7  BZF d   1      -1.246  -0.679   3.461  0.00  0.00     0.029 A 
ATOM      9  C7A BZF d   1      -0.466  -0.706   2.330  0.00  0.00     0.058 A 
ENDROOT
TORSDOF 0
ENDMDL
