MODEL 1
REMARK minimizedAffinity -4.44996119
REMARK minimizedRMSD -1
REMARK  0 active torsions:
REMARK  status: ('A' for Active; 'I' for Inactive)
ROOT
ATOM      1  O1  BZF d   1      -0.261   0.078   1.142  0.00  0.00    -0.204 OA
ATOM      2  C2  BZF d   1       0.595  -0.309   0.130  0.00  0.00     0.174 A 
ATOM      3  C3  BZF d   1       1.004  -1.582   0.309  0.00  0.00    -0.012 A 
ATOM      4  C3A BZF d   1       0.291  -2.047   1.459  0.00  0.00    -0.107 A 
ATOM      5  C4  BZF d   1       0.258  -3.239   2.124  0.00  0.00     0.055 A 
ATOM      6  C5  BZF d   1      -0.488  -3.344   3.255  0.00  0.00    -0.016 A 
ATOM      7  C6  BZF d   1      -1.209  -2.278   3.751  0.00  0.00     0.022 A 
ATOM      8  C7  BZF d   1      -1.212  -1.077   3.123  0.00  0.00     0.029 A 
ATOM      9  C7A BZF d   1      -0.485  -0.977   1.962  0.00  0.00     0.058 A 
ENDROOT
TORSDOF 0
ENDMDL
