MODEL 1
REMARK minimizedAffinity 4.81566715
REMARK minimizedRMSD -1
REMARK  0 active torsions:
REMARK  status: ('A' for Active; 'I' for Inactive)
ROOT
ATOM      1  O1  BZF d   1       0.323   3.590  -3.650  0.00  0.00    -0.204 OA
ATOM      2  C2  BZF d   1       0.187   4.824  -4.256  0.00  0.00     0.174 A 
ATOM      3  C3  BZF d   1      -1.084   5.267  -4.161  0.00  0.00    -0.012 A 
ATOM      4  C3A BZF d   1      -1.765   4.287  -3.370  0.00  0.00    -0.107 A 
ATOM      5  C4  BZF d   1      -3.048   4.174  -2.916  0.00  0.00     0.055 A 
ATOM      6  C5  BZF d   1      -3.409   3.059  -2.230  0.00  0.00    -0.016 A 
ATOM      7  C6  BZF d   1      -2.517   2.036  -1.985  0.00  0.00     0.022 A 
ATOM      8  C7  BZF d   1      -1.232   2.105  -2.411  0.00  0.00     0.029 A 
ATOM      9  C7A BZF d   1      -0.855   3.246  -3.076  0.00  0.00     0.058 A 
ENDROOT
TORSDOF 0
ENDMDL
