MODEL 1
REMARK minimizedAffinity 0.225800902
REMARK minimizedRMSD -1
REMARK  0 active torsions:
REMARK  status: ('A' for Active; 'I' for Inactive)
ROOT
ATOM      1  O1  BZF d   1      -0.635   0.521  -1.296  0.00  0.00    -0.204 OA
ATOM      2  C2  BZF d   1      -1.993   0.329  -1.128  0.00  0.00     0.174 A 
ATOM      3  C3  BZF d   1      -2.230  -0.642  -0.222  0.00  0.00    -0.012 A 
ATOM      4  C3A BZF d   1      -0.941  -1.020   0.270  0.00  0.00    -0.107 A 
ATOM      5  C4  BZF d   1      -0.520  -1.927   1.201  0.00  0.00     0.055 A 
ATOM      6  C5  BZF d   1       0.813  -2.104   1.394  0.00  0.00    -0.016 A 
ATOM      7  C6  BZF d   1       1.752  -1.398   0.672  0.00  0.00     0.022 A 
ATOM      8  C7  BZF d   1       1.383  -0.484  -0.259  0.00  0.00     0.029 A 
ATOM      9  C7A BZF d   1       0.036  -0.278  -0.433  0.00  0.00     0.058 A 
ENDROOT
TORSDOF 0
ENDMDL
