MODEL 1
REMARK minimizedAffinity 5.47135639
REMARK minimizedRMSD -1
REMARK  0 active torsions:
REMARK  status: ('A' for Active; 'I' for Inactive)
ROOT
ATOM      1  O1  BZF d   1      -1.058  -0.226   1.640  0.00  0.00    -0.204 OA
ATOM      2  C2  BZF d   1      -0.396  -0.229   0.428  0.00  0.00     0.174 A 
ATOM      3  C3  BZF d   1       0.512  -1.224   0.381  0.00  0.00    -0.012 A 
ATOM      4  C3A BZF d   1       0.348  -1.942   1.608  0.00  0.00    -0.107 A 
ATOM      5  C4  BZF d   1       0.953  -3.045   2.139  0.00  0.00     0.055 A 
ATOM      6  C5  BZF d   1       0.612  -3.447   3.391  0.00  0.00    -0.016 A 
ATOM      7  C6  BZF d   1      -0.326  -2.769   4.141  0.00  0.00     0.022 A 
ATOM      8  C7  BZF d   1      -0.957  -1.672   3.655  0.00  0.00     0.029 A 
ATOM      9  C7A BZF d   1      -0.638  -1.283   2.377  0.00  0.00     0.058 A 
ENDROOT
TORSDOF 0
ENDMDL
