MODEL 1
REMARK minimizedAffinity 6.77131224
REMARK minimizedRMSD -1
REMARK  0 active torsions:
REMARK  status: ('A' for Active; 'I' for Inactive)
ROOT
ATOM      1  O1  BZF d   1      -0.786  -1.130   2.040  0.00  0.00    -0.204 OA
ATOM      2  C2  BZF d   1       0.155  -0.932   1.048  0.00  0.00     0.174 A 
ATOM      3  C3  BZF d   1       1.277  -1.633   1.306  0.00  0.00    -0.012 A 
ATOM      4  C3A BZF d   1       0.988  -2.385   2.489  0.00  0.00    -0.107 A 
ATOM      5  C4  BZF d   1       1.703  -3.282   3.230  0.00  0.00     0.055 A 
ATOM      6  C5  BZF d   1       1.157  -3.780   4.371  0.00  0.00    -0.016 A 
ATOM      7  C6  BZF d   1      -0.097  -3.400   4.802  0.00  0.00     0.022 A 
ATOM      8  C7  BZF d   1      -0.846  -2.517   4.098  0.00  0.00     0.029 A 
ATOM      9  C7A BZF d   1      -0.311  -2.037   2.928  0.00  0.00     0.058 A 
ENDROOT
TORSDOF 0
ENDMDL
