MODEL 1
REMARK minimizedAffinity 6.65834188
REMARK minimizedRMSD -1
REMARK  0 active torsions:
REMARK  status: ('A' for Active; 'I' for Inactive)
ROOT
ATOM      1  O1  BZF d   1      -0.912  -1.392   3.394  0.00  0.00    -0.204 OA
ATOM      2  C2  BZF d   1      -0.394  -2.491   4.053  0.00  0.00     0.174 A 
ATOM      3  C3  BZF d   1       0.514  -3.126   3.284  0.00  0.00    -0.012 A 
ATOM      4  C3A BZF d   1       0.635  -2.325   2.105  0.00  0.00    -0.107 A 
ATOM      5  C4  BZF d   1       1.394  -2.427   0.974  0.00  0.00     0.055 A 
ATOM      6  C5  BZF d   1       1.221  -1.518  -0.021  0.00  0.00    -0.016 A 
ATOM      7  C6  BZF d   1       0.296  -0.500   0.078  0.00  0.00     0.022 A 
ATOM      8  C7  BZF d   1      -0.476  -0.355   1.182  0.00  0.00     0.029 A 
ATOM      9  C7A BZF d   1      -0.281  -1.252   2.203  0.00  0.00     0.058 A 
ENDROOT
TORSDOF 0
ENDMDL
