MODEL 1
REMARK minimizedAffinity -3.2531867
REMARK minimizedRMSD -1
REMARK  0 active torsions:
REMARK  status: ('A' for Active; 'I' for Inactive)
ROOT
ATOM      1  O1  BZF d   1      -1.614  -4.711  -5.808  0.00  0.00    -0.204 OA
ATOM      2  C2  BZF d   1      -2.110  -6.000  -5.756  0.00  0.00     0.174 A 
ATOM      3  C3  BZF d   1      -3.458  -5.993  -5.738  0.00  0.00    -0.012 A 
ATOM      4  C3A BZF d   1      -3.830  -4.618  -5.875  0.00  0.00    -0.107 A 
ATOM      5  C4  BZF d   1      -5.031  -3.973  -5.940  0.00  0.00     0.055 A 
ATOM      6  C5  BZF d   1      -5.049  -2.615  -6.000  0.00  0.00    -0.016 A 
ATOM      7  C6  BZF d   1      -3.887  -1.873  -5.991  0.00  0.00     0.022 A 
ATOM      8  C7  BZF d   1      -2.671  -2.469  -5.933  0.00  0.00     0.029 A 
ATOM      9  C7A BZF d   1      -2.649  -3.842  -5.906  0.00  0.00     0.058 A 
ENDROOT
TORSDOF 0
ENDMDL
