MODEL 1
REMARK minimizedAffinity 2.88123965
REMARK minimizedRMSD -1
REMARK  0 active torsions:
REMARK  status: ('A' for Active; 'I' for Inactive)
ROOT
ATOM      1  O1  BZF d   1      -0.188  -1.099   1.110  0.00  0.00    -0.204 OA
ATOM      2  C2  BZF d   1       0.813  -1.564   0.279  0.00  0.00     0.174 A 
ATOM      3  C3  BZF d   1       1.592  -2.458   0.922  0.00  0.00    -0.012 A 
ATOM      4  C3A BZF d   1       0.988  -2.626   2.209  0.00  0.00    -0.107 A 
ATOM      5  C4  BZF d   1       1.291  -3.397   3.295  0.00  0.00     0.055 A 
ATOM      6  C5  BZF d   1       0.543  -3.273   4.422  0.00  0.00    -0.016 A 
ATOM      7  C6  BZF d   1      -0.511  -2.386   4.500  0.00  0.00     0.022 A 
ATOM      8  C7  BZF d   1      -0.853  -1.605   3.447  0.00  0.00     0.029 A 
ATOM      9  C7A BZF d   1      -0.119  -1.751   2.295  0.00  0.00     0.058 A 
ENDROOT
TORSDOF 0
ENDMDL
