MODEL 1
REMARK minimizedAffinity -3.09474945
REMARK minimizedRMSD -1
REMARK  2 active torsions:
REMARK  status: ('A' for Active; 'I' for Inactive)
REMARK    1  A    between atoms: C1_2  and  C2_3 
REMARK    2  A    between atoms: C2_3  and  C3_4 
ROOT
ATOM      1  C3  UNL d   1       0.536   1.055  -0.548  0.00  0.00    -0.075 A 
ATOM      2  C4  UNL d   1       0.645   0.237  -1.682  0.00  0.00     0.002 A 
ATOM      3  C5  UNL d   1       0.800  -1.143  -1.548  0.00  0.00     0.002 A 
ATOM      4  C6  UNL d   1       0.860  -1.721  -0.282  0.00  0.00    -0.004 A 
ATOM      5  C7  UNL d   1       0.770  -0.916   0.852  0.00  0.00     0.002 A 
ATOM      6  C8  UNL d   1       0.610   0.464   0.721  0.00  0.00     0.002 A 
ENDROOT
BRANCH   1   7
ATOM      7  C2  UNL d   1       0.338   2.545  -0.686  0.00  0.00     0.056 C 
BRANCH   7   8
ATOM      8  C1  UNL d   1       1.113   3.375   0.343  0.00  0.00     0.007 C 
ATOM      9  C   UNL d   1       2.497   3.790  -0.139  0.00  0.00     0.009 C 
ENDBRANCH   7   8
ENDBRANCH   1   7
TORSDOF 2
ENDMDL
