MODEL 1
REMARK minimizedAffinity -2.2454505
REMARK minimizedRMSD -1
REMARK  2 active torsions:
REMARK  status: ('A' for Active; 'I' for Inactive)
REMARK    1  A    between atoms: C1_2  and  C2_3 
REMARK    2  A    between atoms: C2_3  and  C3_4 
ROOT
ATOM      1  C3  UNL d   1       0.141   0.847  -0.594  0.00  0.00    -0.075 A 
ATOM      2  C4  UNL d   1       0.316   0.040  -1.727  0.00  0.00     0.002 A 
ATOM      3  C5  UNL d   1       0.122  -1.340  -1.651  0.00  0.00     0.002 A 
ATOM      4  C6  UNL d   1      -0.238  -1.930  -0.442  0.00  0.00    -0.004 A 
ATOM      5  C7  UNL d   1      -0.398  -1.140   0.695  0.00  0.00     0.002 A 
ATOM      6  C8  UNL d   1      -0.209   0.241   0.620  0.00  0.00     0.002 A 
ENDROOT
BRANCH   1   7
ATOM      7  C2  UNL d   1       0.320   2.344  -0.676  0.00  0.00     0.056 C 
BRANCH   7   8
ATOM      8  C1  UNL d   1       1.140   2.938   0.474  0.00  0.00     0.007 C 
ATOM      9  C   UNL d   1       2.486   3.494   0.027  0.00  0.00     0.009 C 
ENDBRANCH   7   8
ENDBRANCH   1   7
TORSDOF 2
ENDMDL
