MODEL 1
REMARK minimizedAffinity -3.17444539
REMARK minimizedRMSD -1
REMARK  2 active torsions:
REMARK  status: ('A' for Active; 'I' for Inactive)
REMARK    1  A    between atoms: C1_2  and  C2_3 
REMARK    2  A    between atoms: C2_3  and  C3_4 
ROOT
ATOM      1  C3  UNL d   1      -0.006   0.274   0.209  0.00  0.00    -0.075 A 
ATOM      2  C4  UNL d   1      -0.424  -0.846  -0.523  0.00  0.00     0.002 A 
ATOM      3  C5  UNL d   1      -0.465  -2.107   0.074  0.00  0.00     0.002 A 
ATOM      4  C6  UNL d   1      -0.079  -2.265   1.403  0.00  0.00    -0.004 A 
ATOM      5  C7  UNL d   1       0.354  -1.161   2.135  0.00  0.00     0.002 A 
ATOM      6  C8  UNL d   1       0.392   0.102   1.542  0.00  0.00     0.002 A 
ENDROOT
BRANCH   1   7
ATOM      7  C2  UNL d   1       0.012   1.646  -0.422  0.00  0.00     0.056 C 
BRANCH   7   8
ATOM      8  C1  UNL d   1       0.488   2.759   0.518  0.00  0.00     0.007 C 
ATOM      9  C   UNL d   1       1.980   3.040   0.409  0.00  0.00     0.009 C 
ENDBRANCH   7   8
ENDBRANCH   1   7
TORSDOF 2
ENDMDL
