MODEL 1
REMARK minimizedAffinity -1.81073034
REMARK minimizedRMSD -1
REMARK  2 active torsions:
REMARK  status: ('A' for Active; 'I' for Inactive)
REMARK    1  A    between atoms: C1_2  and  C2_3 
REMARK    2  A    between atoms: C2_3  and  C3_4 
ROOT
ATOM      1  C3  UNL d   1       0.104  -1.401  -0.265  0.00  0.00    -0.075 A 
ATOM      2  C4  UNL d   1       0.259  -2.514   0.574  0.00  0.00     0.002 A 
ATOM      3  C5  UNL d   1      -0.189  -2.474   1.895  0.00  0.00     0.002 A 
ATOM      4  C6  UNL d   1      -0.787  -1.320   2.396  0.00  0.00    -0.004 A 
ATOM      5  C7  UNL d   1      -0.931  -0.202   1.576  0.00  0.00     0.002 A 
ATOM      6  C8  UNL d   1      -0.487  -0.241   0.253  0.00  0.00     0.002 A 
ENDROOT
BRANCH   1   7
ATOM      7  C2  UNL d   1       0.560  -1.449  -1.704  0.00  0.00     0.056 C 
BRANCH   7   8
ATOM      8  C1  UNL d   1      -0.332  -2.301  -2.613  0.00  0.00     0.007 C 
ATOM      9  C   UNL d   1      -0.008  -3.788  -2.549  0.00  0.00     0.009 C 
ENDBRANCH   7   8
ENDBRANCH   1   7
TORSDOF 2
ENDMDL
