MODEL 1
REMARK minimizedAffinity -0.892375886
REMARK minimizedRMSD -1
REMARK  2 active torsions:
REMARK  status: ('A' for Active; 'I' for Inactive)
REMARK    1  A    between atoms: C1_2  and  C2_3 
REMARK    2  A    between atoms: C2_3  and  C3_4 
ROOT
ATOM      1  C3  UNL d   1      -0.167   0.098   0.110  0.00  0.00    -0.075 A 
ATOM      2  C4  UNL d   1      -0.338  -0.951  -0.805  0.00  0.00     0.002 A 
ATOM      3  C5  UNL d   1      -0.729  -2.216  -0.367  0.00  0.00     0.002 A 
ATOM      4  C6  UNL d   1      -0.944  -2.451   0.989  0.00  0.00    -0.004 A 
ATOM      5  C7  UNL d   1      -0.762  -1.421   1.909  0.00  0.00     0.002 A 
ATOM      6  C8  UNL d   1      -0.375  -0.152   1.472  0.00  0.00     0.002 A 
ENDROOT
BRANCH   1   7
ATOM      7  C2  UNL d   1       0.228   1.478  -0.362  0.00  0.00     0.056 C 
BRANCH   7   8
ATOM      8  C1  UNL d   1       0.020   2.577   0.685  0.00  0.00     0.007 C 
ATOM      9  C   UNL d   1       1.221   3.503   0.828  0.00  0.00     0.009 C 
ENDBRANCH   7   8
ENDBRANCH   1   7
TORSDOF 2
ENDMDL
