MODEL 1
REMARK minimizedAffinity -4.80739737
REMARK minimizedRMSD -1
REMARK  2 active torsions:
REMARK  status: ('A' for Active; 'I' for Inactive)
REMARK    1  A    between atoms: C1_2  and  C2_3 
REMARK    2  A    between atoms: C2_3  and  C3_4 
ROOT
ATOM      1  C3  UNL d   1       0.309   0.236  -0.257  0.00  0.00    -0.075 A 
ATOM      2  C4  UNL d   1      -0.501   0.026   0.868  0.00  0.00     0.002 A 
ATOM      3  C5  UNL d   1      -0.799  -1.268   1.295  0.00  0.00     0.002 A 
ATOM      4  C6  UNL d   1      -0.301  -2.367   0.597  0.00  0.00    -0.004 A 
ATOM      5  C7  UNL d   1       0.491  -2.170  -0.532  0.00  0.00     0.002 A 
ATOM      6  C8  UNL d   1       0.794  -0.876  -0.958  0.00  0.00     0.002 A 
ENDROOT
BRANCH   1   7
ATOM      7  C2  UNL d   1       0.659   1.635  -0.706  0.00  0.00     0.056 C 
BRANCH   7   8
ATOM      8  C1  UNL d   1       1.073   2.571   0.434  0.00  0.00     0.007 C 
ATOM      9  C   UNL d   1       2.552   2.935   0.405  0.00  0.00     0.009 C 
ENDBRANCH   7   8
ENDBRANCH   1   7
TORSDOF 2
ENDMDL
