MODEL 1
REMARK minimizedAffinity -5.59873772
REMARK minimizedRMSD -1
REMARK  2 active torsions:
REMARK  status: ('A' for Active; 'I' for Inactive)
REMARK    1  A    between atoms: C1_2  and  C2_3 
REMARK    2  A    between atoms: C2_3  and  C3_4 
ROOT
ATOM      1  C3  UNL d   1       0.230  -0.654   0.125  0.00  0.00    -0.075 A 
ATOM      2  C4  UNL d   1       0.421  -0.746  -1.261  0.00  0.00     0.002 A 
ATOM      3  C5  UNL d   1       0.297  -1.973  -1.913  0.00  0.00     0.002 A 
ATOM      4  C6  UNL d   1      -0.008  -3.123  -1.188  0.00  0.00    -0.004 A 
ATOM      5  C7  UNL d   1      -0.183  -3.046   0.192  0.00  0.00     0.002 A 
ATOM      6  C8  UNL d   1      -0.064  -1.819   0.846  0.00  0.00     0.002 A 
ENDROOT
BRANCH   1   7
ATOM      7  C2  UNL d   1       0.333   0.676   0.832  0.00  0.00     0.056 C 
BRANCH   7   8
ATOM      8  C1  UNL d   1       1.124   1.735   0.057  0.00  0.00     0.007 C 
ATOM      9  C   UNL d   1       1.110   3.104   0.725  0.00  0.00     0.009 C 
ENDBRANCH   7   8
ENDBRANCH   1   7
TORSDOF 2
ENDMDL
