MODEL 1
REMARK minimizedAffinity -4.25565672
REMARK minimizedRMSD -1
REMARK  2 active torsions:
REMARK  status: ('A' for Active; 'I' for Inactive)
REMARK    1  A    between atoms: C1_2  and  C2_3 
REMARK    2  A    between atoms: C2_3  and  C3_4 
ROOT
ATOM      1  C3  UNL d   1       0.021   0.885  -0.039  0.00  0.00    -0.075 A 
ATOM      2  C4  UNL d   1       1.274   1.020   0.576  0.00  0.00     0.002 A 
ATOM      3  C5  UNL d   1       1.893   2.268   0.655  0.00  0.00     0.002 A 
ATOM      4  C6  UNL d   1       1.273   3.392   0.113  0.00  0.00    -0.004 A 
ATOM      5  C7  UNL d   1       0.035   3.266  -0.514  0.00  0.00     0.002 A 
ATOM      6  C8  UNL d   1      -0.588   2.019  -0.591  0.00  0.00     0.002 A 
ENDROOT
BRANCH   1   7
ATOM      7  C2  UNL d   1      -0.667  -0.458  -0.102  0.00  0.00     0.056 C 
BRANCH   7   8
ATOM      8  C1  UNL d   1      -0.719  -1.196   1.240  0.00  0.00     0.007 C 
ATOM      9  C   UNL d   1      -1.020  -2.682   1.096  0.00  0.00     0.009 C 
ENDBRANCH   7   8
ENDBRANCH   1   7
TORSDOF 2
ENDMDL
