MODEL 1
REMARK minimizedAffinity -3.01733971
REMARK minimizedRMSD -1
REMARK  2 active torsions:
REMARK  status: ('A' for Active; 'I' for Inactive)
REMARK    1  A    between atoms: C1_2  and  C2_3 
REMARK    2  A    between atoms: C2_3  and  C3_4 
ROOT
ATOM      1  C3  UNL d   1       0.002  -0.272  -1.091  0.00  0.00    -0.075 A 
ATOM      2  C4  UNL d   1       0.138   1.106  -1.319  0.00  0.00     0.002 A 
ATOM      3  C5  UNL d   1       0.038   2.011  -0.262  0.00  0.00     0.002 A 
ATOM      4  C6  UNL d   1      -0.209   1.554   1.030  0.00  0.00    -0.004 A 
ATOM      5  C7  UNL d   1      -0.362   0.190   1.265  0.00  0.00     0.002 A 
ATOM      6  C8  UNL d   1      -0.258  -0.719   0.211  0.00  0.00     0.002 A 
ENDROOT
BRANCH   1   7
ATOM      7  C2  UNL d   1       0.139  -1.259  -2.225  0.00  0.00     0.056 C 
BRANCH   7   8
ATOM      8  C1  UNL d   1      -0.506  -2.621  -1.947  0.00  0.00     0.007 C 
ATOM      9  C   UNL d   1      -0.824  -3.405  -3.214  0.00  0.00     0.009 C 
ENDBRANCH   7   8
ENDBRANCH   1   7
TORSDOF 2
ENDMDL
