MODEL 1
REMARK minimizedAffinity -3.20528579
REMARK minimizedRMSD -1
REMARK  2 active torsions:
REMARK  status: ('A' for Active; 'I' for Inactive)
REMARK    1  A    between atoms: C1_2  and  C2_3 
REMARK    2  A    between atoms: C2_3  and  C3_4 
ROOT
ATOM      1  C3  UNL d   1       0.072   0.194   0.519  0.00  0.00    -0.075 A 
ATOM      2  C4  UNL d   1       1.027  -0.823   0.375  0.00  0.00     0.002 A 
ATOM      3  C5  UNL d   1       0.648  -2.164   0.433  0.00  0.00     0.002 A 
ATOM      4  C6  UNL d   1      -0.686  -2.506   0.644  0.00  0.00    -0.004 A 
ATOM      5  C7  UNL d   1      -1.641  -1.504   0.804  0.00  0.00     0.002 A 
ATOM      6  C8  UNL d   1      -1.265  -0.161   0.743  0.00  0.00     0.002 A 
ENDROOT
BRANCH   1   7
ATOM      7  C2  UNL d   1       0.472   1.647   0.428  0.00  0.00     0.056 C 
BRANCH   7   8
ATOM      8  C1  UNL d   1       1.986   1.880   0.444  0.00  0.00     0.007 C 
ATOM      9  C   UNL d   1       2.386   3.182   1.125  0.00  0.00     0.009 C 
ENDBRANCH   7   8
ENDBRANCH   1   7
TORSDOF 2
ENDMDL
