MODEL 1
REMARK minimizedAffinity -4.66663122
REMARK minimizedRMSD -1
REMARK  2 active torsions:
REMARK  status: ('A' for Active; 'I' for Inactive)
REMARK    1  A    between atoms: C1_2  and  C2_3 
REMARK    2  A    between atoms: C2_3  and  C3_4 
ROOT
ATOM      1  C3  UNL d   1      -0.029   1.590  -0.410  0.00  0.00    -0.075 A 
ATOM      2  C4  UNL d   1       0.065   0.590   0.569  0.00  0.00     0.002 A 
ATOM      3  C5  UNL d   1       0.129  -0.755   0.204  0.00  0.00     0.002 A 
ATOM      4  C6  UNL d   1       0.089  -1.117  -1.141  0.00  0.00    -0.004 A 
ATOM      5  C7  UNL d   1      -0.021  -0.133  -2.121  0.00  0.00     0.002 A 
ATOM      6  C8  UNL d   1      -0.081   1.214  -1.758  0.00  0.00     0.002 A 
ENDROOT
BRANCH   1   7
ATOM      7  C2  UNL d   1      -0.069   3.049  -0.022  0.00  0.00     0.056 C 
BRANCH   7   8
ATOM      8  C1  UNL d   1       1.205   3.545   0.671  0.00  0.00     0.007 C 
ATOM      9  C   UNL d   1       2.439   3.472  -0.218  0.00  0.00     0.009 C 
ENDBRANCH   7   8
ENDBRANCH   1   7
TORSDOF 2
ENDMDL
