MODEL 1
REMARK minimizedAffinity -3.47929192
REMARK minimizedRMSD -1
REMARK  2 active torsions:
REMARK  status: ('A' for Active; 'I' for Inactive)
REMARK    1  A    between atoms: C1_2  and  C2_3 
REMARK    2  A    between atoms: C2_3  and  C3_4 
ROOT
ATOM      1  C3  UNL d   1       0.116   0.831   0.414  0.00  0.00    -0.075 A 
ATOM      2  C4  UNL d   1       0.832  -0.046  -0.413  0.00  0.00     0.002 A 
ATOM      3  C5  UNL d   1       0.585  -1.418  -0.374  0.00  0.00     0.002 A 
ATOM      4  C6  UNL d   1      -0.371  -1.932   0.499  0.00  0.00    -0.004 A 
ATOM      5  C7  UNL d   1      -1.077  -1.073   1.338  0.00  0.00     0.002 A 
ATOM      6  C8  UNL d   1      -0.835   0.302   1.297  0.00  0.00     0.002 A 
ENDROOT
BRANCH   1   7
ATOM      7  C2  UNL d   1       0.357   2.320   0.355  0.00  0.00     0.056 C 
BRANCH   7   8
ATOM      8  C1  UNL d   1       1.772   2.706  -0.090  0.00  0.00     0.007 C 
ATOM      9  C   UNL d   1       2.168   4.116   0.325  0.00  0.00     0.009 C 
ENDBRANCH   7   8
ENDBRANCH   1   7
TORSDOF 2
ENDMDL
