MODEL 1
REMARK minimizedAffinity -5.52354765
REMARK minimizedRMSD -1
REMARK  0 active torsions:
REMARK  status: ('A' for Active; 'I' for Inactive)
ROOT
ATOM      1  C1  DEN d   1      -1.672   2.616   1.007  0.00  0.00     0.130 A 
ATOM      2  C2  DEN d   1      -1.144   3.018   2.308  0.00  0.00    -0.031 A 
ATOM      3  C3  DEN d   1      -0.058   2.083   2.669  0.00  0.00     0.027 A 
ATOM      4  C4  DEN d   1       0.853   0.067   1.344  0.00  0.00     0.027 A 
ATOM      5  C5  DEN d   1       0.715  -0.674   0.191  0.00  0.00    -0.003 A 
ATOM      6  C6  DEN d   1      -0.244  -0.394  -0.746  0.00  0.00     0.001 A 
ATOM      7  C7  DEN d   1      -1.072   0.682  -0.569  0.00  0.00     0.017 A 
ATOM      8  C8  DEN d   1      -0.943   1.430   0.594  0.00  0.00    -0.094 A 
ATOM      9  C9  DEN d   1       0.040   1.138   1.524  0.00  0.00    -0.072 A 
ENDROOT
TORSDOF 0
ENDMDL
