MODEL 1
REMARK minimizedAffinity -4.59993458
REMARK minimizedRMSD -1
REMARK  0 active torsions:
REMARK  status: ('A' for Active; 'I' for Inactive)
ROOT
ATOM      1  C1  DEN d   1       0.899  -0.612   1.233  0.00  0.00     0.130 A 
ATOM      2  C2  DEN d   1       0.455  -1.472   0.140  0.00  0.00    -0.031 A 
ATOM      3  C3  DEN d   1      -0.678  -0.806  -0.534  0.00  0.00     0.027 A 
ATOM      4  C4  DEN d   1      -1.777   1.464   0.004  0.00  0.00     0.027 A 
ATOM      5  C5  DEN d   1      -1.753   2.551   0.850  0.00  0.00    -0.003 A 
ATOM      6  C6  DEN d   1      -0.873   2.643   1.896  0.00  0.00     0.001 A 
ATOM      7  C7  DEN d   1       0.051   1.651   2.095  0.00  0.00     0.017 A 
ATOM      8  C8  DEN d   1       0.028   0.549   1.250  0.00  0.00    -0.094 A 
ATOM      9  C9  DEN d   1      -0.862   0.480   0.192  0.00  0.00    -0.072 A 
ENDROOT
TORSDOF 0
ENDMDL
