MODEL 1
REMARK minimizedAffinity -5.01646996
REMARK minimizedRMSD -1
REMARK  0 active torsions:
REMARK  status: ('A' for Active; 'I' for Inactive)
ROOT
ATOM      1  C1  DEN d   1       0.899  -0.212  -0.026  0.00  0.00     0.130 A 
ATOM      2  C2  DEN d   1       0.120   0.240   1.123  0.00  0.00    -0.031 A 
ATOM      3  C3  DEN d   1      -1.032  -0.670   1.280  0.00  0.00     0.027 A 
ATOM      4  C4  DEN d   1      -1.678  -2.728  -0.134  0.00  0.00     0.027 A 
ATOM      5  C5  DEN d   1      -1.328  -3.498  -1.221  0.00  0.00    -0.003 A 
ATOM      6  C6  DEN d   1      -0.240  -3.208  -2.001  0.00  0.00     0.001 A 
ATOM      7  C7  DEN d   1       0.564  -2.147  -1.677  0.00  0.00     0.017 A 
ATOM      8  C8  DEN d   1       0.213  -1.363  -0.586  0.00  0.00    -0.094 A 
ATOM      9  C9  DEN d   1      -0.884  -1.679   0.197  0.00  0.00    -0.072 A 
ENDROOT
TORSDOF 0
ENDMDL
