MODEL 1
REMARK minimizedAffinity -2.72649527
REMARK minimizedRMSD -1
REMARK  0 active torsions:
REMARK  status: ('A' for Active; 'I' for Inactive)
ROOT
ATOM      1  C1  DEN d   1       1.803  -1.288   2.713  0.00  0.00     0.130 A 
ATOM      2  C2  DEN d   1       1.469  -1.553   4.109  0.00  0.00    -0.031 A 
ATOM      3  C3  DEN d   1       0.466  -0.557   4.536  0.00  0.00     0.027 A 
ATOM      4  C4  DEN d   1      -0.599   1.359   3.176  0.00  0.00     0.027 A 
ATOM      5  C5  DEN d   1      -0.622   1.988   1.951  0.00  0.00    -0.003 A 
ATOM      6  C6  DEN d   1       0.180   1.594   0.913  0.00  0.00     0.001 A 
ATOM      7  C7  DEN d   1       1.007   0.512   1.066  0.00  0.00     0.017 A 
ATOM      8  C8  DEN d   1       1.041  -0.122   2.301  0.00  0.00    -0.094 A 
ATOM      9  C9  DEN d   1       0.213   0.283   3.334  0.00  0.00    -0.072 A 
ENDROOT
TORSDOF 0
ENDMDL
