MODEL 1
REMARK minimizedAffinity -4.45292473
REMARK minimizedRMSD -1
REMARK  0 active torsions:
REMARK  status: ('A' for Active; 'I' for Inactive)
ROOT
ATOM      1  C1  DEN d   1      -1.023   2.477   1.580  0.00  0.00     0.130 A 
ATOM      2  C2  DEN d   1      -0.762   1.505   2.638  0.00  0.00    -0.031 A 
ATOM      3  C3  DEN d   1      -0.138   0.317   2.023  0.00  0.00     0.027 A 
ATOM      4  C4  DEN d   1       0.451  -0.109  -0.452  0.00  0.00     0.027 A 
ATOM      5  C5  DEN d   1       0.408   0.420  -1.723  0.00  0.00    -0.003 A 
ATOM      6  C6  DEN d   1      -0.142   1.647  -1.985  0.00  0.00     0.001 A 
ATOM      7  C7  DEN d   1      -0.630   2.406  -0.955  0.00  0.00     0.017 A 
ATOM      8  C8  DEN d   1      -0.597   1.877   0.329  0.00  0.00    -0.094 A 
ATOM      9  C9  DEN d   1      -0.026   0.640   0.575  0.00  0.00    -0.072 A 
ENDROOT
TORSDOF 0
ENDMDL
