MODEL 1
REMARK minimizedAffinity -5.90819502
REMARK minimizedRMSD -1
REMARK  0 active torsions:
REMARK  status: ('A' for Active; 'I' for Inactive)
ROOT
ATOM      1  C1  DEN d   1      -1.506   2.089   0.691  0.00  0.00     0.130 A 
ATOM      2  C2  DEN d   1      -1.043   2.571   1.990  0.00  0.00    -0.031 A 
ATOM      3  C3  DEN d   1       0.016   1.657   2.464  0.00  0.00     0.027 A 
ATOM      4  C4  DEN d   1       0.981  -0.442   1.318  0.00  0.00     0.027 A 
ATOM      5  C5  DEN d   1       0.896  -1.255   0.209  0.00  0.00    -0.003 A 
ATOM      6  C6  DEN d   1      -0.011  -1.031  -0.793  0.00  0.00     0.001 A 
ATOM      7  C7  DEN d   1      -0.840   0.058  -0.727  0.00  0.00     0.017 A 
ATOM      8  C8  DEN d   1      -0.766   0.877   0.392  0.00  0.00    -0.094 A 
ATOM      9  C9  DEN d   1       0.166   0.641   1.388  0.00  0.00    -0.072 A 
ENDROOT
TORSDOF 0
ENDMDL
