MODEL 1
REMARK minimizedAffinity -3.93946171
REMARK minimizedRMSD -1
REMARK  0 active torsions:
REMARK  status: ('A' for Active; 'I' for Inactive)
ROOT
ATOM      1  C1  DEN d   1      -0.680   1.957  -1.472  0.00  0.00     0.130 A 
ATOM      2  C2  DEN d   1       0.130   1.090  -2.323  0.00  0.00    -0.031 A 
ATOM      3  C3  DEN d   1       0.721   0.038  -1.472  0.00  0.00     0.027 A 
ATOM      4  C4  DEN d   1       0.457  -0.335   1.066  0.00  0.00     0.027 A 
ATOM      5  C5  DEN d   1      -0.124   0.150   2.217  0.00  0.00    -0.003 A 
ATOM      6  C6  DEN d   1      -0.896   1.281   2.225  0.00  0.00     0.001 A 
ATOM      7  C7  DEN d   1      -1.147   1.940   1.051  0.00  0.00     0.017 A 
ATOM      8  C8  DEN d   1      -0.559   1.462  -0.113  0.00  0.00    -0.094 A 
ATOM      9  C9  DEN d   1       0.209   0.310  -0.102  0.00  0.00    -0.072 A 
ENDROOT
TORSDOF 0
ENDMDL
