MODEL 1
REMARK minimizedAffinity -4.21109915
REMARK minimizedRMSD -1
REMARK  2 active torsions:
REMARK  status: ('A' for Active; 'I' for Inactive)
REMARK    1  A    between atoms: C1_2  and  C2_3 
REMARK    2  A    between atoms: C2_3  and  C3_4 
ROOT
ATOM      1  C3  UNL d   1      -0.345   0.490   0.579  0.00  0.00    -0.075 A 
ATOM      2  C4  UNL d   1       0.855  -0.038   1.075  0.00  0.00     0.002 A 
ATOM      3  C5  UNL d   1       2.057   0.179   0.400  0.00  0.00     0.002 A 
ATOM      4  C6  UNL d   1       2.073   0.917  -0.781  0.00  0.00    -0.004 A 
ATOM      5  C7  UNL d   1       0.884   1.433  -1.292  0.00  0.00     0.002 A 
ATOM      6  C8  UNL d   1      -0.319   1.221  -0.617  0.00  0.00     0.002 A 
ENDROOT
BRANCH   1   7
ATOM      7  C2  UNL d   1      -1.645   0.284   1.319  0.00  0.00     0.056 C 
BRANCH   7   8
ATOM      8  C1  UNL d   1      -1.968   1.388   2.331  0.00  0.00     0.007 C 
ATOM      9  C   UNL d   1      -2.705   0.877   3.562  0.00  0.00     0.009 C 
ENDBRANCH   7   8
ENDBRANCH   1   7
TORSDOF 2
ENDMDL
