MODEL 1
REMARK minimizedAffinity -4.54229689
REMARK minimizedRMSD -1
REMARK  2 active torsions:
REMARK  status: ('A' for Active; 'I' for Inactive)
REMARK    1  A    between atoms: C1_2  and  C2_3 
REMARK    2  A    between atoms: C2_3  and  C3_4 
ROOT
ATOM      1  C3  UNL d   1       0.492  -0.613   0.213  0.00  0.00    -0.075 A 
ATOM      2  C4  UNL d   1       1.135   0.633   0.183  0.00  0.00     0.002 A 
ATOM      3  C5  UNL d   1       2.233   0.844  -0.651  0.00  0.00     0.002 A 
ATOM      4  C6  UNL d   1       2.710  -0.189  -1.455  0.00  0.00    -0.004 A 
ATOM      5  C7  UNL d   1       2.090  -1.436  -1.421  0.00  0.00     0.002 A 
ATOM      6  C8  UNL d   1       0.987  -1.648  -0.591  0.00  0.00     0.002 A 
ENDROOT
BRANCH   1   7
ATOM      7  C2  UNL d   1      -0.716  -0.839   1.091  0.00  0.00     0.056 C 
BRANCH   7   8
ATOM      8  C1  UNL d   1      -1.667   0.361   1.163  0.00  0.00     0.007 C 
ATOM      9  C   UNL d   1      -2.654   0.275   2.320  0.00  0.00     0.009 C 
ENDBRANCH   7   8
ENDBRANCH   1   7
TORSDOF 2
ENDMDL
