MODEL 1
REMARK minimizedAffinity -5.72489071
REMARK minimizedRMSD -1
REMARK  2 active torsions:
REMARK  status: ('A' for Active; 'I' for Inactive)
REMARK    1  A    between atoms: C1_2  and  C2_3 
REMARK    2  A    between atoms: C2_3  and  C3_4 
ROOT
ATOM      1  C3  UNL d   1       0.692   0.223  -0.490  0.00  0.00    -0.075 A 
ATOM      2  C4  UNL d   1       0.585   1.460  -1.141  0.00  0.00     0.002 A 
ATOM      3  C5  UNL d   1       1.448   1.788  -2.187  0.00  0.00     0.002 A 
ATOM      4  C6  UNL d   1       2.434   0.889  -2.588  0.00  0.00    -0.004 A 
ATOM      5  C7  UNL d   1       2.560  -0.337  -1.938  0.00  0.00     0.002 A 
ATOM      6  C8  UNL d   1       1.695  -0.669  -0.894  0.00  0.00     0.002 A 
ENDROOT
BRANCH   1   7
ATOM      7  C2  UNL d   1      -0.257  -0.150   0.623  0.00  0.00     0.056 C 
BRANCH   7   8
ATOM      8  C1  UNL d   1      -1.525   0.710   0.675  0.00  0.00     0.007 C 
ATOM      9  C   UNL d   1      -2.168   0.748   2.055  0.00  0.00     0.009 C 
ENDBRANCH   7   8
ENDBRANCH   1   7
TORSDOF 2
ENDMDL
