MODEL 1
REMARK minimizedAffinity -4.10183716
REMARK minimizedRMSD -1
REMARK  2 active torsions:
REMARK  status: ('A' for Active; 'I' for Inactive)
REMARK    1  A    between atoms: C1_2  and  C2_3 
REMARK    2  A    between atoms: C2_3  and  C3_4 
ROOT
ATOM      1  C3  UNL d   1       0.466   0.122  -0.976  0.00  0.00    -0.075 A 
ATOM      2  C4  UNL d   1       0.320   1.392  -1.553  0.00  0.00     0.002 A 
ATOM      3  C5  UNL d   1       1.172   1.807  -2.577  0.00  0.00     0.002 A 
ATOM      4  C6  UNL d   1       2.185   0.964  -3.028  0.00  0.00    -0.004 A 
ATOM      5  C7  UNL d   1       2.350  -0.293  -2.450  0.00  0.00     0.002 A 
ATOM      6  C8  UNL d   1       1.496  -0.712  -1.429  0.00  0.00     0.002 A 
ENDROOT
BRANCH   1   7
ATOM      7  C2  UNL d   1      -0.472  -0.344   0.112  0.00  0.00     0.056 C 
BRANCH   7   8
ATOM      8  C1  UNL d   1      -1.454   0.730   0.593  0.00  0.00     0.007 C 
ATOM      9  C   UNL d   1      -2.218   0.327   1.847  0.00  0.00     0.009 C 
ENDBRANCH   7   8
ENDBRANCH   1   7
TORSDOF 2
ENDMDL
