MODEL 1
REMARK minimizedAffinity -5.69668055
REMARK minimizedRMSD -1
REMARK  2 active torsions:
REMARK  status: ('A' for Active; 'I' for Inactive)
REMARK    1  A    between atoms: C1_2  and  C2_3 
REMARK    2  A    between atoms: C2_3  and  C3_4 
ROOT
ATOM      1  C3  UNL d   1      -1.286   0.446   0.601  0.00  0.00    -0.075 A 
ATOM      2  C4  UNL d   1      -0.042  -0.161   0.827  0.00  0.00     0.002 A 
ATOM      3  C5  UNL d   1       1.043   0.116  -0.005  0.00  0.00     0.002 A 
ATOM      4  C6  UNL d   1       0.896   0.994  -1.077  0.00  0.00    -0.004 A 
ATOM      5  C7  UNL d   1      -0.339   1.590  -1.320  0.00  0.00     0.002 A 
ATOM      6  C8  UNL d   1      -1.425   1.318  -0.487  0.00  0.00     0.002 A 
ENDROOT
BRANCH   1   7
ATOM      7  C2  UNL d   1      -2.457   0.173   1.515  0.00  0.00     0.056 C 
BRANCH   7   8
ATOM      8  C1  UNL d   1      -2.199   0.530   2.983  0.00  0.00     0.007 C 
ATOM      9  C   UNL d   1      -2.164   2.031   3.238  0.00  0.00     0.009 C 
ENDBRANCH   7   8
ENDBRANCH   1   7
TORSDOF 2
ENDMDL
