MODEL 1
REMARK minimizedAffinity -5.74259663
REMARK minimizedRMSD -1
REMARK  2 active torsions:
REMARK  status: ('A' for Active; 'I' for Inactive)
REMARK    1  A    between atoms: C1_2  and  C2_3 
REMARK    2  A    between atoms: C2_3  and  C3_4 
ROOT
ATOM      1  C3  UNL d   1       0.532   0.042  -0.624  0.00  0.00    -0.075 A 
ATOM      2  C4  UNL d   1       1.117   0.762  -1.676  0.00  0.00     0.002 A 
ATOM      3  C5  UNL d   1       2.337   0.358  -2.220  0.00  0.00     0.002 A 
ATOM      4  C6  UNL d   1       2.991  -0.763  -1.713  0.00  0.00    -0.004 A 
ATOM      5  C7  UNL d   1       2.428  -1.476  -0.657  0.00  0.00     0.002 A 
ATOM      6  C8  UNL d   1       1.205  -1.077  -0.114  0.00  0.00     0.002 A 
ENDROOT
BRANCH   1   7
ATOM      7  C2  UNL d   1      -0.802   0.457  -0.051  0.00  0.00     0.056 C 
BRANCH   7   8
ATOM      8  C1  UNL d   1      -0.972   0.125   1.435  0.00  0.00     0.007 C 
ATOM      9  C   UNL d   1      -2.099   0.906   2.099  0.00  0.00     0.009 C 
ENDBRANCH   7   8
ENDBRANCH   1   7
TORSDOF 2
ENDMDL
