MODEL 1
REMARK minimizedAffinity -5.13698244
REMARK minimizedRMSD -1
REMARK  2 active torsions:
REMARK  status: ('A' for Active; 'I' for Inactive)
REMARK    1  A    between atoms: C1_2  and  C2_3 
REMARK    2  A    between atoms: C2_3  and  C3_4 
ROOT
ATOM      1  C3  UNL d   1       0.049  -0.217   0.026  0.00  0.00    -0.075 A 
ATOM      2  C4  UNL d   1       0.339  -1.500  -0.462  0.00  0.00     0.002 A 
ATOM      3  C5  UNL d   1       1.531  -1.744  -1.145  0.00  0.00     0.002 A 
ATOM      4  C6  UNL d   1       2.440  -0.711  -1.359  0.00  0.00    -0.004 A 
ATOM      5  C7  UNL d   1       2.154   0.571  -0.893  0.00  0.00     0.002 A 
ATOM      6  C8  UNL d   1       0.965   0.818  -0.205  0.00  0.00     0.002 A 
ENDROOT
BRANCH   1   7
ATOM      7  C2  UNL d   1      -1.226   0.048   0.792  0.00  0.00     0.056 C 
BRANCH   7   8
ATOM      8  C1  UNL d   1      -1.015   0.277   2.292  0.00  0.00     0.007 C 
ATOM      9  C   UNL d   1      -2.034   1.229   2.903  0.00  0.00     0.009 C 
ENDBRANCH   7   8
ENDBRANCH   1   7
TORSDOF 2
ENDMDL
