MODEL 1
REMARK minimizedAffinity -3.06327724
REMARK minimizedRMSD -1
REMARK  2 active torsions:
REMARK  status: ('A' for Active; 'I' for Inactive)
REMARK    1  A    between atoms: C1_2  and  C2_3 
REMARK    2  A    between atoms: C2_3  and  C3_4 
ROOT
ATOM      1  C3  UNL d   1      -0.964   0.557   1.061  0.00  0.00    -0.075 A 
ATOM      2  C4  UNL d   1      -0.684   1.698   1.827  0.00  0.00     0.002 A 
ATOM      3  C5  UNL d   1      -1.444   1.996   2.958  0.00  0.00     0.002 A 
ATOM      4  C6  UNL d   1      -2.498   1.166   3.332  0.00  0.00    -0.004 A 
ATOM      5  C7  UNL d   1      -2.796   0.038   2.569  0.00  0.00     0.002 A 
ATOM      6  C8  UNL d   1      -2.034  -0.265   1.439  0.00  0.00     0.002 A 
ENDROOT
BRANCH   1   7
ATOM      7  C2  UNL d   1      -0.127   0.212  -0.147  0.00  0.00     0.056 C 
BRANCH   7   8
ATOM      8  C1  UNL d   1       1.360   0.548   0.008  0.00  0.00     0.007 C 
ATOM      9  C   UNL d   1       2.227  -0.038  -1.098  0.00  0.00     0.009 C 
ENDBRANCH   7   8
ENDBRANCH   1   7
TORSDOF 2
ENDMDL
