MODEL 1
REMARK minimizedAffinity -4.04685497
REMARK minimizedRMSD -1
REMARK  2 active torsions:
REMARK  status: ('A' for Active; 'I' for Inactive)
REMARK    1  A    between atoms: C1_2  and  C2_3 
REMARK    2  A    between atoms: C2_3  and  C3_4 
ROOT
ATOM      1  C3  UNL d   1       0.062  -0.274   0.278  0.00  0.00    -0.075 A 
ATOM      2  C4  UNL d   1       0.107  -1.452  -0.481  0.00  0.00     0.002 A 
ATOM      3  C5  UNL d   1       1.200  -1.721  -1.307  0.00  0.00     0.002 A 
ATOM      4  C6  UNL d   1       2.254  -0.814  -1.390  0.00  0.00    -0.004 A 
ATOM      5  C7  UNL d   1       2.212   0.367  -0.653  0.00  0.00     0.002 A 
ATOM      6  C8  UNL d   1       1.122   0.637   0.177  0.00  0.00     0.002 A 
ENDROOT
BRANCH   1   7
ATOM      7  C2  UNL d   1      -1.103   0.009   1.196  0.00  0.00     0.056 C 
BRANCH   7   8
ATOM      8  C1  UNL d   1      -0.731   0.808   2.449  0.00  0.00     0.007 C 
ATOM      9  C   UNL d   1      -1.753   0.677   3.570  0.00  0.00     0.009 C 
ENDBRANCH   7   8
ENDBRANCH   1   7
TORSDOF 2
ENDMDL
