MODEL 1
REMARK minimizedAffinity -3.40823078
REMARK minimizedRMSD -1
REMARK  2 active torsions:
REMARK  status: ('A' for Active; 'I' for Inactive)
REMARK    1  A    between atoms: C1_2  and  C2_3 
REMARK    2  A    between atoms: C2_3  and  C3_4 
ROOT
ATOM      1  C3  UNL d   1       1.045   0.265  -0.210  0.00  0.00    -0.075 A 
ATOM      2  C4  UNL d   1      -0.048  -0.107   0.585  0.00  0.00     0.002 A 
ATOM      3  C5  UNL d   1      -1.248   0.602   0.518  0.00  0.00     0.002 A 
ATOM      4  C6  UNL d   1      -1.365   1.697  -0.336  0.00  0.00    -0.004 A 
ATOM      5  C7  UNL d   1      -0.280   2.086  -1.118  0.00  0.00     0.002 A 
ATOM      6  C8  UNL d   1       0.920   1.375  -1.055  0.00  0.00     0.002 A 
ENDROOT
BRANCH   1   7
ATOM      7  C2  UNL d   1       2.336  -0.517  -0.163  0.00  0.00     0.056 C 
BRANCH   7   8
ATOM      8  C1  UNL d   1       2.826  -0.995  -1.534  0.00  0.00     0.007 C 
ATOM      9  C   UNL d   1       1.942  -2.076  -2.143  0.00  0.00     0.009 C 
ENDBRANCH   7   8
ENDBRANCH   1   7
TORSDOF 2
ENDMDL
