MODEL 1
REMARK minimizedAffinity -5.87310934
REMARK minimizedRMSD -1
REMARK  2 active torsions:
REMARK  status: ('A' for Active; 'I' for Inactive)
REMARK    1  A    between atoms: C1_2  and  C2_3 
REMARK    2  A    between atoms: C2_3  and  C3_4 
ROOT
ATOM      1  C3  UNL d   1       0.158   0.374   0.036  0.00  0.00    -0.075 A 
ATOM      2  C4  UNL d   1       0.056  -0.963  -0.374  0.00  0.00     0.002 A 
ATOM      3  C5  UNL d   1       1.171  -1.637  -0.875  0.00  0.00     0.002 A 
ATOM      4  C6  UNL d   1       2.395  -0.981  -0.981  0.00  0.00    -0.004 A 
ATOM      5  C7  UNL d   1       2.504   0.352  -0.592  0.00  0.00     0.002 A 
ATOM      6  C8  UNL d   1       1.391   1.027  -0.086  0.00  0.00     0.002 A 
ENDROOT
BRANCH   1   7
ATOM      7  C2  UNL d   1      -1.037   1.100   0.606  0.00  0.00     0.056 C 
BRANCH   7   8
ATOM      8  C1  UNL d   1      -1.984   0.205   1.413  0.00  0.00     0.007 C 
ATOM      9  C   UNL d   1      -2.567   0.898   2.638  0.00  0.00     0.009 C 
ENDBRANCH   7   8
ENDBRANCH   1   7
TORSDOF 2
ENDMDL
