MODEL 1
REMARK minimizedAffinity -0.551443338
REMARK minimizedRMSD -1
REMARK  2 active torsions:
REMARK  status: ('A' for Active; 'I' for Inactive)
REMARK    1  A    between atoms: C1_2  and  C2_3 
REMARK    2  A    between atoms: C2_3  and  C3_4 
ROOT
ATOM      1  C3  UNL d   1      -0.963  -1.511  -1.611  0.00  0.00    -0.075 A 
ATOM      2  C4  UNL d   1      -0.597  -0.788  -2.755  0.00  0.00     0.002 A 
ATOM      3  C5  UNL d   1      -1.493  -0.638  -3.815  0.00  0.00     0.002 A 
ATOM      4  C6  UNL d   1      -2.759  -1.216  -3.748  0.00  0.00    -0.004 A 
ATOM      5  C7  UNL d   1      -3.127  -1.951  -2.623  0.00  0.00     0.002 A 
ATOM      6  C8  UNL d   1      -2.234  -2.099  -1.559  0.00  0.00     0.002 A 
ENDROOT
BRANCH   1   7
ATOM      7  C2  UNL d   1      -0.009  -1.652  -0.448  0.00  0.00     0.056 C 
BRANCH   7   8
ATOM      8  C1  UNL d   1       1.334  -0.945  -0.655  0.00  0.00     0.007 C 
ATOM      9  C   UNL d   1       1.432   0.384   0.083  0.00  0.00     0.009 C 
ENDBRANCH   7   8
ENDBRANCH   1   7
TORSDOF 2
ENDMDL
