MODEL 1
REMARK minimizedAffinity -1.06292951
REMARK minimizedRMSD -1
REMARK  2 active torsions:
REMARK  status: ('A' for Active; 'I' for Inactive)
REMARK    1  A    between atoms: C1_2  and  C2_3 
REMARK    2  A    between atoms: C2_3  and  C3_4 
ROOT
ATOM      1  C3  UNL d   1      -0.937  -1.440  -0.469  0.00  0.00    -0.075 A 
ATOM      2  C4  UNL d   1       0.409  -1.324  -0.848  0.00  0.00     0.002 A 
ATOM      3  C5  UNL d   1       1.237  -0.381  -0.239  0.00  0.00     0.002 A 
ATOM      4  C6  UNL d   1       0.730   0.463   0.747  0.00  0.00    -0.004 A 
ATOM      5  C7  UNL d   1      -0.609   0.368   1.119  0.00  0.00     0.002 A 
ATOM      6  C8  UNL d   1      -1.439  -0.578   0.514  0.00  0.00     0.002 A 
ENDROOT
BRANCH   1   7
ATOM      7  C2  UNL d   1      -1.831  -2.479  -1.104  0.00  0.00     0.056 C 
BRANCH   7   8
ATOM      8  C1  UNL d   1      -2.652  -1.956  -2.287  0.00  0.00     0.007 C 
ATOM      9  C   UNL d   1      -4.120  -1.734  -1.948  0.00  0.00     0.009 C 
ENDBRANCH   7   8
ENDBRANCH   1   7
TORSDOF 2
ENDMDL
