MODEL 1
REMARK minimizedAffinity -1.83180368
REMARK minimizedRMSD -1
REMARK  2 active torsions:
REMARK  status: ('A' for Active; 'I' for Inactive)
REMARK    1  A    between atoms: C1_2  and  C2_3 
REMARK    2  A    between atoms: C2_3  and  C3_4 
ROOT
ATOM      1  C3  UNL d   1       2.516   1.368   1.621  0.00  0.00    -0.075 A 
ATOM      2  C4  UNL d   1       1.843   1.961   2.699  0.00  0.00     0.002 A 
ATOM      3  C5  UNL d   1       0.451   1.914   2.778  0.00  0.00     0.002 A 
ATOM      4  C6  UNL d   1      -0.285   1.284   1.777  0.00  0.00    -0.004 A 
ATOM      5  C7  UNL d   1       0.372   0.706   0.693  0.00  0.00     0.002 A 
ATOM      6  C8  UNL d   1       1.765   0.748   0.614  0.00  0.00     0.002 A 
ENDROOT
BRANCH   1   7
ATOM      7  C2  UNL d   1       4.024   1.390   1.545  0.00  0.00     0.056 C 
BRANCH   7   8
ATOM      8  C1  UNL d   1       4.710   1.748   2.868  0.00  0.00     0.007 C 
ATOM      9  C   UNL d   1       5.293   3.155   2.880  0.00  0.00     0.009 C 
ENDBRANCH   7   8
ENDBRANCH   1   7
TORSDOF 2
ENDMDL
