MODEL 1
REMARK minimizedAffinity 3.24325323
REMARK minimizedRMSD -1
REMARK  2 active torsions:
REMARK  status: ('A' for Active; 'I' for Inactive)
REMARK    1  A    between atoms: C1_2  and  C2_3 
REMARK    2  A    between atoms: C2_3  and  C3_4 
ROOT
ATOM      1  C3  UNL d   1       0.964   0.813   0.534  0.00  0.00    -0.075 A 
ATOM      2  C4  UNL d   1       1.422   1.462   1.690  0.00  0.00     0.002 A 
ATOM      3  C5  UNL d   1       0.584   1.616   2.795  0.00  0.00     0.002 A 
ATOM      4  C6  UNL d   1      -0.723   1.135   2.754  0.00  0.00    -0.004 A 
ATOM      5  C7  UNL d   1      -1.194   0.503   1.605  0.00  0.00     0.002 A 
ATOM      6  C8  UNL d   1      -0.356   0.343   0.500  0.00  0.00     0.002 A 
ENDROOT
BRANCH   1   7
ATOM      7  C2  UNL d   1       1.875   0.616  -0.654  0.00  0.00     0.056 C 
BRANCH   7   8
ATOM      8  C1  UNL d   1       1.955  -0.833  -1.145  0.00  0.00     0.007 C 
ATOM      9  C   UNL d   1       1.920  -0.955  -2.663  0.00  0.00     0.009 C 
ENDBRANCH   7   8
ENDBRANCH   1   7
TORSDOF 2
ENDMDL
