MODEL 1
REMARK minimizedAffinity 2.18336773
REMARK minimizedRMSD -1
REMARK  2 active torsions:
REMARK  status: ('A' for Active; 'I' for Inactive)
REMARK    1  A    between atoms: C1_2  and  C2_3 
REMARK    2  A    between atoms: C2_3  and  C3_4 
ROOT
ATOM      1  C3  UNL d   1      -0.210   2.673   1.392  0.00  0.00    -0.075 A 
ATOM      2  C4  UNL d   1      -1.394   2.148   1.929  0.00  0.00     0.002 A 
ATOM      3  C5  UNL d   1      -1.352   1.096   2.845  0.00  0.00     0.002 A 
ATOM      4  C6  UNL d   1      -0.128   0.551   3.228  0.00  0.00    -0.004 A 
ATOM      5  C7  UNL d   1       1.054   1.053   2.688  0.00  0.00     0.002 A 
ATOM      6  C8  UNL d   1       1.014   2.108   1.774  0.00  0.00     0.002 A 
ENDROOT
BRANCH   1   7
ATOM      7  C2  UNL d   1      -0.247   3.830   0.423  0.00  0.00     0.056 C 
BRANCH   7   8
ATOM      8  C1  UNL d   1      -1.231   3.640  -0.737  0.00  0.00     0.007 C 
ATOM      9  C   UNL d   1      -1.860   4.943  -1.210  0.00  0.00     0.009 C 
ENDBRANCH   7   8
ENDBRANCH   1   7
TORSDOF 2
ENDMDL
