MODEL 1
REMARK minimizedAffinity 5.14140606
REMARK minimizedRMSD -1
REMARK  2 active torsions:
REMARK  status: ('A' for Active; 'I' for Inactive)
REMARK    1  A    between atoms: C1_2  and  C2_3 
REMARK    2  A    between atoms: C2_3  and  C3_4 
ROOT
ATOM      1  C3  UNL d   1      -1.701  -0.587   0.191  0.00  0.00    -0.075 A 
ATOM      2  C4  UNL d   1      -2.425   0.463   0.776  0.00  0.00     0.002 A 
ATOM      3  C5  UNL d   1      -1.782   1.409   1.574  0.00  0.00     0.002 A 
ATOM      4  C6  UNL d   1      -0.411   1.313   1.806  0.00  0.00    -0.004 A 
ATOM      5  C7  UNL d   1       0.315   0.265   1.244  0.00  0.00     0.002 A 
ATOM      6  C8  UNL d   1      -0.326  -0.681   0.441  0.00  0.00     0.002 A 
ENDROOT
BRANCH   1   7
ATOM      7  C2  UNL d   1      -2.387  -1.597  -0.697  0.00  0.00     0.056 C 
BRANCH   7   8
ATOM      8  C1  UNL d   1      -2.586  -1.124  -2.141  0.00  0.00     0.007 C 
ATOM      9  C   UNL d   1      -3.053  -2.231  -3.076  0.00  0.00     0.009 C 
ENDBRANCH   7   8
ENDBRANCH   1   7
TORSDOF 2
ENDMDL
