MODEL 1
REMARK minimizedAffinity 2.60454702
REMARK minimizedRMSD -1
REMARK  2 active torsions:
REMARK  status: ('A' for Active; 'I' for Inactive)
REMARK    1  A    between atoms: C1_2  and  C2_3 
REMARK    2  A    between atoms: C2_3  and  C3_4 
ROOT
ATOM      1  C3  UNL d   1       1.633   0.141  -0.550  0.00  0.00    -0.075 A 
ATOM      2  C4  UNL d   1       2.780  -0.431  -1.120  0.00  0.00     0.002 A 
ATOM      3  C5  UNL d   1       2.874  -0.603  -2.501  0.00  0.00     0.002 A 
ATOM      4  C6  UNL d   1       1.822  -0.216  -3.328  0.00  0.00    -0.004 A 
ATOM      5  C7  UNL d   1       0.671   0.338  -2.771  0.00  0.00     0.002 A 
ATOM      6  C8  UNL d   1       0.576   0.516  -1.390  0.00  0.00     0.002 A 
ENDROOT
BRANCH   1   7
ATOM      7  C2  UNL d   1       1.537   0.357   0.941  0.00  0.00     0.056 C 
BRANCH   7   8
ATOM      8  C1  UNL d   1       1.019   1.743   1.339  0.00  0.00     0.007 C 
ATOM      9  C   UNL d   1      -0.018   1.700   2.453  0.00  0.00     0.009 C 
ENDBRANCH   7   8
ENDBRANCH   1   7
TORSDOF 2
ENDMDL
