MODEL 1
REMARK minimizedAffinity 4.22466373
REMARK minimizedRMSD -1
REMARK  2 active torsions:
REMARK  status: ('A' for Active; 'I' for Inactive)
REMARK    1  A    between atoms: C1_2  and  C2_3 
REMARK    2  A    between atoms: C2_3  and  C3_4 
ROOT
ATOM      1  C3  UNL d   1       0.884   1.116   1.413  0.00  0.00    -0.075 A 
ATOM      2  C4  UNL d   1       0.121   0.015   1.828  0.00  0.00     0.002 A 
ATOM      3  C5  UNL d   1      -1.141   0.200   2.392  0.00  0.00     0.002 A 
ATOM      4  C6  UNL d   1      -1.651   1.486   2.558  0.00  0.00    -0.004 A 
ATOM      5  C7  UNL d   1      -0.894   2.588   2.165  0.00  0.00     0.002 A 
ATOM      6  C8  UNL d   1       0.367   2.405   1.596  0.00  0.00     0.002 A 
ENDROOT
BRANCH   1   7
ATOM      7  C2  UNL d   1       2.239   0.920   0.775  0.00  0.00     0.056 C 
BRANCH   7   8
ATOM      8  C1  UNL d   1       2.188   0.699  -0.741  0.00  0.00     0.007 C 
ATOM      9  C   UNL d   1       2.270  -0.770  -1.136  0.00  0.00     0.009 C 
ENDBRANCH   7   8
ENDBRANCH   1   7
TORSDOF 2
ENDMDL
