MODEL 1
REMARK minimizedAffinity -3.94390559
REMARK minimizedRMSD -1
REMARK  2 active torsions:
REMARK  status: ('A' for Active; 'I' for Inactive)
REMARK    1  A    between atoms: C1_2  and  C2_3 
REMARK    2  A    between atoms: C2_3  and  C3_4 
ROOT
ATOM      1  C3  UNL d   1       1.130   1.431   1.055  0.00  0.00    -0.075 A 
ATOM      2  C4  UNL d   1       0.096   0.592   1.498  0.00  0.00     0.002 A 
ATOM      3  C5  UNL d   1      -1.118   1.130   1.926  0.00  0.00     0.002 A 
ATOM      4  C6  UNL d   1      -1.310   2.510   1.928  0.00  0.00    -0.004 A 
ATOM      5  C7  UNL d   1      -0.284   3.353   1.506  0.00  0.00     0.002 A 
ATOM      6  C8  UNL d   1       0.930   2.817   1.072  0.00  0.00     0.002 A 
ENDROOT
BRANCH   1   7
ATOM      7  C2  UNL d   1       2.435   0.854   0.562  0.00  0.00     0.056 C 
BRANCH   7   8
ATOM      8  C1  UNL d   1       2.409   0.418  -0.907  0.00  0.00     0.007 C 
ATOM      9  C   UNL d   1       1.742  -0.934  -1.121  0.00  0.00     0.009 C 
ENDBRANCH   7   8
ENDBRANCH   1   7
TORSDOF 2
ENDMDL
