MODEL 1
REMARK minimizedAffinity 12.6136761
REMARK minimizedRMSD -1
REMARK  2 active torsions:
REMARK  status: ('A' for Active; 'I' for Inactive)
REMARK    1  A    between atoms: C1_2  and  C2_3 
REMARK    2  A    between atoms: C2_3  and  C3_4 
ROOT
ATOM      1  C3  UNL d   1      -1.200   0.678   2.616  0.00  0.00    -0.075 A 
ATOM      2  C4  UNL d   1      -0.941   1.786   1.796  0.00  0.00     0.002 A 
ATOM      3  C5  UNL d   1       0.221   2.539   1.969  0.00  0.00     0.002 A 
ATOM      4  C6  UNL d   1       1.131   2.201   2.968  0.00  0.00    -0.004 A 
ATOM      5  C7  UNL d   1       0.876   1.113   3.800  0.00  0.00     0.002 A 
ATOM      6  C8  UNL d   1      -0.284   0.355   3.626  0.00  0.00     0.002 A 
ENDROOT
BRANCH   1   7
ATOM      7  C2  UNL d   1      -2.440  -0.159   2.414  0.00  0.00     0.056 C 
BRANCH   7   8
ATOM      8  C1  UNL d   1      -3.680   0.378   3.138  0.00  0.00     0.007 C 
ATOM      9  C   UNL d   1      -4.162  -0.533   4.259  0.00  0.00     0.009 C 
ENDBRANCH   7   8
ENDBRANCH   1   7
TORSDOF 2
ENDMDL
