MODEL 1
REMARK minimizedAffinity 2.66086125
REMARK minimizedRMSD -1
REMARK  2 active torsions:
REMARK  status: ('A' for Active; 'I' for Inactive)
REMARK    1  A    between atoms: C1_2  and  C2_3 
REMARK    2  A    between atoms: C2_3  and  C3_4 
ROOT
ATOM      1  C3  UNL d   1      -4.563   4.599   1.509  0.00  0.00    -0.075 A 
ATOM      2  C4  UNL d   1      -4.470   3.656   2.543  0.00  0.00     0.002 A 
ATOM      3  C5  UNL d   1      -5.107   3.878   3.765  0.00  0.00     0.002 A 
ATOM      4  C6  UNL d   1      -5.834   5.048   3.971  0.00  0.00    -0.004 A 
ATOM      5  C7  UNL d   1      -5.920   5.999   2.957  0.00  0.00     0.002 A 
ATOM      6  C8  UNL d   1      -5.287   5.777   1.732  0.00  0.00     0.002 A 
ENDROOT
BRANCH   1   7
ATOM      7  C2  UNL d   1      -3.901   4.350   0.175  0.00  0.00     0.056 C 
BRANCH   7   8
ATOM      8  C1  UNL d   1      -2.892   3.197   0.185  0.00  0.00     0.007 C 
ATOM      9  C   UNL d   1      -1.699   3.435  -0.732  0.00  0.00     0.009 C 
ENDBRANCH   7   8
ENDBRANCH   1   7
TORSDOF 2
ENDMDL
