MODEL 1
REMARK minimizedAffinity 7.04709339
REMARK minimizedRMSD -1
REMARK  2 active torsions:
REMARK  status: ('A' for Active; 'I' for Inactive)
REMARK    1  A    between atoms: C1_2  and  C2_3 
REMARK    2  A    between atoms: C2_3  and  C3_4 
ROOT
ATOM      1  C3  UNL d   1       1.443   0.984   1.221  0.00  0.00    -0.075 A 
ATOM      2  C4  UNL d   1       2.688   1.574   0.957  0.00  0.00     0.002 A 
ATOM      3  C5  UNL d   1       3.544   1.025   0.002  0.00  0.00     0.002 A 
ATOM      4  C6  UNL d   1       3.173  -0.124  -0.692  0.00  0.00    -0.004 A 
ATOM      5  C7  UNL d   1       1.946  -0.728  -0.426  0.00  0.00     0.002 A 
ATOM      6  C8  UNL d   1       1.085  -0.179   0.526  0.00  0.00     0.002 A 
ENDROOT
BRANCH   1   7
ATOM      7  C2  UNL d   1       0.500   1.590   2.232  0.00  0.00     0.056 C 
BRANCH   7   8
ATOM      8  C1  UNL d   1      -0.463   2.626   1.643  0.00  0.00     0.007 C 
ATOM      9  C   UNL d   1      -1.895   2.464   2.137  0.00  0.00     0.009 C 
ENDBRANCH   7   8
ENDBRANCH   1   7
TORSDOF 2
ENDMDL
