MODEL 1
REMARK minimizedAffinity -2.41503429
REMARK minimizedRMSD -1
REMARK  2 active torsions:
REMARK  status: ('A' for Active; 'I' for Inactive)
REMARK    1  A    between atoms: C1_2  and  C2_3 
REMARK    2  A    between atoms: C2_3  and  C3_4 
ROOT
ATOM      1  C3  UNL d   1       0.984   0.353   0.607  0.00  0.00    -0.075 A 
ATOM      2  C4  UNL d   1      -0.356  -0.053   0.688  0.00  0.00     0.002 A 
ATOM      3  C5  UNL d   1      -1.228   0.557   1.590  0.00  0.00     0.002 A 
ATOM      4  C6  UNL d   1      -0.771   1.572   2.428  0.00  0.00    -0.004 A 
ATOM      5  C7  UNL d   1       0.562   1.972   2.368  0.00  0.00     0.002 A 
ATOM      6  C8  UNL d   1       1.436   1.366   1.464  0.00  0.00     0.002 A 
ENDROOT
BRANCH   1   7
ATOM      7  C2  UNL d   1       1.926  -0.283  -0.387  0.00  0.00     0.056 C 
BRANCH   7   8
ATOM      8  C1  UNL d   1       1.500  -1.683  -0.842  0.00  0.00     0.007 C 
ATOM      9  C   UNL d   1       0.943  -1.710  -2.259  0.00  0.00     0.009 C 
ENDBRANCH   7   8
ENDBRANCH   1   7
TORSDOF 2
ENDMDL
