MODEL 1
REMARK minimizedAffinity 0.474757344
REMARK minimizedRMSD -1
REMARK  2 active torsions:
REMARK  status: ('A' for Active; 'I' for Inactive)
REMARK    1  A    between atoms: C1_2  and  C2_3 
REMARK    2  A    between atoms: C2_3  and  C3_4 
ROOT
ATOM      1  C3  UNL d   1      -1.023   1.436   1.294  0.00  0.00    -0.075 A 
ATOM      2  C4  UNL d   1      -0.391   2.661   1.549  0.00  0.00     0.002 A 
ATOM      3  C5  UNL d   1       0.912   2.892   1.108  0.00  0.00     0.002 A 
ATOM      4  C6  UNL d   1       1.602   1.899   0.416  0.00  0.00    -0.004 A 
ATOM      5  C7  UNL d   1       0.990   0.671   0.172  0.00  0.00     0.002 A 
ATOM      6  C8  UNL d   1      -0.315   0.440   0.608  0.00  0.00     0.002 A 
ENDROOT
BRANCH   1   7
ATOM      7  C2  UNL d   1      -2.444   1.191   1.743  0.00  0.00     0.056 C 
BRANCH   7   8
ATOM      8  C1  UNL d   1      -3.292   2.462   1.852  0.00  0.00     0.007 C 
ATOM      9  C   UNL d   1      -4.390   2.364   2.902  0.00  0.00     0.009 C 
ENDBRANCH   7   8
ENDBRANCH   1   7
TORSDOF 2
ENDMDL
