MODEL 1
REMARK minimizedAffinity 10.5203304
REMARK minimizedRMSD -1
REMARK  2 active torsions:
REMARK  status: ('A' for Active; 'I' for Inactive)
REMARK    1  A    between atoms: C1_2  and  C2_3 
REMARK    2  A    between atoms: C2_3  and  C3_4 
ROOT
ATOM      1  C3  UNL d   1      -1.762   2.570  -1.903  0.00  0.00    -0.075 A 
ATOM      2  C4  UNL d   1      -2.216   3.045  -0.664  0.00  0.00     0.002 A 
ATOM      3  C5  UNL d   1      -1.353   3.106   0.430  0.00  0.00     0.002 A 
ATOM      4  C6  UNL d   1      -0.031   2.684   0.304  0.00  0.00    -0.004 A 
ATOM      5  C7  UNL d   1       0.426   2.195  -0.918  0.00  0.00     0.002 A 
ATOM      6  C8  UNL d   1      -0.434   2.137  -2.016  0.00  0.00     0.002 A 
ENDROOT
BRANCH   1   7
ATOM      7  C2  UNL d   1      -2.683   2.529  -3.099  0.00  0.00     0.056 C 
BRANCH   7   8
ATOM      8  C1  UNL d   1      -3.381   1.180  -3.303  0.00  0.00     0.007 C 
ATOM      9  C   UNL d   1      -3.941   0.594  -2.013  0.00  0.00     0.009 C 
ENDBRANCH   7   8
ENDBRANCH   1   7
TORSDOF 2
ENDMDL
