MODEL 1
REMARK minimizedAffinity -1.26876521
REMARK minimizedRMSD -1
REMARK  2 active torsions:
REMARK  status: ('A' for Active; 'I' for Inactive)
REMARK    1  A    between atoms: C1_2  and  C2_3 
REMARK    2  A    between atoms: C2_3  and  C3_4 
ROOT
ATOM      1  C3  UNL d   1      -0.419   2.494  -1.221  0.00  0.00    -0.075 A 
ATOM      2  C4  UNL d   1      -0.228   1.123  -0.997  0.00  0.00     0.002 A 
ATOM      3  C5  UNL d   1       0.103   0.272  -2.052  0.00  0.00     0.002 A 
ATOM      4  C6  UNL d   1       0.236   0.777  -3.343  0.00  0.00    -0.004 A 
ATOM      5  C7  UNL d   1       0.033   2.135  -3.580  0.00  0.00     0.002 A 
ATOM      6  C8  UNL d   1      -0.294   2.990  -2.526  0.00  0.00     0.002 A 
ENDROOT
BRANCH   1   7
ATOM      7  C2  UNL d   1      -0.748   3.425  -0.079  0.00  0.00     0.056 C 
BRANCH   7   8
ATOM      8  C1  UNL d   1      -1.101   2.708   1.228  0.00  0.00     0.007 C 
ATOM      9  C   UNL d   1       0.121   2.323   2.052  0.00  0.00     0.009 C 
ENDBRANCH   7   8
ENDBRANCH   1   7
TORSDOF 2
ENDMDL
