MODEL 1
REMARK minimizedAffinity -0.507699668
REMARK minimizedRMSD -1
REMARK  2 active torsions:
REMARK  status: ('A' for Active; 'I' for Inactive)
REMARK    1  A    between atoms: C1_2  and  C2_3 
REMARK    2  A    between atoms: C2_3  and  C3_4 
ROOT
ATOM      1  C3  UNL d   1      -0.675   1.519  -0.917  0.00  0.00    -0.075 A 
ATOM      2  C4  UNL d   1      -1.097   0.194  -0.736  0.00  0.00     0.002 A 
ATOM      3  C5  UNL d   1      -1.074  -0.708  -1.800  0.00  0.00     0.002 A 
ATOM      4  C6  UNL d   1      -0.638  -0.296  -3.058  0.00  0.00    -0.004 A 
ATOM      5  C7  UNL d   1      -0.232   1.023  -3.252  0.00  0.00     0.002 A 
ATOM      6  C8  UNL d   1      -0.250   1.926  -2.189  0.00  0.00     0.002 A 
ENDROOT
BRANCH   1   7
ATOM      7  C2  UNL d   1      -0.670   2.493   0.238  0.00  0.00     0.056 C 
BRANCH   7   8
ATOM      8  C1  UNL d   1      -0.026   1.943   1.514  0.00  0.00     0.007 C 
ATOM      9  C   UNL d   1      -0.966   1.950   2.713  0.00  0.00     0.009 C 
ENDBRANCH   7   8
ENDBRANCH   1   7
TORSDOF 2
ENDMDL
