MODEL 1
REMARK minimizedAffinity 11.8666611
REMARK minimizedRMSD -1
REMARK  2 active torsions:
REMARK  status: ('A' for Active; 'I' for Inactive)
REMARK    1  A    between atoms: C1_2  and  C2_3 
REMARK    2  A    between atoms: C2_3  and  C3_4 
ROOT
ATOM      1  C3  UNL d   1      -2.021   5.637  -0.531  0.00  0.00    -0.075 A 
ATOM      2  C4  UNL d   1      -3.267   5.610  -1.174  0.00  0.00     0.002 A 
ATOM      3  C5  UNL d   1      -4.444   5.789  -0.446  0.00  0.00     0.002 A 
ATOM      4  C6  UNL d   1      -4.391   5.987   0.932  0.00  0.00    -0.004 A 
ATOM      5  C7  UNL d   1      -3.159   5.998   1.584  0.00  0.00     0.002 A 
ATOM      6  C8  UNL d   1      -1.980   5.824   0.857  0.00  0.00     0.002 A 
ENDROOT
BRANCH   1   7
ATOM      7  C2  UNL d   1      -0.742   5.473  -1.317  0.00  0.00     0.056 C 
BRANCH   7   8
ATOM      8  C1  UNL d   1      -0.506   4.050  -1.834  0.00  0.00     0.007 C 
ATOM      9  C   UNL d   1       0.322   3.195  -0.884  0.00  0.00     0.009 C 
ENDBRANCH   7   8
ENDBRANCH   1   7
TORSDOF 2
ENDMDL
