MODEL 1
REMARK minimizedAffinity 6.82149172
REMARK minimizedRMSD -1
REMARK  2 active torsions:
REMARK  status: ('A' for Active; 'I' for Inactive)
REMARK    1  A    between atoms: C1_2  and  C2_3 
REMARK    2  A    between atoms: C2_3  and  C3_4 
ROOT
ATOM      1  C3  UNL d   1      -1.062   2.156  -0.979  0.00  0.00    -0.075 A 
ATOM      2  C4  UNL d   1      -0.626   1.581   0.223  0.00  0.00     0.002 A 
ATOM      3  C5  UNL d   1       0.301   2.242   1.030  0.00  0.00     0.002 A 
ATOM      4  C6  UNL d   1       0.809   3.480   0.641  0.00  0.00    -0.004 A 
ATOM      5  C7  UNL d   1       0.395   4.053  -0.559  0.00  0.00     0.002 A 
ATOM      6  C8  UNL d   1      -0.535   3.396  -1.366  0.00  0.00     0.002 A 
ENDROOT
BRANCH   1   7
ATOM      7  C2  UNL d   1      -2.086   1.459  -1.843  0.00  0.00     0.056 C 
BRANCH   7   8
ATOM      8  C1  UNL d   1      -3.201   0.766  -1.052  0.00  0.00     0.007 C 
ATOM      9  C   UNL d   1      -4.524   0.709  -1.803  0.00  0.00     0.009 C 
ENDBRANCH   7   8
ENDBRANCH   1   7
TORSDOF 2
ENDMDL
