MODEL 1
REMARK minimizedAffinity 0.044170633
REMARK minimizedRMSD -1
REMARK  0 active torsions:
REMARK  status: ('A' for Active; 'I' for Inactive)
ROOT
ATOM      1  C   UNL d   1       3.353   4.950  -3.718  0.00  0.00     0.023 A 
ATOM      2  C1  UNL d   1       4.545   4.879  -2.996  0.00  0.00     0.003 A 
ATOM      3  C2  UNL d   1       5.306   3.709  -3.015  0.00  0.00     0.048 A 
ATOM      4  C3  UNL d   1       4.869   2.613  -3.759  0.00  0.00     0.023 A 
ATOM      5  C4  UNL d   1       3.678   2.679  -4.483  0.00  0.00     0.048 A 
ATOM      6  C5  UNL d   1       2.920   3.851  -4.460  0.00  0.00     0.003 A 
ATOM      7  I   UNL d   1       6.000   0.869  -3.789  0.00  0.00    -0.146 I 
ENDROOT
TORSDOF 0
ENDMDL
