MODEL 1
REMARK minimizedAffinity 11.3768721
REMARK minimizedRMSD -1
REMARK  0 active torsions:
REMARK  status: ('A' for Active; 'I' for Inactive)
ROOT
ATOM      1  C   UNL d   1       1.895   1.836   1.476  0.00  0.00     0.023 A 
ATOM      2  C1  UNL d   1       1.148   1.853   0.298  0.00  0.00     0.003 A 
ATOM      3  C2  UNL d   1       0.583   3.047  -0.154  0.00  0.00     0.048 A 
ATOM      4  C3  UNL d   1       0.769   4.221   0.575  0.00  0.00     0.023 A 
ATOM      5  C4  UNL d   1       1.516   4.209   1.754  0.00  0.00     0.048 A 
ATOM      6  C5  UNL d   1       2.079   3.012   2.203  0.00  0.00     0.003 A 
ATOM      7  I   UNL d   1      -0.071   5.999  -0.096  0.00  0.00    -0.146 I 
ENDROOT
TORSDOF 0
ENDMDL
