MODEL 1
REMARK minimizedAffinity 6.16894054
REMARK minimizedRMSD -1
REMARK  0 active torsions:
REMARK  status: ('A' for Active; 'I' for Inactive)
ROOT
ATOM      1  C   UNL d   1       0.129   1.943   0.872  0.00  0.00     0.023 A 
ATOM      2  C1  UNL d   1      -0.721   1.117   0.137  0.00  0.00     0.003 A 
ATOM      3  C2  UNL d   1      -0.344   0.679  -1.134  0.00  0.00     0.048 A 
ATOM      4  C3  UNL d   1       0.885   1.071  -1.664  0.00  0.00     0.023 A 
ATOM      5  C4  UNL d   1       1.739   1.897  -0.932  0.00  0.00     0.048 A 
ATOM      6  C5  UNL d   1       1.358   2.333   0.339  0.00  0.00     0.003 A 
ATOM      7  I   UNL d   1       1.448   0.421  -3.556  0.00  0.00    -0.146 I 
ENDROOT
TORSDOF 0
ENDMDL
