MODEL 1
REMARK minimizedAffinity 9.34510517
REMARK minimizedRMSD -1
REMARK  0 active torsions:
REMARK  status: ('A' for Active; 'I' for Inactive)
ROOT
ATOM      1  C   UNL d   1      -6.000  -5.365  -1.534  0.00  0.00     0.023 A 
ATOM      2  C1  UNL d   1      -5.031  -6.000  -0.758  0.00  0.00     0.003 A 
ATOM      3  C2  UNL d   1      -3.800  -5.380  -0.530  0.00  0.00     0.048 A 
ATOM      4  C3  UNL d   1      -3.546  -4.125  -1.081  0.00  0.00     0.023 A 
ATOM      5  C4  UNL d   1      -4.513  -3.485  -1.857  0.00  0.00     0.048 A 
ATOM      6  C5  UNL d   1      -5.742  -4.109  -2.083  0.00  0.00     0.003 A 
ATOM      7  I   UNL d   1      -1.715  -3.200  -0.743  0.00  0.00    -0.146 I 
ENDROOT
TORSDOF 0
ENDMDL
