MODEL 1
REMARK minimizedAffinity -2.16007876
REMARK minimizedRMSD -1
REMARK  0 active torsions:
REMARK  status: ('A' for Active; 'I' for Inactive)
ROOT
ATOM      1  C   UNL d   1      -1.208   2.065  -1.067  0.00  0.00     0.023 A 
ATOM      2  C1  UNL d   1      -1.840   1.107  -0.275  0.00  0.00     0.003 A 
ATOM      3  C2  UNL d   1      -1.213  -0.113  -0.018  0.00  0.00     0.048 A 
ATOM      4  C3  UNL d   1       0.047  -0.370  -0.556  0.00  0.00     0.023 A 
ATOM      5  C4  UNL d   1       0.685   0.586  -1.349  0.00  0.00     0.048 A 
ATOM      6  C5  UNL d   1       0.053   1.805  -1.604  0.00  0.00     0.003 A 
ATOM      7  I   UNL d   1       0.983  -2.186  -0.175  0.00  0.00    -0.146 I 
ENDROOT
TORSDOF 0
ENDMDL
