MODEL 1
REMARK minimizedAffinity -2.41723776
REMARK minimizedRMSD -1
REMARK  0 active torsions:
REMARK  status: ('A' for Active; 'I' for Inactive)
ROOT
ATOM      1  C   UNL d   1       1.457  -0.172  -2.919  0.00  0.00     0.023 A 
ATOM      2  C1  UNL d   1       0.730   1.015  -2.829  0.00  0.00     0.003 A 
ATOM      3  C2  UNL d   1      -0.163   1.209  -1.773  0.00  0.00     0.048 A 
ATOM      4  C3  UNL d   1      -0.323   0.213  -0.811  0.00  0.00     0.023 A 
ATOM      5  C4  UNL d   1       0.403  -0.976  -0.897  0.00  0.00     0.048 A 
ATOM      6  C5  UNL d   1       1.294  -1.166  -1.955  0.00  0.00     0.003 A 
ATOM      7  I   UNL d   1      -1.651   0.500   0.762  0.00  0.00    -0.146 I 
ENDROOT
TORSDOF 0
ENDMDL
