MODEL 1
REMARK minimizedAffinity -2.29263473
REMARK minimizedRMSD -1
REMARK  0 active torsions:
REMARK  status: ('A' for Active; 'I' for Inactive)
ROOT
ATOM      1  C   UNL d   1       1.401  -2.716  -0.739  0.00  0.00     0.023 A 
ATOM      2  C1  UNL d   1       1.955  -1.618  -1.397  0.00  0.00     0.003 A 
ATOM      3  C2  UNL d   1       1.249  -0.415  -1.467  0.00  0.00     0.048 A 
ATOM      4  C3  UNL d   1      -0.010  -0.317  -0.876  0.00  0.00     0.023 A 
ATOM      5  C4  UNL d   1      -0.568  -1.413  -0.215  0.00  0.00     0.048 A 
ATOM      6  C5  UNL d   1       0.141  -2.614  -0.149  0.00  0.00     0.003 A 
ATOM      7  I   UNL d   1      -1.063   1.472  -0.978  0.00  0.00    -0.146 I 
ENDROOT
TORSDOF 0
ENDMDL
