MODEL 1
REMARK minimizedAffinity -0.553436875
REMARK minimizedRMSD -1
REMARK  0 active torsions:
REMARK  status: ('A' for Active; 'I' for Inactive)
ROOT
ATOM      1  C   UNL d   1       0.714  -1.186  -0.273  0.00  0.00     0.023 A 
ATOM      2  C1  UNL d   1       1.565  -1.776  -1.209  0.00  0.00     0.003 A 
ATOM      3  C2  UNL d   1       1.806  -1.145  -2.431  0.00  0.00     0.048 A 
ATOM      4  C3  UNL d   1       1.194   0.077  -2.710  0.00  0.00     0.023 A 
ATOM      5  C4  UNL d   1       0.343   0.671  -1.777  0.00  0.00     0.048 A 
ATOM      6  C5  UNL d   1       0.104   0.036  -0.557  0.00  0.00     0.003 A 
ATOM      7  I   UNL d   1       1.551   1.019  -4.528  0.00  0.00    -0.146 I 
ENDROOT
TORSDOF 0
ENDMDL
