MODEL 1
REMARK minimizedAffinity 0.961976111
REMARK minimizedRMSD -1
REMARK  0 active torsions:
REMARK  status: ('A' for Active; 'I' for Inactive)
ROOT
ATOM      1  C   UNL d   1       1.896  -1.454  -2.943  0.00  0.00     0.023 A 
ATOM      2  C1  UNL d   1       1.497  -1.946  -1.701  0.00  0.00     0.003 A 
ATOM      3  C2  UNL d   1       0.675  -1.178  -0.874  0.00  0.00     0.048 A 
ATOM      4  C3  UNL d   1       0.254   0.083  -1.297  0.00  0.00     0.023 A 
ATOM      5  C4  UNL d   1       0.650   0.580  -2.540  0.00  0.00     0.048 A 
ATOM      6  C5  UNL d   1       1.473  -0.192  -3.362  0.00  0.00     0.003 A 
ATOM      7  I   UNL d   1      -0.970   1.229  -0.069  0.00  0.00    -0.146 I 
ENDROOT
TORSDOF 0
ENDMDL
