MODEL 1
REMARK minimizedAffinity -2.57612014
REMARK minimizedRMSD -1
REMARK  0 active torsions:
REMARK  status: ('A' for Active; 'I' for Inactive)
ROOT
ATOM      1  C   UNL d   1       0.192   2.426  -0.406  0.00  0.00     0.023 A 
ATOM      2  C1  UNL d   1       0.314   1.758   0.813  0.00  0.00     0.003 A 
ATOM      3  C2  UNL d   1       0.248   0.364   0.856  0.00  0.00     0.048 A 
ATOM      4  C3  UNL d   1       0.061  -0.356  -0.323  0.00  0.00     0.023 A 
ATOM      5  C4  UNL d   1      -0.061   0.308  -1.545  0.00  0.00     0.048 A 
ATOM      6  C5  UNL d   1       0.004   1.702  -1.583  0.00  0.00     0.003 A 
ATOM      7  I   UNL d   1      -0.038  -2.431  -0.261  0.00  0.00    -0.146 I 
ENDROOT
TORSDOF 0
ENDMDL
