MODEL 1
REMARK minimizedAffinity -2.54838681
REMARK minimizedRMSD -1
REMARK  0 active torsions:
REMARK  status: ('A' for Active; 'I' for Inactive)
ROOT
ATOM      1  C   UNL d   1       0.498  -1.209  -1.031  0.00  0.00     0.023 A 
ATOM      2  C1  UNL d   1      -0.208  -2.106  -0.229  0.00  0.00     0.003 A 
ATOM      3  C2  UNL d   1      -0.859  -1.654   0.921  0.00  0.00     0.048 A 
ATOM      4  C3  UNL d   1      -0.802  -0.304   1.262  0.00  0.00     0.023 A 
ATOM      5  C4  UNL d   1      -0.097   0.598   0.463  0.00  0.00     0.048 A 
ATOM      6  C5  UNL d   1       0.553   0.141  -0.685  0.00  0.00     0.003 A 
ATOM      7  I   UNL d   1      -1.770   0.372   2.973  0.00  0.00    -0.146 I 
ENDROOT
TORSDOF 0
ENDMDL
