MODEL 1
REMARK minimizedAffinity -3.25551963
REMARK minimizedRMSD -1
REMARK  0 active torsions:
REMARK  status: ('A' for Active; 'I' for Inactive)
ROOT
ATOM      1  C   UNL d   1       5.319  -1.495   4.951  0.00  0.00     0.023 A 
ATOM      2  C1  UNL d   1       5.354  -0.573   5.997  0.00  0.00     0.003 A 
ATOM      3  C2  UNL d   1       5.495   0.790   5.724  0.00  0.00     0.048 A 
ATOM      4  C3  UNL d   1       5.599   1.223   4.403  0.00  0.00     0.023 A 
ATOM      5  C4  UNL d   1       5.563   0.304   3.353  0.00  0.00     0.048 A 
ATOM      6  C5  UNL d   1       5.423  -1.057   3.630  0.00  0.00     0.003 A 
ATOM      7  I   UNL d   1       5.809   3.250   3.994  0.00  0.00    -0.146 I 
ENDROOT
TORSDOF 0
ENDMDL
