MODEL 1
REMARK minimizedAffinity -3.09429789
REMARK minimizedRMSD -1
REMARK  0 active torsions:
REMARK  status: ('A' for Active; 'I' for Inactive)
ROOT
ATOM      1  C   UNL d   1       0.348  -1.570  -0.839  0.00  0.00     0.023 A 
ATOM      2  C1  UNL d   1       1.284  -0.600  -1.197  0.00  0.00     0.003 A 
ATOM      3  C2  UNL d   1       1.096   0.729  -0.813  0.00  0.00     0.048 A 
ATOM      4  C3  UNL d   1      -0.030   1.081  -0.070  0.00  0.00     0.023 A 
ATOM      5  C4  UNL d   1      -0.969   0.114   0.292  0.00  0.00     0.048 A 
ATOM      6  C5  UNL d   1      -0.777  -1.213  -0.096  0.00  0.00     0.003 A 
ATOM      7  I   UNL d   1      -0.311   3.059   0.504  0.00  0.00    -0.146 I 
ENDROOT
TORSDOF 0
ENDMDL
