MODEL 1
REMARK minimizedAffinity -2.92810512
REMARK minimizedRMSD -1
REMARK  0 active torsions:
REMARK  status: ('A' for Active; 'I' for Inactive)
ROOT
ATOM      1  C   UNL d   1       5.988  -1.120   5.024  0.00  0.00     0.023 A 
ATOM      2  C1  UNL d   1       5.983  -0.119   5.995  0.00  0.00     0.003 A 
ATOM      3  C2  UNL d   1       5.987   1.224   5.615  0.00  0.00     0.048 A 
ATOM      4  C3  UNL d   1       5.995   1.560   4.262  0.00  0.00     0.023 A 
ATOM      5  C4  UNL d   1       5.999   0.562   3.286  0.00  0.00     0.048 A 
ATOM      6  C5  UNL d   1       5.996  -0.780   3.671  0.00  0.00     0.003 A 
ATOM      7  I   UNL d   1       6.000   3.559   3.694  0.00  0.00    -0.146 I 
ENDROOT
TORSDOF 0
ENDMDL
