MODEL 1
REMARK minimizedAffinity -2.86450195
REMARK minimizedRMSD -1
REMARK  0 active torsions:
REMARK  status: ('A' for Active; 'I' for Inactive)
ROOT
ATOM      1  C   UNL d   1      -0.446   2.607   2.368  0.00  0.00     0.023 A 
ATOM      2  C1  UNL d   1       0.218   2.757   1.150  0.00  0.00     0.003 A 
ATOM      3  C2  UNL d   1       0.443   1.645   0.335  0.00  0.00     0.048 A 
ATOM      4  C3  UNL d   1      -0.000   0.388   0.743  0.00  0.00     0.023 A 
ATOM      5  C4  UNL d   1      -0.666   0.233   1.960  0.00  0.00     0.048 A 
ATOM      6  C5  UNL d   1      -0.888   1.347   2.772  0.00  0.00     0.003 A 
ATOM      7  I   UNL d   1       0.333  -1.268  -0.469  0.00  0.00    -0.146 I 
ENDROOT
TORSDOF 0
ENDMDL
