MODEL 1
REMARK minimizedAffinity -0.716869652
REMARK minimizedRMSD -1
REMARK  0 active torsions:
REMARK  status: ('A' for Active; 'I' for Inactive)
ROOT
ATOM      1  C2' OXE d   1       1.506  -4.158   0.501  0.00  0.00     0.078 C 
ATOM      2  C1' OXE d   1      -1.077  -3.062   0.594  0.00  0.00     0.078 C 
ATOM      3  C1  OXE d   1       0.005  -2.258  -0.083  0.00  0.00    -0.078 A 
ATOM      4  C2  OXE d   1       1.276  -2.781  -0.082  0.00  0.00    -0.078 A 
ATOM      5  C3  OXE d   1       2.299  -2.105  -0.740  0.00  0.00     0.003 A 
ATOM      6  C4  OXE d   1       2.080  -0.827  -1.269  0.00  0.00    -0.002 A 
ATOM      7  C5  OXE d   1       0.802  -0.259  -1.245  0.00  0.00    -0.002 A 
ATOM      8  C6  OXE d   1      -0.253  -0.978  -0.695  0.00  0.00     0.003 A 
ENDROOT
TORSDOF 0
ENDMDL
