MODEL 1
REMARK minimizedAffinity -5.79508591
REMARK minimizedRMSD -1
REMARK  0 active torsions:
REMARK  status: ('A' for Active; 'I' for Inactive)
ROOT
ATOM      1  C2' OXE d   1       0.932  -5.409   0.832  0.00  0.00     0.078 C 
ATOM      2  C1' OXE d   1      -1.567  -4.130   0.791  0.00  0.00     0.078 C 
ATOM      3  C1  OXE d   1      -0.371  -3.353   0.301  0.00  0.00    -0.078 A 
ATOM      4  C2  OXE d   1       0.855  -3.971   0.368  0.00  0.00    -0.078 A 
ATOM      5  C3  OXE d   1       1.983  -3.319  -0.123  0.00  0.00     0.003 A 
ATOM      6  C4  OXE d   1       1.905  -1.985  -0.541  0.00  0.00    -0.002 A 
ATOM      7  C5  OXE d   1       0.673  -1.324  -0.580  0.00  0.00    -0.002 A 
ATOM      8  C6  OXE d   1      -0.479  -2.007  -0.204  0.00  0.00     0.003 A 
ENDROOT
TORSDOF 0
ENDMDL
