MODEL 1
REMARK minimizedAffinity -3.30892873
REMARK minimizedRMSD -1
REMARK  0 active torsions:
REMARK  status: ('A' for Active; 'I' for Inactive)
ROOT
ATOM      1  C2' OXE d   1      -1.051  -3.610   0.132  0.00  0.00     0.078 C 
ATOM      2  C1' OXE d   1       1.681  -3.760  -0.494  0.00  0.00     0.078 C 
ATOM      3  C1  OXE d   1       1.023  -2.404  -0.539  0.00  0.00    -0.078 A 
ATOM      4  C2  OXE d   1      -0.325  -2.347  -0.277  0.00  0.00    -0.078 A 
ATOM      5  C3  OXE d   1      -0.970  -1.114  -0.252  0.00  0.00     0.003 A 
ATOM      6  C4  OXE d   1      -0.294   0.049  -0.641  0.00  0.00    -0.002 A 
ATOM      7  C5  OXE d   1       1.070   0.006  -0.951  0.00  0.00    -0.002 A 
ATOM      8  C6  OXE d   1       1.751  -1.202  -0.864  0.00  0.00     0.003 A 
ENDROOT
TORSDOF 0
ENDMDL
