MODEL 1
REMARK minimizedAffinity 2.10349154
REMARK minimizedRMSD -1
REMARK  0 active torsions:
REMARK  status: ('A' for Active; 'I' for Inactive)
ROOT
ATOM      1  C2' OXE d   1       0.743  -0.885  -0.636  0.00  0.00     0.078 C 
ATOM      2  C1' OXE d   1       2.927  -2.519   0.026  0.00  0.00     0.078 C 
ATOM      3  C1  OXE d   1       1.543  -3.056   0.288  0.00  0.00    -0.078 A 
ATOM      4  C2  OXE d   1       0.481  -2.231   0.004  0.00  0.00    -0.078 A 
ATOM      5  C3  OXE d   1      -0.820  -2.698   0.176  0.00  0.00     0.003 A 
ATOM      6  C4  OXE d   1      -1.053  -3.940   0.779  0.00  0.00    -0.002 A 
ATOM      7  C5  OXE d   1       0.015  -4.779   1.112  0.00  0.00    -0.002 A 
ATOM      8  C6  OXE d   1       1.315  -4.371   0.835  0.00  0.00     0.003 A 
ENDROOT
TORSDOF 0
ENDMDL
