MODEL 1
REMARK minimizedAffinity 7.61200762
REMARK minimizedRMSD -1
REMARK  0 active torsions:
REMARK  status: ('A' for Active; 'I' for Inactive)
ROOT
ATOM      1  C2' OXE d   1       5.991   5.998   0.756  0.00  0.00     0.078 C 
ATOM      2  C1' OXE d   1       6.000   3.535   2.103  0.00  0.00     0.078 C 
ATOM      3  C1  OXE d   1       4.726   3.955   1.414  0.00  0.00    -0.078 A 
ATOM      4  C2  OXE d   1       4.716   5.183   0.796  0.00  0.00    -0.078 A 
ATOM      5  C3  OXE d   1       3.585   5.595   0.099  0.00  0.00     0.003 A 
ATOM      6  C4  OXE d   1       2.407   4.840   0.150  0.00  0.00    -0.002 A 
ATOM      7  C5  OXE d   1       2.383   3.605   0.806  0.00  0.00    -0.002 A 
ATOM      8  C6  OXE d   1       3.544   3.129   1.406  0.00  0.00     0.003 A 
ENDROOT
TORSDOF 0
ENDMDL
