MODEL 1
REMARK minimizedAffinity 3.44959998
REMARK minimizedRMSD -1
REMARK  0 active torsions:
REMARK  status: ('A' for Active; 'I' for Inactive)
ROOT
ATOM      1  C2' OXE d   1       0.756  -4.261   0.989  0.00  0.00     0.078 C 
ATOM      2  C1' OXE d   1       3.080  -3.062  -0.031  0.00  0.00     0.078 C 
ATOM      3  C1  OXE d   1       1.765  -2.366  -0.275  0.00  0.00    -0.078 A 
ATOM      4  C2  OXE d   1       0.627  -2.984   0.187  0.00  0.00    -0.078 A 
ATOM      5  C3  OXE d   1      -0.607  -2.358   0.036  0.00  0.00     0.003 A 
ATOM      6  C4  OXE d   1      -0.718  -1.182  -0.716  0.00  0.00    -0.002 A 
ATOM      7  C5  OXE d   1       0.423  -0.557  -1.229  0.00  0.00    -0.002 A 
ATOM      8  C6  OXE d   1       1.674  -1.113  -0.982  0.00  0.00     0.003 A 
ENDROOT
TORSDOF 0
ENDMDL
