MODEL 1
REMARK minimizedAffinity 7.1220212
REMARK minimizedRMSD -1
REMARK  0 active torsions:
REMARK  status: ('A' for Active; 'I' for Inactive)
ROOT
ATOM      1  C2' OXE d   1       2.153  -4.055  -0.628  0.00  0.00     0.078 C 
ATOM      2  C1' OXE d   1       3.572  -1.990   0.638  0.00  0.00     0.078 C 
ATOM      3  C1  OXE d   1       2.304  -1.627  -0.093  0.00  0.00    -0.078 A 
ATOM      4  C2  OXE d   1       1.641  -2.636  -0.749  0.00  0.00    -0.078 A 
ATOM      5  C3  OXE d   1       0.437  -2.366  -1.393  0.00  0.00     0.003 A 
ATOM      6  C4  OXE d   1      -0.024  -1.049  -1.510  0.00  0.00    -0.002 A 
ATOM      7  C5  OXE d   1       0.657  -0.000  -0.883  0.00  0.00    -0.002 A 
ATOM      8  C6  OXE d   1       1.797  -0.278  -0.137  0.00  0.00     0.003 A 
ENDROOT
TORSDOF 0
ENDMDL
