MODEL 1
REMARK minimizedAffinity -2.40261865
REMARK minimizedRMSD -1
REMARK  0 active torsions:
REMARK  status: ('A' for Active; 'I' for Inactive)
ROOT
ATOM      1  C2' OXE d   1       1.382  -3.530   0.602  0.00  0.00     0.078 C 
ATOM      2  C1' OXE d   1       3.484  -1.671   0.544  0.00  0.00     0.078 C 
ATOM      3  C1  OXE d   1       2.184  -1.283  -0.114  0.00  0.00    -0.078 A 
ATOM      4  C2  OXE d   1       1.176  -2.217  -0.122  0.00  0.00    -0.078 A 
ATOM      5  C3  OXE d   1      -0.062  -1.890  -0.668  0.00  0.00     0.003 A 
ATOM      6  C4  OXE d   1      -0.241  -0.677  -1.344  0.00  0.00    -0.002 A 
ATOM      7  C5  OXE d   1       0.786   0.272  -1.382  0.00  0.00    -0.002 A 
ATOM      8  C6  OXE d   1       1.988   0.003  -0.737  0.00  0.00     0.003 A 
ENDROOT
TORSDOF 0
ENDMDL
