MODEL 1
REMARK minimizedAffinity -6.43291044
REMARK minimizedRMSD -1
REMARK  0 active torsions:
REMARK  status: ('A' for Active; 'I' for Inactive)
ROOT
ATOM      1  C2' OXE d   1       1.255  -4.549   0.287  0.00  0.00     0.078 C 
ATOM      2  C1' OXE d   1       3.172  -2.574   0.837  0.00  0.00     0.078 C 
ATOM      3  C1  OXE d   1       1.851  -2.131   0.261  0.00  0.00    -0.078 A 
ATOM      4  C2  OXE d   1       0.936  -3.108  -0.049  0.00  0.00    -0.078 A 
ATOM      5  C3  OXE d   1      -0.319  -2.750  -0.533  0.00  0.00     0.003 A 
ATOM      6  C4  OXE d   1      -0.602  -1.416  -0.850  0.00  0.00    -0.002 A 
ATOM      7  C5  OXE d   1       0.331  -0.409  -0.580  0.00  0.00    -0.002 A 
ATOM      8  C6  OXE d   1       1.543  -0.744   0.014  0.00  0.00     0.003 A 
ENDROOT
TORSDOF 0
ENDMDL
