MODEL 1
REMARK minimizedAffinity -2.57858729
REMARK minimizedRMSD -1
REMARK  0 active torsions:
REMARK  status: ('A' for Active; 'I' for Inactive)
ROOT
ATOM      1  C2' OXE d   1      -1.747  -1.491  -0.183  0.00  0.00     0.078 C 
ATOM      2  C1' OXE d   1       0.355   0.065  -1.202  0.00  0.00     0.078 C 
ATOM      3  C1  OXE d   1       0.695  -1.288  -0.629  0.00  0.00    -0.078 A 
ATOM      4  C2  OXE d   1      -0.333  -2.023  -0.090  0.00  0.00    -0.078 A 
ATOM      5  C3  OXE d   1      -0.083  -3.301   0.401  0.00  0.00     0.003 A 
ATOM      6  C4  OXE d   1       1.229  -3.781   0.492  0.00  0.00    -0.002 A 
ATOM      7  C5  OXE d   1       2.296  -3.031  -0.015  0.00  0.00    -0.002 A 
ATOM      8  C6  OXE d   1       2.042  -1.804  -0.616  0.00  0.00     0.003 A 
ENDROOT
TORSDOF 0
ENDMDL
