MODEL 1
REMARK minimizedAffinity 2.0654788
REMARK minimizedRMSD -1
REMARK  0 active torsions:
REMARK  status: ('A' for Active; 'I' for Inactive)
ROOT
ATOM      1  C2' OXE d   1       1.510  -1.038  -1.878  0.00  0.00     0.078 C 
ATOM      2  C1' OXE d   1      -1.097  -2.078  -1.915  0.00  0.00     0.078 C 
ATOM      3  C1  OXE d   1      -0.133  -2.631  -0.895  0.00  0.00    -0.078 A 
ATOM      4  C2  OXE d   1       1.154  -2.150  -0.915  0.00  0.00    -0.078 A 
ATOM      5  C3  OXE d   1       2.068  -2.587   0.039  0.00  0.00     0.003 A 
ATOM      6  C4  OXE d   1       1.733  -3.623   0.920  0.00  0.00    -0.002 A 
ATOM      7  C5  OXE d   1       0.439  -4.155   0.930  0.00  0.00    -0.002 A 
ATOM      8  C6  OXE d   1      -0.516  -3.642   0.060  0.00  0.00     0.003 A 
ENDROOT
TORSDOF 0
ENDMDL
