MODEL 1
REMARK minimizedAffinity -6.35633039
REMARK minimizedRMSD -1
REMARK  0 active torsions:
REMARK  status: ('A' for Active; 'I' for Inactive)
ROOT
ATOM      1  C2' OXE d   1      -1.203  -3.439   0.670  0.00  0.00     0.078 C 
ATOM      2  C1' OXE d   1       1.484  -4.243   0.771  0.00  0.00     0.078 C 
ATOM      3  C1  OXE d   1       1.181  -2.871   0.222  0.00  0.00    -0.078 A 
ATOM      4  C2  OXE d   1      -0.141  -2.504   0.133  0.00  0.00    -0.078 A 
ATOM      5  C3  OXE d   1      -0.473  -1.229  -0.315  0.00  0.00     0.003 A 
ATOM      6  C4  OXE d   1       0.515  -0.375  -0.819  0.00  0.00    -0.002 A 
ATOM      7  C5  OXE d   1       1.864  -0.744  -0.774  0.00  0.00    -0.002 A 
ATOM      8  C6  OXE d   1       2.216  -1.969  -0.218  0.00  0.00     0.003 A 
ENDROOT
TORSDOF 0
ENDMDL
