MODEL 1
REMARK minimizedAffinity -2.14379859
REMARK minimizedRMSD -1
REMARK  0 active torsions:
REMARK  status: ('A' for Active; 'I' for Inactive)
ROOT
ATOM      1  C2' OXE d   1       1.926  -3.800   0.793  0.00  0.00     0.078 C 
ATOM      2  C1' OXE d   1      -0.865  -3.532   0.927  0.00  0.00     0.078 C 
ATOM      3  C1  OXE d   1      -0.105  -2.551   0.071  0.00  0.00    -0.078 A 
ATOM      4  C2  OXE d   1       1.265  -2.660   0.048  0.00  0.00    -0.078 A 
ATOM      5  C3  OXE d   1       2.011  -1.815  -0.768  0.00  0.00     0.003 A 
ATOM      6  C4  OXE d   1       1.393  -0.757  -1.446  0.00  0.00    -0.002 A 
ATOM      7  C5  OXE d   1       0.003  -0.603  -1.405  0.00  0.00    -0.002 A 
ATOM      8  C6  OXE d   1      -0.763  -1.515  -0.687  0.00  0.00     0.003 A 
ENDROOT
TORSDOF 0
ENDMDL
