MODEL 1
REMARK minimizedAffinity -2.05590868
REMARK minimizedRMSD -1
REMARK  0 active torsions:
REMARK  status: ('A' for Active; 'I' for Inactive)
ROOT
ATOM      1  C2' OXE d   1       1.537  -4.466   0.362  0.00  0.00     0.078 C 
ATOM      2  C1' OXE d   1      -1.126  -3.603   0.153  0.00  0.00     0.078 C 
ATOM      3  C1  OXE d   1      -0.038  -2.625  -0.216  0.00  0.00    -0.078 A 
ATOM      4  C2  OXE d   1       1.263  -3.041  -0.067  0.00  0.00    -0.078 A 
ATOM      5  C3  OXE d   1       2.304  -2.198  -0.446  0.00  0.00     0.003 A 
ATOM      6  C4  OXE d   1       2.042  -0.877  -0.831  0.00  0.00    -0.002 A 
ATOM      7  C5  OXE d   1       0.725  -0.421  -0.952  0.00  0.00    -0.002 A 
ATOM      8  C6  OXE d   1      -0.325  -1.294  -0.690  0.00  0.00     0.003 A 
ENDROOT
TORSDOF 0
ENDMDL
