MODEL 1
REMARK minimizedAffinity -5.34465981
REMARK minimizedRMSD -1
REMARK  0 active torsions:
REMARK  status: ('A' for Active; 'I' for Inactive)
ROOT
ATOM      1  C2' OXE d   1       0.366  -0.111  -0.742  0.00  0.00     0.078 C 
ATOM      2  C1' OXE d   1       2.692  -1.682  -0.807  0.00  0.00     0.078 C 
ATOM      3  C1  OXE d   1       1.440  -2.301  -0.238  0.00  0.00    -0.078 A 
ATOM      4  C2  OXE d   1       0.319  -1.510  -0.167  0.00  0.00    -0.078 A 
ATOM      5  C3  OXE d   1      -0.877  -2.049   0.300  0.00  0.00     0.003 A 
ATOM      6  C4  OXE d   1      -0.910  -3.340   0.839  0.00  0.00    -0.002 A 
ATOM      7  C5  OXE d   1       0.231  -4.150   0.813  0.00  0.00    -0.002 A 
ATOM      8  C6  OXE d   1       1.400  -3.661   0.241  0.00  0.00     0.003 A 
ENDROOT
TORSDOF 0
ENDMDL
