MODEL 1
REMARK minimizedAffinity -3.67054152
REMARK minimizedRMSD -1
REMARK  0 active torsions:
REMARK  status: ('A' for Active; 'I' for Inactive)
ROOT
ATOM      1  C2' OXE d   1       1.350  -4.682   0.959  0.00  0.00     0.078 C 
ATOM      2  C1' OXE d   1      -0.968  -3.314   0.162  0.00  0.00     0.078 C 
ATOM      3  C1  OXE d   1       0.363  -2.658  -0.105  0.00  0.00    -0.078 A 
ATOM      4  C2  OXE d   1       1.490  -3.313   0.330  0.00  0.00    -0.078 A 
ATOM      5  C3  OXE d   1       2.746  -2.778   0.060  0.00  0.00     0.003 A 
ATOM      6  C4  OXE d   1       2.867  -1.507  -0.514  0.00  0.00    -0.002 A 
ATOM      7  C5  OXE d   1       1.731  -0.804  -0.929  0.00  0.00    -0.002 A 
ATOM      8  C6  OXE d   1       0.476  -1.384  -0.771  0.00  0.00     0.003 A 
ENDROOT
TORSDOF 0
ENDMDL
