MODEL 1
REMARK minimizedAffinity -2.63010669
REMARK minimizedRMSD -1
REMARK  0 active torsions:
REMARK  status: ('A' for Active; 'I' for Inactive)
ROOT
ATOM      1  C2' OXE d   1      -0.961  -4.584   1.310  0.00  0.00     0.078 C 
ATOM      2  C1' OXE d   1       1.821  -4.750   0.967  0.00  0.00     0.078 C 
ATOM      3  C1  OXE d   1       1.133  -3.481   0.531  0.00  0.00    -0.078 A 
ATOM      4  C2  OXE d   1      -0.235  -3.426   0.660  0.00  0.00    -0.078 A 
ATOM      5  C3  OXE d   1      -0.913  -2.258   0.324  0.00  0.00     0.003 A 
ATOM      6  C4  OXE d   1      -0.235  -1.196  -0.286  0.00  0.00    -0.002 A 
ATOM      7  C5  OXE d   1       1.152  -1.246  -0.463  0.00  0.00    -0.002 A 
ATOM      8  C6  OXE d   1       1.855  -2.362  -0.022  0.00  0.00     0.003 A 
ENDROOT
TORSDOF 0
ENDMDL
