MODEL 1
REMARK minimizedAffinity -3.67543507
REMARK minimizedRMSD -1
REMARK  0 active torsions:
REMARK  status: ('A' for Active; 'I' for Inactive)
ROOT
ATOM      1  C2' OXE d   1      -1.709  -2.025   0.249  0.00  0.00     0.078 C 
ATOM      2  C1' OXE d   1       0.133  -4.116   0.592  0.00  0.00     0.078 C 
ATOM      3  C1  OXE d   1       0.655  -2.793   0.089  0.00  0.00    -0.078 A 
ATOM      4  C2  OXE d   1      -0.260  -1.790  -0.120  0.00  0.00    -0.078 A 
ATOM      5  C3  OXE d   1       0.176  -0.533  -0.530  0.00  0.00     0.003 A 
ATOM      6  C4  OXE d   1       1.517  -0.327  -0.879  0.00  0.00    -0.002 A 
ATOM      7  C5  OXE d   1       2.459  -1.348  -0.711  0.00  0.00    -0.002 A 
ATOM      8  C6  OXE d   1       2.053  -2.571  -0.189  0.00  0.00     0.003 A 
ENDROOT
TORSDOF 0
ENDMDL
