MODEL 1
REMARK minimizedAffinity -0.510797441
REMARK minimizedRMSD -1
REMARK  0 active torsions:
REMARK  status: ('A' for Active; 'I' for Inactive)
ROOT
ATOM      1  C2' OXE d   1      -0.812  -0.663   2.470  0.00  0.00     0.078 C 
ATOM      2  C1' OXE d   1      -0.601  -2.997   0.924  0.00  0.00     0.078 C 
ATOM      3  C1  OXE d   1      -0.291  -1.680   0.256  0.00  0.00    -0.078 A 
ATOM      4  C2  OXE d   1      -0.442  -0.539   1.007  0.00  0.00    -0.078 A 
ATOM      5  C3  OXE d   1      -0.117   0.697   0.456  0.00  0.00     0.003 A 
ATOM      6  C4  OXE d   1       0.214   0.804  -0.900  0.00  0.00    -0.002 A 
ATOM      7  C5  OXE d   1       0.335  -0.342  -1.693  0.00  0.00    -0.002 A 
ATOM      8  C6  OXE d   1       0.127  -1.592  -1.121  0.00  0.00     0.003 A 
ENDROOT
TORSDOF 0
ENDMDL
