MODEL 1
REMARK minimizedAffinity -2.81922364
REMARK minimizedRMSD -1
REMARK  0 active torsions:
REMARK  status: ('A' for Active; 'I' for Inactive)
ROOT
ATOM      1  C2' OXE d   1      -0.441  -1.491   1.778  0.00  0.00     0.078 C 
ATOM      2  C1' OXE d   1      -0.001   0.047  -0.529  0.00  0.00     0.078 C 
ATOM      3  C1  OXE d   1      -1.106   0.477   0.403  0.00  0.00    -0.078 A 
ATOM      4  C2  OXE d   1      -1.344  -0.308   1.506  0.00  0.00    -0.078 A 
ATOM      5  C3  OXE d   1      -2.315   0.074   2.427  0.00  0.00     0.003 A 
ATOM      6  C4  OXE d   1      -3.153   1.164   2.163  0.00  0.00    -0.002 A 
ATOM      7  C5  OXE d   1      -2.954   1.954   1.026  0.00  0.00    -0.002 A 
ATOM      8  C6  OXE d   1      -1.909   1.650   0.160  0.00  0.00     0.003 A 
ENDROOT
TORSDOF 0
ENDMDL
