MODEL 1
REMARK minimizedAffinity -4.40654182
REMARK minimizedRMSD -1
REMARK  0 active torsions:
REMARK  status: ('A' for Active; 'I' for Inactive)
ROOT
ATOM      1  C2' OXE d   1      -1.483  -0.002   1.601  0.00  0.00     0.078 C 
ATOM      2  C1' OXE d   1       0.388   0.845  -0.313  0.00  0.00     0.078 C 
ATOM      3  C1  OXE d   1       0.234  -0.638  -0.087  0.00  0.00    -0.078 A 
ATOM      4  C2  OXE d   1      -0.650  -1.042   0.884  0.00  0.00    -0.078 A 
ATOM      5  C3  OXE d   1      -0.870  -2.400   1.094  0.00  0.00     0.003 A 
ATOM      6  C4  OXE d   1      -0.089  -3.356   0.434  0.00  0.00    -0.002 A 
ATOM      7  C5  OXE d   1       0.846  -2.964  -0.531  0.00  0.00    -0.002 A 
ATOM      8  C6  OXE d   1       0.989  -1.615  -0.833  0.00  0.00     0.003 A 
ENDROOT
TORSDOF 0
ENDMDL
