MODEL 1
REMARK minimizedAffinity -2.78342056
REMARK minimizedRMSD -1
REMARK  0 active torsions:
REMARK  status: ('A' for Active; 'I' for Inactive)
ROOT
ATOM      1  C2' OXE d   1      -1.604  -0.882   1.110  0.00  0.00     0.078 C 
ATOM      2  C1' OXE d   1      -0.174   1.004  -0.400  0.00  0.00     0.078 C 
ATOM      3  C1  OXE d   1      -1.481   1.439   0.213  0.00  0.00    -0.078 A 
ATOM      4  C2  OXE d   1      -2.197   0.497   0.911  0.00  0.00    -0.078 A 
ATOM      5  C3  OXE d   1      -3.383   0.860   1.543  0.00  0.00     0.003 A 
ATOM      6  C4  OXE d   1      -3.929   2.134   1.346  0.00  0.00    -0.002 A 
ATOM      7  C5  OXE d   1      -3.236   3.097   0.606  0.00  0.00    -0.002 A 
ATOM      8  C6  OXE d   1      -1.993   2.780   0.069  0.00  0.00     0.003 A 
ENDROOT
TORSDOF 0
ENDMDL
