MODEL 1
REMARK minimizedAffinity -0.545183599
REMARK minimizedRMSD -1
REMARK  0 active torsions:
REMARK  status: ('A' for Active; 'I' for Inactive)
ROOT
ATOM      1  C2' OXE d   1       2.824   2.997   0.752  0.00  0.00     0.078 C 
ATOM      2  C1' OXE d   1       0.475   4.450   1.252  0.00  0.00     0.078 C 
ATOM      3  C1  OXE d   1       0.333   3.044   0.724  0.00  0.00    -0.078 A 
ATOM      4  C2  OXE d   1       1.489   2.357   0.438  0.00  0.00    -0.078 A 
ATOM      5  C3  OXE d   1       1.416   1.038  -0.000  0.00  0.00     0.003 A 
ATOM      6  C4  OXE d   1       0.177   0.457  -0.298  0.00  0.00    -0.002 A 
ATOM      7  C5  OXE d   1      -1.011   1.154  -0.052  0.00  0.00    -0.002 A 
ATOM      8  C6  OXE d   1      -0.952   2.430   0.498  0.00  0.00     0.003 A 
ENDROOT
TORSDOF 0
ENDMDL
