MODEL 1
REMARK minimizedAffinity -5.02964401
REMARK minimizedRMSD -1
REMARK  0 active torsions:
REMARK  status: ('A' for Active; 'I' for Inactive)
ROOT
ATOM      1  C2' OXE d   1      -1.921  -0.261   1.429  0.00  0.00     0.078 C 
ATOM      2  C1' OXE d   1       0.010   0.787  -0.318  0.00  0.00     0.078 C 
ATOM      3  C1  OXE d   1       0.027  -0.699  -0.061  0.00  0.00    -0.078 A 
ATOM      4  C2  OXE d   1      -0.892  -1.197   0.831  0.00  0.00    -0.078 A 
ATOM      5  C3  OXE d   1      -0.956  -2.568   1.063  0.00  0.00     0.003 A 
ATOM      6  C4  OXE d   1       0.005  -3.425   0.514  0.00  0.00    -0.002 A 
ATOM      7  C5  OXE d   1       0.975  -2.933  -0.366  0.00  0.00    -0.002 A 
ATOM      8  C6  OXE d   1       0.973  -1.582  -0.697  0.00  0.00     0.003 A 
ENDROOT
TORSDOF 0
ENDMDL
