MODEL 1
REMARK minimizedAffinity -3.58664894
REMARK minimizedRMSD -1
REMARK  0 active torsions:
REMARK  status: ('A' for Active; 'I' for Inactive)
ROOT
ATOM      1  C2' OXE d   1       0.202   0.062  -2.291  0.00  0.00     0.078 C 
ATOM      2  C1' OXE d   1       0.638   1.107   0.278  0.00  0.00     0.078 C 
ATOM      3  C1  OXE d   1       0.518  -0.390   0.139  0.00  0.00    -0.078 A 
ATOM      4  C2  OXE d   1       0.258  -0.889  -1.115  0.00  0.00    -0.078 A 
ATOM      5  C3  OXE d   1       0.192  -2.266  -1.308  0.00  0.00     0.003 A 
ATOM      6  C4  OXE d   1       0.236  -3.139  -0.213  0.00  0.00    -0.002 A 
ATOM      7  C5  OXE d   1       0.460  -2.648   1.077  0.00  0.00    -0.002 A 
ATOM      8  C6  OXE d   1       0.646  -1.282   1.264  0.00  0.00     0.003 A 
ENDROOT
TORSDOF 0
ENDMDL
