MODEL 1
REMARK minimizedAffinity -1.30860198
REMARK minimizedRMSD -1
REMARK  0 active torsions:
REMARK  status: ('A' for Active; 'I' for Inactive)
ROOT
ATOM      1  C2' OXE d   1       0.456   5.463   2.723  0.00  0.00     0.078 C 
ATOM      2  C1' OXE d   1      -1.023   4.106   0.761  0.00  0.00     0.078 C 
ATOM      3  C1  OXE d   1       0.476   3.945   0.749  0.00  0.00    -0.078 A 
ATOM      4  C2  OXE d   1       1.196   4.650   1.683  0.00  0.00    -0.078 A 
ATOM      5  C3  OXE d   1       2.578   4.494   1.750  0.00  0.00     0.003 A 
ATOM      6  C4  OXE d   1       3.255   3.748   0.778  0.00  0.00    -0.002 A 
ATOM      7  C5  OXE d   1       2.544   3.054  -0.206  0.00  0.00    -0.002 A 
ATOM      8  C6  OXE d   1       1.155   3.107  -0.210  0.00  0.00     0.003 A 
ENDROOT
TORSDOF 0
ENDMDL
