MODEL 1
REMARK minimizedAffinity -2.02213717
REMARK minimizedRMSD -1
REMARK  0 active torsions:
REMARK  status: ('A' for Active; 'I' for Inactive)
ROOT
ATOM      1  C2' OXE d   1       0.352   0.981  -0.644  0.00  0.00     0.078 C 
ATOM      2  C1' OXE d   1       0.304  -1.036  -2.595  0.00  0.00     0.078 C 
ATOM      3  C1  OXE d   1      -0.168  -1.389  -1.207  0.00  0.00    -0.078 A 
ATOM      4  C2  OXE d   1      -0.098  -0.408  -0.247  0.00  0.00    -0.078 A 
ATOM      5  C3  OXE d   1      -0.572  -0.664   1.036  0.00  0.00     0.003 A 
ATOM      6  C4  OXE d   1      -0.977  -1.955   1.398  0.00  0.00    -0.002 A 
ATOM      7  C5  OXE d   1      -1.019  -2.979   0.446  0.00  0.00    -0.002 A 
ATOM      8  C6  OXE d   1      -0.659  -2.702  -0.869  0.00  0.00     0.003 A 
ENDROOT
TORSDOF 0
ENDMDL
