MODEL 1
REMARK minimizedAffinity -1.79904437
REMARK minimizedRMSD -1
REMARK  0 active torsions:
REMARK  status: ('A' for Active; 'I' for Inactive)
ROOT
ATOM      1  C2' OXE d   1      -1.600   1.444   0.204  0.00  0.00     0.078 C 
ATOM      2  C1' OXE d   1       0.023   0.046  -1.610  0.00  0.00     0.078 C 
ATOM      3  C1  OXE d   1      -0.387  -0.662  -0.343  0.00  0.00    -0.078 A 
ATOM      4  C2  OXE d   1      -1.142   0.046   0.561  0.00  0.00    -0.078 A 
ATOM      5  C3  OXE d   1      -1.593  -0.577   1.721  0.00  0.00     0.003 A 
ATOM      6  C4  OXE d   1      -1.156  -1.866   2.048  0.00  0.00    -0.002 A 
ATOM      7  C5  OXE d   1      -0.354  -2.591   1.160  0.00  0.00    -0.002 A 
ATOM      8  C6  OXE d   1       0.004  -2.020  -0.056  0.00  0.00     0.003 A 
ENDROOT
TORSDOF 0
ENDMDL
