MODEL 1
REMARK minimizedAffinity -2.6781621
REMARK minimizedRMSD -1
REMARK  0 active torsions:
REMARK  status: ('A' for Active; 'I' for Inactive)
ROOT
ATOM      1  C2' OXE d   1      -2.386   0.438   1.206  0.00  0.00     0.078 C 
ATOM      2  C1' OXE d   1      -1.488  -2.219   1.100  0.00  0.00     0.078 C 
ATOM      3  C1  OXE d   1      -1.010  -1.272   0.028  0.00  0.00    -0.078 A 
ATOM      4  C2  OXE d   1      -1.492   0.014   0.061  0.00  0.00    -0.078 A 
ATOM      5  C3  OXE d   1      -1.040   0.943  -0.872  0.00  0.00     0.003 A 
ATOM      6  C4  OXE d   1      -0.220   0.541  -1.933  0.00  0.00    -0.002 A 
ATOM      7  C5  OXE d   1       0.250  -0.774  -2.008  0.00  0.00    -0.002 A 
ATOM      8  C6  OXE d   1      -0.101  -1.681  -1.014  0.00  0.00     0.003 A 
ENDROOT
TORSDOF 0
ENDMDL
