MODEL 1
REMARK minimizedAffinity 3.37573457
REMARK minimizedRMSD -1
REMARK  0 active torsions:
REMARK  status: ('A' for Active; 'I' for Inactive)
ROOT
ATOM      1  C2' OXE d   1      -2.273   2.228   0.721  0.00  0.00     0.078 C 
ATOM      2  C1' OXE d   1       0.341   1.219   0.881  0.00  0.00     0.078 C 
ATOM      3  C1  OXE d   1      -0.012   2.399   1.751  0.00  0.00    -0.078 A 
ATOM      4  C2  OXE d   1      -1.280   2.916   1.632  0.00  0.00    -0.078 A 
ATOM      5  C3  OXE d   1      -1.674   3.970   2.452  0.00  0.00     0.003 A 
ATOM      6  C4  OXE d   1      -0.746   4.606   3.284  0.00  0.00    -0.002 A 
ATOM      7  C5  OXE d   1       0.562   4.121   3.391  0.00  0.00    -0.002 A 
ATOM      8  C6  OXE d   1       0.932   2.995   2.665  0.00  0.00     0.003 A 
ENDROOT
TORSDOF 0
ENDMDL
