MODEL 1
REMARK minimizedAffinity 6.8122735
REMARK minimizedRMSD -1
REMARK  0 active torsions:
REMARK  status: ('A' for Active; 'I' for Inactive)
ROOT
ATOM      1  C2' OXE d   1       3.020   1.709  -0.747  0.00  0.00     0.078 C 
ATOM      2  C1' OXE d   1       4.751   3.917  -0.657  0.00  0.00     0.078 C 
ATOM      3  C1  OXE d   1       3.555   3.922   0.263  0.00  0.00    -0.078 A 
ATOM      4  C2  OXE d   1       2.688   2.859   0.179  0.00  0.00    -0.078 A 
ATOM      5  C3  OXE d   1       1.600   2.788   1.043  0.00  0.00     0.003 A 
ATOM      6  C4  OXE d   1       1.295   3.861   1.889  0.00  0.00    -0.002 A 
ATOM      7  C5  OXE d   1       2.143   4.971   1.962  0.00  0.00    -0.002 A 
ATOM      8  C6  OXE d   1       3.298   4.998   1.188  0.00  0.00     0.003 A 
ENDROOT
TORSDOF 0
ENDMDL
