MODEL 1
REMARK minimizedAffinity -5.59942198
REMARK minimizedRMSD -1
REMARK  0 active torsions:
REMARK  status: ('A' for Active; 'I' for Inactive)
ROOT
ATOM      1  C2' OXE d   1      -0.892  -3.548  -2.113  0.00  0.00     0.078 C 
ATOM      2  C1' OXE d   1       1.913  -3.452  -2.133  0.00  0.00     0.078 C 
ATOM      3  C1  OXE d   1       1.169  -2.196  -1.754  0.00  0.00    -0.078 A 
ATOM      4  C2  OXE d   1      -0.204  -2.239  -1.792  0.00  0.00    -0.078 A 
ATOM      5  C3  OXE d   1      -0.940  -1.125  -1.399  0.00  0.00     0.003 A 
ATOM      6  C4  OXE d   1      -0.295   0.085  -1.114  0.00  0.00    -0.002 A 
ATOM      7  C5  OXE d   1       1.101   0.162  -1.108  0.00  0.00    -0.002 A 
ATOM      8  C6  OXE d   1       1.847  -0.979  -1.383  0.00  0.00     0.003 A 
ENDROOT
TORSDOF 0
ENDMDL
