MODEL 1
REMARK minimizedAffinity 4.74408388
REMARK minimizedRMSD -1
REMARK  0 active torsions:
REMARK  status: ('A' for Active; 'I' for Inactive)
ROOT
ATOM      1  C2' OXE d   1      -0.103   0.354   3.244  0.00  0.00     0.078 C 
ATOM      2  C1' OXE d   1       0.901   2.973   3.132  0.00  0.00     0.078 C 
ATOM      3  C1  OXE d   1       0.035   2.502   1.991  0.00  0.00    -0.078 A 
ATOM      4  C2  OXE d   1      -0.414   1.204   2.031  0.00  0.00    -0.078 A 
ATOM      5  C3  OXE d   1      -1.261   0.736   1.031  0.00  0.00     0.003 A 
ATOM      6  C4  OXE d   1      -1.535   1.525  -0.093  0.00  0.00    -0.002 A 
ATOM      7  C5  OXE d   1      -1.056   2.837  -0.173  0.00  0.00    -0.002 A 
ATOM      8  C6  OXE d   1      -0.306   3.354   0.878  0.00  0.00     0.003 A 
ENDROOT
TORSDOF 0
ENDMDL
