MODEL 1
REMARK minimizedAffinity 5.55192757
REMARK minimizedRMSD -1
REMARK  0 active torsions:
REMARK  status: ('A' for Active; 'I' for Inactive)
ROOT
ATOM      1  C2' OXE d   1       0.842  -4.872  -2.707  0.00  0.00     0.078 C 
ATOM      2  C1' OXE d   1      -1.878  -4.875  -2.012  0.00  0.00     0.078 C 
ATOM      3  C1  OXE d   1      -1.510  -5.285  -3.416  0.00  0.00    -0.078 A 
ATOM      4  C2  OXE d   1      -0.181  -5.235  -3.762  0.00  0.00    -0.078 A 
ATOM      5  C3  OXE d   1       0.219  -5.655  -5.027  0.00  0.00     0.003 A 
ATOM      6  C4  OXE d   1      -0.734  -5.980  -6.000  0.00  0.00    -0.002 A 
ATOM      7  C5  OXE d   1      -2.096  -5.999  -5.681  0.00  0.00    -0.002 A 
ATOM      8  C6  OXE d   1      -2.497  -5.695  -4.384  0.00  0.00     0.003 A 
ENDROOT
TORSDOF 0
ENDMDL
