MODEL 1
REMARK minimizedAffinity 7.3220458
REMARK minimizedRMSD -1
REMARK  0 active torsions:
REMARK  status: ('A' for Active; 'I' for Inactive)
ROOT
ATOM      1  C2' OXE d   1      -3.239  -5.997  -3.564  0.00  0.00     0.078 C 
ATOM      2  C1' OXE d   1      -4.474  -4.194  -1.802  0.00  0.00     0.078 C 
ATOM      3  C1  OXE d   1      -3.046  -3.920  -2.202  0.00  0.00    -0.078 A 
ATOM      4  C2  OXE d   1      -2.434  -4.833  -3.027  0.00  0.00    -0.078 A 
ATOM      5  C3  OXE d   1      -1.135  -4.601  -3.469  0.00  0.00     0.003 A 
ATOM      6  C4  OXE d   1      -0.394  -3.527  -2.960  0.00  0.00    -0.002 A 
ATOM      7  C5  OXE d   1      -0.985  -2.608  -2.087  0.00  0.00    -0.002 A 
ATOM      8  C6  OXE d   1      -2.320  -2.766  -1.732  0.00  0.00     0.003 A 
ENDROOT
TORSDOF 0
ENDMDL
