MODEL 1
REMARK minimizedAffinity 7.24036837
REMARK minimizedRMSD -1
REMARK  0 active torsions:
REMARK  status: ('A' for Active; 'I' for Inactive)
ROOT
ATOM      1  C2' OXE d   1      -4.183  -4.187  -1.141  0.00  0.00     0.078 C 
ATOM      2  C1' OXE d   1      -2.418  -5.835  -2.573  0.00  0.00     0.078 C 
ATOM      3  C1  OXE d   1      -1.919  -4.479  -2.139  0.00  0.00    -0.078 A 
ATOM      4  C2  OXE d   1      -2.805  -3.661  -1.479  0.00  0.00    -0.078 A 
ATOM      5  C3  OXE d   1      -2.379  -2.422  -1.008  0.00  0.00     0.003 A 
ATOM      6  C4  OXE d   1      -1.106  -1.939  -1.334  0.00  0.00    -0.002 A 
ATOM      7  C5  OXE d   1      -0.202  -2.741  -2.040  0.00  0.00    -0.002 A 
ATOM      8  C6  OXE d   1      -0.577  -4.027  -2.411  0.00  0.00     0.003 A 
ENDROOT
TORSDOF 0
ENDMDL
