MODEL 1
REMARK minimizedAffinity -2.78788066
REMARK minimizedRMSD -1
REMARK  0 active torsions:
REMARK  status: ('A' for Active; 'I' for Inactive)
ROOT
ATOM      1  C2' OXE d   1      -0.571   1.022   0.014  0.00  0.00     0.078 C 
ATOM      2  C1' OXE d   1       0.344  -0.258  -2.311  0.00  0.00     0.078 C 
ATOM      3  C1  OXE d   1       0.385  -1.034  -1.019  0.00  0.00    -0.078 A 
ATOM      4  C2  OXE d   1      -0.021  -0.384   0.122  0.00  0.00    -0.078 A 
ATOM      5  C3  OXE d   1      -0.054  -1.072   1.332  0.00  0.00     0.003 A 
ATOM      6  C4  OXE d   1       0.466  -2.368   1.425  0.00  0.00    -0.002 A 
ATOM      7  C5  OXE d   1       0.922  -3.034   0.282  0.00  0.00    -0.002 A 
ATOM      8  C6  OXE d   1       0.848  -2.398  -0.952  0.00  0.00     0.003 A 
ENDROOT
TORSDOF 0
ENDMDL
