MODEL 1
REMARK minimizedAffinity -4.59297609
REMARK minimizedRMSD -1
REMARK  1 active torsions:
REMARK  status: ('A' for Active; 'I' for Inactive)
REMARK    1  A    between atoms: C3_4  and  O_7 
ROOT
ATOM      1  C   UNL d   1       0.481   0.546  -0.367  0.00  0.00    -0.033 A 
ATOM      2  C1  UNL d   1      -0.753  -0.092  -0.226  0.00  0.00     0.039 A 
ATOM      3  C2  UNL d   1      -1.132  -0.617   1.011  0.00  0.00    -0.080 A 
ATOM      4  C3  UNL d   1      -0.270  -0.496   2.098  0.00  0.00     0.150 A 
ATOM      5  C4  UNL d   1       0.959   0.141   1.965  0.00  0.00    -0.007 A 
ATOM      6  C5  UNL d   1       1.336   0.664   0.729  0.00  0.00     0.039 A 
ENDROOT
BRANCH   4   7
ATOM      7  O   UNL d   1      -0.595  -0.997   3.324  0.00  0.00    -0.526 OA
ATOM      8  H5  UNL d   1      -1.460  -1.435   3.258  0.00  0.00     0.418 HD
ENDBRANCH   4   7
TORSDOF 1
ENDMDL
