MODEL 1
REMARK minimizedAffinity 2.32656717
REMARK minimizedRMSD -1
REMARK  1 active torsions:
REMARK  status: ('A' for Active; 'I' for Inactive)
REMARK    1  A    between atoms: C3_4  and  O_7 
ROOT
ATOM      1  C   UNL d   1      -3.390   0.601   3.140  0.00  0.00    -0.033 A 
ATOM      2  C1  UNL d   1      -4.288   0.752   2.081  0.00  0.00     0.039 A 
ATOM      3  C2  UNL d   1      -3.832   0.684   0.763  0.00  0.00    -0.080 A 
ATOM      4  C3  UNL d   1      -2.480   0.463   0.518  0.00  0.00     0.150 A 
ATOM      5  C4  UNL d   1      -1.581   0.308   1.568  0.00  0.00    -0.007 A 
ATOM      6  C5  UNL d   1      -2.037   0.378   2.884  0.00  0.00     0.039 A 
ENDROOT
BRANCH   4   7
ATOM      7  O   UNL d   1      -1.988   0.394  -0.752  0.00  0.00    -0.526 OA
ATOM      8  H5  UNL d   1      -2.718   0.548  -1.374  0.00  0.00     0.418 HD
ENDBRANCH   4   7
TORSDOF 1
ENDMDL
