MODEL 1
REMARK minimizedAffinity 3.99195313
REMARK minimizedRMSD -1
REMARK  1 active torsions:
REMARK  status: ('A' for Active; 'I' for Inactive)
REMARK    1  A    between atoms: C3_4  and  O_7 
ROOT
ATOM      1  C   UNL d   1      -3.902   0.266   0.999  0.00  0.00    -0.033 A 
ATOM      2  C1  UNL d   1      -3.835   0.488   2.376  0.00  0.00     0.039 A 
ATOM      3  C2  UNL d   1      -2.604   0.449   3.032  0.00  0.00    -0.080 A 
ATOM      4  C3  UNL d   1      -1.448   0.189   2.301  0.00  0.00     0.150 A 
ATOM      5  C4  UNL d   1      -1.507  -0.030   0.929  0.00  0.00    -0.007 A 
ATOM      6  C5  UNL d   1      -2.737   0.008   0.275  0.00  0.00     0.039 A 
ENDROOT
BRANCH   4   7
ATOM      7  O   UNL d   1      -0.224   0.136   2.899  0.00  0.00    -0.526 OA
ATOM      8  H5  UNL d   1      -0.341   0.278   3.853  0.00  0.00     0.418 HD
ENDBRANCH   4   7
TORSDOF 1
ENDMDL
