MODEL 1
REMARK minimizedAffinity 2.93616772
REMARK minimizedRMSD -1
REMARK  1 active torsions:
REMARK  status: ('A' for Active; 'I' for Inactive)
REMARK    1  A    between atoms: C3_4  and  O_7 
ROOT
ATOM      1  C   UNL d   1      -1.708  -0.211   2.237  0.00  0.00    -0.033 A 
ATOM      2  C1  UNL d   1      -2.984  -0.407   2.770  0.00  0.00     0.039 A 
ATOM      3  C2  UNL d   1      -4.106   0.084   2.100  0.00  0.00    -0.080 A 
ATOM      4  C3  UNL d   1      -3.939   0.768   0.899  0.00  0.00     0.150 A 
ATOM      5  C4  UNL d   1      -2.672   0.964   0.360  0.00  0.00    -0.007 A 
ATOM      6  C5  UNL d   1      -1.553   0.474   1.031  0.00  0.00     0.039 A 
ENDROOT
BRANCH   4   7
ATOM      7  O   UNL d   1      -5.004   1.270   0.211  0.00  0.00    -0.526 OA
ATOM      8  H5  UNL d   1      -5.812   1.084   0.717  0.00  0.00     0.418 HD
ENDBRANCH   4   7
TORSDOF 1
ENDMDL
