MODEL 1
REMARK minimizedAffinity 2.4573884
REMARK minimizedRMSD -1
REMARK  1 active torsions:
REMARK  status: ('A' for Active; 'I' for Inactive)
REMARK    1  A    between atoms: C3_4  and  O_7 
ROOT
ATOM      1  C   UNL d   1      -3.542   0.307   2.762  0.00  0.00    -0.033 A 
ATOM      2  C1  UNL d   1      -4.149   0.551   1.528  0.00  0.00     0.039 A 
ATOM      3  C2  UNL d   1      -3.434   0.354   0.345  0.00  0.00    -0.080 A 
ATOM      4  C3  UNL d   1      -2.115  -0.088   0.409  0.00  0.00     0.150 A 
ATOM      5  C4  UNL d   1      -1.505  -0.336   1.634  0.00  0.00    -0.007 A 
ATOM      6  C5  UNL d   1      -2.220  -0.138   2.815  0.00  0.00     0.039 A 
ENDROOT
BRANCH   4   7
ATOM      7  O   UNL d   1      -1.376  -0.291  -0.718  0.00  0.00    -0.526 OA
ATOM      8  H5  UNL d   1      -1.918  -0.051  -1.489  0.00  0.00     0.418 HD
ENDBRANCH   4   7
TORSDOF 1
ENDMDL
