MODEL 1
REMARK minimizedAffinity 2.1383903
REMARK minimizedRMSD -1
REMARK  1 active torsions:
REMARK  status: ('A' for Active; 'I' for Inactive)
REMARK    1  A    between atoms: C3_4  and  O_7 
ROOT
ATOM      1  C   UNL d   1      -0.842  -0.820   3.266  0.00  0.00    -0.033 A 
ATOM      2  C1  UNL d   1      -2.140  -1.066   3.718  0.00  0.00     0.039 A 
ATOM      3  C2  UNL d   1      -3.219  -0.381   3.156  0.00  0.00    -0.080 A 
ATOM      4  C3  UNL d   1      -2.987   0.545   2.143  0.00  0.00     0.150 A 
ATOM      5  C4  UNL d   1      -1.697   0.792   1.684  0.00  0.00    -0.007 A 
ATOM      6  C5  UNL d   1      -0.621   0.107   2.247  0.00  0.00     0.039 A 
ENDROOT
BRANCH   4   7
ATOM      7  O   UNL d   1      -4.007   1.242   1.567  0.00  0.00    -0.526 OA
ATOM      8  H5  UNL d   1      -4.837   0.989   2.004  0.00  0.00     0.418 HD
ENDBRANCH   4   7
TORSDOF 1
ENDMDL
