MODEL 1
REMARK minimizedAffinity -3.14206028
REMARK minimizedRMSD -1
REMARK  1 active torsions:
REMARK  status: ('A' for Active; 'I' for Inactive)
REMARK    1  A    between atoms: C3_4  and  O_7 
ROOT
ATOM      1  C   UNL d   1       0.237   0.397   1.205  0.00  0.00    -0.033 A 
ATOM      2  C1  UNL d   1      -0.840   0.702   0.370  0.00  0.00     0.039 A 
ATOM      3  C2  UNL d   1      -0.656   0.774  -1.012  0.00  0.00    -0.080 A 
ATOM      4  C3  UNL d   1       0.608   0.538  -1.546  0.00  0.00     0.150 A 
ATOM      5  C4  UNL d   1       1.685   0.230  -0.721  0.00  0.00    -0.007 A 
ATOM      6  C5  UNL d   1       1.499   0.160   0.659  0.00  0.00     0.039 A 
ENDROOT
BRANCH   4   7
ATOM      7  O   UNL d   1       0.838   0.602  -2.888  0.00  0.00    -0.526 OA
ATOM      8  H5  UNL d   1       0.010   0.853  -3.331  0.00  0.00     0.418 HD
ENDBRANCH   4   7
TORSDOF 1
ENDMDL
