MODEL 1
REMARK minimizedAffinity 4.59881306
REMARK minimizedRMSD -1
REMARK  1 active torsions:
REMARK  status: ('A' for Active; 'I' for Inactive)
REMARK    1  A    between atoms: C3_4  and  O_7 
ROOT
ATOM      1  C   UNL d   1       1.242  -0.382   2.754  0.00  0.00    -0.033 A 
ATOM      2  C1  UNL d   1       0.793   0.932   2.609  0.00  0.00     0.039 A 
ATOM      3  C2  UNL d   1      -0.571   1.194   2.465  0.00  0.00    -0.080 A 
ATOM      4  C3  UNL d   1      -1.474   0.136   2.470  0.00  0.00     0.150 A 
ATOM      5  C4  UNL d   1      -1.035  -1.176   2.619  0.00  0.00    -0.007 A 
ATOM      6  C5  UNL d   1       0.327  -1.436   2.761  0.00  0.00     0.039 A 
ENDROOT
BRANCH   4   7
ATOM      7  O   UNL d   1      -2.814   0.342   2.329  0.00  0.00    -0.526 OA
ATOM      8  H5  UNL d   1      -2.968   1.294   2.207  0.00  0.00     0.418 HD
ENDBRANCH   4   7
TORSDOF 1
ENDMDL
