MODEL 1
REMARK minimizedAffinity -2.35246372
REMARK minimizedRMSD -1
REMARK  1 active torsions:
REMARK  status: ('A' for Active; 'I' for Inactive)
REMARK    1  A    between atoms: C3_4  and  O_7 
ROOT
ATOM      1  C   UNL d   1      -0.149   0.830   1.265  0.00  0.00    -0.033 A 
ATOM      2  C1  UNL d   1      -1.453   0.353   1.123  0.00  0.00     0.039 A 
ATOM      3  C2  UNL d   1      -2.185  -0.029   2.249  0.00  0.00    -0.080 A 
ATOM      4  C3  UNL d   1      -1.602   0.072   3.510  0.00  0.00     0.150 A 
ATOM      5  C4  UNL d   1      -0.305   0.550   3.659  0.00  0.00    -0.007 A 
ATOM      6  C5  UNL d   1       0.425   0.930   2.533  0.00  0.00     0.039 A 
ENDROOT
BRANCH   4   7
ATOM      7  O   UNL d   1      -2.276  -0.294   4.637  0.00  0.00    -0.526 OA
ATOM      8  H5  UNL d   1      -3.149  -0.632   4.378  0.00  0.00     0.418 HD
ENDBRANCH   4   7
TORSDOF 1
ENDMDL
