MODEL 1
REMARK minimizedAffinity 0.862259626
REMARK minimizedRMSD -1
REMARK  1 active torsions:
REMARK  status: ('A' for Active; 'I' for Inactive)
REMARK    1  A    between atoms: C3_4  and  O_7 
ROOT
ATOM      1  C   UNL d   1       1.523   0.330   2.373  0.00  0.00    -0.033 A 
ATOM      2  C1  UNL d   1       0.137   0.424   2.514  0.00  0.00     0.039 A 
ATOM      3  C2  UNL d   1      -0.667   0.639   1.393  0.00  0.00    -0.080 A 
ATOM      4  C3  UNL d   1      -0.074   0.757   0.139  0.00  0.00     0.150 A 
ATOM      5  C4  UNL d   1       1.305   0.660  -0.009  0.00  0.00    -0.007 A 
ATOM      6  C5  UNL d   1       2.107   0.446   1.112  0.00  0.00     0.039 A 
ENDROOT
BRANCH   4   7
ATOM      7  O   UNL d   1      -0.818   0.972  -0.983  0.00  0.00    -0.526 OA
ATOM      8  H5  UNL d   1      -1.751   1.045  -0.724  0.00  0.00     0.418 HD
ENDBRANCH   4   7
TORSDOF 1
ENDMDL
