MODEL 1
REMARK minimizedAffinity -2.18974876
REMARK minimizedRMSD -1
REMARK  1 active torsions:
REMARK  status: ('A' for Active; 'I' for Inactive)
REMARK    1  A    between atoms: C3_4  and  O_7 
ROOT
ATOM      1  C   UNL d   1       0.674   0.774   3.424  0.00  0.00    -0.033 A 
ATOM      2  C1  UNL d   1      -0.722   0.786   3.478  0.00  0.00     0.039 A 
ATOM      3  C2  UNL d   1      -1.468   0.575   2.317  0.00  0.00    -0.080 A 
ATOM      4  C3  UNL d   1      -0.808   0.352   1.111  0.00  0.00     0.150 A 
ATOM      5  C4  UNL d   1       0.582   0.335   1.052  0.00  0.00    -0.007 A 
ATOM      6  C5  UNL d   1       1.325   0.547   2.212  0.00  0.00     0.039 A 
ENDROOT
BRANCH   4   7
ATOM      7  O   UNL d   1      -1.494   0.146  -0.049  0.00  0.00    -0.526 OA
ATOM      8  H5  UNL d   1      -2.445   0.214   0.139  0.00  0.00     0.418 HD
ENDBRANCH   4   7
TORSDOF 1
ENDMDL
