MODEL 1
REMARK minimizedAffinity 1.24339283
REMARK minimizedRMSD -1
REMARK  1 active torsions:
REMARK  status: ('A' for Active; 'I' for Inactive)
REMARK    1  A    between atoms: C3_4  and  O_7 
ROOT
ATOM      1  C   UNL d   1       2.796   0.729   1.456  0.00  0.00    -0.033 A 
ATOM      2  C1  UNL d   1       2.494   1.541   0.361  0.00  0.00     0.039 A 
ATOM      3  C2  UNL d   1       1.207   1.535  -0.181  0.00  0.00    -0.080 A 
ATOM      4  C3  UNL d   1       0.233   0.715   0.381  0.00  0.00     0.150 A 
ATOM      5  C4  UNL d   1       0.526  -0.094   1.474  0.00  0.00    -0.007 A 
ATOM      6  C5  UNL d   1       1.811  -0.087   2.013  0.00  0.00     0.039 A 
ENDROOT
BRANCH   4   7
ATOM      7  O   UNL d   1      -1.036   0.672  -0.117  0.00  0.00    -0.526 OA
ATOM      8  H5  UNL d   1      -1.084   1.260  -0.889  0.00  0.00     0.418 HD
ENDBRANCH   4   7
TORSDOF 1
ENDMDL
