MODEL 1
REMARK minimizedAffinity -2.049227
REMARK minimizedRMSD -1
REMARK  1 active torsions:
REMARK  status: ('A' for Active; 'I' for Inactive)
REMARK    1  A    between atoms: C3_4  and  O_7 
ROOT
ATOM      1  C   UNL d   1       1.524   0.256   1.320  0.00  0.00    -0.033 A 
ATOM      2  C1  UNL d   1       1.356   0.235  -0.066  0.00  0.00     0.039 A 
ATOM      3  C2  UNL d   1       0.088   0.418  -0.621  0.00  0.00    -0.080 A 
ATOM      4  C3  UNL d   1      -1.003   0.621   0.220  0.00  0.00     0.150 A 
ATOM      5  C4  UNL d   1      -0.843   0.647   1.601  0.00  0.00    -0.007 A 
ATOM      6  C5  UNL d   1       0.424   0.463   2.153  0.00  0.00     0.039 A 
ENDROOT
BRANCH   4   7
ATOM      7  O   UNL d   1      -2.260   0.799  -0.275  0.00  0.00    -0.526 OA
ATOM      8  H5  UNL d   1      -2.223   0.728  -1.243  0.00  0.00     0.418 HD
ENDBRANCH   4   7
TORSDOF 1
ENDMDL
