MODEL 1
REMARK minimizedAffinity -4.5095439
REMARK minimizedRMSD -1
REMARK  1 active torsions:
REMARK  status: ('A' for Active; 'I' for Inactive)
REMARK    1  A    between atoms: C3_4  and  O_7 
ROOT
ATOM      1  C   UNL d   1       0.459   0.244  -0.060  0.00  0.00    -0.033 A 
ATOM      2  C1  UNL d   1      -0.492  -0.777  -0.100  0.00  0.00     0.039 A 
ATOM      3  C2  UNL d   1      -0.976  -1.330   1.087  0.00  0.00    -0.080 A 
ATOM      4  C3  UNL d   1      -0.502  -0.853   2.306  0.00  0.00     0.150 A 
ATOM      5  C4  UNL d   1       0.443   0.167   2.354  0.00  0.00    -0.007 A 
ATOM      6  C5  UNL d   1       0.925   0.717   1.167  0.00  0.00     0.039 A 
ENDROOT
BRANCH   4   7
ATOM      7  O   UNL d   1      -0.941  -1.365   3.491  0.00  0.00    -0.526 OA
ATOM      8  H5  UNL d   1      -1.569  -2.082   3.302  0.00  0.00     0.418 HD
ENDBRANCH   4   7
TORSDOF 1
ENDMDL
