MODEL 1
REMARK minimizedAffinity -4.16722441
REMARK minimizedRMSD -1
REMARK  1 active torsions:
REMARK  status: ('A' for Active; 'I' for Inactive)
REMARK    1  A    between atoms: C3_4  and  O_7 
ROOT
ATOM      1  C   UNL d   1      -0.254   0.267  -0.211  0.00  0.00    -0.033 A 
ATOM      2  C1  UNL d   1      -1.546  -0.144   0.124  0.00  0.00     0.039 A 
ATOM      3  C2  UNL d   1      -1.845  -0.510   1.437  0.00  0.00    -0.080 A 
ATOM      4  C3  UNL d   1      -0.846  -0.459   2.406  0.00  0.00     0.150 A 
ATOM      5  C4  UNL d   1       0.442  -0.046   2.080  0.00  0.00    -0.007 A 
ATOM      6  C5  UNL d   1       0.739   0.318   0.767  0.00  0.00     0.039 A 
ENDROOT
BRANCH   4   7
ATOM      7  O   UNL d   1      -1.090  -0.811   3.700  0.00  0.00    -0.526 OA
ATOM      8  H5  UNL d   1      -2.014  -1.102   3.771  0.00  0.00     0.418 HD
ENDBRANCH   4   7
TORSDOF 1
ENDMDL
