MODEL 1
REMARK minimizedAffinity -2.91060328
REMARK minimizedRMSD -1
REMARK  1 active torsions:
REMARK  status: ('A' for Active; 'I' for Inactive)
REMARK    1  A    between atoms: C3_4  and  O_7 
ROOT
ATOM      1  C   UNL d   1       0.514   0.595   0.104  0.00  0.00    -0.033 A 
ATOM      2  C1  UNL d   1      -0.687  -0.114   0.160  0.00  0.00     0.039 A 
ATOM      3  C2  UNL d   1      -1.111  -0.677   1.366  0.00  0.00    -0.080 A 
ATOM      4  C3  UNL d   1      -0.327  -0.523   2.505  0.00  0.00     0.150 A 
ATOM      5  C4  UNL d   1       0.869   0.186   2.457  0.00  0.00    -0.007 A 
ATOM      6  C5  UNL d   1       1.291   0.746   1.253  0.00  0.00     0.039 A 
ENDROOT
BRANCH   4   7
ATOM      7  O   UNL d   1      -0.698  -1.058   3.703  0.00  0.00    -0.526 OA
ATOM      8  H5  UNL d   1      -1.530  -1.544   3.579  0.00  0.00     0.418 HD
ENDBRANCH   4   7
TORSDOF 1
ENDMDL
