MODEL 1
REMARK minimizedAffinity 0.019803647
REMARK minimizedRMSD -1
REMARK  1 active torsions:
REMARK  status: ('A' for Active; 'I' for Inactive)
REMARK    1  A    between atoms: C1_2  and  C2_3 
ROOT
ATOM      1  C2  UNL d   1      -5.745   4.546   3.645  0.00  0.00    -0.081 A 
ATOM      2  C3  UNL d   1      -5.219   3.306   3.262  0.00  0.00     0.006 A 
ATOM      3  C4  UNL d   1      -4.928   3.044   1.921  0.00  0.00     0.002 A 
ATOM      4  C5  UNL d   1      -5.150   4.019   0.942  0.00  0.00    -0.080 A 
ATOM      5  C6  UNL d   1      -4.814   3.762  -0.496  0.00  0.00     0.076 C 
ATOM      6  C7  UNL d   1      -5.692   5.252   1.323  0.00  0.00     0.002 A 
ATOM      7  C8  UNL d   1      -5.984   5.514   2.663  0.00  0.00     0.006 A 
ENDROOT
BRANCH   1   8
ATOM      8  C1  UNL d   1      -6.000   4.854   5.098  0.00  0.00     0.054 C 
ATOM      9  C   UNL d   1      -5.464   3.751   6.000  0.00  0.00     0.018 C 
ENDBRANCH   1   8
TORSDOF 1
ENDMDL
