MODEL 1
REMARK minimizedAffinity 6.2766223
REMARK minimizedRMSD -1
REMARK  1 active torsions:
REMARK  status: ('A' for Active; 'I' for Inactive)
REMARK    1  A    between atoms: C1_2  and  C2_3 
ROOT
ATOM      1  C2  UNL d   1      -5.629   4.305   1.153  0.00  0.00    -0.081 A 
ATOM      2  C3  UNL d   1      -5.473   5.535   1.804  0.00  0.00     0.006 A 
ATOM      3  C4  UNL d   1      -5.509   5.607   3.199  0.00  0.00     0.002 A 
ATOM      4  C5  UNL d   1      -5.693   4.451   3.965  0.00  0.00    -0.080 A 
ATOM      5  C6  UNL d   1      -5.703   4.510   5.464  0.00  0.00     0.076 C 
ATOM      6  C7  UNL d   1      -5.866   3.225   3.314  0.00  0.00     0.002 A 
ATOM      7  C8  UNL d   1      -5.831   3.153   1.919  0.00  0.00     0.006 A 
ENDROOT
BRANCH   1   8
ATOM      8  C1  UNL d   1      -5.527   4.215  -0.348  0.00  0.00     0.054 C 
ATOM      9  C   UNL d   1      -4.167   4.690  -0.840  0.00  0.00     0.018 C 
ENDBRANCH   1   8
TORSDOF 1
ENDMDL
