MODEL 1
REMARK minimizedAffinity -2.63993287
REMARK minimizedRMSD -1
REMARK  1 active torsions:
REMARK  status: ('A' for Active; 'I' for Inactive)
REMARK    1  A    between atoms: C1_2  and  C2_3 
ROOT
ATOM      1  C2  UNL d   1      -5.558   3.648   4.394  0.00  0.00    -0.081 A 
ATOM      2  C3  UNL d   1      -5.928   3.052   3.182  0.00  0.00     0.006 A 
ATOM      3  C4  UNL d   1      -6.000   3.812   2.012  0.00  0.00     0.002 A 
ATOM      4  C5  UNL d   1      -5.697   5.178   2.033  0.00  0.00    -0.080 A 
ATOM      5  C6  UNL d   1      -5.741   5.999   0.779  0.00  0.00     0.076 C 
ATOM      6  C7  UNL d   1      -5.345   5.777   3.248  0.00  0.00     0.002 A 
ATOM      7  C8  UNL d   1      -5.273   5.018   4.418  0.00  0.00     0.006 A 
ENDROOT
BRANCH   1   8
ATOM      8  C1  UNL d   1      -5.417   2.818   5.645  0.00  0.00     0.054 C 
ATOM      9  C   UNL d   1      -3.953   2.598   6.000  0.00  0.00     0.018 C 
ENDBRANCH   1   8
TORSDOF 1
ENDMDL
