MODEL 1
REMARK minimizedAffinity -0.0936661512
REMARK minimizedRMSD -1
REMARK  1 active torsions:
REMARK  status: ('A' for Active; 'I' for Inactive)
REMARK    1  A    between atoms: C1_2  and  C2_3 
ROOT
ATOM      1  C2  UNL d   1      -4.754   3.856   4.677  0.00  0.00    -0.081 A 
ATOM      2  C3  UNL d   1      -4.353   3.410   3.412  0.00  0.00     0.006 A 
ATOM      3  C4  UNL d   1      -4.764   4.085   2.260  0.00  0.00     0.002 A 
ATOM      4  C5  UNL d   1      -5.575   5.221   2.354  0.00  0.00    -0.080 A 
ATOM      5  C6  UNL d   1      -5.998   5.973   1.127  0.00  0.00     0.076 C 
ATOM      6  C7  UNL d   1      -5.989   5.656   3.617  0.00  0.00     0.002 A 
ATOM      7  C8  UNL d   1      -5.580   4.981   4.769  0.00  0.00     0.006 A 
ENDROOT
BRANCH   1   8
ATOM      8  C1  UNL d   1      -4.260   3.168   5.924  0.00  0.00     0.054 C 
ATOM      9  C   UNL d   1      -2.739   3.143   5.976  0.00  0.00     0.018 C 
ENDBRANCH   1   8
TORSDOF 1
ENDMDL
