MODEL 1
REMARK minimizedAffinity -2.84653974
REMARK minimizedRMSD -1
REMARK  1 active torsions:
REMARK  status: ('A' for Active; 'I' for Inactive)
REMARK    1  A    between atoms: C1_2  and  C2_3 
ROOT
ATOM      1  C2  UNL d   1      -5.166   4.902   4.055  0.00  0.00    -0.081 A 
ATOM      2  C3  UNL d   1      -4.693   3.851   3.259  0.00  0.00     0.006 A 
ATOM      3  C4  UNL d   1      -4.869   3.878   1.874  0.00  0.00     0.002 A 
ATOM      4  C5  UNL d   1      -5.512   4.959   1.260  0.00  0.00    -0.080 A 
ATOM      5  C6  UNL d   1      -5.680   5.014  -0.229  0.00  0.00     0.076 C 
ATOM      6  C7  UNL d   1      -6.000   6.000   2.057  0.00  0.00     0.002 A 
ATOM      7  C8  UNL d   1      -5.826   5.973   3.442  0.00  0.00     0.006 A 
ENDROOT
BRANCH   1   8
ATOM      8  C1  UNL d   1      -4.922   4.907   5.543  0.00  0.00     0.054 C 
ATOM      9  C   UNL d   1      -3.740   4.022   5.912  0.00  0.00     0.018 C 
ENDBRANCH   1   8
TORSDOF 1
ENDMDL
