MODEL 1
REMARK minimizedAffinity 1.68046761
REMARK minimizedRMSD -1
REMARK  1 active torsions:
REMARK  status: ('A' for Active; 'I' for Inactive)
REMARK    1  A    between atoms: C1_2  and  C2_3 
ROOT
ATOM      1  C2  UNL d   1      -1.575  -0.819  -1.179  0.00  0.00    -0.081 A 
ATOM      2  C3  UNL d   1      -0.378  -0.307  -0.665  0.00  0.00     0.006 A 
ATOM      3  C4  UNL d   1      -0.255  -0.028   0.699  0.00  0.00     0.002 A 
ATOM      4  C5  UNL d   1      -1.323  -0.264   1.571  0.00  0.00    -0.080 A 
ATOM      5  C6  UNL d   1      -1.194   0.002   3.041  0.00  0.00     0.076 C 
ATOM      6  C7  UNL d   1      -2.525  -0.759   1.054  0.00  0.00     0.002 A 
ATOM      7  C8  UNL d   1      -2.649  -1.038  -0.309  0.00  0.00     0.006 A 
ENDROOT
BRANCH   1   8
ATOM      8  C1  UNL d   1      -1.690  -1.181  -2.638  0.00  0.00     0.054 C 
ATOM      9  C   UNL d   1      -1.879  -2.680  -2.823  0.00  0.00     0.018 C 
ENDBRANCH   1   8
TORSDOF 1
ENDMDL
