MODEL 1
REMARK minimizedAffinity -0.323139906
REMARK minimizedRMSD -1
REMARK  1 active torsions:
REMARK  status: ('A' for Active; 'I' for Inactive)
REMARK    1  A    between atoms: C1_2  and  C2_3 
ROOT
ATOM      1  C2  UNL d   1      -5.204   4.178   4.607  0.00  0.00    -0.081 A 
ATOM      2  C3  UNL d   1      -4.582   5.405   4.348  0.00  0.00     0.006 A 
ATOM      3  C4  UNL d   1      -4.673   5.992   3.084  0.00  0.00     0.002 A 
ATOM      4  C5  UNL d   1      -5.392   5.366   2.060  0.00  0.00    -0.080 A 
ATOM      5  C6  UNL d   1      -5.522   6.000   0.707  0.00  0.00     0.076 C 
ATOM      6  C7  UNL d   1      -5.999   4.131   2.314  0.00  0.00     0.002 A 
ATOM      7  C8  UNL d   1      -5.909   3.543   3.577  0.00  0.00     0.006 A 
ENDROOT
BRANCH   1   8
ATOM      8  C1  UNL d   1      -5.163   3.573   5.987  0.00  0.00     0.054 C 
ATOM      9  C   UNL d   1      -4.370   2.275   6.000  0.00  0.00     0.018 C 
ENDBRANCH   1   8
TORSDOF 1
ENDMDL
