MODEL 1
REMARK minimizedAffinity -3.15235162
REMARK minimizedRMSD -1
REMARK  1 active torsions:
REMARK  status: ('A' for Active; 'I' for Inactive)
REMARK    1  A    between atoms: C1_2  and  C2_3 
ROOT
ATOM      1  C2  UNL d   1      -5.341   5.214   2.261  0.00  0.00    -0.081 A 
ATOM      2  C3  UNL d   1      -5.999   5.711   3.393  0.00  0.00     0.006 A 
ATOM      3  C4  UNL d   1      -5.955   5.011   4.601  0.00  0.00     0.002 A 
ATOM      4  C5  UNL d   1      -5.247   3.809   4.701  0.00  0.00    -0.080 A 
ATOM      5  C6  UNL d   1      -5.167   3.064   6.000  0.00  0.00     0.076 C 
ATOM      6  C7  UNL d   1      -4.604   3.304   3.566  0.00  0.00     0.002 A 
ATOM      7  C8  UNL d   1      -4.648   4.002   2.357  0.00  0.00     0.006 A 
ENDROOT
BRANCH   1   8
ATOM      8  C1  UNL d   1      -5.332   5.998   0.974  0.00  0.00     0.054 C 
ATOM      9  C   UNL d   1      -5.974   5.209  -0.159  0.00  0.00     0.018 C 
ENDBRANCH   1   8
TORSDOF 1
ENDMDL
