MODEL 1
REMARK minimizedAffinity 0.207778648
REMARK minimizedRMSD -1
REMARK  1 active torsions:
REMARK  status: ('A' for Active; 'I' for Inactive)
REMARK    1  A    between atoms: C1_2  and  C2_3 
ROOT
ATOM      1  C2  UNL d   1      -5.837   5.249   2.151  0.00  0.00    -0.081 A 
ATOM      2  C3  UNL d   1      -5.995   5.996   3.325  0.00  0.00     0.006 A 
ATOM      3  C4  UNL d   1      -5.997   5.366   4.571  0.00  0.00     0.002 A 
ATOM      4  C5  UNL d   1      -5.832   3.980   4.666  0.00  0.00    -0.080 A 
ATOM      5  C6  UNL d   1      -5.801   3.294   5.999  0.00  0.00     0.076 C 
ATOM      6  C7  UNL d   1      -5.691   3.231   3.493  0.00  0.00     0.002 A 
ATOM      7  C8  UNL d   1      -5.690   3.861   2.246  0.00  0.00     0.006 A 
ENDROOT
BRANCH   1   8
ATOM      8  C1  UNL d   1      -5.770   5.933   0.810  0.00  0.00     0.054 C 
ATOM      9  C   UNL d   1      -5.233   4.997  -0.263  0.00  0.00     0.018 C 
ENDBRANCH   1   8
TORSDOF 1
ENDMDL
