MODEL 1
REMARK minimizedAffinity -0.732850075
REMARK minimizedRMSD -1
REMARK  1 active torsions:
REMARK  status: ('A' for Active; 'I' for Inactive)
REMARK    1  A    between atoms: C1_2  and  C2_3 
ROOT
ATOM      1  C2  UNL d   1      -4.910   4.943   3.179  0.00  0.00    -0.081 A 
ATOM      2  C3  UNL d   1      -4.410   5.007   4.486  0.00  0.00     0.006 A 
ATOM      3  C4  UNL d   1      -4.699   3.995   5.405  0.00  0.00     0.002 A 
ATOM      4  C5  UNL d   1      -5.486   2.900   5.031  0.00  0.00    -0.080 A 
ATOM      5  C6  UNL d   1      -5.778   1.793   5.999  0.00  0.00     0.076 C 
ATOM      6  C7  UNL d   1      -6.000   2.845   3.731  0.00  0.00     0.002 A 
ATOM      7  C8  UNL d   1      -5.712   3.857   2.812  0.00  0.00     0.006 A 
ENDROOT
BRANCH   1   8
ATOM      8  C1  UNL d   1      -4.547   5.999   2.167  0.00  0.00     0.054 C 
ATOM      9  C   UNL d   1      -4.128   5.376   0.843  0.00  0.00     0.018 C 
ENDBRANCH   1   8
TORSDOF 1
ENDMDL
