MODEL 1
REMARK minimizedAffinity -3.36180496
REMARK minimizedRMSD -1
REMARK  1 active torsions:
REMARK  status: ('A' for Active; 'I' for Inactive)
REMARK    1  A    between atoms: C1_2  and  C2_3 
ROOT
ATOM      1  C2  UNL d   1      -5.218   4.158   4.304  0.00  0.00    -0.081 A 
ATOM      2  C3  UNL d   1      -4.896   5.485   3.994  0.00  0.00     0.006 A 
ATOM      3  C4  UNL d   1      -5.125   5.989   2.711  0.00  0.00     0.002 A 
ATOM      4  C5  UNL d   1      -5.687   5.178   1.720  0.00  0.00    -0.080 A 
ATOM      5  C6  UNL d   1      -5.966   5.715   0.348  0.00  0.00     0.076 C 
ATOM      6  C7  UNL d   1      -5.993   3.847   2.024  0.00  0.00     0.002 A 
ATOM      7  C8  UNL d   1      -5.763   3.342   3.306  0.00  0.00     0.006 A 
ENDROOT
BRANCH   1   8
ATOM      8  C1  UNL d   1      -5.032   3.631   5.703  0.00  0.00     0.054 C 
ATOM      9  C   UNL d   1      -5.997   2.491   5.998  0.00  0.00     0.018 C 
ENDBRANCH   1   8
TORSDOF 1
ENDMDL
