MODEL 1
REMARK minimizedAffinity 1.2811377
REMARK minimizedRMSD -1
REMARK  1 active torsions:
REMARK  status: ('A' for Active; 'I' for Inactive)
REMARK    1  A    between atoms: C1_2  and  C2_3 
ROOT
ATOM      1  C2  UNL d   1      -5.433   5.300   2.129  0.00  0.00    -0.081 A 
ATOM      2  C3  UNL d   1      -4.663   5.996   3.069  0.00  0.00     0.006 A 
ATOM      3  C4  UNL d   1      -4.127   5.333   4.176  0.00  0.00     0.002 A 
ATOM      4  C5  UNL d   1      -4.345   3.963   4.356  0.00  0.00    -0.080 A 
ATOM      5  C6  UNL d   1      -3.750   3.233   5.523  0.00  0.00     0.076 C 
ATOM      6  C7  UNL d   1      -5.128   3.271   3.426  0.00  0.00     0.002 A 
ATOM      7  C8  UNL d   1      -5.665   3.934   2.320  0.00  0.00     0.006 A 
ENDROOT
BRANCH   1   8
ATOM      8  C1  UNL d   1      -5.958   5.999   0.901  0.00  0.00     0.054 C 
ATOM      9  C   UNL d   1      -4.927   6.000  -0.219  0.00  0.00     0.018 C 
ENDBRANCH   1   8
TORSDOF 1
ENDMDL
