MODEL 1
REMARK minimizedAffinity -3.58537459
REMARK minimizedRMSD -1
REMARK  1 active torsions:
REMARK  status: ('A' for Active; 'I' for Inactive)
REMARK    1  A    between atoms: C1_2  and  C2_3 
ROOT
ATOM      1  C2  UNL d   1      -4.984   4.870   3.318  0.00  0.00    -0.081 A 
ATOM      2  C3  UNL d   1      -4.595   3.558   3.022  0.00  0.00     0.006 A 
ATOM      3  C4  UNL d   1      -4.910   2.512   3.894  0.00  0.00     0.002 A 
ATOM      4  C5  UNL d   1      -5.625   2.760   5.070  0.00  0.00    -0.080 A 
ATOM      5  C6  UNL d   1      -5.996   1.642   5.999  0.00  0.00     0.076 C 
ATOM      6  C7  UNL d   1      -5.999   4.073   5.374  0.00  0.00     0.002 A 
ATOM      7  C8  UNL d   1      -5.683   5.119   4.504  0.00  0.00     0.006 A 
ENDROOT
BRANCH   1   8
ATOM      8  C1  UNL d   1      -4.702   5.990   2.349  0.00  0.00     0.054 C 
ATOM      9  C   UNL d   1      -4.938   5.550   0.911  0.00  0.00     0.018 C 
ENDBRANCH   1   8
TORSDOF 1
ENDMDL
