MODEL 1
REMARK minimizedAffinity -3.62568903
REMARK minimizedRMSD -1
REMARK  1 active torsions:
REMARK  status: ('A' for Active; 'I' for Inactive)
REMARK    1  A    between atoms: C1_2  and  C2_3 
ROOT
ATOM      1  C2  UNL d   1      -5.767   5.205   2.405  0.00  0.00    -0.081 A 
ATOM      2  C3  UNL d   1      -5.823   5.833   3.656  0.00  0.00     0.006 A 
ATOM      3  C4  UNL d   1      -5.553   5.114   4.822  0.00  0.00     0.002 A 
ATOM      4  C5  UNL d   1      -5.216   3.757   4.757  0.00  0.00    -0.080 A 
ATOM      5  C6  UNL d   1      -4.894   2.981   6.000  0.00  0.00     0.076 C 
ATOM      6  C7  UNL d   1      -5.177   3.126   3.510  0.00  0.00     0.002 A 
ATOM      7  C8  UNL d   1      -5.448   3.845   2.343  0.00  0.00     0.006 A 
ENDROOT
BRANCH   1   8
ATOM      8  C1  UNL d   1      -5.994   5.994   1.141  0.00  0.00     0.054 C 
ATOM      9  C   UNL d   1      -4.997   5.604   0.059  0.00  0.00     0.018 C 
ENDBRANCH   1   8
TORSDOF 1
ENDMDL
