MODEL 1
REMARK minimizedAffinity -3.58618593
REMARK minimizedRMSD -1
REMARK  1 active torsions:
REMARK  status: ('A' for Active; 'I' for Inactive)
REMARK    1  A    between atoms: C1_2  and  C2_3 
ROOT
ATOM      1  C2  UNL d   1      -5.261   4.454   4.379  0.00  0.00    -0.081 A 
ATOM      2  C3  UNL d   1      -4.515   5.574   3.991  0.00  0.00     0.006 A 
ATOM      3  C4  UNL d   1      -4.508   5.994   2.659  0.00  0.00     0.002 A 
ATOM      4  C5  UNL d   1      -5.253   5.307   1.694  0.00  0.00    -0.080 A 
ATOM      5  C6  UNL d   1      -5.278   5.766   0.267  0.00  0.00     0.076 C 
ATOM      6  C7  UNL d   1      -5.984   4.178   2.078  0.00  0.00     0.002 A 
ATOM      7  C8  UNL d   1      -5.991   3.757   3.410  0.00  0.00     0.006 A 
ENDROOT
BRANCH   1   8
ATOM      8  C1  UNL d   1      -5.322   4.037   5.826  0.00  0.00     0.054 C 
ATOM      9  C   UNL d   1      -5.987   2.677   5.982  0.00  0.00     0.018 C 
ENDBRANCH   1   8
TORSDOF 1
ENDMDL
