MODEL 1
REMARK minimizedAffinity 7.71240377
REMARK minimizedRMSD -1
REMARK  1 active torsions:
REMARK  status: ('A' for Active; 'I' for Inactive)
REMARK    1  A    between atoms: C1_2  and  C2_3 
ROOT
ATOM      1  C2  UNL d   1       2.655   2.209   0.694  0.00  0.00    -0.077 A 
ATOM      2  C3  UNL d   1       3.062   2.650   1.961  0.00  0.00     0.002 A 
ATOM      3  C4  UNL d   1       2.173   2.626   3.037  0.00  0.00     0.002 A 
ATOM      4  C5  UNL d   1       0.873   2.158   2.859  0.00  0.00    -0.004 A 
ATOM      5  C6  UNL d   1       0.457   1.719   1.602  0.00  0.00     0.002 A 
ATOM      6  C7  UNL d   1       1.344   1.744   0.525  0.00  0.00     0.002 A 
ENDROOT
BRANCH   1   7
ATOM      7  C1  UNL d   1       3.627   2.188  -0.456  0.00  0.00     0.055 C 
ATOM      8  C   UNL d   1       5.031   2.558  -0.001  0.00  0.00     0.019 C 
ENDBRANCH   1   7
TORSDOF 1
ENDMDL
