MODEL 1
REMARK minimizedAffinity 1.95593834
REMARK minimizedRMSD -1
REMARK  1 active torsions:
REMARK  status: ('A' for Active; 'I' for Inactive)
REMARK    1  A    between atoms: C1_2  and  C2_3 
ROOT
ATOM      1  C2  UNL d   1       2.594   2.592   2.580  0.00  0.00    -0.077 A 
ATOM      2  C3  UNL d   1       1.900   2.474   1.367  0.00  0.00     0.002 A 
ATOM      3  C4  UNL d   1       0.715   1.738   1.301  0.00  0.00     0.002 A 
ATOM      4  C5  UNL d   1       0.212   1.119   2.443  0.00  0.00    -0.004 A 
ATOM      5  C6  UNL d   1       0.896   1.229   3.653  0.00  0.00     0.002 A 
ATOM      6  C7  UNL d   1       2.082   1.962   3.721  0.00  0.00     0.002 A 
ENDROOT
BRANCH   1   7
ATOM      7  C1  UNL d   1       3.846   3.426   2.664  0.00  0.00     0.055 C 
ATOM      8  C   UNL d   1       4.551   3.232   3.999  0.00  0.00     0.019 C 
ENDBRANCH   1   7
TORSDOF 1
ENDMDL
