MODEL 1
REMARK minimizedAffinity 7.15389872
REMARK minimizedRMSD -1
REMARK  1 active torsions:
REMARK  status: ('A' for Active; 'I' for Inactive)
REMARK    1  A    between atoms: C1_2  and  C2_3 
ROOT
ATOM      1  C2  UNL d   1      -0.167  -0.134  -0.665  0.00  0.00    -0.077 A 
ATOM      2  C3  UNL d   1      -1.233  -0.503  -1.497  0.00  0.00     0.002 A 
ATOM      3  C4  UNL d   1      -1.384  -1.829  -1.906  0.00  0.00     0.002 A 
ATOM      4  C5  UNL d   1      -0.476  -2.798  -1.484  0.00  0.00    -0.004 A 
ATOM      5  C6  UNL d   1       0.589  -2.441  -0.658  0.00  0.00     0.002 A 
ATOM      6  C7  UNL d   1       0.743  -1.115  -0.250  0.00  0.00     0.002 A 
ENDROOT
BRANCH   1   7
ATOM      7  C1  UNL d   1      -0.030   1.286  -0.183  0.00  0.00     0.055 C 
ATOM      8  C   UNL d   1       0.864   1.371   1.045  0.00  0.00     0.019 C 
ENDBRANCH   1   7
TORSDOF 1
ENDMDL
