MODEL 1
REMARK minimizedAffinity -0.893669069
REMARK minimizedRMSD -1
REMARK  1 active torsions:
REMARK  status: ('A' for Active; 'I' for Inactive)
REMARK    1  A    between atoms: C1_2  and  C2_3 
ROOT
ATOM      1  C2  UNL d   1       1.913  -0.330  -0.245  0.00  0.00    -0.077 A 
ATOM      2  C3  UNL d   1       3.175   0.015  -0.747  0.00  0.00     0.002 A 
ATOM      3  C4  UNL d   1       3.991  -0.954  -1.334  0.00  0.00     0.002 A 
ATOM      4  C5  UNL d   1       3.551  -2.272  -1.430  0.00  0.00    -0.004 A 
ATOM      5  C6  UNL d   1       2.298  -2.626  -0.932  0.00  0.00     0.002 A 
ATOM      6  C7  UNL d   1       1.482  -1.659  -0.343  0.00  0.00     0.002 A 
ENDROOT
BRANCH   1   7
ATOM      7  C1  UNL d   1       1.011   0.723   0.344  0.00  0.00     0.055 C 
ATOM      8  C   UNL d   1       1.811   1.910   0.861  0.00  0.00     0.019 C 
ENDBRANCH   1   7
TORSDOF 1
ENDMDL
