MODEL 1
REMARK minimizedAffinity -0.786291122
REMARK minimizedRMSD -1
REMARK  0 active torsions:
REMARK  status: ('A' for Active; 'I' for Inactive)
ROOT
ATOM      1  C4' PXY d   1      -1.594   2.119   1.196  0.00  0.00     0.077 C 
ATOM      2  C1' PXY d   1       1.270  -2.212  -1.344  0.00  0.00     0.077 C 
ATOM      3  C1  PXY d   1       0.524  -1.068  -0.687  0.00  0.00    -0.082 A 
ATOM      4  C2  PXY d   1       0.169  -1.163   0.584  0.00  0.00     0.003 A 
ATOM      5  C3  PXY d   1      -0.534  -0.152   1.186  0.00  0.00     0.003 A 
ATOM      6  C4  PXY d   1      -0.831   0.992   0.494  0.00  0.00    -0.082 A 
ATOM      7  C5  PXY d   1      -0.463   1.101  -0.800  0.00  0.00     0.003 A 
ATOM      8  C6  PXY d   1       0.214   0.046  -1.404  0.00  0.00     0.003 A 
ENDROOT
TORSDOF 0
ENDMDL
