MODEL 1
REMARK minimizedAffinity -4.96872807
REMARK minimizedRMSD -1
REMARK  0 active torsions:
REMARK  status: ('A' for Active; 'I' for Inactive)
ROOT
ATOM      1  C4' PXY d   1       0.586  -1.700  -0.760  0.00  0.00     0.077 C 
ATOM      2  C1' PXY d   1      -1.917   3.081   1.312  0.00  0.00     0.077 C 
ATOM      3  C1  PXY d   1      -1.257   1.823   0.781  0.00  0.00    -0.082 A 
ATOM      4  C2  PXY d   1      -0.805   1.797  -0.462  0.00  0.00     0.003 A 
ATOM      5  C3  PXY d   1      -0.235   0.658  -0.969  0.00  0.00     0.003 A 
ATOM      6  C4  PXY d   1      -0.078  -0.449  -0.178  0.00  0.00    -0.082 A 
ATOM      7  C5  PXY d   1      -0.528  -0.427   1.094  0.00  0.00     0.003 A 
ATOM      8  C6  PXY d   1      -1.141   0.726   1.577  0.00  0.00     0.003 A 
ENDROOT
TORSDOF 0
ENDMDL
