MODEL 1
REMARK minimizedAffinity -3.25929618
REMARK minimizedRMSD -1
REMARK  0 active torsions:
REMARK  status: ('A' for Active; 'I' for Inactive)
ROOT
ATOM      1  C4' PXY d   1      -0.790   2.200   2.258  0.00  0.00     0.077 C 
ATOM      2  C1' PXY d   1       0.698  -1.477  -1.946  0.00  0.00     0.077 C 
ATOM      3  C1  PXY d   1       0.307  -0.503  -0.852  0.00  0.00    -0.082 A 
ATOM      4  C2  PXY d   1       0.669  -0.743   0.398  0.00  0.00     0.003 A 
ATOM      5  C3  PXY d   1       0.296   0.111   1.404  0.00  0.00     0.003 A 
ATOM      6  C4  PXY d   1      -0.409   1.249   1.120  0.00  0.00    -0.082 A 
ATOM      7  C5  PXY d   1      -0.773   1.507  -0.154  0.00  0.00     0.003 A 
ATOM      8  C6  PXY d   1      -0.420   0.606  -1.155  0.00  0.00     0.003 A 
ENDROOT
TORSDOF 0
ENDMDL
