MODEL 1
REMARK minimizedAffinity -3.79369974
REMARK minimizedRMSD -1
REMARK  0 active torsions:
REMARK  status: ('A' for Active; 'I' for Inactive)
ROOT
ATOM      1  C4' PXY d   1       0.896  -2.171  -1.414  0.00  0.00     0.077 C 
ATOM      2  C1' PXY d   1      -1.311   1.795   2.166  0.00  0.00     0.077 C 
ATOM      3  C1  PXY d   1      -0.733   0.763   1.218  0.00  0.00    -0.082 A 
ATOM      4  C2  PXY d   1      -0.817  -0.523   1.519  0.00  0.00     0.003 A 
ATOM      5  C3  PXY d   1      -0.272  -1.467   0.688  0.00  0.00     0.003 A 
ATOM      6  C4  PXY d   1       0.318  -1.095  -0.490  0.00  0.00    -0.082 A 
ATOM      7  C5  PXY d   1       0.398   0.214  -0.810  0.00  0.00     0.003 A 
ATOM      8  C6  PXY d   1      -0.125   1.159   0.067  0.00  0.00     0.003 A 
ENDROOT
TORSDOF 0
ENDMDL
