MODEL 1
REMARK minimizedAffinity -4.49983788
REMARK minimizedRMSD -1
REMARK  0 active torsions:
REMARK  status: ('A' for Active; 'I' for Inactive)
ROOT
ATOM      1  C4' PXY d   1       1.422  -1.748  -0.805  0.00  0.00     0.077 C 
ATOM      2  C1' PXY d   1      -2.130   2.263   1.364  0.00  0.00     0.077 C 
ATOM      3  C1  PXY d   1      -1.200   1.217   0.783  0.00  0.00    -0.082 A 
ATOM      4  C2  PXY d   1      -1.069   0.049   1.391  0.00  0.00     0.003 A 
ATOM      5  C3  PXY d   1      -0.207  -0.897   0.897  0.00  0.00     0.003 A 
ATOM      6  C4  PXY d   1       0.487  -0.665  -0.260  0.00  0.00    -0.082 A 
ATOM      7  C5  PXY d   1       0.350   0.520  -0.892  0.00  0.00     0.003 A 
ATOM      8  C6  PXY d   1      -0.498   1.483  -0.352  0.00  0.00     0.003 A 
ENDROOT
TORSDOF 0
ENDMDL
