MODEL 1
REMARK minimizedAffinity -5.82712555
REMARK minimizedRMSD -1
REMARK  0 active torsions:
REMARK  status: ('A' for Active; 'I' for Inactive)
ROOT
ATOM      1  C4' PXY d   1       1.329  -1.746  -0.846  0.00  0.00     0.077 C 
ATOM      2  C1' PXY d   1      -2.177   2.109   1.657  0.00  0.00     0.077 C 
ATOM      3  C1  PXY d   1      -1.251   1.097   1.012  0.00  0.00    -0.082 A 
ATOM      4  C2  PXY d   1      -1.132   1.066  -0.306  0.00  0.00     0.003 A 
ATOM      5  C3  PXY d   1      -0.323   0.137  -0.908  0.00  0.00     0.003 A 
ATOM      6  C4  PXY d   1       0.413  -0.735  -0.151  0.00  0.00    -0.082 A 
ATOM      7  C5  PXY d   1       0.305  -0.703   1.194  0.00  0.00     0.003 A 
ATOM      8  C6  PXY d   1      -0.553   0.221   1.784  0.00  0.00     0.003 A 
ENDROOT
TORSDOF 0
ENDMDL
