MODEL 1
REMARK minimizedAffinity -4.12889671
REMARK minimizedRMSD -1
REMARK  0 active torsions:
REMARK  status: ('A' for Active; 'I' for Inactive)
ROOT
ATOM      1  C4' PXY d   1       0.965  -1.638  -1.386  0.00  0.00     0.077 C 
ATOM      2  C1' PXY d   1      -1.508   2.214   2.144  0.00  0.00     0.077 C 
ATOM      3  C1  PXY d   1      -0.863   1.211   1.208  0.00  0.00    -0.082 A 
ATOM      4  C2  PXY d   1      -0.745  -0.052   1.583  0.00  0.00     0.003 A 
ATOM      5  C3  PXY d   1      -0.135  -0.965   0.763  0.00  0.00     0.003 A 
ATOM      6  C4  PXY d   1       0.311  -0.593  -0.477  0.00  0.00    -0.082 A 
ATOM      7  C5  PXY d   1       0.185   0.691  -0.872  0.00  0.00     0.003 A 
ATOM      8  C6  PXY d   1      -0.400   1.612  -0.007  0.00  0.00     0.003 A 
ENDROOT
TORSDOF 0
ENDMDL
