MODEL 1
REMARK minimizedAffinity -2.67854404
REMARK minimizedRMSD -1
REMARK  0 active torsions:
REMARK  status: ('A' for Active; 'I' for Inactive)
ROOT
ATOM      1  C4' PXY d   1      -0.746  -0.747   3.011  0.00  0.00     0.077 C 
ATOM      2  C1' PXY d   1       0.759   2.029  -1.830  0.00  0.00     0.077 C 
ATOM      3  C1  PXY d   1       0.364   1.313  -0.554  0.00  0.00    -0.082 A 
ATOM      4  C2  PXY d   1       0.657   0.031  -0.407  0.00  0.00     0.003 A 
ATOM      5  C3  PXY d   1       0.279  -0.641   0.727  0.00  0.00     0.003 A 
ATOM      6  C4  PXY d   1      -0.358   0.019   1.743  0.00  0.00    -0.082 A 
ATOM      7  C5  PXY d   1      -0.652   1.330   1.605  0.00  0.00     0.003 A 
ATOM      8  C6  PXY d   1      -0.296   1.983   0.428  0.00  0.00     0.003 A 
ENDROOT
TORSDOF 0
ENDMDL
