MODEL 1
REMARK minimizedAffinity -3.49609232
REMARK minimizedRMSD -1
REMARK  0 active torsions:
REMARK  status: ('A' for Active; 'I' for Inactive)
ROOT
ATOM      1  C4' PXY d   1       1.779  -1.377  -0.773  0.00  0.00     0.077 C 
ATOM      2  C1' PXY d   1      -2.172   2.269   1.352  0.00  0.00     0.077 C 
ATOM      3  C1  PXY d   1      -1.136   1.306   0.806  0.00  0.00    -0.082 A 
ATOM      4  C2  PXY d   1      -0.366   1.678  -0.204  0.00  0.00     0.003 A 
ATOM      5  C3  PXY d   1       0.554   0.808  -0.731  0.00  0.00     0.003 A 
ATOM      6  C4  PXY d   1       0.725  -0.435  -0.183  0.00  0.00    -0.082 A 
ATOM      7  C5  PXY d   1      -0.048  -0.817   0.854  0.00  0.00     0.003 A 
ATOM      8  C6  PXY d   1      -1.005   0.065   1.348  0.00  0.00     0.003 A 
ENDROOT
TORSDOF 0
ENDMDL
