MODEL 1
REMARK minimizedAffinity -4.63215017
REMARK minimizedRMSD -1
REMARK  0 active torsions:
REMARK  status: ('A' for Active; 'I' for Inactive)
ROOT
ATOM      1  C4' PXY d   1       1.452  -1.130  -1.207  0.00  0.00     0.077 C 
ATOM      2  C1' PXY d   1      -2.481   1.893   1.761  0.00  0.00     0.077 C 
ATOM      3  C1  PXY d   1      -1.444   1.097   0.994  0.00  0.00    -0.082 A 
ATOM      4  C2  PXY d   1      -1.212   1.379  -0.278  0.00  0.00     0.003 A 
ATOM      5  C3  PXY d   1      -0.300   0.649  -0.996  0.00  0.00     0.003 A 
ATOM      6  C4  PXY d   1       0.420  -0.346  -0.391  0.00  0.00    -0.082 A 
ATOM      7  C5  PXY d   1       0.197  -0.633   0.909  0.00  0.00     0.003 A 
ATOM      8  C6  PXY d   1      -0.762   0.093   1.609  0.00  0.00     0.003 A 
ENDROOT
TORSDOF 0
ENDMDL
