MODEL 1
REMARK minimizedAffinity -5.32035685
REMARK minimizedRMSD -1
REMARK  0 active torsions:
REMARK  status: ('A' for Active; 'I' for Inactive)
ROOT
ATOM      1  C4' PXY d   1       1.143  -1.223  -1.105  0.00  0.00     0.077 C 
ATOM      2  C1' PXY d   1      -2.241   2.800   1.299  0.00  0.00     0.077 C 
ATOM      3  C1  PXY d   1      -1.351   1.739   0.680  0.00  0.00    -0.082 A 
ATOM      4  C2  PXY d   1      -0.780   1.967  -0.491  0.00  0.00     0.003 A 
ATOM      5  C3  PXY d   1       0.002   1.007  -1.080  0.00  0.00     0.003 A 
ATOM      6  C4  PXY d   1       0.245  -0.178  -0.438  0.00  0.00    -0.082 A 
ATOM      7  C5  PXY d   1      -0.326  -0.414   0.762  0.00  0.00     0.003 A 
ATOM      8  C6  PXY d   1      -1.150   0.558   1.324  0.00  0.00     0.003 A 
ENDROOT
TORSDOF 0
ENDMDL
