MODEL 1
REMARK minimizedAffinity -4.86237907
REMARK minimizedRMSD -1
REMARK  0 active torsions:
REMARK  status: ('A' for Active; 'I' for Inactive)
ROOT
ATOM      1  C4' PXY d   1       1.574  -1.876  -1.033  0.00  0.00     0.077 C 
ATOM      2  C1' PXY d   1      -1.723   2.323   1.184  0.00  0.00     0.077 C 
ATOM      3  C1  PXY d   1      -0.854   1.219   0.615  0.00  0.00    -0.082 A 
ATOM      4  C2  PXY d   1      -0.438   1.295  -0.639  0.00  0.00     0.003 A 
ATOM      5  C3  PXY d   1       0.321   0.289  -1.179  0.00  0.00     0.003 A 
ATOM      6  C4  PXY d   1       0.703  -0.779  -0.413  0.00  0.00    -0.082 A 
ATOM      7  C5  PXY d   1       0.292  -0.858   0.870  0.00  0.00     0.003 A 
ATOM      8  C6  PXY d   1      -0.513   0.153   1.388  0.00  0.00     0.003 A 
ENDROOT
TORSDOF 0
ENDMDL
