MODEL 1
REMARK minimizedAffinity -5.75575972
REMARK minimizedRMSD -1
REMARK  0 active torsions:
REMARK  status: ('A' for Active; 'I' for Inactive)
ROOT
ATOM      1  C4' PXY d   1       1.570  -2.359  -0.913  0.00  0.00     0.077 C 
ATOM      2  C1' PXY d   1      -1.511   1.710   1.802  0.00  0.00     0.077 C 
ATOM      3  C1  PXY d   1      -0.705   0.649   1.079  0.00  0.00    -0.082 A 
ATOM      4  C2  PXY d   1      -0.595  -0.561   1.604  0.00  0.00     0.003 A 
ATOM      5  C3  PXY d   1       0.156  -1.522   0.979  0.00  0.00     0.003 A 
ATOM      6  C4  PXY d   1       0.758  -1.259  -0.222  0.00  0.00    -0.082 A 
ATOM      7  C5  PXY d   1       0.642  -0.031  -0.770  0.00  0.00     0.003 A 
ATOM      8  C6  PXY d   1      -0.091   0.944  -0.099  0.00  0.00     0.003 A 
ENDROOT
TORSDOF 0
ENDMDL
