MODEL 1
REMARK minimizedAffinity -2.51935768
REMARK minimizedRMSD -1
REMARK  0 active torsions:
REMARK  status: ('A' for Active; 'I' for Inactive)
ROOT
ATOM      1  C4' PXY d   1      -1.799   1.962   1.807  0.00  0.00     0.077 C 
ATOM      2  C1' PXY d   1       1.187  -2.066  -1.069  0.00  0.00     0.077 C 
ATOM      3  C1  PXY d   1       0.408  -1.000  -0.324  0.00  0.00    -0.082 A 
ATOM      4  C2  PXY d   1       0.148  -1.161   0.964  0.00  0.00     0.003 A 
ATOM      5  C3  PXY d   1      -0.583  -0.223   1.646  0.00  0.00     0.003 A 
ATOM      6  C4  PXY d   1      -1.007   0.917   1.016  0.00  0.00    -0.082 A 
ATOM      7  C5  PXY d   1      -0.737   1.093  -0.294  0.00  0.00     0.003 A 
ATOM      8  C6  PXY d   1      -0.028   0.110  -0.979  0.00  0.00     0.003 A 
ENDROOT
TORSDOF 0
ENDMDL
