MODEL 1
REMARK minimizedAffinity -5.40575171
REMARK minimizedRMSD -1
REMARK  0 active torsions:
REMARK  status: ('A' for Active; 'I' for Inactive)
ROOT
ATOM      1  C4' PXY d   1      -2.115   2.228   1.292  0.00  0.00     0.077 C 
ATOM      2  C1' PXY d   1       2.002  -1.149  -0.958  0.00  0.00     0.077 C 
ATOM      3  C1  PXY d   1       0.927  -0.253  -0.374  0.00  0.00    -0.082 A 
ATOM      4  C2  PXY d   1       0.308  -0.614   0.738  0.00  0.00     0.003 A 
ATOM      5  C3  PXY d   1      -0.689   0.168   1.262  0.00  0.00     0.003 A 
ATOM      6  C4  PXY d   1      -1.017   1.359   0.672  0.00  0.00    -0.082 A 
ATOM      7  C5  PXY d   1      -0.382   1.740  -0.457  0.00  0.00     0.003 A 
ATOM      8  C6  PXY d   1       0.598   0.911  -0.996  0.00  0.00     0.003 A 
ENDROOT
TORSDOF 0
ENDMDL
