MODEL 1
REMARK minimizedAffinity -5.82132244
REMARK minimizedRMSD -1
REMARK  0 active torsions:
REMARK  status: ('A' for Active; 'I' for Inactive)
ROOT
ATOM      1  C4' PXY d   1      -2.183   2.282   1.356  0.00  0.00     0.077 C 
ATOM      2  C1' PXY d   1       1.338  -1.667  -0.971  0.00  0.00     0.077 C 
ATOM      3  C1  PXY d   1       0.410  -0.640  -0.353  0.00  0.00    -0.082 A 
ATOM      4  C2  PXY d   1       0.082   0.442  -1.039  0.00  0.00     0.003 A 
ATOM      5  C3  PXY d   1      -0.731   1.396  -0.483  0.00  0.00     0.003 A 
ATOM      6  C4  PXY d   1      -1.257   1.215   0.768  0.00  0.00    -0.082 A 
ATOM      7  C5  PXY d   1      -0.935   0.108   1.470  0.00  0.00     0.003 A 
ATOM      8  C6  PXY d   1      -0.076  -0.829   0.904  0.00  0.00     0.003 A 
ENDROOT
TORSDOF 0
ENDMDL
