MODEL 1
REMARK minimizedAffinity -4.78099537
REMARK minimizedRMSD -1
REMARK  0 active torsions:
REMARK  status: ('A' for Active; 'I' for Inactive)
ROOT
ATOM      1  C4' PXY d   1       2.356   0.589  -1.485  0.00  0.00     0.077 C 
ATOM      2  C1' PXY d   1      -2.568   1.486   1.407  0.00  0.00     0.077 C 
ATOM      3  C1  PXY d   1      -1.273   1.243   0.658  0.00  0.00    -0.082 A 
ATOM      4  C2  PXY d   1      -0.821   2.159  -0.183  0.00  0.00     0.003 A 
ATOM      5  C3  PXY d   1       0.332   1.941  -0.892  0.00  0.00     0.003 A 
ATOM      6  C4  PXY d   1       1.058   0.797  -0.700  0.00  0.00    -0.082 A 
ATOM      7  C5  PXY d   1       0.609  -0.138   0.164  0.00  0.00     0.003 A 
ATOM      8  C6  PXY d   1      -0.585   0.084   0.844  0.00  0.00     0.003 A 
ENDROOT
TORSDOF 0
ENDMDL
