MODEL 1
REMARK minimizedAffinity -3.38252664
REMARK minimizedRMSD -1
REMARK  0 active torsions:
REMARK  status: ('A' for Active; 'I' for Inactive)
ROOT
ATOM      1  C4' PXY d   1      -2.017   2.495   1.814  0.00  0.00     0.077 C 
ATOM      2  C1' PXY d   1       1.120  -1.496  -0.951  0.00  0.00     0.077 C 
ATOM      3  C1  PXY d   1       0.302  -0.440  -0.234  0.00  0.00    -0.082 A 
ATOM      4  C2  PXY d   1      -0.048  -0.629   1.028  0.00  0.00     0.003 A 
ATOM      5  C3  PXY d   1      -0.815   0.301   1.682  0.00  0.00     0.003 A 
ATOM      6  C4  PXY d   1      -1.183   1.461   1.054  0.00  0.00    -0.082 A 
ATOM      7  C5  PXY d   1      -0.820   1.666  -0.230  0.00  0.00     0.003 A 
ATOM      8  C6  PXY d   1      -0.077   0.691  -0.889  0.00  0.00     0.003 A 
ENDROOT
TORSDOF 0
ENDMDL
