MODEL 1
REMARK minimizedAffinity -4.86386728
REMARK minimizedRMSD -1
REMARK  0 active torsions:
REMARK  status: ('A' for Active; 'I' for Inactive)
ROOT
ATOM      1  C4' PXY d   1      -2.061   2.415   1.485  0.00  0.00     0.077 C 
ATOM      2  C1' PXY d   1       1.144  -1.695  -1.015  0.00  0.00     0.077 C 
ATOM      3  C1  PXY d   1       0.308  -0.608  -0.368  0.00  0.00    -0.082 A 
ATOM      4  C2  PXY d   1      -0.076  -0.741   0.892  0.00  0.00     0.003 A 
ATOM      5  C3  PXY d   1      -0.859   0.217   1.482  0.00  0.00     0.003 A 
ATOM      6  C4  PXY d   1      -1.209   1.348   0.794  0.00  0.00    -0.082 A 
ATOM      7  C5  PXY d   1      -0.812   1.495  -0.488  0.00  0.00     0.003 A 
ATOM      8  C6  PXY d   1      -0.052   0.492  -1.082  0.00  0.00     0.003 A 
ENDROOT
TORSDOF 0
ENDMDL
