MODEL 1
REMARK minimizedAffinity 4.54742908
REMARK minimizedRMSD -1
REMARK  0 active torsions:
REMARK  status: ('A' for Active; 'I' for Inactive)
ROOT
ATOM      1  C2' OXE d   1      -5.941   2.439   1.272  0.00  0.00     0.078 C 
ATOM      2  C1' OXE d   1      -5.585   1.953  -1.470  0.00  0.00     0.078 C 
ATOM      3  C1  OXE d   1      -5.710   3.387  -1.020  0.00  0.00    -0.078 A 
ATOM      4  C2  OXE d   1      -5.931   3.613   0.317  0.00  0.00    -0.078 A 
ATOM      5  C3  OXE d   1      -5.999   4.919   0.794  0.00  0.00     0.003 A 
ATOM      6  C4  OXE d   1      -5.998   6.000  -0.097  0.00  0.00    -0.002 A 
ATOM      7  C5  OXE d   1      -5.814   5.790  -1.467  0.00  0.00    -0.002 A 
ATOM      8  C6  OXE d   1      -5.626   4.495  -1.939  0.00  0.00     0.003 A 
ENDROOT
TORSDOF 0
ENDMDL
