MODEL 1
REMARK minimizedAffinity 7.4589262
REMARK minimizedRMSD -1
REMARK  0 active torsions:
REMARK  status: ('A' for Active; 'I' for Inactive)
ROOT
ATOM      1  C2' OXE d   1      -1.078  -1.470  -0.185  0.00  0.00     0.078 C 
ATOM      2  C1' OXE d   1      -2.899   0.617  -0.641  0.00  0.00     0.078 C 
ATOM      3  C1  OXE d   1      -2.249   0.535   0.717  0.00  0.00    -0.078 A 
ATOM      4  C2  OXE d   1      -1.394  -0.516   0.947  0.00  0.00    -0.078 A 
ATOM      5  C3  OXE d   1      -0.726  -0.608   2.164  0.00  0.00     0.003 A 
ATOM      6  C4  OXE d   1      -1.032   0.272   3.209  0.00  0.00    -0.002 A 
ATOM      7  C5  OXE d   1      -1.930   1.326   3.009  0.00  0.00    -0.002 A 
ATOM      8  C6  OXE d   1      -2.513   1.497   1.759  0.00  0.00     0.003 A 
ENDROOT
TORSDOF 0
ENDMDL
