MODEL 1
REMARK minimizedAffinity -1.93324697
REMARK minimizedRMSD -1
REMARK  0 active torsions:
REMARK  status: ('A' for Active; 'I' for Inactive)
ROOT
ATOM      1  C2' OXE d   1       2.314   2.635   0.815  0.00  0.00     0.078 C 
ATOM      2  C1' OXE d   1       1.328   0.018   0.568  0.00  0.00     0.078 C 
ATOM      3  C1  OXE d   1       0.817   0.857   1.712  0.00  0.00    -0.078 A 
ATOM      4  C2  OXE d   1       1.340   2.121   1.853  0.00  0.00    -0.078 A 
ATOM      5  C3  OXE d   1       0.863   2.956   2.858  0.00  0.00     0.003 A 
ATOM      6  C4  OXE d   1      -0.031   2.469   3.820  0.00  0.00    -0.002 A 
ATOM      7  C5  OXE d   1      -0.546   1.173   3.719  0.00  0.00    -0.002 A 
ATOM      8  C6  OXE d   1      -0.165   0.370   2.649  0.00  0.00     0.003 A 
ENDROOT
TORSDOF 0
ENDMDL
