MODEL 1
REMARK minimizedAffinity 6.26097012
REMARK minimizedRMSD -1
REMARK  0 active torsions:
REMARK  status: ('A' for Active; 'I' for Inactive)
ROOT
ATOM      1  C2' OXE d   1      -0.851   0.378   2.520  0.00  0.00     0.078 C 
ATOM      2  C1' OXE d   1      -3.151  -1.220   2.718  0.00  0.00     0.078 C 
ATOM      3  C1  OXE d   1      -2.269  -1.403   1.508  0.00  0.00    -0.078 A 
ATOM      4  C2  OXE d   1      -1.172  -0.584   1.396  0.00  0.00    -0.078 A 
ATOM      5  C3  OXE d   1      -0.296  -0.748   0.326  0.00  0.00     0.003 A 
ATOM      6  C4  OXE d   1      -0.605  -1.633  -0.714  0.00  0.00    -0.002 A 
ATOM      7  C5  OXE d   1      -1.739  -2.448  -0.639  0.00  0.00    -0.002 A 
ATOM      8  C6  OXE d   1      -2.557  -2.376   0.483  0.00  0.00     0.003 A 
ENDROOT
TORSDOF 0
ENDMDL
