MODEL 1
REMARK minimizedAffinity 4.67588615
REMARK minimizedRMSD -1
REMARK  0 active torsions:
REMARK  status: ('A' for Active; 'I' for Inactive)
ROOT
ATOM      1  C2' OXE d   1      -2.843  -0.302   3.324  0.00  0.00     0.078 C 
ATOM      2  C1' OXE d   1      -2.391   0.540   0.685  0.00  0.00     0.078 C 
ATOM      3  C1  OXE d   1      -1.187   0.246   1.545  0.00  0.00    -0.078 A 
ATOM      4  C2  OXE d   1      -1.417  -0.120   2.849  0.00  0.00    -0.078 A 
ATOM      5  C3  OXE d   1      -0.344  -0.456   3.670  0.00  0.00     0.003 A 
ATOM      6  C4  OXE d   1       0.971  -0.276   3.227  0.00  0.00    -0.002 A 
ATOM      7  C5  OXE d   1       1.228   0.134   1.914  0.00  0.00    -0.002 A 
ATOM      8  C6  OXE d   1       0.162   0.357   1.049  0.00  0.00     0.003 A 
ENDROOT
TORSDOF 0
ENDMDL
