MODEL 1
REMARK minimizedAffinity 5.34826899
REMARK minimizedRMSD -1
REMARK  0 active torsions:
REMARK  status: ('A' for Active; 'I' for Inactive)
ROOT
ATOM      1  C2' OXE d   1      -1.691  -1.218   1.166  0.00  0.00     0.078 C 
ATOM      2  C1' OXE d   1       1.064  -0.724   1.371  0.00  0.00     0.078 C 
ATOM      3  C1  OXE d   1       0.125   0.235   2.058  0.00  0.00    -0.078 A 
ATOM      4  C2  OXE d   1      -1.224   0.012   1.913  0.00  0.00    -0.078 A 
ATOM      5  C3  OXE d   1      -2.133   0.835   2.572  0.00  0.00     0.003 A 
ATOM      6  C4  OXE d   1      -1.692   1.976   3.253  0.00  0.00    -0.002 A 
ATOM      7  C5  OXE d   1      -0.325   2.244   3.379  0.00  0.00    -0.002 A 
ATOM      8  C6  OXE d   1       0.596   1.362   2.824  0.00  0.00     0.003 A 
ENDROOT
TORSDOF 0
ENDMDL
