MODEL 1
REMARK minimizedAffinity 14.2289133
REMARK minimizedRMSD -1
REMARK  0 active torsions:
REMARK  status: ('A' for Active; 'I' for Inactive)
ROOT
ATOM      1  C2' OXE d   1       0.512  -0.699   2.092  0.00  0.00     0.078 C 
ATOM      2  C1' OXE d   1       2.993  -1.973   2.412  0.00  0.00     0.078 C 
ATOM      3  C1  OXE d   1       2.904  -0.847   1.413  0.00  0.00    -0.078 A 
ATOM      4  C2  OXE d   1       1.675  -0.260   1.229  0.00  0.00    -0.078 A 
ATOM      5  C3  OXE d   1       1.550   0.819   0.359  0.00  0.00     0.003 A 
ATOM      6  C4  OXE d   1       2.628   1.212  -0.443  0.00  0.00    -0.002 A 
ATOM      7  C5  OXE d   1       3.879   0.601  -0.301  0.00  0.00    -0.002 A 
ATOM      8  C6  OXE d   1       4.044  -0.399   0.651  0.00  0.00     0.003 A 
ENDROOT
TORSDOF 0
ENDMDL
