MODEL 1
REMARK minimizedAffinity 5.87461901
REMARK minimizedRMSD -1
REMARK  0 active torsions:
REMARK  status: ('A' for Active; 'I' for Inactive)
ROOT
ATOM      1  C2' OXE d   1       0.052  -2.871  -1.480  0.00  0.00     0.078 C 
ATOM      2  C1' OXE d   1       2.323  -1.541  -0.502  0.00  0.00     0.078 C 
ATOM      3  C1  OXE d   1       0.990  -1.207   0.120  0.00  0.00    -0.078 A 
ATOM      4  C2  OXE d   1      -0.122  -1.829  -0.397  0.00  0.00    -0.078 A 
ATOM      5  C3  OXE d   1      -1.369  -1.598   0.177  0.00  0.00     0.003 A 
ATOM      6  C4  OXE d   1      -1.523  -0.625   1.172  0.00  0.00    -0.002 A 
ATOM      7  C5  OXE d   1      -0.409   0.048   1.685  0.00  0.00    -0.002 A 
ATOM      8  C6  OXE d   1       0.857  -0.261   1.200  0.00  0.00     0.003 A 
ENDROOT
TORSDOF 0
ENDMDL
