MODEL 1
REMARK minimizedAffinity 11.9905863
REMARK minimizedRMSD -1
REMARK  0 active torsions:
REMARK  status: ('A' for Active; 'I' for Inactive)
ROOT
ATOM      1  C2' OXE d   1      -3.870   1.021  -0.096  0.00  0.00     0.078 C 
ATOM      2  C1' OXE d   1      -2.693  -1.510   0.194  0.00  0.00     0.078 C 
ATOM      3  C1  OXE d   1      -2.218  -0.405   1.105  0.00  0.00    -0.078 A 
ATOM      4  C2  OXE d   1      -2.767   0.842   0.924  0.00  0.00    -0.078 A 
ATOM      5  C3  OXE d   1      -2.405   1.884   1.773  0.00  0.00     0.003 A 
ATOM      6  C4  OXE d   1      -1.377   1.712   2.708  0.00  0.00    -0.002 A 
ATOM      7  C5  OXE d   1      -0.777   0.460   2.881  0.00  0.00    -0.002 A 
ATOM      8  C6  OXE d   1      -1.215  -0.617   2.118  0.00  0.00     0.003 A 
ENDROOT
TORSDOF 0
ENDMDL
