MODEL 1
REMARK minimizedAffinity 6.1756525
REMARK minimizedRMSD -1
REMARK  0 active torsions:
REMARK  status: ('A' for Active; 'I' for Inactive)
ROOT
ATOM      1  C2' OXE d   1       1.542  -0.878  -0.264  0.00  0.00     0.078 C 
ATOM      2  C1' OXE d   1       2.571  -0.165   2.248  0.00  0.00     0.078 C 
ATOM      3  C1  OXE d   1       1.073  -0.162   2.075  0.00  0.00    -0.078 A 
ATOM      4  C2  OXE d   1       0.580  -0.467   0.830  0.00  0.00    -0.078 A 
ATOM      5  C3  OXE d   1      -0.796  -0.533   0.630  0.00  0.00     0.003 A 
ATOM      6  C4  OXE d   1      -1.679  -0.141   1.644  0.00  0.00    -0.002 A 
ATOM      7  C5  OXE d   1      -1.196   0.212   2.909  0.00  0.00    -0.002 A 
ATOM      8  C6  OXE d   1       0.172   0.166   3.153  0.00  0.00     0.003 A 
ENDROOT
TORSDOF 0
ENDMDL
