MODEL 1
REMARK minimizedAffinity 0.860813797
REMARK minimizedRMSD -1
REMARK  0 active torsions:
REMARK  status: ('A' for Active; 'I' for Inactive)
ROOT
ATOM      1  C   UNL d   1       2.200  -2.605  -0.296  0.00  0.00     0.078 C 
ATOM      2  C1  UNL d   1       1.432  -1.565   0.465  0.00  0.00    -0.077 A 
ATOM      3  C2  UNL d   1       2.039  -0.367   0.862  0.00  0.00    -0.001 A 
ATOM      4  C3  UNL d   1       1.316   0.587   1.579  0.00  0.00     0.003 A 
ATOM      5  C4  UNL d   1      -0.018   0.353   1.906  0.00  0.00    -0.005 A 
ATOM      6  C5  UNL d   1      -0.630  -0.837   1.517  0.00  0.00     0.003 A 
ATOM      7  C6  UNL d   1       0.092  -1.792   0.800  0.00  0.00    -0.001 A 
ENDROOT
TORSDOF 0
ENDMDL
