MODEL 1
REMARK minimizedAffinity -0.856802583
REMARK minimizedRMSD -1
REMARK  0 active torsions:
REMARK  status: ('A' for Active; 'I' for Inactive)
ROOT
ATOM      1  C   UNL d   1       2.563  -3.270  -0.017  0.00  0.00     0.078 C 
ATOM      2  C1  UNL d   1       1.640  -2.286   0.638  0.00  0.00    -0.077 A 
ATOM      3  C2  UNL d   1       2.106  -1.040   1.074  0.00  0.00    -0.001 A 
ATOM      4  C3  UNL d   1       1.238  -0.138   1.691  0.00  0.00     0.003 A 
ATOM      5  C4  UNL d   1      -0.101  -0.473   1.879  0.00  0.00    -0.005 A 
ATOM      6  C5  UNL d   1      -0.574  -1.712   1.451  0.00  0.00     0.003 A 
ATOM      7  C6  UNL d   1       0.293  -2.615   0.833  0.00  0.00    -0.001 A 
ENDROOT
TORSDOF 0
ENDMDL
