MODEL 1
REMARK minimizedAffinity -0.363121778
REMARK minimizedRMSD -1
REMARK  0 active torsions:
REMARK  status: ('A' for Active; 'I' for Inactive)
ROOT
ATOM      1  C   UNL d   1      -2.528   4.564   5.238  0.00  0.00     0.078 C 
ATOM      2  C1  UNL d   1      -3.729   3.667   5.238  0.00  0.00    -0.077 A 
ATOM      3  C2  UNL d   1      -3.752   2.493   4.474  0.00  0.00    -0.001 A 
ATOM      4  C3  UNL d   1      -4.880   1.672   4.475  0.00  0.00     0.003 A 
ATOM      5  C4  UNL d   1      -5.995   2.016   5.237  0.00  0.00    -0.005 A 
ATOM      6  C5  UNL d   1      -5.983   3.183   5.999  0.00  0.00     0.003 A 
ATOM      7  C6  UNL d   1      -4.855   4.005   5.999  0.00  0.00    -0.001 A 
ENDROOT
TORSDOF 0
ENDMDL
