MODEL 1
REMARK minimizedAffinity 0.468660712
REMARK minimizedRMSD -1
REMARK  0 active torsions:
REMARK  status: ('A' for Active; 'I' for Inactive)
ROOT
ATOM      1  C   UNL d   1      -3.376   4.966  -4.759  0.00  0.00     0.078 C 
ATOM      2  C1  UNL d   1      -1.947   4.842  -5.197  0.00  0.00    -0.077 A 
ATOM      3  C2  UNL d   1      -1.307   3.597  -5.224  0.00  0.00    -0.001 A 
ATOM      4  C3  UNL d   1       0.027   3.498  -5.624  0.00  0.00     0.003 A 
ATOM      5  C4  UNL d   1       0.732   4.640  -6.000  0.00  0.00    -0.005 A 
ATOM      6  C5  UNL d   1       0.103   5.883  -5.974  0.00  0.00     0.003 A 
ATOM      7  C6  UNL d   1      -1.230   5.985  -5.574  0.00  0.00    -0.001 A 
ENDROOT
TORSDOF 0
ENDMDL
