MODEL 1
REMARK minimizedAffinity -0.665550828
REMARK minimizedRMSD -1
REMARK  0 active torsions:
REMARK  status: ('A' for Active; 'I' for Inactive)
ROOT
ATOM      1  C   UNL d   1      -1.037   3.614  -5.246  0.00  0.00     0.078 C 
ATOM      2  C1  UNL d   1      -2.139   3.471  -4.239  0.00  0.00    -0.077 A 
ATOM      3  C2  UNL d   1      -2.170   4.265  -3.086  0.00  0.00    -0.001 A 
ATOM      4  C3  UNL d   1      -3.197   4.115  -2.153  0.00  0.00     0.003 A 
ATOM      5  C4  UNL d   1      -4.200   3.170  -2.362  0.00  0.00    -0.005 A 
ATOM      6  C5  UNL d   1      -4.175   2.373  -3.505  0.00  0.00     0.003 A 
ATOM      7  C6  UNL d   1      -3.149   2.522  -4.440  0.00  0.00    -0.001 A 
ENDROOT
TORSDOF 0
ENDMDL
