MODEL 1
REMARK minimizedAffinity -2.4246664
REMARK minimizedRMSD -1
REMARK  0 active torsions:
REMARK  status: ('A' for Active; 'I' for Inactive)
ROOT
ATOM      1  C   UNL d   1      -4.490   1.500  -4.499  0.00  0.00     0.078 C 
ATOM      2  C1  UNL d   1      -4.071   0.071  -4.672  0.00  0.00    -0.077 A 
ATOM      3  C2  UNL d   1      -3.293  -0.575  -3.703  0.00  0.00    -0.001 A 
ATOM      4  C3  UNL d   1      -2.902  -1.903  -3.882  0.00  0.00     0.003 A 
ATOM      5  C4  UNL d   1      -3.283  -2.596  -5.030  0.00  0.00    -0.005 A 
ATOM      6  C5  UNL d   1      -4.055  -1.961  -6.000  0.00  0.00     0.003 A 
ATOM      7  C6  UNL d   1      -4.447  -0.633  -5.823  0.00  0.00    -0.001 A 
ENDROOT
TORSDOF 0
ENDMDL
