MODEL 1
REMARK minimizedAffinity 1.60058916
REMARK minimizedRMSD -1
REMARK  0 active torsions:
REMARK  status: ('A' for Active; 'I' for Inactive)
ROOT
ATOM      1  C   UNL d   1      -0.411  -1.430   2.199  0.00  0.00     0.078 C 
ATOM      2  C1  UNL d   1       0.595  -2.123   1.330  0.00  0.00    -0.077 A 
ATOM      3  C2  UNL d   1       1.247  -1.440   0.296  0.00  0.00    -0.001 A 
ATOM      4  C3  UNL d   1       2.175  -2.100  -0.512  0.00  0.00     0.003 A 
ATOM      5  C4  UNL d   1       2.458  -3.447  -0.294  0.00  0.00    -0.005 A 
ATOM      6  C5  UNL d   1       1.813  -4.135   0.731  0.00  0.00     0.003 A 
ATOM      7  C6  UNL d   1       0.885  -3.477   1.539  0.00  0.00    -0.001 A 
ENDROOT
TORSDOF 0
ENDMDL
