MODEL 1
REMARK minimizedAffinity 2.5193162
REMARK minimizedRMSD -1
REMARK  0 active torsions:
REMARK  status: ('A' for Active; 'I' for Inactive)
ROOT
ATOM      1  C   UNL d   1       5.999  -5.247   0.370  0.00  0.00     0.078 C 
ATOM      2  C1  UNL d   1       4.547  -4.989   0.643  0.00  0.00    -0.077 A 
ATOM      3  C2  UNL d   1       3.719  -5.998   1.150  0.00  0.00    -0.001 A 
ATOM      4  C3  UNL d   1       2.367  -5.747   1.390  0.00  0.00     0.003 A 
ATOM      5  C4  UNL d   1       1.831  -4.488   1.124  0.00  0.00    -0.005 A 
ATOM      6  C5  UNL d   1       2.648  -3.479   0.617  0.00  0.00     0.003 A 
ATOM      7  C6  UNL d   1       4.000  -3.728   0.377  0.00  0.00    -0.001 A 
ENDROOT
TORSDOF 0
ENDMDL
