MODEL 1
REMARK minimizedAffinity 14.4550858
REMARK minimizedRMSD -1
REMARK  0 active torsions:
REMARK  status: ('A' for Active; 'I' for Inactive)
ROOT
ATOM      1  C   UNL d   1       0.389   2.334  -5.999  0.00  0.00     0.020 A 
ATOM      2  C1  UNL d   1       0.607   3.000  -4.794  0.00  0.00     0.020 A 
ATOM      3  C2  UNL d   1       0.545   2.298  -3.588  0.00  0.00     0.034 A 
ATOM      4  C3  UNL d   1       0.266   0.927  -3.584  0.00  0.00     0.017 A 
ATOM      5  C4  UNL d   1       0.047   0.259  -4.795  0.00  0.00     0.017 A 
ATOM      6  C5  UNL d   1       0.110   0.967  -6.000  0.00  0.00     0.034 A 
ATOM      7 Cl   UNL d   1      -0.303  -1.431  -4.871  0.00  0.00    -0.070 Cl
ATOM      8 Cl1  UNL d   1       0.205   0.123  -2.056  0.00  0.00    -0.070 Cl
ENDROOT
TORSDOF 0
ENDMDL
