MODEL 1
REMARK minimizedAffinity 3.63507748
REMARK minimizedRMSD -1
REMARK  0 active torsions:
REMARK  status: ('A' for Active; 'I' for Inactive)
ROOT
ATOM      1  C   UNL d   1       1.933   0.976  -1.430  0.00  0.00     0.020 A 
ATOM      2  C1  UNL d   1       1.165   0.339  -2.404  0.00  0.00     0.020 A 
ATOM      3  C2  UNL d   1       0.951   0.955  -3.638  0.00  0.00     0.034 A 
ATOM      4  C3  UNL d   1       1.506   2.213  -3.903  0.00  0.00     0.017 A 
ATOM      5  C4  UNL d   1       2.277   2.852  -2.925  0.00  0.00     0.017 A 
ATOM      6  C5  UNL d   1       2.488   2.230  -1.690  0.00  0.00     0.034 A 
ATOM      7 Cl   UNL d   1       2.994   4.404  -3.178  0.00  0.00    -0.070 Cl
ATOM      8 Cl1  UNL d   1       1.200   2.916  -5.451  0.00  0.00    -0.070 Cl
ENDROOT
TORSDOF 0
ENDMDL
