MODEL 1
REMARK minimizedAffinity 11.9026489
REMARK minimizedRMSD -1
REMARK  0 active torsions:
REMARK  status: ('A' for Active; 'I' for Inactive)
ROOT
ATOM      1  C   UNL d   1       0.478  -5.197   1.531  0.00  0.00     0.020 A 
ATOM      2  C1  UNL d   1      -0.822  -5.203   2.035  0.00  0.00     0.020 A 
ATOM      3  C2  UNL d   1      -1.837  -4.523   1.359  0.00  0.00     0.034 A 
ATOM      4  C3  UNL d   1      -1.554  -3.833   0.175  0.00  0.00     0.017 A 
ATOM      5  C4  UNL d   1      -0.249  -3.827  -0.331  0.00  0.00     0.017 A 
ATOM      6  C5  UNL d   1       0.764  -4.510   0.350  0.00  0.00     0.034 A 
ATOM      7 Cl   UNL d   1       0.177  -2.998  -1.786  0.00  0.00    -0.070 Cl
ATOM      8 Cl1  UNL d   1      -2.858  -3.014  -0.609  0.00  0.00    -0.070 Cl
ENDROOT
TORSDOF 0
ENDMDL
