MODEL 1
REMARK minimizedAffinity 4.04906511
REMARK minimizedRMSD -1
REMARK  0 active torsions:
REMARK  status: ('A' for Active; 'I' for Inactive)
ROOT
ATOM      1  C   UNL d   1       0.556  -1.059  -2.436  0.00  0.00     0.020 A 
ATOM      2  C1  UNL d   1       1.534  -0.432  -1.664  0.00  0.00     0.020 A 
ATOM      3  C2  UNL d   1       2.216   0.677  -2.168  0.00  0.00     0.034 A 
ATOM      4  C3  UNL d   1       1.920   1.164  -3.447  0.00  0.00     0.017 A 
ATOM      5  C4  UNL d   1       0.938   0.535  -4.220  0.00  0.00     0.017 A 
ATOM      6  C5  UNL d   1       0.259  -0.576  -3.711  0.00  0.00     0.034 A 
ATOM      7 Cl   UNL d   1       0.519   1.077  -5.807  0.00  0.00    -0.070 Cl
ATOM      8 Cl1  UNL d   1       2.802   2.540  -4.006  0.00  0.00    -0.070 Cl
ENDROOT
TORSDOF 0
ENDMDL
