MODEL 1
REMARK minimizedAffinity 14.9636021
REMARK minimizedRMSD -1
REMARK  0 active torsions:
REMARK  status: ('A' for Active; 'I' for Inactive)
ROOT
ATOM      1  C   UNL d   1      -3.897   2.647   3.214  0.00  0.00     0.020 A 
ATOM      2  C1  UNL d   1      -2.624   2.222   2.837  0.00  0.00     0.020 A 
ATOM      3  C2  UNL d   1      -2.377   0.865   2.618  0.00  0.00     0.034 A 
ATOM      4  C3  UNL d   1      -3.404  -0.072   2.777  0.00  0.00     0.017 A 
ATOM      5  C4  UNL d   1      -4.682   0.355   3.156  0.00  0.00     0.017 A 
ATOM      6  C5  UNL d   1      -4.924   1.715   3.373  0.00  0.00     0.034 A 
ATOM      7 Cl   UNL d   1      -6.000  -0.742   3.371  0.00  0.00    -0.070 Cl
ATOM      8 Cl1  UNL d   1      -3.027  -1.733   2.490  0.00  0.00    -0.070 Cl
ENDROOT
TORSDOF 0
ENDMDL
