MODEL 1
REMARK minimizedAffinity 11.1194134
REMARK minimizedRMSD -1
REMARK  0 active torsions:
REMARK  status: ('A' for Active; 'I' for Inactive)
ROOT
ATOM      1  C   UNL d   1      -3.441   5.946   6.000  0.00  0.00     0.020 A 
ATOM      2  C1  UNL d   1      -2.252   5.263   5.748  0.00  0.00     0.020 A 
ATOM      3  C2  UNL d   1      -2.207   4.284   4.753  0.00  0.00     0.034 A 
ATOM      4  C3  UNL d   1      -3.352   3.985   4.007  0.00  0.00     0.017 A 
ATOM      5  C4  UNL d   1      -4.545   4.672   4.260  0.00  0.00     0.017 A 
ATOM      6  C5  UNL d   1      -4.585   5.651   5.258  0.00  0.00     0.034 A 
ATOM      7 Cl   UNL d   1      -6.000   4.359   3.381  0.00  0.00    -0.070 Cl
ATOM      8 Cl1  UNL d   1      -3.224   2.763   2.792  0.00  0.00    -0.070 Cl
ENDROOT
TORSDOF 0
ENDMDL
