MODEL 1
REMARK minimizedAffinity 10.8659821
REMARK minimizedRMSD -1
REMARK  0 active torsions:
REMARK  status: ('A' for Active; 'I' for Inactive)
ROOT
ATOM      1  C   UNL d   1       1.306   0.547  -3.676  0.00  0.00     0.020 A 
ATOM      2  C1  UNL d   1       2.474   0.887  -2.995  0.00  0.00     0.020 A 
ATOM      3  C2  UNL d   1       2.440   1.105  -1.616  0.00  0.00     0.034 A 
ATOM      4  C3  UNL d   1       1.236   0.982  -0.914  0.00  0.00     0.017 A 
ATOM      5  C4  UNL d   1       0.064   0.641  -1.598  0.00  0.00     0.017 A 
ATOM      6  C5  UNL d   1       0.103   0.424  -2.979  0.00  0.00     0.034 A 
ATOM      7 Cl   UNL d   1      -1.460   0.471  -0.800  0.00  0.00    -0.070 Cl
ATOM      8 Cl1  UNL d   1       1.267   1.266   0.790  0.00  0.00    -0.070 Cl
ENDROOT
TORSDOF 0
ENDMDL
