MODEL 1
REMARK minimizedAffinity 12.0531549
REMARK minimizedRMSD -1
REMARK  0 active torsions:
REMARK  status: ('A' for Active; 'I' for Inactive)
ROOT
ATOM      1  C   UNL d   1      -0.095  -0.602  -2.065  0.00  0.00     0.020 A 
ATOM      2  C1  UNL d   1      -0.494   0.578  -2.691  0.00  0.00     0.020 A 
ATOM      3  C2  UNL d   1       0.425   1.612  -2.883  0.00  0.00     0.034 A 
ATOM      4  C3  UNL d   1       1.748   1.467  -2.449  0.00  0.00     0.017 A 
ATOM      5  C4  UNL d   1       2.147   0.282  -1.821  0.00  0.00     0.017 A 
ATOM      6  C5  UNL d   1       1.222  -0.750  -1.631  0.00  0.00     0.034 A 
ATOM      7 Cl   UNL d   1       3.762   0.029  -1.258  0.00  0.00    -0.070 Cl
ATOM      8 Cl1  UNL d   1       2.832   2.785  -2.719  0.00  0.00    -0.070 Cl
ENDROOT
TORSDOF 0
ENDMDL
