MODEL 1
REMARK minimizedAffinity 11.2101488
REMARK minimizedRMSD -1
REMARK  0 active torsions:
REMARK  status: ('A' for Active; 'I' for Inactive)
ROOT
ATOM      1  C   UNL d   1       1.689  -0.263  -1.356  0.00  0.00     0.020 A 
ATOM      2  C1  UNL d   1       0.982  -0.993  -2.311  0.00  0.00     0.020 A 
ATOM      3  C2  UNL d   1       0.740  -0.444  -3.572  0.00  0.00     0.034 A 
ATOM      4  C3  UNL d   1       1.206   0.839  -3.882  0.00  0.00     0.017 A 
ATOM      5  C4  UNL d   1       1.915   1.571  -2.923  0.00  0.00     0.017 A 
ATOM      6  C5  UNL d   1       2.154   1.017  -1.662  0.00  0.00     0.034 A 
ATOM      7 Cl   UNL d   1       2.521   3.160  -3.232  0.00  0.00    -0.070 Cl
ATOM      8 Cl1  UNL d   1       0.871   1.455  -5.461  0.00  0.00    -0.070 Cl
ENDROOT
TORSDOF 0
ENDMDL
