MODEL 1
REMARK minimizedAffinity 13.7312269
REMARK minimizedRMSD -1
REMARK  0 active torsions:
REMARK  status: ('A' for Active; 'I' for Inactive)
ROOT
ATOM      1  C   UNL d   1       0.361   0.271  -3.630  0.00  0.00     0.020 A 
ATOM      2  C1  UNL d   1       1.410   0.596  -2.770  0.00  0.00     0.020 A 
ATOM      3  C2  UNL d   1       2.064   1.823  -2.899  0.00  0.00     0.034 A 
ATOM      4  C3  UNL d   1       1.670   2.730  -3.890  0.00  0.00     0.017 A 
ATOM      5  C4  UNL d   1       0.618   2.403  -4.753  0.00  0.00     0.017 A 
ATOM      6  C5  UNL d   1      -0.034   1.173  -4.619  0.00  0.00     0.034 A 
ATOM      7 Cl   UNL d   1       0.075   3.470  -6.000  0.00  0.00    -0.070 Cl
ATOM      8 Cl1  UNL d   1       2.523   4.229  -3.993  0.00  0.00    -0.070 Cl
ENDROOT
TORSDOF 0
ENDMDL
