MODEL 1
REMARK minimizedAffinity 12.7716923
REMARK minimizedRMSD -1
REMARK  0 active torsions:
REMARK  status: ('A' for Active; 'I' for Inactive)
ROOT
ATOM      1  C   UNL d   1       1.600  -0.994  -3.058  0.00  0.00     0.020 A 
ATOM      2  C1  UNL d   1       0.854  -2.160  -3.223  0.00  0.00     0.020 A 
ATOM      3  C2  UNL d   1       1.082  -3.258  -2.390  0.00  0.00     0.034 A 
ATOM      4  C3  UNL d   1       2.058  -3.193  -1.389  0.00  0.00     0.017 A 
ATOM      5  C4  UNL d   1       2.806  -2.021  -1.224  0.00  0.00     0.017 A 
ATOM      6  C5  UNL d   1       2.574  -0.925  -2.061  0.00  0.00     0.034 A 
ATOM      7 Cl   UNL d   1       4.028  -1.865  -0.012  0.00  0.00    -0.070 Cl
ATOM      8 Cl1  UNL d   1       2.286  -4.588  -0.396  0.00  0.00    -0.070 Cl
ENDROOT
TORSDOF 0
ENDMDL
