MODEL 1
REMARK minimizedAffinity 6.76301146
REMARK minimizedRMSD -1
REMARK  0 active torsions:
REMARK  status: ('A' for Active; 'I' for Inactive)
ROOT
ATOM      1  C   UNL d   1       1.277   1.230  -5.039  0.00  0.00     0.020 A 
ATOM      2  C1  UNL d   1       2.644   0.967  -4.957  0.00  0.00     0.020 A 
ATOM      3  C2  UNL d   1       3.208   0.575  -3.742  0.00  0.00     0.034 A 
ATOM      4  C3  UNL d   1       2.405   0.444  -2.603  0.00  0.00     0.017 A 
ATOM      5  C4  UNL d   1       1.033   0.708  -2.686  0.00  0.00     0.017 A 
ATOM      6  C5  UNL d   1       0.473   1.100  -3.906  0.00  0.00     0.034 A 
ATOM      7 Cl   UNL d   1      -0.022   0.568  -1.325  0.00  0.00    -0.070 Cl
ATOM      8 Cl1  UNL d   1       3.169  -0.045  -1.132  0.00  0.00    -0.070 Cl
ENDROOT
TORSDOF 0
ENDMDL
