MODEL 1
REMARK minimizedAffinity 1.4010613
REMARK minimizedRMSD -1
REMARK  0 active torsions:
REMARK  status: ('A' for Active; 'I' for Inactive)
ROOT
ATOM      1  C   UNL d   1       2.127   1.740  -4.739  0.00  0.00     0.020 A 
ATOM      2  C1  UNL d   1       2.488   2.808  -3.919  0.00  0.00     0.020 A 
ATOM      3  C2  UNL d   1       2.349   2.702  -2.533  0.00  0.00     0.034 A 
ATOM      4  C3  UNL d   1       1.848   1.526  -1.964  0.00  0.00     0.017 A 
ATOM      5  C4  UNL d   1       1.487   0.454  -2.789  0.00  0.00     0.017 A 
ATOM      6  C5  UNL d   1       1.628   0.566  -4.175  0.00  0.00     0.034 A 
ATOM      7 Cl   UNL d   1       0.862  -1.030  -2.160  0.00  0.00    -0.070 Cl
ATOM      8 Cl1  UNL d   1       1.703   1.464  -0.243  0.00  0.00    -0.070 Cl
ENDROOT
TORSDOF 0
ENDMDL
