MODEL 1
REMARK minimizedAffinity 14.1360788
REMARK minimizedRMSD -1
REMARK  0 active torsions:
REMARK  status: ('A' for Active; 'I' for Inactive)
ROOT
ATOM      1  C   UNL d   1       1.296  -0.788  -2.601  0.00  0.00     0.020 A 
ATOM      2  C1  UNL d   1       2.119  -0.398  -1.546  0.00  0.00     0.020 A 
ATOM      3  C2  UNL d   1       2.838   0.796  -1.625  0.00  0.00     0.034 A 
ATOM      4  C3  UNL d   1       2.735   1.605  -2.763  0.00  0.00     0.017 A 
ATOM      5  C4  UNL d   1       1.908   1.213  -3.822  0.00  0.00     0.017 A 
ATOM      6  C5  UNL d   1       1.191   0.016  -3.737  0.00  0.00     0.034 A 
ATOM      7 Cl   UNL d   1       1.730   2.159  -5.258  0.00  0.00    -0.070 Cl
ATOM      8 Cl1  UNL d   1       3.652   3.069  -2.793  0.00  0.00    -0.070 Cl
ENDROOT
TORSDOF 0
ENDMDL
