MODEL 1
REMARK minimizedAffinity 8.50184631
REMARK minimizedRMSD -1
REMARK  0 active torsions:
REMARK  status: ('A' for Active; 'I' for Inactive)
ROOT
ATOM      1  C   UNL d   1      -0.014   1.238  -6.000  0.00  0.00     0.020 A 
ATOM      2  C1  UNL d   1       0.002   2.577  -5.610  0.00  0.00     0.020 A 
ATOM      3  C2  UNL d   1       0.286   2.915  -4.285  0.00  0.00     0.034 A 
ATOM      4  C3  UNL d   1       0.553   1.913  -3.345  0.00  0.00     0.017 A 
ATOM      5  C4  UNL d   1       0.536   0.569  -3.737  0.00  0.00     0.017 A 
ATOM      6  C5  UNL d   1       0.252   0.237  -5.066  0.00  0.00     0.034 A 
ATOM      7 Cl   UNL d   1       0.856  -0.723  -2.635  0.00  0.00    -0.070 Cl
ATOM      8 Cl1  UNL d   1       0.896   2.403  -1.724  0.00  0.00    -0.070 Cl
ENDROOT
TORSDOF 0
ENDMDL
