MODEL 1
REMARK minimizedAffinity 8.87693405
REMARK minimizedRMSD -1
REMARK  0 active torsions:
REMARK  status: ('A' for Active; 'I' for Inactive)
ROOT
ATOM      1  C   UNL d   1       3.129   0.076  -2.530  0.00  0.00     0.020 A 
ATOM      2  C1  UNL d   1       3.617  -0.162  -1.246  0.00  0.00     0.020 A 
ATOM      3  C2  UNL d   1       3.235  -1.314  -0.556  0.00  0.00     0.034 A 
ATOM      4  C3  UNL d   1       2.362  -2.233  -1.150  0.00  0.00     0.017 A 
ATOM      5  C4  UNL d   1       1.873  -1.994  -2.439  0.00  0.00     0.017 A 
ATOM      6  C5  UNL d   1       2.259  -0.839  -3.126  0.00  0.00     0.034 A 
ATOM      7 Cl   UNL d   1       0.793  -3.082  -3.237  0.00  0.00    -0.070 Cl
ATOM      8 Cl1  UNL d   1       1.932  -3.637  -0.239  0.00  0.00    -0.070 Cl
ENDROOT
TORSDOF 0
ENDMDL
