MODEL 1
REMARK minimizedAffinity 11.8508816
REMARK minimizedRMSD -1
REMARK  0 active torsions:
REMARK  status: ('A' for Active; 'I' for Inactive)
ROOT
ATOM      1  C   UNL d   1      -0.301   0.814  -5.978  0.00  0.00     0.020 A 
ATOM      2  C1  UNL d   1       0.637   1.845  -5.993  0.00  0.00     0.020 A 
ATOM      3  C2  UNL d   1       1.284   2.218  -4.813  0.00  0.00     0.034 A 
ATOM      4  C3  UNL d   1       0.995   1.558  -3.613  0.00  0.00     0.017 A 
ATOM      5  C4  UNL d   1       0.053   0.523  -3.599  0.00  0.00     0.017 A 
ATOM      6  C5  UNL d   1      -0.592   0.154  -4.783  0.00  0.00     0.034 A 
ATOM      7 Cl   UNL d   1      -0.357  -0.337  -2.157  0.00  0.00    -0.070 Cl
ATOM      8 Cl1  UNL d   1       1.833   2.071  -2.192  0.00  0.00    -0.070 Cl
ENDROOT
TORSDOF 0
ENDMDL
