MODEL 1
REMARK minimizedAffinity 9.13234806
REMARK minimizedRMSD -1
REMARK  0 active torsions:
REMARK  status: ('A' for Active; 'I' for Inactive)
ROOT
ATOM      1  C   UNL d   1       1.692   1.715  -0.532  0.00  0.00     0.020 A 
ATOM      2  C1  UNL d   1       1.731   2.571  -1.632  0.00  0.00     0.020 A 
ATOM      3  C2  UNL d   1       0.985   2.273  -2.775  0.00  0.00     0.034 A 
ATOM      4  C3  UNL d   1       0.197   1.118  -2.820  0.00  0.00     0.017 A 
ATOM      5  C4  UNL d   1       0.158   0.260  -1.714  0.00  0.00     0.017 A 
ATOM      6  C5  UNL d   1       0.907   0.563  -0.573  0.00  0.00     0.034 A 
ATOM      7 Cl   UNL d   1      -0.792  -1.184  -1.695  0.00  0.00    -0.070 Cl
ATOM      8 Cl1  UNL d   1      -0.700   0.813  -4.264  0.00  0.00    -0.070 Cl
ENDROOT
TORSDOF 0
ENDMDL
