MODEL 1
REMARK minimizedAffinity 12.2865191
REMARK minimizedRMSD -1
REMARK  0 active torsions:
REMARK  status: ('A' for Active; 'I' for Inactive)
ROOT
ATOM      1  C   UNL d   1      -2.413   5.999   5.187  0.00  0.00     0.020 A 
ATOM      2  C1  UNL d   1      -2.221   5.693   3.840  0.00  0.00     0.020 A 
ATOM      3  C2  UNL d   1      -3.201   4.987   3.139  0.00  0.00     0.034 A 
ATOM      4  C3  UNL d   1      -4.376   4.584   3.784  0.00  0.00     0.017 A 
ATOM      5  C4  UNL d   1      -4.567   4.892   5.136  0.00  0.00     0.017 A 
ATOM      6  C5  UNL d   1      -3.583   5.599   5.833  0.00  0.00     0.034 A 
ATOM      7 Cl   UNL d   1      -5.990   4.428   6.000  0.00  0.00    -0.070 Cl
ATOM      8 Cl1  UNL d   1      -5.544   3.714   2.855  0.00  0.00    -0.070 Cl
ENDROOT
TORSDOF 0
ENDMDL
