MODEL 1
REMARK minimizedAffinity -5.96501446
REMARK minimizedRMSD -1
REMARK  0 active torsions:
REMARK  status: ('A' for Active; 'I' for Inactive)
ROOT
ATOM      1  C   UNL d   1      -3.358  -0.579   0.959  0.00  0.00     0.020 A 
ATOM      2  C1  UNL d   1      -3.170   0.465   0.054  0.00  0.00     0.020 A 
ATOM      3  C2  UNL d   1      -3.049   1.777   0.518  0.00  0.00     0.034 A 
ATOM      4  C3  UNL d   1      -3.117   2.048   1.890  0.00  0.00     0.017 A 
ATOM      5  C4  UNL d   1      -3.306   0.999   2.797  0.00  0.00     0.017 A 
ATOM      6  C5  UNL d   1      -3.426  -0.313   2.327  0.00  0.00     0.034 A 
ATOM      7 Cl   UNL d   1      -3.400   1.255   4.503  0.00  0.00    -0.070 Cl
ATOM      8 Cl1  UNL d   1      -2.960   3.693   2.392  0.00  0.00    -0.070 Cl
ENDROOT
TORSDOF 0
ENDMDL
