MODEL 1
REMARK minimizedAffinity 2.51402664
REMARK minimizedRMSD -1
REMARK  0 active torsions:
REMARK  status: ('A' for Active; 'I' for Inactive)
ROOT
ATOM      1  C1  BNZ d   1      -5.003   5.061  -5.630  0.00  0.00     0.000 A 
ATOM      2  C2  BNZ d   1      -5.999   4.126  -5.540  0.00  0.00     0.000 A 
ATOM      3  C3  BNZ d   1      -6.000   3.199  -4.535  0.00  0.00     0.000 A 
ATOM      4  C4  BNZ d   1      -4.985   3.182  -3.648  0.00  0.00     0.000 A 
ATOM      5  C5  BNZ d   1      -3.968   4.112  -3.731  0.00  0.00     0.000 A 
ATOM      6  C6  BNZ d   1      -3.991   5.069  -4.720  0.00  0.00     0.000 A 
ENDROOT
TORSDOF 0
ENDMDL
