MODEL 1
REMARK minimizedAffinity 2.76077652
REMARK minimizedRMSD -1
REMARK  0 active torsions:
REMARK  status: ('A' for Active; 'I' for Inactive)
ROOT
ATOM      1  C1  BNZ d   1      -0.369   4.982  -0.639  0.00  0.00     0.000 A 
ATOM      2  C2  BNZ d   1      -0.204   3.833   0.088  0.00  0.00     0.000 A 
ATOM      3  C3  BNZ d   1       1.036   3.444   0.511  0.00  0.00     0.000 A 
ATOM      4  C4  BNZ d   1       2.113   4.182   0.172  0.00  0.00     0.000 A 
ATOM      5  C5  BNZ d   1       1.964   5.338  -0.568  0.00  0.00     0.000 A 
ATOM      6  C6  BNZ d   1       0.710   5.747  -0.958  0.00  0.00     0.000 A 
ENDROOT
TORSDOF 0
ENDMDL
