MODEL 1
REMARK minimizedAffinity -0.79781431
REMARK minimizedRMSD -1
REMARK  0 active torsions:
REMARK  status: ('A' for Active; 'I' for Inactive)
ROOT
ATOM      1  C1  BNZ d   1       5.979  -4.064  -2.405  0.00  0.00     0.000 A 
ATOM      2  C2  BNZ d   1       6.000  -4.423  -1.084  0.00  0.00     0.000 A 
ATOM      3  C3  BNZ d   1       5.054  -5.268  -0.573  0.00  0.00     0.000 A 
ATOM      4  C4  BNZ d   1       4.067  -5.719  -1.373  0.00  0.00     0.000 A 
ATOM      5  C5  BNZ d   1       4.027  -5.359  -2.705  0.00  0.00     0.000 A 
ATOM      6  C6  BNZ d   1       5.002  -4.539  -3.225  0.00  0.00     0.000 A 
ENDROOT
TORSDOF 0
ENDMDL
