MODEL 1
REMARK minimizedAffinity 1.90902388
REMARK minimizedRMSD -1
REMARK  0 active torsions:
REMARK  status: ('A' for Active; 'I' for Inactive)
ROOT
ATOM      1  C1  BNZ d   1       0.742   1.004  -0.005  0.00  0.00     0.000 A 
ATOM      2  C2  BNZ d   1       0.658   0.675  -1.332  0.00  0.00     0.000 A 
ATOM      3  C3  BNZ d   1       1.099  -0.539  -1.781  0.00  0.00     0.000 A 
ATOM      4  C4  BNZ d   1       1.659  -1.404  -0.911  0.00  0.00     0.000 A 
ATOM      5  C5  BNZ d   1       1.759  -1.082   0.428  0.00  0.00     0.000 A 
ATOM      6  C6  BNZ d   1       1.278   0.124   0.883  0.00  0.00     0.000 A 
ENDROOT
TORSDOF 0
ENDMDL
