MODEL 1
REMARK minimizedAffinity 5.41859198
REMARK minimizedRMSD -1
REMARK  0 active torsions:
REMARK  status: ('A' for Active; 'I' for Inactive)
ROOT
ATOM      1  C1  BNZ d   1      -5.001   3.121  -4.269  0.00  0.00     0.000 A 
ATOM      2  C2  BNZ d   1      -6.000   3.497  -5.126  0.00  0.00     0.000 A 
ATOM      3  C3  BNZ d   1      -5.999   4.737  -5.701  0.00  0.00     0.000 A 
ATOM      4  C4  BNZ d   1      -5.023   5.613  -5.387  0.00  0.00     0.000 A 
ATOM      5  C5  BNZ d   1      -4.013   5.252  -4.517  0.00  0.00     0.000 A 
ATOM      6  C6  BNZ d   1      -3.996   3.989  -3.970  0.00  0.00     0.000 A 
ENDROOT
TORSDOF 0
ENDMDL
