MODEL 1
REMARK minimizedAffinity 6.44393349
REMARK minimizedRMSD -1
REMARK  0 active torsions:
REMARK  status: ('A' for Active; 'I' for Inactive)
ROOT
ATOM      1  C1  BNZ d   1      -5.009   2.958  -3.750  0.00  0.00     0.000 A 
ATOM      2  C2  BNZ d   1      -6.000   3.000  -4.694  0.00  0.00     0.000 A 
ATOM      3  C3  BNZ d   1      -5.999   3.958  -5.668  0.00  0.00     0.000 A 
ATOM      4  C4  BNZ d   1      -5.032   4.898  -5.674  0.00  0.00     0.000 A 
ATOM      5  C5  BNZ d   1      -4.031   4.875  -4.723  0.00  0.00     0.000 A 
ATOM      6  C6  BNZ d   1      -4.013   3.885  -3.767  0.00  0.00     0.000 A 
ENDROOT
TORSDOF 0
ENDMDL
