MODEL 1
REMARK minimizedAffinity 9.73084068
REMARK minimizedRMSD -1
REMARK  0 active torsions:
REMARK  status: ('A' for Active; 'I' for Inactive)
ROOT
ATOM      1  N1  IND d   1       0.679  -3.550   1.623  0.00  0.00    -0.196 N 
ATOM      2  C2  IND d   1       1.991  -3.566   2.010  0.00  0.00     0.054 A 
ATOM      3  C3  IND d   1       2.209  -2.639   2.970  0.00  0.00    -0.031 A 
ATOM      4  C4  IND d   1       0.539  -1.058   4.127  0.00  0.00     0.051 A 
ATOM      5  C5  IND d   1      -0.765  -0.653   4.087  0.00  0.00    -0.031 A 
ATOM      6  C6  IND d   1      -1.674  -1.205   3.207  0.00  0.00     0.015 A 
ATOM      7  C7  IND d   1      -1.313  -2.197   2.339  0.00  0.00    -0.016 A 
ATOM      8  C8  IND d   1       0.013  -2.606   2.373  0.00  0.00    -0.047 A 
ATOM      9  C9  IND d   1       0.949  -2.019   3.233  0.00  0.00    -0.096 A 
ATOM     10  HN1 IND d   1       0.330  -4.047   1.014  0.00  0.00     0.298 HD
ENDROOT
TORSDOF 0
ENDMDL
