MODEL 1
REMARK minimizedAffinity 13.1250849
REMARK minimizedRMSD -1
REMARK  0 active torsions:
REMARK  status: ('A' for Active; 'I' for Inactive)
ROOT
ATOM      1  N1  IND d   1       5.337   0.213  -2.037  0.00  0.00    -0.196 N 
ATOM      2  C2  IND d   1       5.385   0.119  -3.400  0.00  0.00     0.054 A 
ATOM      3  C3  IND d   1       4.171   0.384  -3.933  0.00  0.00    -0.031 A 
ATOM      4  C4  IND d   1       1.991   1.094  -2.762  0.00  0.00     0.051 A 
ATOM      5  C5  IND d   1       1.445   1.280  -1.523  0.00  0.00    -0.031 A 
ATOM      6  C6  IND d   1       2.184   1.119  -0.368  0.00  0.00     0.015 A 
ATOM      7  C7  IND d   1       3.506   0.776  -0.411  0.00  0.00    -0.016 A 
ATOM      8  C8  IND d   1       4.062   0.579  -1.667  0.00  0.00    -0.047 A 
ATOM      9  C9  IND d   1       3.305   0.699  -2.840  0.00  0.00    -0.096 A 
ATOM     10  HN1 IND d   1       5.993   0.067  -1.501  0.00  0.00     0.298 HD
ENDROOT
TORSDOF 0
ENDMDL
