MODEL 1
REMARK minimizedAffinity 12.3224907
REMARK minimizedRMSD -1
REMARK  0 active torsions:
REMARK  status: ('A' for Active; 'I' for Inactive)
ROOT
ATOM      1  N1  IND d   1      -3.302  -2.624  -1.645  0.00  0.00    -0.196 N 
ATOM      2  C2  IND d   1      -2.687  -1.523  -1.119  0.00  0.00     0.054 A 
ATOM      3  C3  IND d   1      -3.209  -0.394  -1.649  0.00  0.00    -0.031 A 
ATOM      4  C4  IND d   1      -5.148  -0.116  -3.319  0.00  0.00     0.051 A 
ATOM      5  C5  IND d   1      -6.000  -0.835  -4.110  0.00  0.00    -0.031 A 
ATOM      6  C6  IND d   1      -5.998  -2.215  -4.118  0.00  0.00     0.015 A 
ATOM      7  C7  IND d   1      -5.148  -2.930  -3.323  0.00  0.00    -0.016 A 
ATOM      8  C8  IND d   1      -4.277  -2.204  -2.524  0.00  0.00    -0.047 A 
ATOM      9  C9  IND d   1      -4.245  -0.803  -2.543  0.00  0.00    -0.096 A 
ATOM     10  HN1 IND d   1      -3.113  -3.442  -1.459  0.00  0.00     0.298 HD
ENDROOT
TORSDOF 0
ENDMDL
