MODEL 1
REMARK minimizedAffinity 7.29182148
REMARK minimizedRMSD -1
REMARK  0 active torsions:
REMARK  status: ('A' for Active; 'I' for Inactive)
ROOT
ATOM      1  N1  IND d   1      -4.885   4.911  -5.367  0.00  0.00    -0.196 N 
ATOM      2  C2  IND d   1      -5.672   3.805  -5.207  0.00  0.00     0.054 A 
ATOM      3  C3  IND d   1      -4.927   2.680  -5.302  0.00  0.00    -0.031 A 
ATOM      4  C4  IND d   1      -2.385   2.424  -5.615  0.00  0.00     0.051 A 
ATOM      5  C5  IND d   1      -1.249   3.149  -5.846  0.00  0.00    -0.031 A 
ATOM      6  C6  IND d   1      -1.268   4.527  -5.928  0.00  0.00     0.015 A 
ATOM      7  C7  IND d   1      -2.426   5.234  -5.770  0.00  0.00    -0.016 A 
ATOM      8  C8  IND d   1      -3.582   4.501  -5.543  0.00  0.00    -0.047 A 
ATOM      9  C9  IND d   1      -3.576   3.101  -5.501  0.00  0.00    -0.096 A 
ATOM     10  HN1 IND d   1      -5.159   5.726  -5.360  0.00  0.00     0.298 HD
ENDROOT
TORSDOF 0
ENDMDL
