MODEL 1
REMARK minimizedAffinity 11.526288
REMARK minimizedRMSD -1
REMARK  0 active torsions:
REMARK  status: ('A' for Active; 'I' for Inactive)
ROOT
ATOM      1  N1  IND d   1      -3.368   0.710  -4.719  0.00  0.00    -0.196 N 
ATOM      2  C2  IND d   1      -3.544   0.262  -5.999  0.00  0.00     0.054 A 
ATOM      3  C3  IND d   1      -3.936  -1.031  -5.996  0.00  0.00    -0.031 A 
ATOM      4  C4  IND d   1      -4.449  -2.579  -4.004  0.00  0.00     0.051 A 
ATOM      5  C5  IND d   1      -4.399  -2.631  -2.639  0.00  0.00    -0.031 A 
ATOM      6  C6  IND d   1      -3.997  -1.550  -1.883  0.00  0.00     0.015 A 
ATOM      7  C7  IND d   1      -3.639  -0.367  -2.465  0.00  0.00    -0.016 A 
ATOM      8  C8  IND d   1      -3.682  -0.312  -3.851  0.00  0.00    -0.047 A 
ATOM      9  C9  IND d   1      -4.049  -1.420  -4.626  0.00  0.00    -0.096 A 
ATOM     10  HN1 IND d   1      -3.105   1.497  -4.495  0.00  0.00     0.298 HD
ENDROOT
TORSDOF 0
ENDMDL
