MODEL 1
REMARK minimizedAffinity 7.82754421
REMARK minimizedRMSD -1
REMARK  0 active torsions:
REMARK  status: ('A' for Active; 'I' for Inactive)
ROOT
ATOM      1  N1  IND d   1       6.000  -3.886   0.659  0.00  0.00    -0.196 N 
ATOM      2  C2  IND d   1       5.992  -5.077  -0.012  0.00  0.00     0.054 A 
ATOM      3  C3  IND d   1       4.748  -5.606  -0.017  0.00  0.00    -0.031 A 
ATOM      4  C4  IND d   1       2.556  -4.638   0.925  0.00  0.00     0.051 A 
ATOM      5  C5  IND d   1       2.066  -3.593   1.656  0.00  0.00    -0.031 A 
ATOM      6  C6  IND d   1       2.879  -2.569   2.099  0.00  0.00     0.015 A 
ATOM      7  C7  IND d   1       4.216  -2.548   1.816  0.00  0.00    -0.016 A 
ATOM      8  C8  IND d   1       4.717  -3.611   1.080  0.00  0.00    -0.047 A 
ATOM      9  C9  IND d   1       3.905  -4.674   0.664  0.00  0.00    -0.096 A 
ATOM     10  HN1 IND d   1       6.690  -3.391   0.795  0.00  0.00     0.298 HD
ENDROOT
TORSDOF 0
ENDMDL
