MODEL 1
REMARK minimizedAffinity 16.1330299
REMARK minimizedRMSD -1
REMARK  0 active torsions:
REMARK  status: ('A' for Active; 'I' for Inactive)
ROOT
ATOM      1  N1  IND d   1      -2.720  -2.193  -1.864  0.00  0.00    -0.196 N 
ATOM      2  C2  IND d   1      -2.423  -1.134  -1.052  0.00  0.00     0.054 A 
ATOM      3  C3  IND d   1      -3.249  -0.096  -1.314  0.00  0.00    -0.031 A 
ATOM      4  C4  IND d   1      -5.223   0.050  -2.960  0.00  0.00     0.051 A 
ATOM      5  C5  IND d   1      -5.858  -0.653  -3.946  0.00  0.00    -0.031 A 
ATOM      6  C6  IND d   1      -5.473  -1.932  -4.293  0.00  0.00     0.015 A 
ATOM      7  C7  IND d   1      -4.441  -2.563  -3.657  0.00  0.00    -0.016 A 
ATOM      8  C8  IND d   1      -3.790  -1.850  -2.660  0.00  0.00    -0.047 A 
ATOM      9  C9  IND d   1      -4.149  -0.536  -2.332  0.00  0.00    -0.096 A 
ATOM     10  HN1 IND d   1      -2.307  -2.948  -1.875  0.00  0.00     0.298 HD
ENDROOT
TORSDOF 0
ENDMDL
