MODEL 1
REMARK minimizedAffinity 11.6853409
REMARK minimizedRMSD -1
REMARK  0 active torsions:
REMARK  status: ('A' for Active; 'I' for Inactive)
ROOT
ATOM      1  N1  IND d   1       0.592  -2.537   1.192  0.00  0.00    -0.196 N 
ATOM      2  C2  IND d   1       1.486  -2.488   2.225  0.00  0.00     0.054 A 
ATOM      3  C3  IND d   1       2.215  -1.352   2.163  0.00  0.00    -0.031 A 
ATOM      4  C4  IND d   1       2.042   0.615   0.512  0.00  0.00     0.051 A 
ATOM      5  C5  IND d   1       1.399   1.012  -0.627  0.00  0.00    -0.031 A 
ATOM      6  C6  IND d   1       0.433   0.232  -1.229  0.00  0.00     0.015 A 
ATOM      7  C7  IND d   1       0.064  -0.975  -0.705  0.00  0.00    -0.016 A 
ATOM      8  C8  IND d   1       0.720  -1.384   0.448  0.00  0.00    -0.047 A 
ATOM      9  C9  IND d   1       1.731  -0.616   1.039  0.00  0.00    -0.096 A 
ATOM     10  HN1 IND d   1       0.043  -3.179   1.033  0.00  0.00     0.298 HD
ENDROOT
TORSDOF 0
ENDMDL
