MODEL 1
REMARK minimizedAffinity 11.7662363
REMARK minimizedRMSD -1
REMARK  0 active torsions:
REMARK  status: ('A' for Active; 'I' for Inactive)
ROOT
ATOM      1  N1  IND d   1       0.061  -2.080   0.818  0.00  0.00    -0.196 N 
ATOM      2  C2  IND d   1       0.688  -2.079   2.033  0.00  0.00     0.054 A 
ATOM      3  C3  IND d   1       1.618  -1.099   2.082  0.00  0.00    -0.031 A 
ATOM      4  C4  IND d   1       2.208   0.686   0.323  0.00  0.00     0.051 A 
ATOM      5  C5  IND d   1       1.930   1.067  -0.960  0.00  0.00    -0.031 A 
ATOM      6  C6  IND d   1       0.994   0.407  -1.730  0.00  0.00     0.015 A 
ATOM      7  C7  IND d   1       0.290  -0.656  -1.240  0.00  0.00    -0.016 A 
ATOM      8  C8  IND d   1       0.575  -1.051   0.060  0.00  0.00    -0.047 A 
ATOM      9  C9  IND d   1       1.554  -0.412   0.832  0.00  0.00    -0.096 A 
ATOM     10  HN1 IND d   1      -0.551  -2.630   0.570  0.00  0.00     0.298 HD
ENDROOT
TORSDOF 0
ENDMDL
