MODEL 1
REMARK minimizedAffinity 18.6147404
REMARK minimizedRMSD -1
REMARK  0 active torsions:
REMARK  status: ('A' for Active; 'I' for Inactive)
ROOT
ATOM      1  N1  IND d   1       0.771   0.652  -2.001  0.00  0.00    -0.196 N 
ATOM      2  C2  IND d   1       1.979   1.084  -1.528  0.00  0.00     0.054 A 
ATOM      3  C3  IND d   1       2.244   0.518  -0.330  0.00  0.00    -0.031 A 
ATOM      4  C4  IND d   1       0.886  -1.223   0.994  0.00  0.00     0.051 A 
ATOM      5  C5  IND d   1      -0.304  -1.895   0.984  0.00  0.00    -0.031 A 
ATOM      6  C6  IND d   1      -1.213  -1.752  -0.044  0.00  0.00     0.015 A 
ATOM      7  C7  IND d   1      -0.961  -0.936  -1.110  0.00  0.00    -0.016 A 
ATOM      8  C8  IND d   1       0.243  -0.246  -1.100  0.00  0.00    -0.047 A 
ATOM      9  C9  IND d   1       1.152  -0.355  -0.039  0.00  0.00    -0.096 A 
ATOM     10  HN1 IND d   1       0.403   0.900  -2.738  0.00  0.00     0.298 HD
ENDROOT
TORSDOF 0
ENDMDL
