MODEL 1
REMARK minimizedAffinity 1.00810111
REMARK minimizedRMSD -1
REMARK  0 active torsions:
REMARK  status: ('A' for Active; 'I' for Inactive)
ROOT
ATOM      1  C   UNL d   1       4.851  -5.448   2.067  0.00  0.00     0.078 C 
ATOM      2  C1  UNL d   1       3.362  -5.444   2.244  0.00  0.00    -0.077 A 
ATOM      3  C2  UNL d   1       2.523  -4.878   1.276  0.00  0.00    -0.001 A 
ATOM      4  C3  UNL d   1       1.139  -4.872   1.458  0.00  0.00     0.003 A 
ATOM      5  C4  UNL d   1       0.582  -5.430   2.607  0.00  0.00    -0.005 A 
ATOM      6  C5  UNL d   1       1.409  -5.993   3.577  0.00  0.00     0.003 A 
ATOM      7  C6  UNL d   1       2.793  -5.999   3.397  0.00  0.00    -0.001 A 
ENDROOT
TORSDOF 0
ENDMDL
