MODEL 1
REMARK minimizedAffinity -1.11908996
REMARK minimizedRMSD -1
REMARK  0 active torsions:
REMARK  status: ('A' for Active; 'I' for Inactive)
ROOT
ATOM      1  C   UNL d   1       5.015  -5.998   3.154  0.00  0.00     0.078 C 
ATOM      2  C1  UNL d   1       3.643  -5.630   2.674  0.00  0.00    -0.077 A 
ATOM      3  C2  UNL d   1       3.463  -4.907   1.489  0.00  0.00    -0.001 A 
ATOM      4  C3  UNL d   1       2.181  -4.563   1.059  0.00  0.00     0.003 A 
ATOM      5  C4  UNL d   1       1.068  -4.936   1.810  0.00  0.00    -0.005 A 
ATOM      6  C5  UNL d   1       1.237  -5.654   2.993  0.00  0.00     0.003 A 
ATOM      7  C6  UNL d   1       2.519  -5.999   3.424  0.00  0.00    -0.001 A 
ENDROOT
TORSDOF 0
ENDMDL
