MODEL 1
REMARK minimizedAffinity -2.04917288
REMARK minimizedRMSD -1
REMARK  0 active torsions:
REMARK  status: ('A' for Active; 'I' for Inactive)
ROOT
ATOM      1  C   UNL d   1       5.961  -2.246   5.922  0.00  0.00     0.078 C 
ATOM      2  C1  UNL d   1       5.967  -3.556   5.192  0.00  0.00    -0.077 A 
ATOM      3  C2  UNL d   1       5.982  -4.770   5.888  0.00  0.00    -0.001 A 
ATOM      4  C3  UNL d   1       5.997  -5.982   5.195  0.00  0.00     0.003 A 
ATOM      5  C4  UNL d   1       5.998  -5.990   3.802  0.00  0.00    -0.005 A 
ATOM      6  C5  UNL d   1       5.985  -4.787   3.100  0.00  0.00     0.003 A 
ATOM      7  C6  UNL d   1       5.970  -3.575   3.791  0.00  0.00    -0.001 A 
ENDROOT
TORSDOF 0
ENDMDL
