MODEL 1
REMARK minimizedAffinity 12.1125622
REMARK minimizedRMSD -1
REMARK  0 active torsions:
REMARK  status: ('A' for Active; 'I' for Inactive)
ROOT
ATOM      1  C   UNL d   1       2.009   1.114  -2.595  0.00  0.00     0.078 C 
ATOM      2  C1  UNL d   1       2.796   0.648  -3.783  0.00  0.00    -0.077 A 
ATOM      3  C2  UNL d   1       2.981  -0.717  -4.035  0.00  0.00    -0.001 A 
ATOM      4  C3  UNL d   1       3.724  -1.137  -5.139  0.00  0.00     0.003 A 
ATOM      5  C4  UNL d   1       4.289  -0.199  -6.000  0.00  0.00    -0.005 A 
ATOM      6  C5  UNL d   1       4.113   1.162  -5.757  0.00  0.00     0.003 A 
ATOM      7  C6  UNL d   1       3.370   1.584  -4.653  0.00  0.00    -0.001 A 
ENDROOT
TORSDOF 0
ENDMDL
