MODEL 1
REMARK minimizedAffinity -3.16604757
REMARK minimizedRMSD -1
REMARK  0 active torsions:
REMARK  status: ('A' for Active; 'I' for Inactive)
ROOT
ATOM      1  C   UNL d   1       2.067  -5.998   1.909  0.00  0.00     0.078 C 
ATOM      2  C1  UNL d   1       3.435  -5.489   2.253  0.00  0.00    -0.077 A 
ATOM      3  C2  UNL d   1       4.136  -5.993   3.356  0.00  0.00    -0.001 A 
ATOM      4  C3  UNL d   1       5.404  -5.502   3.670  0.00  0.00     0.003 A 
ATOM      5  C4  UNL d   1       5.982  -4.504   2.888  0.00  0.00    -0.005 A 
ATOM      6  C5  UNL d   1       5.291  -3.995   1.790  0.00  0.00     0.003 A 
ATOM      7  C6  UNL d   1       4.023  -4.484   1.474  0.00  0.00    -0.001 A 
ENDROOT
TORSDOF 0
ENDMDL
