MODEL 1
REMARK minimizedAffinity 0.691899896
REMARK minimizedRMSD -1
REMARK  0 active torsions:
REMARK  status: ('A' for Active; 'I' for Inactive)
ROOT
ATOM      1  C   UNL d   1      -4.894  -2.205   1.736  0.00  0.00     0.078 C 
ATOM      2  C1  UNL d   1      -4.668  -2.264   3.217  0.00  0.00    -0.077 A 
ATOM      3  C2  UNL d   1      -4.481  -1.096   3.965  0.00  0.00    -0.001 A 
ATOM      4  C3  UNL d   1      -4.262  -1.167   5.342  0.00  0.00     0.003 A 
ATOM      5  C4  UNL d   1      -4.227  -2.404   5.982  0.00  0.00    -0.005 A 
ATOM      6  C5  UNL d   1      -4.410  -3.572   5.245  0.00  0.00     0.003 A 
ATOM      7  C6  UNL d   1      -4.629  -3.503   3.869  0.00  0.00    -0.001 A 
ENDROOT
TORSDOF 0
ENDMDL
