MODEL 1
REMARK minimizedAffinity -0.617066383
REMARK minimizedRMSD -1
REMARK  0 active torsions:
REMARK  status: ('A' for Active; 'I' for Inactive)
ROOT
ATOM      1  C   UNL d   1      -6.000   6.000   5.262  0.00  0.00     0.078 C 
ATOM      2  C1  UNL d   1      -5.073   5.372   4.265  0.00  0.00    -0.077 A 
ATOM      3  C2  UNL d   1      -3.687   5.548   4.358  0.00  0.00    -0.001 A 
ATOM      4  C3  UNL d   1      -2.836   4.965   3.417  0.00  0.00     0.003 A 
ATOM      5  C4  UNL d   1      -3.362   4.204   2.375  0.00  0.00    -0.005 A 
ATOM      6  C5  UNL d   1      -4.740   4.025   2.273  0.00  0.00     0.003 A 
ATOM      7  C6  UNL d   1      -5.592   4.607   3.213  0.00  0.00    -0.001 A 
ENDROOT
TORSDOF 0
ENDMDL
