MODEL 1
REMARK minimizedAffinity -2.28660035
REMARK minimizedRMSD -1
REMARK  0 active torsions:
REMARK  status: ('A' for Active; 'I' for Inactive)
ROOT
ATOM      1  C   UNL d   1       2.255  -5.436   1.899  0.00  0.00     0.078 C 
ATOM      2  C1  UNL d   1       0.755  -5.439   1.894  0.00  0.00    -0.077 A 
ATOM      3  C2  UNL d   1       0.037  -4.875   0.832  0.00  0.00    -0.001 A 
ATOM      4  C3  UNL d   1      -1.359  -4.877   0.845  0.00  0.00     0.003 A 
ATOM      5  C4  UNL d   1      -2.048  -5.439   1.918  0.00  0.00    -0.005 A 
ATOM      6  C5  UNL d   1      -1.342  -5.999   2.980  0.00  0.00     0.003 A 
ATOM      7  C6  UNL d   1       0.054  -5.999   2.969  0.00  0.00    -0.001 A 
ENDROOT
TORSDOF 0
ENDMDL
