MODEL 1
REMARK minimizedAffinity -1.44393075
REMARK minimizedRMSD -1
REMARK  0 active torsions:
REMARK  status: ('A' for Active; 'I' for Inactive)
ROOT
ATOM      1  C   UNL d   1      -2.301  -5.999   2.199  0.00  0.00     0.078 C 
ATOM      2  C1  UNL d   1      -3.585  -5.360   1.759  0.00  0.00    -0.077 A 
ATOM      3  C2  UNL d   1      -4.814  -6.000   1.957  0.00  0.00    -0.001 A 
ATOM      4  C3  UNL d   1      -6.000  -5.397   1.533  0.00  0.00     0.003 A 
ATOM      5  C4  UNL d   1      -5.968  -4.153   0.908  0.00  0.00    -0.005 A 
ATOM      6  C5  UNL d   1      -4.749  -3.509   0.704  0.00  0.00     0.003 A 
ATOM      7  C6  UNL d   1      -3.562  -4.110   1.127  0.00  0.00    -0.001 A 
ENDROOT
TORSDOF 0
ENDMDL
