MODEL 1
REMARK minimizedAffinity 6.96459103
REMARK minimizedRMSD -1
REMARK  0 active torsions:
REMARK  status: ('A' for Active; 'I' for Inactive)
ROOT
ATOM      1  C   UNL d   1       0.826   2.735   3.246  0.00  0.00     0.078 C 
ATOM      2  C1  UNL d   1      -0.344   2.135   2.525  0.00  0.00    -0.077 A 
ATOM      3  C2  UNL d   1      -0.156   1.278   1.434  0.00  0.00    -0.001 A 
ATOM      4  C3  UNL d   1      -1.254   0.734   0.766  0.00  0.00     0.003 A 
ATOM      5  C4  UNL d   1      -2.548   1.041   1.182  0.00  0.00    -0.005 A 
ATOM      6  C5  UNL d   1      -2.745   1.895   2.266  0.00  0.00     0.003 A 
ATOM      7  C6  UNL d   1      -1.648   2.440   2.934  0.00  0.00    -0.001 A 
ENDROOT
TORSDOF 0
ENDMDL
