MODEL 1
REMARK minimizedAffinity 2.94174027
REMARK minimizedRMSD -1
REMARK  0 active torsions:
REMARK  status: ('A' for Active; 'I' for Inactive)
ROOT
ATOM      1  C   UNL d   1       0.434  -5.998   1.547  0.00  0.00     0.078 C 
ATOM      2  C1  UNL d   1      -0.706  -5.126   1.112  0.00  0.00    -0.077 A 
ATOM      3  C2  UNL d   1      -0.550  -3.740   0.996  0.00  0.00    -0.001 A 
ATOM      4  C3  UNL d   1      -1.622  -2.940   0.598  0.00  0.00     0.003 A 
ATOM      5  C4  UNL d   1      -2.859  -3.517   0.315  0.00  0.00    -0.005 A 
ATOM      6  C5  UNL d   1      -3.024  -4.896   0.430  0.00  0.00     0.003 A 
ATOM      7  C6  UNL d   1      -1.952  -5.697   0.827  0.00  0.00    -0.001 A 
ENDROOT
TORSDOF 0
ENDMDL
