MODEL 1
REMARK minimizedAffinity 2.04266572
REMARK minimizedRMSD -1
REMARK  0 active torsions:
REMARK  status: ('A' for Active; 'I' for Inactive)
ROOT
ATOM      1  C   UNL d   1      -5.989   1.902   2.153  0.00  0.00     0.078 C 
ATOM      2  C1  UNL d   1      -5.985   1.204   3.480  0.00  0.00    -0.077 A 
ATOM      3  C2  UNL d   1      -5.987  -0.193   3.561  0.00  0.00    -0.001 A 
ATOM      4  C3  UNL d   1      -5.994  -0.829   4.804  0.00  0.00     0.003 A 
ATOM      5  C4  UNL d   1      -5.999  -0.075   5.975  0.00  0.00    -0.005 A 
ATOM      6  C5  UNL d   1      -5.999   1.317   5.905  0.00  0.00     0.003 A 
ATOM      7  C6  UNL d   1      -5.992   1.954   4.663  0.00  0.00    -0.001 A 
ENDROOT
TORSDOF 0
ENDMDL
