MODEL 1
REMARK minimizedAffinity 4.07335567
REMARK minimizedRMSD -1
REMARK  0 active torsions:
REMARK  status: ('A' for Active; 'I' for Inactive)
ROOT
ATOM      1  C   UNL d   1      -5.984  -0.793   2.165  0.00  0.00     0.078 C 
ATOM      2  C1  UNL d   1      -5.994  -0.086   3.488  0.00  0.00    -0.077 A 
ATOM      3  C2  UNL d   1      -5.998   1.312   3.558  0.00  0.00    -0.001 A 
ATOM      4  C3  UNL d   1      -5.998   1.957   4.796  0.00  0.00     0.003 A 
ATOM      5  C4  UNL d   1      -5.991   1.211   5.973  0.00  0.00    -0.005 A 
ATOM      6  C5  UNL d   1      -5.984  -0.181   5.913  0.00  0.00     0.003 A 
ATOM      7  C6  UNL d   1      -5.985  -0.827   4.676  0.00  0.00    -0.001 A 
ENDROOT
TORSDOF 0
ENDMDL
