MODEL 1
REMARK minimizedAffinity 1.01217735
REMARK minimizedRMSD -1
REMARK  0 active torsions:
REMARK  status: ('A' for Active; 'I' for Inactive)
ROOT
ATOM      1  C   UNL d   1      -2.987   0.516   0.560  0.00  0.00     0.078 C 
ATOM      2  C1  UNL d   1      -1.587   0.375   1.078  0.00  0.00    -0.077 A 
ATOM      3  C2  UNL d   1      -0.609   1.331   0.780  0.00  0.00    -0.001 A 
ATOM      4  C3  UNL d   1       0.693   1.182   1.261  0.00  0.00     0.003 A 
ATOM      5  C4  UNL d   1       1.029   0.077   2.041  0.00  0.00    -0.005 A 
ATOM      6  C5  UNL d   1       0.063  -0.881   2.340  0.00  0.00     0.003 A 
ATOM      7  C6  UNL d   1      -1.240  -0.734   1.860  0.00  0.00    -0.001 A 
ENDROOT
TORSDOF 0
ENDMDL
