MODEL 1
REMARK minimizedAffinity 4.76929903
REMARK minimizedRMSD -1
REMARK  0 active torsions:
REMARK  status: ('A' for Active; 'I' for Inactive)
ROOT
ATOM      1  C   UNL d   1       3.365   1.648   0.607  0.00  0.00     0.078 C 
ATOM      2  C1  UNL d   1       4.067   2.903   0.181  0.00  0.00    -0.077 A 
ATOM      3  C2  UNL d   1       3.464   4.156   0.341  0.00  0.00    -0.001 A 
ATOM      4  C3  UNL d   1       4.126   5.315  -0.070  0.00  0.00     0.003 A 
ATOM      5  C4  UNL d   1       5.393   5.231  -0.643  0.00  0.00    -0.005 A 
ATOM      6  C5  UNL d   1       5.999   3.988  -0.809  0.00  0.00     0.003 A 
ATOM      7  C6  UNL d   1       5.340   2.828  -0.399  0.00  0.00    -0.001 A 
ENDROOT
TORSDOF 0
ENDMDL
