MODEL 1
REMARK minimizedAffinity 5.90997171
REMARK minimizedRMSD -1
REMARK  0 active torsions:
REMARK  status: ('A' for Active; 'I' for Inactive)
ROOT
ATOM      1  C2' OXE d   1      -3.066   2.320  -2.941  0.00  0.00     0.078 C 
ATOM      2  C1' OXE d   1      -2.297   1.097  -0.534  0.00  0.00     0.078 C 
ATOM      3  C1  OXE d   1      -2.357   0.238  -1.772  0.00  0.00    -0.078 A 
ATOM      4  C2  OXE d   1      -2.780   0.834  -2.936  0.00  0.00    -0.078 A 
ATOM      5  C3  OXE d   1      -2.801   0.100  -4.118  0.00  0.00     0.003 A 
ATOM      6  C4  OXE d   1      -2.545  -1.276  -4.103  0.00  0.00    -0.002 A 
ATOM      7  C5  OXE d   1      -2.151  -1.912  -2.920  0.00  0.00    -0.002 A 
ATOM      8  C6  OXE d   1      -2.012  -1.162  -1.758  0.00  0.00     0.003 A 
ENDROOT
TORSDOF 0
ENDMDL
