MODEL 1
REMARK minimizedAffinity 5.60384178
REMARK minimizedRMSD -1
REMARK  0 active torsions:
REMARK  status: ('A' for Active; 'I' for Inactive)
ROOT
ATOM      1  C2' OXE d   1      -2.277  -1.244  -3.391  0.00  0.00     0.078 C 
ATOM      2  C1' OXE d   1      -2.369   0.275  -1.031  0.00  0.00     0.078 C 
ATOM      3  C1  OXE d   1      -2.730   0.962  -2.324  0.00  0.00    -0.078 A 
ATOM      4  C2  OXE d   1      -2.637   0.224  -3.480  0.00  0.00    -0.078 A 
ATOM      5  C3  OXE d   1      -3.012   0.793  -4.694  0.00  0.00     0.003 A 
ATOM      6  C4  OXE d   1      -3.334   2.154  -4.769  0.00  0.00    -0.002 A 
ATOM      7  C5  OXE d   1      -3.396   2.934  -3.609  0.00  0.00    -0.002 A 
ATOM      8  C6  OXE d   1      -3.139   2.344  -2.376  0.00  0.00     0.003 A 
ENDROOT
TORSDOF 0
ENDMDL
