MODEL 1
REMARK minimizedAffinity 23.4616776
REMARK minimizedRMSD -1
REMARK  0 active torsions:
REMARK  status: ('A' for Active; 'I' for Inactive)
ROOT
ATOM      1  C2' OXE d   1      -4.879   4.184  -2.660  0.00  0.00     0.078 C 
ATOM      2  C1' OXE d   1      -3.108   3.892  -4.818  0.00  0.00     0.078 C 
ATOM      3  C1  OXE d   1      -3.207   2.757  -3.831  0.00  0.00    -0.078 A 
ATOM      4  C2  OXE d   1      -4.041   2.927  -2.752  0.00  0.00    -0.078 A 
ATOM      5  C3  OXE d   1      -4.211   1.889  -1.841  0.00  0.00     0.003 A 
ATOM      6  C4  OXE d   1      -3.425   0.734  -1.928  0.00  0.00    -0.002 A 
ATOM      7  C5  OXE d   1      -2.540   0.556  -2.997  0.00  0.00    -0.002 A 
ATOM      8  C6  OXE d   1      -2.450   1.538  -3.978  0.00  0.00     0.003 A 
ENDROOT
TORSDOF 0
ENDMDL
