MODEL 1
REMARK minimizedAffinity 11.5381603
REMARK minimizedRMSD -1
REMARK  0 active torsions:
REMARK  status: ('A' for Active; 'I' for Inactive)
ROOT
ATOM      1  C2' OXE d   1      -1.258  -1.361   0.931  0.00  0.00     0.078 C 
ATOM      2  C1' OXE d   1      -1.600   1.421   1.086  0.00  0.00     0.078 C 
ATOM      3  C1  OXE d   1      -1.888   0.749  -0.233  0.00  0.00    -0.078 A 
ATOM      4  C2  OXE d   1      -1.673  -0.606  -0.313  0.00  0.00    -0.078 A 
ATOM      5  C3  OXE d   1      -1.975  -1.284  -1.490  0.00  0.00     0.003 A 
ATOM      6  C4  OXE d   1      -2.349  -0.576  -2.640  0.00  0.00    -0.002 A 
ATOM      7  C5  OXE d   1      -2.535   0.809  -2.591  0.00  0.00    -0.002 A 
ATOM      8  C6  OXE d   1      -2.350   1.480  -1.387  0.00  0.00     0.003 A 
ENDROOT
TORSDOF 0
ENDMDL
