MODEL 1
REMARK minimizedAffinity 4.45012236
REMARK minimizedRMSD -1
REMARK  0 active torsions:
REMARK  status: ('A' for Active; 'I' for Inactive)
ROOT
ATOM      1  C2' OXE d   1      -2.244  -2.456  -2.173  0.00  0.00     0.078 C 
ATOM      2  C1' OXE d   1      -2.272  -0.741   0.049  0.00  0.00     0.078 C 
ATOM      3  C1  OXE d   1      -2.543  -0.140  -1.307  0.00  0.00    -0.078 A 
ATOM      4  C2  OXE d   1      -2.481  -0.978  -2.394  0.00  0.00    -0.078 A 
ATOM      5  C3  OXE d   1      -2.777  -0.486  -3.662  0.00  0.00     0.003 A 
ATOM      6  C4  OXE d   1      -2.986   0.885  -3.860  0.00  0.00    -0.002 A 
ATOM      7  C5  OXE d   1      -3.014   1.763  -2.771  0.00  0.00    -0.002 A 
ATOM      8  C6  OXE d   1      -2.837   1.261  -1.486  0.00  0.00     0.003 A 
ENDROOT
TORSDOF 0
ENDMDL
