MODEL 1
REMARK minimizedAffinity 10.2732344
REMARK minimizedRMSD -1
REMARK  0 active torsions:
REMARK  status: ('A' for Active; 'I' for Inactive)
ROOT
ATOM      1  C2' OXE d   1      -2.124   0.554  -3.764  0.00  0.00     0.078 C 
ATOM      2  C1' OXE d   1      -2.769  -2.108  -3.149  0.00  0.00     0.078 C 
ATOM      3  C1  OXE d   1      -2.493  -1.168  -2.002  0.00  0.00    -0.078 A 
ATOM      4  C2  OXE d   1      -2.132   0.121  -2.314  0.00  0.00    -0.078 A 
ATOM      5  C3  OXE d   1      -1.920   1.043  -1.293  0.00  0.00     0.003 A 
ATOM      6  C4  OXE d   1      -1.920   0.632   0.045  0.00  0.00    -0.002 A 
ATOM      7  C5  OXE d   1      -2.245  -0.686   0.383  0.00  0.00    -0.002 A 
ATOM      8  C6  OXE d   1      -2.575  -1.586  -0.624  0.00  0.00     0.003 A 
ENDROOT
TORSDOF 0
ENDMDL
