MODEL 1
REMARK minimizedAffinity 15.836235
REMARK minimizedRMSD -1
REMARK  0 active torsions:
REMARK  status: ('A' for Active; 'I' for Inactive)
ROOT
ATOM      1  C2' OXE d   1       3.957  -1.055  -3.337  0.00  0.00     0.078 C 
ATOM      2  C1' OXE d   1       4.774  -1.409  -5.999  0.00  0.00     0.078 C 
ATOM      3  C1  OXE d   1       4.073  -2.559  -5.319  0.00  0.00    -0.078 A 
ATOM      4  C2  OXE d   1       3.719  -2.394  -4.002  0.00  0.00    -0.078 A 
ATOM      5  C3  OXE d   1       3.021  -3.403  -3.344  0.00  0.00     0.003 A 
ATOM      6  C4  OXE d   1       2.814  -4.641  -3.964  0.00  0.00    -0.002 A 
ATOM      7  C5  OXE d   1       3.203  -4.844  -5.292  0.00  0.00    -0.002 A 
ATOM      8  C6  OXE d   1       3.794  -3.801  -5.996  0.00  0.00     0.003 A 
ENDROOT
TORSDOF 0
ENDMDL
