MODEL 1
REMARK minimizedAffinity 15.8427038
REMARK minimizedRMSD -1
REMARK  0 active torsions:
REMARK  status: ('A' for Active; 'I' for Inactive)
ROOT
ATOM      1  C2' OXE d   1      -1.188   3.097   1.343  0.00  0.00     0.078 C 
ATOM      2  C1' OXE d   1      -1.271   5.903   1.369  0.00  0.00     0.078 C 
ATOM      3  C1  OXE d   1      -0.060   5.241   0.761  0.00  0.00    -0.078 A 
ATOM      4  C2  OXE d   1      -0.006   3.868   0.795  0.00  0.00    -0.078 A 
ATOM      5  C3  OXE d   1       1.063   3.206   0.199  0.00  0.00     0.003 A 
ATOM      6  C4  OXE d   1       2.156   3.926  -0.297  0.00  0.00    -0.002 A 
ATOM      7  C5  OXE d   1       2.139   5.325  -0.305  0.00  0.00    -0.002 A 
ATOM      8  C6  OXE d   1       1.022   5.996   0.180  0.00  0.00     0.003 A 
ENDROOT
TORSDOF 0
ENDMDL
