MODEL 1
REMARK minimizedAffinity 6.64350939
REMARK minimizedRMSD -1
REMARK  0 active torsions:
REMARK  status: ('A' for Active; 'I' for Inactive)
ROOT
ATOM      1  C2' OXE d   1      -3.356   2.629  -1.887  0.00  0.00     0.078 C 
ATOM      2  C1' OXE d   1      -2.320   0.926   0.091  0.00  0.00     0.078 C 
ATOM      3  C1  OXE d   1      -2.345   0.421  -1.330  0.00  0.00    -0.078 A 
ATOM      4  C2  OXE d   1      -2.896   1.243  -2.284  0.00  0.00    -0.078 A 
ATOM      5  C3  OXE d   1      -2.894   0.848  -3.619  0.00  0.00     0.003 A 
ATOM      6  C4  OXE d   1      -2.475  -0.440  -3.976  0.00  0.00    -0.002 A 
ATOM      7  C5  OXE d   1      -1.947  -1.307  -3.014  0.00  0.00    -0.002 A 
ATOM      8  C6  OXE d   1      -1.835  -0.877  -1.697  0.00  0.00     0.003 A 
ENDROOT
TORSDOF 0
ENDMDL
