MODEL 1
REMARK minimizedAffinity 5.99936438
REMARK minimizedRMSD -1
REMARK  0 active torsions:
REMARK  status: ('A' for Active; 'I' for Inactive)
ROOT
ATOM      1  C2' OXE d   1      -3.108   2.005  -2.296  0.00  0.00     0.078 C 
ATOM      2  C1' OXE d   1      -1.708   0.369  -0.495  0.00  0.00     0.078 C 
ATOM      3  C1  OXE d   1      -1.666   0.002  -1.957  0.00  0.00    -0.078 A 
ATOM      4  C2  OXE d   1      -2.393   0.781  -2.826  0.00  0.00    -0.078 A 
ATOM      5  C3  OXE d   1      -2.345   0.519  -4.192  0.00  0.00     0.003 A 
ATOM      6  C4  OXE d   1      -1.689  -0.621  -4.672  0.00  0.00    -0.002 A 
ATOM      7  C5  OXE d   1      -0.976  -1.450  -3.800  0.00  0.00    -0.002 A 
ATOM      8  C6  OXE d   1      -0.919  -1.130  -2.448  0.00  0.00     0.003 A 
ENDROOT
TORSDOF 0
ENDMDL
