MODEL 1
REMARK minimizedAffinity 14.9733448
REMARK minimizedRMSD -1
REMARK  0 active torsions:
REMARK  status: ('A' for Active; 'I' for Inactive)
ROOT
ATOM      1  C2' OXE d   1      -2.726   2.798  -3.537  0.00  0.00     0.078 C 
ATOM      2  C1' OXE d   1      -2.258   1.991  -0.889  0.00  0.00     0.078 C 
ATOM      3  C1  OXE d   1      -2.197   0.938  -1.967  0.00  0.00    -0.078 A 
ATOM      4  C2  OXE d   1      -2.473   1.333  -3.254  0.00  0.00    -0.078 A 
ATOM      5  C3  OXE d   1      -2.377   0.413  -4.293  0.00  0.00     0.003 A 
ATOM      6  C4  OXE d   1      -2.153  -0.942  -4.022  0.00  0.00    -0.002 A 
ATOM      7  C5  OXE d   1      -1.909  -1.373  -2.714  0.00  0.00    -0.002 A 
ATOM      8  C6  OXE d   1      -1.885  -0.441  -1.682  0.00  0.00     0.003 A 
ENDROOT
TORSDOF 0
ENDMDL
