MODEL 1
REMARK minimizedAffinity 6.37199259
REMARK minimizedRMSD -1
REMARK  0 active torsions:
REMARK  status: ('A' for Active; 'I' for Inactive)
ROOT
ATOM      1  C2' OXE d   1      -1.855  -0.663  -3.771  0.00  0.00     0.078 C 
ATOM      2  C1' OXE d   1      -1.404   0.170  -1.128  0.00  0.00     0.078 C 
ATOM      3  C1  OXE d   1      -2.121   1.122  -2.053  0.00  0.00    -0.078 A 
ATOM      4  C2  OXE d   1      -2.296   0.724  -3.357  0.00  0.00    -0.078 A 
ATOM      5  C3  OXE d   1      -2.998   1.541  -4.238  0.00  0.00     0.003 A 
ATOM      6  C4  OXE d   1      -3.393   2.828  -3.850  0.00  0.00    -0.002 A 
ATOM      7  C5  OXE d   1      -3.190   3.267  -2.538  0.00  0.00    -0.002 A 
ATOM      8  C6  OXE d   1      -2.594   2.412  -1.617  0.00  0.00     0.003 A 
ENDROOT
TORSDOF 0
ENDMDL
