MODEL 1
REMARK minimizedAffinity 4.48721457
REMARK minimizedRMSD -1
REMARK  0 active torsions:
REMARK  status: ('A' for Active; 'I' for Inactive)
ROOT
ATOM      1  C2' OXE d   1      -3.022  -2.261  -4.742  0.00  0.00     0.078 C 
ATOM      2  C1' OXE d   1      -4.139  -0.359  -3.006  0.00  0.00     0.078 C 
ATOM      3  C1  OXE d   1      -2.636  -0.483  -3.040  0.00  0.00    -0.078 A 
ATOM      4  C2  OXE d   1      -2.100  -1.449  -3.858  0.00  0.00    -0.078 A 
ATOM      5  C3  OXE d   1      -0.718  -1.569  -3.969  0.00  0.00     0.003 A 
ATOM      6  C4  OXE d   1       0.127  -0.821  -3.141  0.00  0.00    -0.002 A 
ATOM      7  C5  OXE d   1      -0.399   0.140  -2.272  0.00  0.00    -0.002 A 
ATOM      8  C6  OXE d   1      -1.774   0.351  -2.240  0.00  0.00     0.003 A 
ENDROOT
TORSDOF 0
ENDMDL
