MODEL 1
REMARK minimizedAffinity 0.614540637
REMARK minimizedRMSD -1
REMARK  0 active torsions:
REMARK  status: ('A' for Active; 'I' for Inactive)
ROOT
ATOM      1  C   UNL d   1       5.969   1.978   2.176  0.00  0.00     0.077 C 
ATOM      2  C1  UNL d   1       5.982   1.295   3.511  0.00  0.00    -0.074 A 
ATOM      3  C2  UNL d   1       5.997   2.036   4.697  0.00  0.00    -0.005 A 
ATOM      4  C3  UNL d   1       5.999   1.387   5.932  0.00  0.00     0.006 A 
ATOM      5  C4  UNL d   1       5.986  -0.007   5.993  0.00  0.00    -0.005 A 
ATOM      6  C5  UNL d   1       5.970  -0.765   4.817  0.00  0.00    -0.074 A 
ATOM      7  C6  UNL d   1       5.946  -2.264   4.865  0.00  0.00     0.077 C 
ATOM      8  C7  UNL d   1       5.961  -0.105   3.581  0.00  0.00    -0.001 A 
ENDROOT
TORSDOF 0
ENDMDL
