MODEL 1
REMARK minimizedAffinity -1.2229352
REMARK minimizedRMSD -1
REMARK  0 active torsions:
REMARK  status: ('A' for Active; 'I' for Inactive)
ROOT
ATOM      1  C   UNL d   1       5.961   1.670   3.747  0.00  0.00     0.077 C 
ATOM      2  C1  UNL d   1       5.967   3.170   3.747  0.00  0.00    -0.074 A 
ATOM      3  C2  UNL d   1       5.980   3.888   4.947  0.00  0.00    -0.005 A 
ATOM      4  C3  UNL d   1       5.995   5.283   4.931  0.00  0.00     0.006 A 
ATOM      5  C4  UNL d   1       5.998   5.972   3.718  0.00  0.00    -0.005 A 
ATOM      6  C5  UNL d   1       5.986   5.270   2.508  0.00  0.00    -0.074 A 
ATOM      7  C6  UNL d   1       5.999   5.995   1.195  0.00  0.00     0.077 C 
ATOM      8  C7  UNL d   1       5.978   3.869   2.532  0.00  0.00    -0.001 A 
ENDROOT
TORSDOF 0
ENDMDL
