MODEL 1
REMARK minimizedAffinity -1.50891984
REMARK minimizedRMSD -1
REMARK  0 active torsions:
REMARK  status: ('A' for Active; 'I' for Inactive)
ROOT
ATOM      1  C   UNL d   1       5.992  -2.301   3.563  0.00  0.00     0.077 C 
ATOM      2  C1  UNL d   1       5.976  -0.906   4.112  0.00  0.00    -0.074 A 
ATOM      3  C2  UNL d   1       5.963  -0.676   5.492  0.00  0.00    -0.005 A 
ATOM      4  C3  UNL d   1       5.958   0.627   5.988  0.00  0.00     0.006 A 
ATOM      5  C4  UNL d   1       5.965   1.713   5.111  0.00  0.00    -0.005 A 
ATOM      6  C5  UNL d   1       5.979   1.503   3.729  0.00  0.00    -0.074 A 
ATOM      7  C6  UNL d   1       5.997   2.658   2.772  0.00  0.00     0.077 C 
ATOM      8  C7  UNL d   1       5.991   0.190   3.238  0.00  0.00    -0.001 A 
ENDROOT
TORSDOF 0
ENDMDL
