MODEL 1
REMARK minimizedAffinity -3.09297085
REMARK minimizedRMSD -1
REMARK  0 active torsions:
REMARK  status: ('A' for Active; 'I' for Inactive)
ROOT
ATOM      1  C   UNL d   1       5.967   0.586   5.988  0.00  0.00     0.077 C 
ATOM      2  C1  UNL d   1       5.981   1.507   4.805  0.00  0.00    -0.074 A 
ATOM      3  C2  UNL d   1       5.997   1.001   3.501  0.00  0.00    -0.005 A 
ATOM      4  C3  UNL d   1       6.000   1.870   2.410  0.00  0.00     0.006 A 
ATOM      5  C4  UNL d   1       5.986   3.251   2.611  0.00  0.00    -0.005 A 
ATOM      6  C5  UNL d   1       5.968   3.775   3.907  0.00  0.00    -0.074 A 
ATOM      7  C6  UNL d   1       5.944   5.256   4.141  0.00  0.00     0.077 C 
ATOM      8  C7  UNL d   1       5.959   2.895   4.999  0.00  0.00    -0.001 A 
ENDROOT
TORSDOF 0
ENDMDL
