MODEL 1
REMARK minimizedAffinity -2.22139454
REMARK minimizedRMSD -1
REMARK  0 active torsions:
REMARK  status: ('A' for Active; 'I' for Inactive)
ROOT
ATOM      1  C   UNL d   1       6.000   1.547   2.951  0.00  0.00     0.077 C 
ATOM      2  C1  UNL d   1       5.992   3.038   2.787  0.00  0.00    -0.074 A 
ATOM      3  C2  UNL d   1       5.997   3.883   3.902  0.00  0.00    -0.005 A 
ATOM      4  C3  UNL d   1       5.999   5.268   3.734  0.00  0.00     0.006 A 
ATOM      5  C4  UNL d   1       5.996   5.820   2.453  0.00  0.00    -0.005 A 
ATOM      6  C5  UNL d   1       5.992   4.991   1.327  0.00  0.00    -0.074 A 
ATOM      7  C6  UNL d   1       5.999   5.569  -0.057  0.00  0.00     0.077 C 
ATOM      8  C7  UNL d   1       5.997   3.601   1.504  0.00  0.00    -0.001 A 
ENDROOT
TORSDOF 0
ENDMDL
