MODEL 1
REMARK minimizedAffinity 2.77143693
REMARK minimizedRMSD -1
REMARK  0 active torsions:
REMARK  status: ('A' for Active; 'I' for Inactive)
ROOT
ATOM      1  C   UNL d   1       5.894   5.040   0.971  0.00  0.00     0.077 C 
ATOM      2  C1  UNL d   1       5.937   4.878   2.462  0.00  0.00    -0.074 A 
ATOM      3  C2  UNL d   1       5.954   5.993   3.306  0.00  0.00    -0.005 A 
ATOM      4  C3  UNL d   1       5.984   5.827   4.690  0.00  0.00     0.006 A 
ATOM      5  C4  UNL d   1       5.997   4.546   5.244  0.00  0.00    -0.005 A 
ATOM      6  C5  UNL d   1       5.980   3.420   4.416  0.00  0.00    -0.074 A 
ATOM      7  C6  UNL d   1       5.984   2.036   4.995  0.00  0.00     0.077 C 
ATOM      8  C7  UNL d   1       5.942   3.595   3.026  0.00  0.00    -0.001 A 
ENDROOT
TORSDOF 0
ENDMDL
