MODEL 1
REMARK minimizedAffinity -1.74527621
REMARK minimizedRMSD -1
REMARK  0 active torsions:
REMARK  status: ('A' for Active; 'I' for Inactive)
ROOT
ATOM      1  C   UNL d   1       5.920  -0.841   4.399  0.00  0.00     0.077 C 
ATOM      2  C1  UNL d   1       5.940   0.648   4.575  0.00  0.00    -0.074 A 
ATOM      3  C2  UNL d   1       5.960   1.221   5.851  0.00  0.00    -0.005 A 
ATOM      4  C3  UNL d   1       5.988   2.608   5.999  0.00  0.00     0.006 A 
ATOM      5  C4  UNL d   1       5.995   3.434   4.874  0.00  0.00    -0.005 A 
ATOM      6  C5  UNL d   1       5.976   2.880   3.591  0.00  0.00    -0.074 A 
ATOM      7  C6  UNL d   1       5.994   3.753   2.372  0.00  0.00     0.077 C 
ATOM      8  C7  UNL d   1       5.955   1.485   3.451  0.00  0.00    -0.001 A 
ENDROOT
TORSDOF 0
ENDMDL
