MODEL 1
REMARK minimizedAffinity -2.26862478
REMARK minimizedRMSD -1
REMARK  0 active torsions:
REMARK  status: ('A' for Active; 'I' for Inactive)
ROOT
ATOM      1  C   UNL d   1       5.626  -0.650   6.000  0.00  0.00     0.077 C 
ATOM      2  C1  UNL d   1       5.653   0.426   4.955  0.00  0.00    -0.074 A 
ATOM      3  C2  UNL d   1       5.988   0.132   3.629  0.00  0.00    -0.005 A 
ATOM      4  C3  UNL d   1       6.000   1.141   2.667  0.00  0.00     0.006 A 
ATOM      5  C4  UNL d   1       5.678   2.452   3.019  0.00  0.00    -0.005 A 
ATOM      6  C5  UNL d   1       5.341   2.765   4.340  0.00  0.00    -0.074 A 
ATOM      7  C6  UNL d   1       4.983   4.167   4.733  0.00  0.00     0.077 C 
ATOM      8  C7  UNL d   1       5.324   1.744   5.300  0.00  0.00    -0.001 A 
ENDROOT
TORSDOF 0
ENDMDL
