MODEL 1
REMARK minimizedAffinity -0.154404849
REMARK minimizedRMSD -1
REMARK  0 active torsions:
REMARK  status: ('A' for Active; 'I' for Inactive)
ROOT
ATOM      1  C   UNL d   1      -1.640   4.011   4.034  0.00  0.00     0.077 C 
ATOM      2  C1  UNL d   1      -1.579   2.577   3.600  0.00  0.00    -0.074 A 
ATOM      3  C2  UNL d   1      -0.593   2.137   2.711  0.00  0.00    -0.005 A 
ATOM      4  C3  UNL d   1      -0.543   0.798   2.323  0.00  0.00     0.006 A 
ATOM      5  C4  UNL d   1      -1.476  -0.113   2.821  0.00  0.00    -0.005 A 
ATOM      6  C5  UNL d   1      -2.468   0.309   3.712  0.00  0.00    -0.074 A 
ATOM      7  C6  UNL d   1      -3.472  -0.659   4.263  0.00  0.00     0.077 C 
ATOM      8  C7  UNL d   1      -2.507   1.655   4.101  0.00  0.00    -0.001 A 
ENDROOT
TORSDOF 0
ENDMDL
