MODEL 1
REMARK minimizedAffinity -1.92640281
REMARK minimizedRMSD -1
REMARK  0 active torsions:
REMARK  status: ('A' for Active; 'I' for Inactive)
ROOT
ATOM      1  C   UNL d   1       5.983   5.566   0.467  0.00  0.00     0.077 C 
ATOM      2  C1  UNL d   1       5.991   5.090   1.889  0.00  0.00    -0.074 A 
ATOM      3  C2  UNL d   1       5.978   6.000   2.952  0.00  0.00    -0.005 A 
ATOM      4  C3  UNL d   1       5.976   5.542   4.269  0.00  0.00     0.006 A 
ATOM      5  C4  UNL d   1       5.985   4.173   4.538  0.00  0.00    -0.005 A 
ATOM      6  C5  UNL d   1       5.997   3.249   3.488  0.00  0.00    -0.074 A 
ATOM      7  C6  UNL d   1       5.998   1.773   3.759  0.00  0.00     0.077 C 
ATOM      8  C7  UNL d   1       5.992   3.716   2.167  0.00  0.00    -0.001 A 
ENDROOT
TORSDOF 0
ENDMDL
