MODEL 1
REMARK minimizedAffinity -1.16248035
REMARK minimizedRMSD -1
REMARK  0 active torsions:
REMARK  status: ('A' for Active; 'I' for Inactive)
ROOT
ATOM      1  C   UNL d   1       5.931   0.277   4.132  0.00  0.00     0.077 C 
ATOM      2  C1  UNL d   1       5.961   1.759   3.905  0.00  0.00    -0.074 A 
ATOM      3  C2  UNL d   1       5.972   2.288   2.610  0.00  0.00    -0.005 A 
ATOM      4  C3  UNL d   1       5.991   3.669   2.415  0.00  0.00     0.006 A 
ATOM      5  C4  UNL d   1       6.000   4.534   3.510  0.00  0.00    -0.005 A 
ATOM      6  C5  UNL d   1       5.988   4.023   4.812  0.00  0.00    -0.074 A 
ATOM      7  C6  UNL d   1       5.987   4.939   6.000  0.00  0.00     0.077 C 
ATOM      8  C7  UNL d   1       5.962   2.635   5.000  0.00  0.00    -0.001 A 
ENDROOT
TORSDOF 0
ENDMDL
