MODEL 1
REMARK minimizedAffinity -0.0340819731
REMARK minimizedRMSD -1
REMARK  0 active torsions:
REMARK  status: ('A' for Active; 'I' for Inactive)
ROOT
ATOM      1  C   UNL d   1       5.996   1.864   2.283  0.00  0.00     0.077 C 
ATOM      2  C1  UNL d   1       5.997   1.107   3.578  0.00  0.00    -0.074 A 
ATOM      3  C2  UNL d   1       5.988   1.781   4.804  0.00  0.00    -0.005 A 
ATOM      4  C3  UNL d   1       5.980   1.064   6.000  0.00  0.00     0.006 A 
ATOM      5  C4  UNL d   1       5.981  -0.332   5.983  0.00  0.00    -0.005 A 
ATOM      6  C5  UNL d   1       5.989  -1.022   4.766  0.00  0.00    -0.074 A 
ATOM      7  C6  UNL d   1       5.980  -2.522   4.730  0.00  0.00     0.077 C 
ATOM      8  C7  UNL d   1       5.990  -0.294   3.569  0.00  0.00    -0.001 A 
ENDROOT
TORSDOF 0
ENDMDL
