MODEL 1
REMARK minimizedAffinity -2.64529014
REMARK minimizedRMSD -1
REMARK  0 active torsions:
REMARK  status: ('A' for Active; 'I' for Inactive)
ROOT
ATOM      1  C   UNL d   1       5.995   3.551   2.664  0.00  0.00     0.077 C 
ATOM      2  C1  UNL d   1       6.000   2.457   3.690  0.00  0.00    -0.074 A 
ATOM      3  C2  UNL d   1       5.990   2.753   5.057  0.00  0.00    -0.005 A 
ATOM      4  C3  UNL d   1       5.985   1.725   5.999  0.00  0.00     0.006 A 
ATOM      5  C4  UNL d   1       5.990   0.392   5.585  0.00  0.00    -0.005 A 
ATOM      6  C5  UNL d   1       5.999   0.077   4.222  0.00  0.00    -0.074 A 
ATOM      7  C6  UNL d   1       5.995  -1.350   3.760  0.00  0.00     0.077 C 
ATOM      8  C7  UNL d   1       5.997   1.116   3.282  0.00  0.00    -0.001 A 
ENDROOT
TORSDOF 0
ENDMDL
