MODEL 1
REMARK minimizedAffinity -0.998187244
REMARK minimizedRMSD -1
REMARK  0 active torsions:
REMARK  status: ('A' for Active; 'I' for Inactive)
ROOT
ATOM      1  C   UNL d   1       5.996   2.252   2.610  0.00  0.00     0.077 C 
ATOM      2  C1  UNL d   1       6.000   1.165   3.642  0.00  0.00    -0.074 A 
ATOM      3  C2  UNL d   1       5.989   1.470   5.007  0.00  0.00    -0.005 A 
ATOM      4  C3  UNL d   1       5.983   0.447   5.956  0.00  0.00     0.006 A 
ATOM      5  C4  UNL d   1       5.989  -0.888   5.551  0.00  0.00    -0.005 A 
ATOM      6  C5  UNL d   1       5.999  -1.212   4.190  0.00  0.00    -0.074 A 
ATOM      7  C6  UNL d   1       5.996  -2.642   3.737  0.00  0.00     0.077 C 
ATOM      8  C7  UNL d   1       5.998  -0.179   3.243  0.00  0.00    -0.001 A 
ENDROOT
TORSDOF 0
ENDMDL
