MODEL 1
REMARK minimizedAffinity 0.707928956
REMARK minimizedRMSD -1
REMARK  0 active torsions:
REMARK  status: ('A' for Active; 'I' for Inactive)
ROOT
ATOM      1  C   UNL d   1       5.951   5.213   0.044  0.00  0.00     0.077 C 
ATOM      2  C1  UNL d   1       5.964   4.947   1.520  0.00  0.00    -0.074 A 
ATOM      3  C2  UNL d   1       5.952   6.000   2.440  0.00  0.00    -0.005 A 
ATOM      4  C3  UNL d   1       5.955   5.737   3.810  0.00  0.00     0.006 A 
ATOM      5  C4  UNL d   1       5.968   4.420   4.272  0.00  0.00    -0.005 A 
ATOM      6  C5  UNL d   1       5.979   3.354   3.367  0.00  0.00    -0.074 A 
ATOM      7  C6  UNL d   1       5.984   1.934   3.848  0.00  0.00     0.077 C 
ATOM      8  C7  UNL d   1       5.970   3.627   1.992  0.00  0.00    -0.001 A 
ENDROOT
TORSDOF 0
ENDMDL
