MODEL 1
REMARK minimizedAffinity 0.891139627
REMARK minimizedRMSD -1
REMARK  0 active torsions:
REMARK  status: ('A' for Active; 'I' for Inactive)
ROOT
ATOM      1  C   UNL d   1       1.471  -3.473  -3.739  0.00  0.00     0.077 C 
ATOM      2  C1  UNL d   1       1.270  -2.223  -2.934  0.00  0.00    -0.074 A 
ATOM      3  C2  UNL d   1       1.550  -0.966  -3.478  0.00  0.00    -0.005 A 
ATOM      4  C3  UNL d   1       1.349   0.189  -2.722  0.00  0.00     0.006 A 
ATOM      5  C4  UNL d   1       0.867   0.097  -1.415  0.00  0.00    -0.005 A 
ATOM      6  C5  UNL d   1       0.580  -1.152  -0.855  0.00  0.00    -0.074 A 
ATOM      7  C6  UNL d   1       0.052  -1.267   0.544  0.00  0.00     0.077 C 
ATOM      8  C7  UNL d   1       0.778  -2.306  -1.624  0.00  0.00    -0.001 A 
ENDROOT
TORSDOF 0
ENDMDL
