MODEL 1
REMARK minimizedAffinity -2.56234574
REMARK minimizedRMSD -1
REMARK  0 active torsions:
REMARK  status: ('A' for Active; 'I' for Inactive)
ROOT
ATOM      1  C   UNL d   1      -0.651   0.915   0.057  0.00  0.00     0.077 C 
ATOM      2  C1  UNL d   1       0.235  -0.203  -0.407  0.00  0.00    -0.074 A 
ATOM      3  C2  UNL d   1       0.002  -1.521  -0.001  0.00  0.00    -0.005 A 
ATOM      4  C3  UNL d   1       0.829  -2.551  -0.449  0.00  0.00     0.006 A 
ATOM      5  C4  UNL d   1       1.896  -2.274  -1.305  0.00  0.00    -0.005 A 
ATOM      6  C5  UNL d   1       2.144  -0.962  -1.722  0.00  0.00    -0.074 A 
ATOM      7  C6  UNL d   1       3.280  -0.649  -2.650  0.00  0.00     0.077 C 
ATOM      8  C7  UNL d   1       1.304   0.067  -1.274  0.00  0.00    -0.001 A 
ENDROOT
TORSDOF 0
ENDMDL
