MODEL 1
REMARK minimizedAffinity -5.22183895
REMARK minimizedRMSD -1
REMARK  0 active torsions:
REMARK  status: ('A' for Active; 'I' for Inactive)
ROOT
ATOM      1  C   UNL d   1       1.570  -2.818  -1.100  0.00  0.00     0.077 C 
ATOM      2  C1  UNL d   1       1.154  -1.376  -1.119  0.00  0.00    -0.074 A 
ATOM      3  C2  UNL d   1       1.808  -0.451  -1.940  0.00  0.00    -0.005 A 
ATOM      4  C3  UNL d   1       1.404   0.884  -1.954  0.00  0.00     0.006 A 
ATOM      5  C4  UNL d   1       0.345   1.307  -1.150  0.00  0.00    -0.005 A 
ATOM      6  C5  UNL d   1      -0.321   0.396  -0.324  0.00  0.00    -0.074 A 
ATOM      7  C6  UNL d   1      -1.467   0.831   0.539  0.00  0.00     0.077 C 
ATOM      8  C7  UNL d   1       0.086  -0.946  -0.320  0.00  0.00    -0.001 A 
ENDROOT
TORSDOF 0
ENDMDL
