MODEL 1
REMARK minimizedAffinity -3.14321136
REMARK minimizedRMSD -1
REMARK  0 active torsions:
REMARK  status: ('A' for Active; 'I' for Inactive)
ROOT
ATOM      1  C   UNL d   1      -1.596   0.016   0.811  0.00  0.00     0.077 C 
ATOM      2  C1  UNL d   1      -0.293   0.031   0.069  0.00  0.00    -0.074 A 
ATOM      3  C2  UNL d   1       0.317   1.238  -0.288  0.00  0.00    -0.005 A 
ATOM      4  C3  UNL d   1       1.534   1.237  -0.970  0.00  0.00     0.006 A 
ATOM      5  C4  UNL d   1       2.152   0.031  -1.302  0.00  0.00    -0.005 A 
ATOM      6  C5  UNL d   1       1.558  -1.186  -0.952  0.00  0.00    -0.074 A 
ATOM      7  C6  UNL d   1       2.214  -2.491  -1.293  0.00  0.00     0.077 C 
ATOM      8  C7  UNL d   1       0.339  -1.176  -0.261  0.00  0.00    -0.001 A 
ENDROOT
TORSDOF 0
ENDMDL
