MODEL 1
REMARK minimizedAffinity -0.661055684
REMARK minimizedRMSD -1
REMARK  0 active torsions:
REMARK  status: ('A' for Active; 'I' for Inactive)
ROOT
ATOM      1  C   UNL d   1       0.716  -2.651   0.004  0.00  0.00     0.077 C 
ATOM      2  C1  UNL d   1       0.314  -1.216   0.173  0.00  0.00    -0.074 A 
ATOM      3  C2  UNL d   1       1.070  -0.186  -0.397  0.00  0.00    -0.005 A 
ATOM      4  C3  UNL d   1       0.678   1.143  -0.240  0.00  0.00     0.006 A 
ATOM      5  C4  UNL d   1      -0.470   1.456   0.489  0.00  0.00    -0.005 A 
ATOM      6  C5  UNL d   1      -1.238   0.440   1.066  0.00  0.00    -0.074 A 
ATOM      7  C6  UNL d   1      -2.481   0.758   1.843  0.00  0.00     0.077 C 
ATOM      8  C7  UNL d   1      -0.843  -0.894   0.897  0.00  0.00    -0.001 A 
ENDROOT
TORSDOF 0
ENDMDL
