MODEL 1
REMARK minimizedAffinity -4.85822821
REMARK minimizedRMSD -1
REMARK  0 active torsions:
REMARK  status: ('A' for Active; 'I' for Inactive)
ROOT
ATOM      1  C   UNL d   1      -3.683   0.067   1.254  0.00  0.00     0.077 C 
ATOM      2  C1  UNL d   1      -2.224   0.407   1.322  0.00  0.00    -0.074 A 
ATOM      3  C2  UNL d   1      -1.537   0.386   2.540  0.00  0.00    -0.005 A 
ATOM      4  C3  UNL d   1      -0.178   0.696   2.586  0.00  0.00     0.006 A 
ATOM      5  C4  UNL d   1       0.507   1.029   1.417  0.00  0.00    -0.005 A 
ATOM      6  C5  UNL d   1      -0.163   1.054   0.190  0.00  0.00    -0.074 A 
ATOM      7  C6  UNL d   1       0.561   1.401  -1.077  0.00  0.00     0.077 C 
ATOM      8  C7  UNL d   1      -1.527   0.735   0.151  0.00  0.00    -0.001 A 
ENDROOT
TORSDOF 0
ENDMDL
