MODEL 1
REMARK minimizedAffinity -3.17746878
REMARK minimizedRMSD -1
REMARK  0 active torsions:
REMARK  status: ('A' for Active; 'I' for Inactive)
ROOT
ATOM      1  C   UNL d   1      -3.629   1.522   1.535  0.00  0.00     0.077 C 
ATOM      2  C1  UNL d   1      -2.351   0.741   1.463  0.00  0.00    -0.074 A 
ATOM      3  C2  UNL d   1      -2.149  -0.382   2.272  0.00  0.00    -0.005 A 
ATOM      4  C3  UNL d   1      -0.958  -1.105   2.187  0.00  0.00     0.006 A 
ATOM      5  C4  UNL d   1       0.040  -0.712   1.294  0.00  0.00    -0.005 A 
ATOM      6  C5  UNL d   1      -0.145   0.408   0.477  0.00  0.00    -0.074 A 
ATOM      7  C6  UNL d   1       0.913   0.838  -0.495  0.00  0.00     0.077 C 
ATOM      8  C7  UNL d   1      -1.347   1.124   0.563  0.00  0.00    -0.001 A 
ENDROOT
TORSDOF 0
ENDMDL
