MODEL 1
REMARK minimizedAffinity -3.71696687
REMARK minimizedRMSD -1
REMARK  0 active torsions:
REMARK  status: ('A' for Active; 'I' for Inactive)
ROOT
ATOM      1  C   UNL d   1      -1.417   0.851   0.982  0.00  0.00     0.077 C 
ATOM      2  C1  UNL d   1      -0.575  -0.085   0.168  0.00  0.00    -0.074 A 
ATOM      3  C2  UNL d   1      -0.600  -1.463   0.402  0.00  0.00    -0.005 A 
ATOM      4  C3  UNL d   1       0.182  -2.323  -0.370  0.00  0.00     0.006 A 
ATOM      5  C4  UNL d   1       0.996  -1.813  -1.382  0.00  0.00    -0.005 A 
ATOM      6  C5  UNL d   1       1.034  -0.437  -1.631  0.00  0.00    -0.074 A 
ATOM      7  C6  UNL d   1       1.897   0.126  -2.721  0.00  0.00     0.077 C 
ATOM      8  C7  UNL d   1       0.240   0.419  -0.856  0.00  0.00    -0.001 A 
ENDROOT
TORSDOF 0
ENDMDL
