MODEL 1
REMARK minimizedAffinity -4.33406734
REMARK minimizedRMSD -1
REMARK  0 active torsions:
REMARK  status: ('A' for Active; 'I' for Inactive)
ROOT
ATOM      1  C   UNL d   1      -1.537   0.384   1.719  0.00  0.00     0.077 C 
ATOM      2  C1  UNL d   1      -0.739  -0.263   0.626  0.00  0.00    -0.074 A 
ATOM      3  C2  UNL d   1      -0.323  -1.594   0.731  0.00  0.00    -0.005 A 
ATOM      4  C3  UNL d   1       0.410  -2.184  -0.298  0.00  0.00     0.006 A 
ATOM      5  C4  UNL d   1       0.735  -1.451  -1.440  0.00  0.00    -0.005 A 
ATOM      6  C5  UNL d   1       0.326  -0.120  -1.563  0.00  0.00    -0.074 A 
ATOM      7  C6  UNL d   1       0.658   0.679  -2.789  0.00  0.00     0.077 C 
ATOM      8  C7  UNL d   1      -0.416   0.465  -0.528  0.00  0.00    -0.001 A 
ENDROOT
TORSDOF 0
ENDMDL
