MODEL 1
REMARK minimizedAffinity -1.4639473
REMARK minimizedRMSD -1
REMARK  0 active torsions:
REMARK  status: ('A' for Active; 'I' for Inactive)
ROOT
ATOM      1  C   UNL d   1      -0.119  -1.237  -2.023  0.00  0.00     0.077 C 
ATOM      2  C1  UNL d   1      -0.254  -0.427  -0.768  0.00  0.00    -0.074 A 
ATOM      3  C2  UNL d   1       0.836   0.277  -0.246  0.00  0.00    -0.005 A 
ATOM      4  C3  UNL d   1       0.693   1.034   0.916  0.00  0.00     0.006 A 
ATOM      5  C4  UNL d   1      -0.540   1.095   1.568  0.00  0.00    -0.005 A 
ATOM      6  C5  UNL d   1      -1.641   0.399   1.060  0.00  0.00    -0.074 A 
ATOM      7  C6  UNL d   1      -2.975   0.461   1.743  0.00  0.00     0.077 C 
ATOM      8  C7  UNL d   1      -1.491  -0.354  -0.112  0.00  0.00    -0.001 A 
ENDROOT
TORSDOF 0
ENDMDL
