MODEL 1
REMARK minimizedAffinity -5.30725813
REMARK minimizedRMSD -1
REMARK  0 active torsions:
REMARK  status: ('A' for Active; 'I' for Inactive)
ROOT
ATOM      1  C   UNL d   1       2.270  -2.724  -1.375  0.00  0.00     0.077 C 
ATOM      2  C1  UNL d   1       1.672  -1.388  -1.050  0.00  0.00    -0.074 A 
ATOM      3  C2  UNL d   1       2.079  -0.234  -1.727  0.00  0.00    -0.005 A 
ATOM      4  C3  UNL d   1       1.506   1.001  -1.420  0.00  0.00     0.006 A 
ATOM      5  C4  UNL d   1       0.522   1.093  -0.434  0.00  0.00    -0.005 A 
ATOM      6  C5  UNL d   1       0.102  -0.050   0.253  0.00  0.00    -0.074 A 
ATOM      7  C6  UNL d   1      -0.960   0.031   1.308  0.00  0.00     0.077 C 
ATOM      8  C7  UNL d   1       0.678  -1.288  -0.066  0.00  0.00    -0.001 A 
ENDROOT
TORSDOF 0
ENDMDL
