MODEL 1
REMARK minimizedAffinity -1.17392945
REMARK minimizedRMSD -1
REMARK  0 active torsions:
REMARK  status: ('A' for Active; 'I' for Inactive)
ROOT
ATOM      1  C   UNL d   1       1.006  -2.268  -0.321  0.00  0.00     0.077 C 
ATOM      2  C1  UNL d   1       0.403  -0.931  -0.008  0.00  0.00    -0.074 A 
ATOM      3  C2  UNL d   1       1.004   0.251  -0.452  0.00  0.00    -0.005 A 
ATOM      4  C3  UNL d   1       0.426   1.486  -0.161  0.00  0.00     0.006 A 
ATOM      5  C4  UNL d   1      -0.757   1.552   0.576  0.00  0.00    -0.005 A 
ATOM      6  C5  UNL d   1      -1.373   0.381   1.028  0.00  0.00    -0.074 A 
ATOM      7  C6  UNL d   1      -2.651   0.434   1.812  0.00  0.00     0.077 C 
ATOM      8  C7  UNL d   1      -0.790  -0.857   0.725  0.00  0.00    -0.001 A 
ENDROOT
TORSDOF 0
ENDMDL
