MODEL 1
REMARK minimizedAffinity -1.24761903
REMARK minimizedRMSD -1
REMARK  0 active torsions:
REMARK  status: ('A' for Active; 'I' for Inactive)
ROOT
ATOM      1  C   UNL d   1      -1.280   0.025   0.974  0.00  0.00     0.077 C 
ATOM      2  C1  UNL d   1      -0.162  -0.539   0.147  0.00  0.00    -0.074 A 
ATOM      3  C2  UNL d   1       0.034  -1.920   0.050  0.00  0.00    -0.005 A 
ATOM      4  C3  UNL d   1       1.071  -2.430  -0.731  0.00  0.00     0.006 A 
ATOM      5  C4  UNL d   1       1.922  -1.566  -1.420  0.00  0.00    -0.005 A 
ATOM      6  C5  UNL d   1       1.741  -0.181  -1.335  0.00  0.00    -0.074 A 
ATOM      7  C6  UNL d   1       2.641   0.762  -2.078  0.00  0.00     0.077 C 
ATOM      8  C7  UNL d   1       0.692   0.323  -0.555  0.00  0.00    -0.001 A 
ENDROOT
TORSDOF 0
ENDMDL
