MODEL 1
REMARK minimizedAffinity -0.954505563
REMARK minimizedRMSD -1
REMARK  0 active torsions:
REMARK  status: ('A' for Active; 'I' for Inactive)
ROOT
ATOM      1  C   UNL d   1      -4.094   0.899   1.204  0.00  0.00     0.077 C 
ATOM      2  C1  UNL d   1      -2.648   0.509   1.118  0.00  0.00    -0.074 A 
ATOM      3  C2  UNL d   1      -1.931   0.155   2.265  0.00  0.00    -0.005 A 
ATOM      4  C3  UNL d   1      -0.589  -0.214   2.169  0.00  0.00     0.006 A 
ATOM      5  C4  UNL d   1       0.048  -0.232   0.928  0.00  0.00    -0.005 A 
ATOM      6  C5  UNL d   1      -0.654   0.118  -0.230  0.00  0.00    -0.074 A 
ATOM      7  C6  UNL d   1       0.012   0.094  -1.574  0.00  0.00     0.077 C 
ATOM      8  C7  UNL d   1      -2.004   0.481  -0.126  0.00  0.00    -0.001 A 
ENDROOT
TORSDOF 0
ENDMDL
