MODEL 1
REMARK minimizedAffinity -0.258352667
REMARK minimizedRMSD -1
REMARK  0 active torsions:
REMARK  status: ('A' for Active; 'I' for Inactive)
ROOT
ATOM      1  C   UNL d   1       2.082   1.532  -1.617  0.00  0.00     0.077 C 
ATOM      2  C1  UNL d   1       1.215   0.477  -0.997  0.00  0.00    -0.074 A 
ATOM      3  C2  UNL d   1       1.444  -0.880  -1.245  0.00  0.00    -0.005 A 
ATOM      4  C3  UNL d   1       0.635  -1.850  -0.653  0.00  0.00     0.006 A 
ATOM      5  C4  UNL d   1      -0.409  -1.473   0.192  0.00  0.00    -0.005 A 
ATOM      6  C5  UNL d   1      -0.653  -0.121   0.453  0.00  0.00    -0.074 A 
ATOM      7  C6  UNL d   1      -1.765   0.300   1.367  0.00  0.00     0.077 C 
ATOM      8  C7  UNL d   1       0.169   0.847  -0.140  0.00  0.00    -0.001 A 
ENDROOT
TORSDOF 0
ENDMDL
