MODEL 1
REMARK minimizedAffinity -3.85859537
REMARK minimizedRMSD -1
REMARK  0 active torsions:
REMARK  status: ('A' for Active; 'I' for Inactive)
ROOT
ATOM      1  C   UNL d   1       1.975   0.783  -2.047  0.00  0.00     0.077 C 
ATOM      2  C1  UNL d   1       0.718   0.883  -1.235  0.00  0.00    -0.074 A 
ATOM      3  C2  UNL d   1      -0.265   1.829  -1.546  0.00  0.00    -0.005 A 
ATOM      4  C3  UNL d   1      -1.433   1.904  -0.788  0.00  0.00     0.006 A 
ATOM      5  C4  UNL d   1      -1.630   1.036   0.288  0.00  0.00    -0.005 A 
ATOM      6  C5  UNL d   1      -0.658   0.084   0.613  0.00  0.00    -0.074 A 
ATOM      7  C6  UNL d   1      -0.859  -0.862   1.759  0.00  0.00     0.077 C 
ATOM      8  C7  UNL d   1       0.510   0.010  -0.158  0.00  0.00    -0.001 A 
ENDROOT
TORSDOF 0
ENDMDL
