MODEL 1
REMARK minimizedAffinity -5.23197651
REMARK minimizedRMSD -1
REMARK  0 active torsions:
REMARK  status: ('A' for Active; 'I' for Inactive)
ROOT
ATOM      1  C   UNL d   1       1.756   2.504   1.497  0.00  0.00     0.077 C 
ATOM      2  C1  UNL d   1       1.146   1.417   0.663  0.00  0.00    -0.074 A 
ATOM      3  C2  UNL d   1       0.060   0.672   1.136  0.00  0.00    -0.005 A 
ATOM      4  C3  UNL d   1      -0.503  -0.329   0.345  0.00  0.00     0.006 A 
ATOM      5  C4  UNL d   1       0.011  -0.595  -0.924  0.00  0.00    -0.005 A 
ATOM      6  C5  UNL d   1       1.095   0.140  -1.414  0.00  0.00    -0.074 A 
ATOM      7  C6  UNL d   1       1.654  -0.126  -2.780  0.00  0.00     0.077 C 
ATOM      8  C7  UNL d   1       1.652   1.149  -0.616  0.00  0.00    -0.001 A 
ENDROOT
TORSDOF 0
ENDMDL
