MODEL 1
REMARK minimizedAffinity -5.60505056
REMARK minimizedRMSD -1
REMARK  0 active torsions:
REMARK  status: ('A' for Active; 'I' for Inactive)
ROOT
ATOM      1  C   UNL d   1      -1.052  -0.407   0.789  0.00  0.00     0.077 C 
ATOM      2  C1  UNL d   1       0.002   0.292  -0.016  0.00  0.00    -0.074 A 
ATOM      3  C2  UNL d   1       0.450   1.568   0.339  0.00  0.00    -0.005 A 
ATOM      4  C3  UNL d   1       1.439   2.202  -0.414  0.00  0.00     0.006 A 
ATOM      5  C4  UNL d   1       1.988   1.567  -1.529  0.00  0.00    -0.005 A 
ATOM      6  C5  UNL d   1       1.553   0.290  -1.899  0.00  0.00    -0.074 A 
ATOM      7  C6  UNL d   1       2.139  -0.410  -3.088  0.00  0.00     0.077 C 
ATOM      8  C7  UNL d   1       0.564  -0.343  -1.133  0.00  0.00    -0.001 A 
ENDROOT
TORSDOF 0
ENDMDL
