MODEL 1
REMARK minimizedAffinity -3.24477696
REMARK minimizedRMSD -1
REMARK  0 active torsions:
REMARK  status: ('A' for Active; 'I' for Inactive)
ROOT
ATOM      1  C   UNL d   1      -1.524   0.326   1.033  0.00  0.00     0.077 C 
ATOM      2  C1  UNL d   1      -0.317   0.546   0.170  0.00  0.00    -0.074 A 
ATOM      3  C2  UNL d   1       0.124   1.838  -0.133  0.00  0.00    -0.005 A 
ATOM      4  C3  UNL d   1       1.253   2.026  -0.930  0.00  0.00     0.006 A 
ATOM      5  C4  UNL d   1       1.952   0.927  -1.430  0.00  0.00    -0.005 A 
ATOM      6  C5  UNL d   1       1.526  -0.372  -1.137  0.00  0.00    -0.074 A 
ATOM      7  C6  UNL d   1       2.271  -1.565  -1.659  0.00  0.00     0.077 C 
ATOM      8  C7  UNL d   1       0.394  -0.554  -0.330  0.00  0.00    -0.001 A 
ENDROOT
TORSDOF 0
ENDMDL
