MODEL 1
REMARK minimizedAffinity 2.65784431
REMARK minimizedRMSD -1
REMARK  0 active torsions:
REMARK  status: ('A' for Active; 'I' for Inactive)
ROOT
ATOM      1  C1  BNZ d   1       0.980  -0.827   4.417  0.00  0.00     0.000 A 
ATOM      2  C2  BNZ d   1       0.451  -1.328   3.257  0.00  0.00     0.000 A 
ATOM      3  C3  BNZ d   1      -0.156  -0.503   2.352  0.00  0.00     0.000 A 
ATOM      4  C4  BNZ d   1      -0.269   0.813   2.625  0.00  0.00     0.000 A 
ATOM      5  C5  BNZ d   1       0.251   1.331   3.794  0.00  0.00     0.000 A 
ATOM      6  C6  BNZ d   1       0.896   0.505   4.685  0.00  0.00     0.000 A 
ENDROOT
TORSDOF 0
ENDMDL
