MODEL 1
REMARK minimizedAffinity 4.89587116
REMARK minimizedRMSD -1
REMARK  0 active torsions:
REMARK  status: ('A' for Active; 'I' for Inactive)
ROOT
ATOM      1  C1  BNZ d   1      -1.004  -1.349   1.970  0.00  0.00     0.000 A 
ATOM      2  C2  BNZ d   1       0.322  -1.531   2.259  0.00  0.00     0.000 A 
ATOM      3  C3  BNZ d   1       1.031  -0.571   2.925  0.00  0.00     0.000 A 
ATOM      4  C4  BNZ d   1       0.425   0.584   3.266  0.00  0.00     0.000 A 
ATOM      5  C5  BNZ d   1      -0.909   0.787   2.973  0.00  0.00     0.000 A 
ATOM      6  C6  BNZ d   1      -1.629  -0.198   2.336  0.00  0.00     0.000 A 
ENDROOT
TORSDOF 0
ENDMDL
