MODEL 1
REMARK minimizedAffinity 5.1041398
REMARK minimizedRMSD -1
REMARK  0 active torsions:
REMARK  status: ('A' for Active; 'I' for Inactive)
ROOT
ATOM      1  C1  BNZ d   1       0.266  -0.948   2.720  0.00  0.00     0.000 A 
ATOM      2  C2  BNZ d   1       0.267  -2.134   3.403  0.00  0.00     0.000 A 
ATOM      3  C3  BNZ d   1       1.072  -2.313   4.494  0.00  0.00     0.000 A 
ATOM      4  C4  BNZ d   1       1.902  -1.320   4.875  0.00  0.00     0.000 A 
ATOM      5  C5  BNZ d   1       1.919  -0.121   4.191  0.00  0.00     0.000 A 
ATOM      6  C6  BNZ d   1       1.079   0.069   3.117  0.00  0.00     0.000 A 
ENDROOT
TORSDOF 0
ENDMDL
