MODEL 1
REMARK minimizedAffinity 4.77940369
REMARK minimizedRMSD -1
REMARK  0 active torsions:
REMARK  status: ('A' for Active; 'I' for Inactive)
ROOT
ATOM      1  C1  BNZ d   1       1.171  -0.902   2.828  0.00  0.00     0.000 A 
ATOM      2  C2  BNZ d   1       0.236  -1.786   2.361  0.00  0.00     0.000 A 
ATOM      3  C3  BNZ d   1      -1.005  -1.357   1.981  0.00  0.00     0.000 A 
ATOM      4  C4  BNZ d   1      -1.322  -0.052   2.105  0.00  0.00     0.000 A 
ATOM      5  C5  BNZ d   1      -0.393   0.851   2.583  0.00  0.00     0.000 A 
ATOM      6  C6  BNZ d   1       0.868   0.421   2.928  0.00  0.00     0.000 A 
ENDROOT
TORSDOF 0
ENDMDL
