MODEL 1
REMARK minimizedAffinity 10.3482523
REMARK minimizedRMSD -1
REMARK  0 active torsions:
REMARK  status: ('A' for Active; 'I' for Inactive)
ROOT
ATOM      1  C1  BNZ d   1       0.186  -3.590  -6.000  0.00  0.00     0.000 A 
ATOM      2  C2  BNZ d   1       0.893  -4.763  -6.000  0.00  0.00     0.000 A 
ATOM      3  C3  BNZ d   1       0.249  -5.969  -5.971  0.00  0.00     0.000 A 
ATOM      4  C4  BNZ d   1      -1.097  -6.000  -5.900  0.00  0.00     0.000 A 
ATOM      5  C5  BNZ d   1      -1.824  -4.826  -5.890  0.00  0.00     0.000 A 
ATOM      6  C6  BNZ d   1      -1.174  -3.615  -5.959  0.00  0.00     0.000 A 
ENDROOT
TORSDOF 0
ENDMDL
