MODEL 1
REMARK minimizedAffinity 7.92412376
REMARK minimizedRMSD -1
REMARK  0 active torsions:
REMARK  status: ('A' for Active; 'I' for Inactive)
ROOT
ATOM      1  C1  BNZ d   1       1.502  -1.428   3.182  0.00  0.00     0.000 A 
ATOM      2  C2  BNZ d   1       0.582  -1.552   2.175  0.00  0.00     0.000 A 
ATOM      3  C3  BNZ d   1      -0.345  -0.573   1.950  0.00  0.00     0.000 A 
ATOM      4  C4  BNZ d   1      -0.378   0.507   2.757  0.00  0.00     0.000 A 
ATOM      5  C5  BNZ d   1       0.537   0.642   3.782  0.00  0.00     0.000 A 
ATOM      6  C6  BNZ d   1       1.494  -0.327   3.981  0.00  0.00     0.000 A 
ENDROOT
TORSDOF 0
ENDMDL
