MODEL 1
REMARK minimizedAffinity 10.3387947
REMARK minimizedRMSD -1
REMARK  0 active torsions:
REMARK  status: ('A' for Active; 'I' for Inactive)
ROOT
ATOM      1  C1  BNZ d   1      -1.451   2.682   3.393  0.00  0.00     0.000 A 
ATOM      2  C2  BNZ d   1      -1.515   3.319   4.604  0.00  0.00     0.000 A 
ATOM      3  C3  BNZ d   1      -0.768   2.886   5.663  0.00  0.00     0.000 A 
ATOM      4  C4  BNZ d   1       0.011   1.794   5.522  0.00  0.00     0.000 A 
ATOM      5  C5  BNZ d   1       0.080   1.135   4.311  0.00  0.00     0.000 A 
ATOM      6  C6  BNZ d   1      -0.644   1.598   3.235  0.00  0.00     0.000 A 
ENDROOT
TORSDOF 0
ENDMDL
