MODEL 1
REMARK minimizedAffinity 5.63655806
REMARK minimizedRMSD -1
REMARK  0 active torsions:
REMARK  status: ('A' for Active; 'I' for Inactive)
ROOT
ATOM      1  C1  BNZ d   1      -4.467  -0.007  -1.623  0.00  0.00     0.000 A 
ATOM      2  C2  BNZ d   1      -3.697  -0.988  -1.057  0.00  0.00     0.000 A 
ATOM      3  C3  BNZ d   1      -3.248  -0.871   0.229  0.00  0.00     0.000 A 
ATOM      4  C4  BNZ d   1      -3.536   0.243   0.933  0.00  0.00     0.000 A 
ATOM      5  C5  BNZ d   1      -4.303   1.245   0.373  0.00  0.00     0.000 A 
ATOM      6  C6  BNZ d   1      -4.786   1.106  -0.908  0.00  0.00     0.000 A 
ENDROOT
TORSDOF 0
ENDMDL
