MODEL 1
REMARK minimizedAffinity -5.53847599
REMARK minimizedRMSD -1
REMARK  0 active torsions:
REMARK  status: ('A' for Active; 'I' for Inactive)
ROOT
ATOM      1  C   UNL d   1       0.506   0.726   3.160  0.00  0.00    -0.002 A 
ATOM      2  C1  UNL d   1      -0.782   1.194   3.376  0.00  0.00     0.010 A 
ATOM      3  C2  UNL d   1      -1.685   1.305   2.316  0.00  0.00     0.041 A 
ATOM      4  C3  UNL d   1      -1.266   0.934   1.023  0.00  0.00    -0.075 A 
ATOM      5  S   UNL d   1      -2.199   0.984  -0.426  0.00  0.00     0.015 SA
ATOM      6  C4  UNL d   1      -0.909   0.386  -1.366  0.00  0.00     0.022 A 
ATOM      7  C5  UNL d   1       0.214   0.148  -0.608  0.00  0.00     0.026 A 
ATOM      8  C6  UNL d   1       0.026   0.459   0.781  0.00  0.00    -0.082 A 
ATOM      9  C7  UNL d   1       0.918   0.359   1.876  0.00  0.00     0.045 A 
ENDROOT
TORSDOF 0
ENDMDL
