MODEL 1
REMARK minimizedAffinity 0.68181318
REMARK minimizedRMSD -1
REMARK  0 active torsions:
REMARK  status: ('A' for Active; 'I' for Inactive)
ROOT
ATOM      1  C   UNL d   1      -2.396  -0.501  -0.006  0.00  0.00    -0.002 A 
ATOM      2  C1  UNL d   1      -2.449   0.081   1.252  0.00  0.00     0.010 A 
ATOM      3  C2  UNL d   1      -1.300   0.182   2.038  0.00  0.00     0.041 A 
ATOM      4  C3  UNL d   1      -0.083  -0.315   1.532  0.00  0.00    -0.075 A 
ATOM      5  S   UNL d   1       1.453  -0.300   2.315  0.00  0.00     0.015 SA
ATOM      6  C4  UNL d   1       2.217  -1.064   0.997  0.00  0.00     0.022 A 
ATOM      7  C5  UNL d   1       1.337  -1.332  -0.024  0.00  0.00     0.026 A 
ATOM      8  C6  UNL d   1      -0.003  -0.905   0.267  0.00  0.00    -0.082 A 
ATOM      9  C7  UNL d   1      -1.187  -0.993  -0.505  0.00  0.00     0.045 A 
ENDROOT
TORSDOF 0
ENDMDL
