MODEL 1
REMARK minimizedAffinity -3.3277421
REMARK minimizedRMSD -1
REMARK  0 active torsions:
REMARK  status: ('A' for Active; 'I' for Inactive)
ROOT
ATOM      1  C   UNL d   1       0.722   2.045  -3.268  0.00  0.00    -0.002 A 
ATOM      2  C1  UNL d   1       1.659   1.021  -3.245  0.00  0.00     0.010 A 
ATOM      3  C2  UNL d   1       1.622   0.047  -2.245  0.00  0.00     0.041 A 
ATOM      4  C3  UNL d   1       0.616   0.118  -1.261  0.00  0.00    -0.075 A 
ATOM      5  S   UNL d   1       0.374  -0.965   0.058  0.00  0.00     0.015 SA
ATOM      6  C4  UNL d   1      -0.979  -0.095   0.622  0.00  0.00     0.022 A 
ATOM      7  C5  UNL d   1      -1.253   0.998  -0.166  0.00  0.00     0.026 A 
ATOM      8  C6  UNL d   1      -0.339   1.139  -1.264  0.00  0.00    -0.082 A 
ATOM      9  C7  UNL d   1      -0.274   2.112  -2.290  0.00  0.00     0.045 A 
ENDROOT
TORSDOF 0
ENDMDL
