MODEL 1
REMARK minimizedAffinity -1.82205307
REMARK minimizedRMSD -1
REMARK  0 active torsions:
REMARK  status: ('A' for Active; 'I' for Inactive)
ROOT
ATOM      1  C   UNL d   1      -0.487  -0.866   0.329  0.00  0.00    -0.002 A 
ATOM      2  C1  UNL d   1      -0.774   0.491   0.318  0.00  0.00     0.010 A 
ATOM      3  C2  UNL d   1      -0.517   1.263  -0.817  0.00  0.00     0.041 A 
ATOM      4  C3  UNL d   1       0.039   0.640  -1.952  0.00  0.00    -0.075 A 
ATOM      5  S   UNL d   1       0.438   1.384  -3.455  0.00  0.00     0.015 SA
ATOM      6  C4  UNL d   1       0.998  -0.082  -4.118  0.00  0.00     0.022 A 
ATOM      7  C5  UNL d   1       0.891  -1.125  -3.228  0.00  0.00     0.026 A 
ATOM      8  C6  UNL d   1       0.336  -0.726  -1.965  0.00  0.00    -0.082 A 
ATOM      9  C7  UNL d   1       0.064  -1.480  -0.799  0.00  0.00     0.045 A 
ENDROOT
TORSDOF 0
ENDMDL
