MODEL 1
REMARK minimizedAffinity 0.256828398
REMARK minimizedRMSD -1
REMARK  0 active torsions:
REMARK  status: ('A' for Active; 'I' for Inactive)
ROOT
ATOM      1  C   UNL d   1       1.486  -0.779   3.836  0.00  0.00    -0.002 A 
ATOM      2  C1  UNL d   1       2.240  -1.197   2.749  0.00  0.00     0.010 A 
ATOM      3  C2  UNL d   1       1.733  -1.096   1.452  0.00  0.00     0.041 A 
ATOM      4  C3  UNL d   1       0.444  -0.560   1.263  0.00  0.00    -0.075 A 
ATOM      5  S   UNL d   1      -0.381  -0.338  -0.234  0.00  0.00     0.015 SA
ATOM      6  C4  UNL d   1      -1.754   0.318   0.534  0.00  0.00     0.022 A 
ATOM      7  C5  UNL d   1      -1.604   0.373   1.899  0.00  0.00     0.026 A 
ATOM      8  C6  UNL d   1      -0.334  -0.131   2.342  0.00  0.00    -0.082 A 
ATOM      9  C7  UNL d   1       0.207  -0.248   3.645  0.00  0.00     0.045 A 
ENDROOT
TORSDOF 0
ENDMDL
