MODEL 1
REMARK minimizedAffinity -0.923240423
REMARK minimizedRMSD -1
REMARK  0 active torsions:
REMARK  status: ('A' for Active; 'I' for Inactive)
ROOT
ATOM      1  C   UNL d   1      -2.004   1.113   2.272  0.00  0.00    -0.002 A 
ATOM      2  C1  UNL d   1      -2.583   1.054   1.012  0.00  0.00     0.010 A 
ATOM      3  C2  UNL d   1      -1.936   0.398  -0.037  0.00  0.00     0.041 A 
ATOM      4  C3  UNL d   1      -0.686  -0.205   0.204  0.00  0.00    -0.075 A 
ATOM      5  S   UNL d   1       0.290  -1.063  -0.929  0.00  0.00     0.015 SA
ATOM      6  C4  UNL d   1       1.498  -1.372   0.233  0.00  0.00     0.022 A 
ATOM      7  C5  UNL d   1       1.182  -0.840   1.460  0.00  0.00     0.026 A 
ATOM      8  C6  UNL d   1      -0.083  -0.159   1.464  0.00  0.00    -0.082 A 
ATOM      9  C7  UNL d   1      -0.764   0.514   2.507  0.00  0.00     0.045 A 
ENDROOT
TORSDOF 0
ENDMDL
