MODEL 1
REMARK minimizedAffinity -1.14807856
REMARK minimizedRMSD -1
REMARK  0 active torsions:
REMARK  status: ('A' for Active; 'I' for Inactive)
ROOT
ATOM      1  C   UNL d   1      -0.427   0.068   0.398  0.00  0.00    -0.002 A 
ATOM      2  C1  UNL d   1      -0.156  -1.127  -0.252  0.00  0.00     0.010 A 
ATOM      3  C2  UNL d   1       0.462  -1.131  -1.505  0.00  0.00     0.041 A 
ATOM      4  C3  UNL d   1       0.808   0.100  -2.097  0.00  0.00    -0.075 A 
ATOM      5  S   UNL d   1       1.573   0.340  -3.624  0.00  0.00     0.015 SA
ATOM      6  C4  UNL d   1       1.559   2.035  -3.448  0.00  0.00     0.022 A 
ATOM      7  C5  UNL d   1       0.988   2.426  -2.260  0.00  0.00     0.026 A 
ATOM      8  C6  UNL d   1       0.546   1.317  -1.461  0.00  0.00    -0.082 A 
ATOM      9  C7  UNL d   1      -0.082   1.287  -0.193  0.00  0.00     0.045 A 
ENDROOT
TORSDOF 0
ENDMDL
