MODEL 1
REMARK minimizedAffinity -3.2388494
REMARK minimizedRMSD -1
REMARK  0 active torsions:
REMARK  status: ('A' for Active; 'I' for Inactive)
ROOT
ATOM      1  C1  DEN d   1       0.344   0.153  -1.601  0.00  0.00     0.130 A 
ATOM      2  C2  DEN d   1       0.226   0.719  -0.260  0.00  0.00    -0.031 A 
ATOM      3  C3  DEN d   1       1.577   0.777   0.332  0.00  0.00     0.027 A 
ATOM      4  C4  DEN d   1       3.830   0.055  -0.695  0.00  0.00     0.027 A 
ATOM      5  C5  DEN d   1       4.434  -0.495  -1.804  0.00  0.00    -0.003 A 
ATOM      6  C6  DEN d   1       3.718  -0.895  -2.902  0.00  0.00     0.001 A 
ATOM      7  C7  DEN d   1       2.361  -0.709  -2.932  0.00  0.00     0.017 A 
ATOM      8  C8  DEN d   1       1.745  -0.163  -1.813  0.00  0.00    -0.094 A 
ATOM      9  C9  DEN d   1       2.487   0.246  -0.719  0.00  0.00    -0.072 A 
ENDROOT
TORSDOF 0
ENDMDL
