MODEL 1
REMARK minimizedAffinity 7.68713713
REMARK minimizedRMSD -1
REMARK  0 active torsions:
REMARK  status: ('A' for Active; 'I' for Inactive)
ROOT
ATOM      1  C1  DEN d   1      -0.043   0.241  -1.208  0.00  0.00     0.130 A 
ATOM      2  C2  DEN d   1       0.113   0.877   0.097  0.00  0.00    -0.031 A 
ATOM      3  C3  DEN d   1       1.539   0.799   0.475  0.00  0.00     0.027 A 
ATOM      4  C4  DEN d   1       3.509  -0.234  -0.830  0.00  0.00     0.027 A 
ATOM      5  C5  DEN d   1       3.867  -0.901  -1.981  0.00  0.00    -0.003 A 
ATOM      6  C6  DEN d   1       2.949  -1.261  -2.931  0.00  0.00     0.001 A 
ATOM      7  C7  DEN d   1       1.633  -0.916  -2.769  0.00  0.00     0.017 A 
ATOM      8  C8  DEN d   1       1.264  -0.250  -1.608  0.00  0.00    -0.094 A 
ATOM      9  C9  DEN d   1       2.209   0.116  -0.664  0.00  0.00    -0.072 A 
ENDROOT
TORSDOF 0
ENDMDL
