MODEL 1
REMARK minimizedAffinity 0.699110031
REMARK minimizedRMSD -1
REMARK  0 active torsions:
REMARK  status: ('A' for Active; 'I' for Inactive)
ROOT
ATOM      1  C1  DEN d   1      -2.902  -2.934   3.530  0.00  0.00     0.130 A 
ATOM      2  C2  DEN d   1      -4.092  -2.276   4.062  0.00  0.00    -0.031 A 
ATOM      3  C3  DEN d   1      -4.952  -1.898   2.922  0.00  0.00     0.027 A 
ATOM      4  C4  DEN d   1      -4.561  -2.271   0.400  0.00  0.00     0.027 A 
ATOM      5  C5  DEN d   1      -3.688  -2.776  -0.538  0.00  0.00    -0.003 A 
ATOM      6  C6  DEN d   1      -2.487  -3.335  -0.191  0.00  0.00     0.001 A 
ATOM      7  C7  DEN d   1      -2.145  -3.442   1.132  0.00  0.00     0.017 A 
ATOM      8  C8  DEN d   1      -3.016  -2.928   2.083  0.00  0.00    -0.094 A 
ATOM      9  C9  DEN d   1      -4.232  -2.378   1.712  0.00  0.00    -0.072 A 
ENDROOT
TORSDOF 0
ENDMDL
