MODEL 1
REMARK minimizedAffinity 0.762923658
REMARK minimizedRMSD -1
REMARK  0 active torsions:
REMARK  status: ('A' for Active; 'I' for Inactive)
ROOT
ATOM      1  C1  DEN d   1      -5.052   0.803  -5.590  0.00  0.00     0.130 A 
ATOM      2  C2  DEN d   1      -3.977  -0.111  -5.212  0.00  0.00    -0.031 A 
ATOM      3  C3  DEN d   1      -2.743   0.682  -5.041  0.00  0.00     0.027 A 
ATOM      4  C4  DEN d   1      -2.395   3.222  -5.318  0.00  0.00     0.027 A 
ATOM      5  C5  DEN d   1      -3.011   4.411  -5.640  0.00  0.00    -0.003 A 
ATOM      6  C6  DEN d   1      -4.331   4.476  -5.999  0.00  0.00     0.001 A 
ATOM      7  C7  DEN d   1      -5.091   3.336  -5.999  0.00  0.00     0.017 A 
ATOM      8  C8  DEN d   1      -4.475   2.132  -5.683  0.00  0.00    -0.094 A 
ATOM      9  C9  DEN d   1      -3.142   2.089  -5.311  0.00  0.00    -0.072 A 
ENDROOT
TORSDOF 0
ENDMDL
