MODEL 1
REMARK minimizedAffinity -4.47333813
REMARK minimizedRMSD -1
REMARK  0 active torsions:
REMARK  status: ('A' for Active; 'I' for Inactive)
ROOT
ATOM      1  C1  DEN d   1      -5.683   3.152  -5.999  0.00  0.00     0.130 A 
ATOM      2  C2  DEN d   1      -4.637   4.168  -5.929  0.00  0.00    -0.031 A 
ATOM      3  C3  DEN d   1      -3.334   3.478  -5.854  0.00  0.00     0.027 A 
ATOM      4  C4  DEN d   1      -2.836   0.947  -5.845  0.00  0.00     0.027 A 
ATOM      5  C5  DEN d   1      -3.402  -0.308  -5.876  0.00  0.00    -0.003 A 
ATOM      6  C6  DEN d   1      -4.758  -0.497  -5.916  0.00  0.00     0.001 A 
ATOM      7  C7  DEN d   1      -5.593   0.588  -5.971  0.00  0.00     0.017 A 
ATOM      8  C8  DEN d   1      -5.030   1.857  -5.932  0.00  0.00    -0.094 A 
ATOM      9  C9  DEN d   1      -3.657   2.027  -5.904  0.00  0.00    -0.072 A 
ENDROOT
TORSDOF 0
ENDMDL
