MODEL 1
REMARK minimizedAffinity 0.718529642
REMARK minimizedRMSD -1
REMARK  0 active torsions:
REMARK  status: ('A' for Active; 'I' for Inactive)
ROOT
ATOM      1  C1  DEN d   1      -2.576   0.733  -5.984  0.00  0.00     0.130 A 
ATOM      2  C2  DEN d   1      -3.752  -0.133  -5.954  0.00  0.00    -0.031 A 
ATOM      3  C3  DEN d   1      -4.952   0.727  -5.947  0.00  0.00     0.027 A 
ATOM      4  C4  DEN d   1      -5.105   3.301  -5.984  0.00  0.00     0.027 A 
ATOM      5  C5  DEN d   1      -4.374   4.469  -6.000  0.00  0.00    -0.003 A 
ATOM      6  C6  DEN d   1      -3.005   4.474  -5.978  0.00  0.00     0.001 A 
ATOM      7  C7  DEN d   1      -2.322   3.286  -5.984  0.00  0.00     0.017 A 
ATOM      8  C8  DEN d   1      -3.051   2.105  -5.960  0.00  0.00    -0.094 A 
ATOM      9  C9  DEN d   1      -4.435   2.121  -5.995  0.00  0.00    -0.072 A 
ENDROOT
TORSDOF 0
ENDMDL
