MODEL 1
REMARK minimizedAffinity 0.166552454
REMARK minimizedRMSD -1
REMARK  0 active torsions:
REMARK  status: ('A' for Active; 'I' for Inactive)
ROOT
ATOM      1  C1  DEN d   1      -5.681  -0.159  -5.964  0.00  0.00     0.130 A 
ATOM      2  C2  DEN d   1      -4.665  -1.207  -5.986  0.00  0.00    -0.031 A 
ATOM      3  C3  DEN d   1      -3.339  -0.558  -6.000  0.00  0.00     0.027 A 
ATOM      4  C4  DEN d   1      -2.764   1.957  -5.983  0.00  0.00     0.027 A 
ATOM      5  C5  DEN d   1      -3.291   3.229  -5.977  0.00  0.00    -0.003 A 
ATOM      6  C6  DEN d   1      -4.641   3.460  -6.000  0.00  0.00     0.001 A 
ATOM      7  C7  DEN d   1      -5.511   2.401  -5.984  0.00  0.00     0.017 A 
ATOM      8  C8  DEN d   1      -4.986   1.116  -5.998  0.00  0.00    -0.094 A 
ATOM      9  C9  DEN d   1      -3.619   0.903  -5.963  0.00  0.00    -0.072 A 
ENDROOT
TORSDOF 0
ENDMDL
