MODEL 1
REMARK minimizedAffinity -0.355582923
REMARK minimizedRMSD -1
REMARK  0 active torsions:
REMARK  status: ('A' for Active; 'I' for Inactive)
ROOT
ATOM      1  C1  DEN d   1      -3.016   3.869  -5.962  0.00  0.00     0.130 A 
ATOM      2  C2  DEN d   1      -4.335   4.495  -5.985  0.00  0.00    -0.031 A 
ATOM      3  C3  DEN d   1      -5.349   3.421  -6.000  0.00  0.00     0.027 A 
ATOM      4  C4  DEN d   1      -5.007   0.865  -5.984  0.00  0.00     0.027 A 
ATOM      5  C5  DEN d   1      -4.066  -0.141  -5.978  0.00  0.00    -0.003 A 
ATOM      6  C6  DEN d   1      -2.721   0.116  -5.999  0.00  0.00     0.001 A 
ATOM      7  C7  DEN d   1      -2.278   1.412  -5.983  0.00  0.00     0.017 A 
ATOM      8  C8  DEN d   1      -3.220   2.432  -5.997  0.00  0.00    -0.094 A 
ATOM      9  C9  DEN d   1      -4.575   2.152  -5.963  0.00  0.00    -0.072 A 
ENDROOT
TORSDOF 0
ENDMDL
