MODEL 1
REMARK minimizedAffinity -1.42090559
REMARK minimizedRMSD -1
REMARK  0 active torsions:
REMARK  status: ('A' for Active; 'I' for Inactive)
ROOT
ATOM      1  C1  DEN d   1      -3.486   3.994  -5.906  0.00  0.00     0.130 A 
ATOM      2  C2  DEN d   1      -4.837   4.547  -5.953  0.00  0.00    -0.031 A 
ATOM      3  C3  DEN d   1      -5.790   3.420  -6.000  0.00  0.00     0.027 A 
ATOM      4  C4  DEN d   1      -5.309   0.886  -5.999  0.00  0.00     0.027 A 
ATOM      5  C5  DEN d   1      -4.315  -0.068  -5.981  0.00  0.00    -0.003 A 
ATOM      6  C6  DEN d   1      -2.986   0.263  -5.970  0.00  0.00     0.001 A 
ATOM      7  C7  DEN d   1      -2.614   1.581  -5.933  0.00  0.00     0.017 A 
ATOM      8  C8  DEN d   1      -3.610   2.548  -5.959  0.00  0.00    -0.094 A 
ATOM      9  C9  DEN d   1      -4.949   2.194  -5.957  0.00  0.00    -0.072 A 
ENDROOT
TORSDOF 0
ENDMDL
