MODEL 1
REMARK minimizedAffinity 0.0421760045
REMARK minimizedRMSD -1
REMARK  0 active torsions:
REMARK  status: ('A' for Active; 'I' for Inactive)
ROOT
ATOM      1  C1  DEN d   1      -4.149   0.157  -5.966  0.00  0.00     0.130 A 
ATOM      2  C2  DEN d   1      -2.839  -0.486  -5.987  0.00  0.00    -0.031 A 
ATOM      3  C3  DEN d   1      -1.810   0.573  -5.997  0.00  0.00     0.027 A 
ATOM      4  C4  DEN d   1      -2.117   3.133  -5.978  0.00  0.00     0.027 A 
ATOM      5  C5  DEN d   1      -3.043   4.153  -5.972  0.00  0.00    -0.003 A 
ATOM      6  C6  DEN d   1      -4.392   3.914  -5.998  0.00  0.00     0.001 A 
ATOM      7  C7  DEN d   1      -4.853   2.625  -5.985  0.00  0.00     0.017 A 
ATOM      8  C8  DEN d   1      -3.925   1.592  -5.998  0.00  0.00    -0.094 A 
ATOM      9  C9  DEN d   1      -2.566   1.853  -5.960  0.00  0.00    -0.072 A 
ENDROOT
TORSDOF 0
ENDMDL
