MODEL 1
REMARK minimizedAffinity 0.490623713
REMARK minimizedRMSD -1
REMARK  0 active torsions:
REMARK  status: ('A' for Active; 'I' for Inactive)
ROOT
ATOM      1  C1  DEN d   1      -2.216   1.089  -5.983  0.00  0.00     0.130 A 
ATOM      2  C2  DEN d   1      -3.392   0.224  -5.958  0.00  0.00    -0.031 A 
ATOM      3  C3  DEN d   1      -4.592   1.085  -5.953  0.00  0.00     0.027 A 
ATOM      4  C4  DEN d   1      -4.742   3.660  -5.987  0.00  0.00     0.027 A 
ATOM      5  C5  DEN d   1      -4.010   4.826  -5.999  0.00  0.00    -0.003 A 
ATOM      6  C6  DEN d   1      -2.641   4.830  -5.972  0.00  0.00     0.001 A 
ATOM      7  C7  DEN d   1      -1.959   3.642  -5.978  0.00  0.00     0.017 A 
ATOM      8  C8  DEN d   1      -2.689   2.461  -5.958  0.00  0.00    -0.094 A 
ATOM      9  C9  DEN d   1      -4.073   2.479  -5.998  0.00  0.00    -0.072 A 
ENDROOT
TORSDOF 0
ENDMDL
