MODEL 1
REMARK minimizedAffinity 6.30263758
REMARK minimizedRMSD -1
REMARK  0 active torsions:
REMARK  status: ('A' for Active; 'I' for Inactive)
ROOT
ATOM      1  C1  DEN d   1      -3.490   4.723  -5.982  0.00  0.00     0.130 A 
ATOM      2  C2  DEN d   1      -4.945   4.590  -5.988  0.00  0.00    -0.031 A 
ATOM      3  C3  DEN d   1      -5.272   3.150  -5.974  0.00  0.00     0.027 A 
ATOM      4  C4  DEN d   1      -3.676   1.124  -5.938  0.00  0.00     0.027 A 
ATOM      5  C5  DEN d   1      -2.354   0.736  -5.938  0.00  0.00    -0.003 A 
ATOM      6  C6  DEN d   1      -1.327   1.641  -5.986  0.00  0.00     0.001 A 
ATOM      7  C7  DEN d   1      -1.605   2.982  -5.991  0.00  0.00     0.017 A 
ATOM      8  C8  DEN d   1      -2.935   3.381  -5.999  0.00  0.00    -0.094 A 
ATOM      9  C9  DEN d   1      -3.959   2.451  -5.938  0.00  0.00    -0.072 A 
ENDROOT
TORSDOF 0
ENDMDL
