MODEL 1
REMARK minimizedAffinity 3.61136675
REMARK minimizedRMSD -1
REMARK  0 active torsions:
REMARK  status: ('A' for Active; 'I' for Inactive)
ROOT
ATOM      1  C1  DEN d   1       0.025   0.950  -0.054  0.00  0.00     0.130 A 
ATOM      2  C2  DEN d   1      -1.020   0.733  -1.051  0.00  0.00    -0.031 A 
ATOM      3  C3  DEN d   1      -0.486  -0.181  -2.081  0.00  0.00     0.027 A 
ATOM      4  C4  DEN d   1       1.844  -1.280  -2.224  0.00  0.00     0.027 A 
ATOM      5  C5  DEN d   1       3.074  -1.386  -1.613  0.00  0.00    -0.003 A 
ATOM      6  C6  DEN d   1       3.383  -0.700  -0.469  0.00  0.00     0.001 A 
ATOM      7  C7  DEN d   1       2.434   0.088   0.127  0.00  0.00     0.017 A 
ATOM      8  C8  DEN d   1       1.194   0.206  -0.486  0.00  0.00    -0.094 A 
ATOM      9  C9  DEN d   1       0.897  -0.505  -1.636  0.00  0.00    -0.072 A 
ENDROOT
TORSDOF 0
ENDMDL
