MODEL 1
REMARK minimizedAffinity 1.70405698
REMARK minimizedRMSD -1
REMARK  0 active torsions:
REMARK  status: ('A' for Active; 'I' for Inactive)
ROOT
ATOM      1  C1  DEN d   1      -2.924   0.976  -5.960  0.00  0.00     0.130 A 
ATOM      2  C2  DEN d   1      -1.600   1.591  -5.970  0.00  0.00    -0.031 A 
ATOM      3  C3  DEN d   1      -1.777   3.057  -5.974  0.00  0.00     0.027 A 
ATOM      4  C4  DEN d   1      -3.963   4.427  -5.961  0.00  0.00     0.027 A 
ATOM      5  C5  DEN d   1      -5.338   4.347  -5.963  0.00  0.00    -0.003 A 
ATOM      6  C6  DEN d   1      -5.999   3.148  -5.999  0.00  0.00     0.001 A 
ATOM      7  C7  DEN d   1      -5.286   1.979  -5.988  0.00  0.00     0.017 A 
ATOM      8  C8  DEN d   1      -3.899   2.052  -5.993  0.00  0.00    -0.094 A 
ATOM      9  C9  DEN d   1      -3.249   3.273  -5.944  0.00  0.00    -0.072 A 
ENDROOT
TORSDOF 0
ENDMDL
