MODEL 1
REMARK minimizedAffinity -0.450419545
REMARK minimizedRMSD -1
REMARK  0 active torsions:
REMARK  status: ('A' for Active; 'I' for Inactive)
ROOT
ATOM      1  C1  DEN d   1      -1.899  -0.222  -5.630  0.00  0.00     0.130 A 
ATOM      2  C2  DEN d   1      -2.680  -1.455  -5.692  0.00  0.00    -0.031 A 
ATOM      3  C3  DEN d   1      -4.102  -1.087  -5.846  0.00  0.00     0.027 A 
ATOM      4  C4  DEN d   1      -5.164   1.258  -6.000  0.00  0.00     0.027 A 
ATOM      5  C5  DEN d   1      -4.905   2.611  -5.983  0.00  0.00    -0.003 A 
ATOM      6  C6  DEN d   1      -3.641   3.110  -5.815  0.00  0.00     0.001 A 
ATOM      7  C7  DEN d   1      -2.581   2.250  -5.702  0.00  0.00     0.017 A 
ATOM      8  C8  DEN d   1      -2.835   0.885  -5.710  0.00  0.00    -0.094 A 
ATOM      9  C9  DEN d   1      -4.119   0.400  -5.893  0.00  0.00    -0.072 A 
ENDROOT
TORSDOF 0
ENDMDL
