MODEL 1
REMARK minimizedAffinity -1.37282467
REMARK minimizedRMSD -1
REMARK  0 active torsions:
REMARK  status: ('A' for Active; 'I' for Inactive)
ROOT
ATOM      1  C1  DEN d   1      -4.850   2.825  -5.954  0.00  0.00     0.130 A 
ATOM      2  C2  DEN d   1      -4.075   4.063  -5.951  0.00  0.00    -0.031 A 
ATOM      3  C3  DEN d   1      -2.643   3.705  -5.966  0.00  0.00     0.027 A 
ATOM      4  C4  DEN d   1      -1.555   1.366  -5.998  0.00  0.00     0.027 A 
ATOM      5  C5  DEN d   1      -1.805   0.012  -5.996  0.00  0.00    -0.003 A 
ATOM      6  C6  DEN d   1      -3.076  -0.496  -5.945  0.00  0.00     0.001 A 
ATOM      7  C7  DEN d   1      -4.148   0.357  -5.941  0.00  0.00     0.017 A 
ATOM      8  C8  DEN d   1      -3.904   1.724  -5.936  0.00  0.00    -0.094 A 
ATOM      9  C9  DEN d   1      -2.612   2.218  -5.999  0.00  0.00    -0.072 A 
ENDROOT
TORSDOF 0
ENDMDL
