MODEL 1
REMARK minimizedAffinity -2.91835403
REMARK minimizedRMSD -1
REMARK  0 active torsions:
REMARK  status: ('A' for Active; 'I' for Inactive)
ROOT
ATOM      1  C1  DEN d   1      -1.482  -4.613  -5.937  0.00  0.00     0.130 A 
ATOM      2  C2  DEN d   1      -1.938  -5.999  -5.872  0.00  0.00    -0.031 A 
ATOM      3  C3  DEN d   1      -3.414  -5.994  -5.863  0.00  0.00     0.027 A 
ATOM      4  C4  DEN d   1      -5.031  -3.986  -5.947  0.00  0.00     0.027 A 
ATOM      5  C5  DEN d   1      -5.112  -2.612  -5.998  0.00  0.00    -0.003 A 
ATOM      6  C6  DEN d   1      -3.999  -1.814  -5.997  0.00  0.00     0.001 A 
ATOM      7  C7  DEN d   1      -2.754  -2.386  -5.990  0.00  0.00     0.017 A 
ATOM      8  C8  DEN d   1      -2.664  -3.770  -5.932  0.00  0.00    -0.094 A 
ATOM      9  C9  DEN d   1      -3.801  -4.560  -5.946  0.00  0.00    -0.072 A 
ENDROOT
TORSDOF 0
ENDMDL
