MODEL 1
REMARK minimizedAffinity 13.4257326
REMARK minimizedRMSD -1
REMARK  2 active torsions:
REMARK  status: ('A' for Active; 'I' for Inactive)
REMARK    1  A    between atoms: C2'_3  and  C1'_4 
REMARK    2  A    between atoms: C1'_4  and  C1_5 
ROOT
ATOM      1  C1  I4B d   1       2.776   2.912   1.443  0.00  0.00    -0.075 A 
ATOM      2  C2  I4B d   1       2.702   1.600   1.048  0.00  0.00     0.003 A 
ATOM      3  C3  I4B d   1       1.469   1.057   0.610  0.00  0.00     0.002 A 
ATOM      4  C4  I4B d   1       0.334   1.842   0.632  0.00  0.00    -0.004 A 
ATOM      5  C5  I4B d   1       0.417   3.178   1.012  0.00  0.00     0.002 A 
ATOM      6  C6  I4B d   1       1.648   3.721   1.408  0.00  0.00     0.003 A 
ENDROOT
BRANCH   1   7
ATOM      7  C1' I4B d   1       4.087   3.445   1.930  0.00  0.00     0.060 C 
BRANCH   7   8
ATOM      8  C2' I4B d   1       4.136   3.259   3.433  0.00  0.00    -0.013 C 
ATOM      9  C4' I4B d   1       5.173   2.238   3.822  0.00  0.00     0.013 C 
ATOM     10  C3' I4B d   1       4.429   4.591   4.055  0.00  0.00     0.013 C 
ENDBRANCH   7   8
ENDBRANCH   1   7
TORSDOF 2
ENDMDL
