MODEL 1
REMARK minimizedAffinity 7.45333862
REMARK minimizedRMSD -1
REMARK  2 active torsions:
REMARK  status: ('A' for Active; 'I' for Inactive)
REMARK    1  A    between atoms: C2'_3  and  C1'_4 
REMARK    2  A    between atoms: C1'_4  and  C1_5 
ROOT
ATOM      1  C1  I4B d   1       1.740  -0.662  -0.315  0.00  0.00    -0.075 A 
ATOM      2  C2  I4B d   1       2.570  -1.667   0.116  0.00  0.00     0.003 A 
ATOM      3  C3  I4B d   1       2.126  -3.012   0.106  0.00  0.00     0.002 A 
ATOM      4  C4  I4B d   1       0.836  -3.299  -0.292  0.00  0.00    -0.004 A 
ATOM      5  C5  I4B d   1       0.004  -2.282  -0.750  0.00  0.00     0.002 A 
ATOM      6  C6  I4B d   1       0.462  -0.956  -0.774  0.00  0.00     0.003 A 
ENDROOT
BRANCH   1   7
ATOM      7  C1' I4B d   1       2.229   0.750  -0.261  0.00  0.00     0.060 C 
BRANCH   7   8
ATOM      8  C2' I4B d   1       1.259   1.548   0.586  0.00  0.00    -0.013 C 
ATOM      9  C4' I4B d   1       1.985   2.518   1.480  0.00  0.00     0.013 C 
ATOM     10  C3' I4B d   1       0.318   2.263  -0.338  0.00  0.00     0.013 C 
ENDBRANCH   7   8
ENDBRANCH   1   7
TORSDOF 2
ENDMDL
