MODEL 1
REMARK minimizedAffinity 1.96788442
REMARK minimizedRMSD -1
REMARK  2 active torsions:
REMARK  status: ('A' for Active; 'I' for Inactive)
REMARK    1  A    between atoms: C2'_3  and  C1'_4 
REMARK    2  A    between atoms: C1'_4  and  C1_5 
ROOT
ATOM      1  C1  I4B d   1       2.600  -0.451  -0.909  0.00  0.00    -0.075 A 
ATOM      2  C2  I4B d   1       3.771  -0.368  -1.621  0.00  0.00     0.003 A 
ATOM      3  C3  I4B d   1       4.628   0.747  -1.456  0.00  0.00     0.002 A 
ATOM      4  C4  I4B d   1       4.253   1.773  -0.613  0.00  0.00    -0.004 A 
ATOM      5  C5  I4B d   1       3.077   1.676   0.125  0.00  0.00     0.002 A 
ATOM      6  C6  I4B d   1       2.250   0.552  -0.015  0.00  0.00     0.003 A 
ENDROOT
BRANCH   1   7
ATOM      7  C1' I4B d   1       1.703  -1.627  -1.133  0.00  0.00     0.060 C 
BRANCH   7   8
ATOM      8  C2' I4B d   1       1.495  -2.316   0.201  0.00  0.00    -0.013 C 
ATOM      9  C4' I4B d   1       0.601  -3.519   0.059  0.00  0.00     0.013 C 
ATOM     10  C3' I4B d   1       2.841  -2.701   0.737  0.00  0.00     0.013 C 
ENDBRANCH   7   8
ENDBRANCH   1   7
TORSDOF 2
ENDMDL
