MODEL 1
REMARK minimizedAffinity 7.12583447
REMARK minimizedRMSD -1
REMARK  2 active torsions:
REMARK  status: ('A' for Active; 'I' for Inactive)
REMARK    1  A    between atoms: C2'_3  and  C1'_4 
REMARK    2  A    between atoms: C1'_4  and  C1_5 
ROOT
ATOM      1  C1  I4B d   1      -4.499   1.161  -1.255  0.00  0.00    -0.075 A 
ATOM      2  C2  I4B d   1      -4.509   0.314  -2.335  0.00  0.00     0.003 A 
ATOM      3  C3  I4B d   1      -5.143   0.703  -3.540  0.00  0.00     0.002 A 
ATOM      4  C4  I4B d   1      -5.793   1.918  -3.604  0.00  0.00    -0.004 A 
ATOM      5  C5  I4B d   1      -5.762   2.785  -2.516  0.00  0.00     0.002 A 
ATOM      6  C6  I4B d   1      -5.101   2.410  -1.338  0.00  0.00     0.003 A 
ENDROOT
BRANCH   1   7
ATOM      7  C1' I4B d   1      -3.849   0.705   0.012  0.00  0.00     0.060 C 
BRANCH   7   8
ATOM      8  C2' I4B d   1      -3.974   1.821   1.029  0.00  0.00    -0.013 C 
ATOM      9  C4' I4B d   1      -4.866   1.419   2.174  0.00  0.00     0.013 C 
ATOM     10  C3' I4B d   1      -2.597   2.165   1.511  0.00  0.00     0.013 C 
ENDBRANCH   7   8
ENDBRANCH   1   7
TORSDOF 2
ENDMDL
