MODEL 1
REMARK minimizedAffinity 5.72465801
REMARK minimizedRMSD -1
REMARK  2 active torsions:
REMARK  status: ('A' for Active; 'I' for Inactive)
REMARK    1  A    between atoms: C2'_3  and  C1'_4 
REMARK    2  A    between atoms: C1'_4  and  C1_5 
ROOT
ATOM      1  C1  I4B d   1       1.857   1.459  -0.079  0.00  0.00    -0.075 A 
ATOM      2  C2  I4B d   1       1.798   0.089  -0.016  0.00  0.00     0.003 A 
ATOM      3  C3  I4B d   1       2.950  -0.659   0.329  0.00  0.00     0.002 A 
ATOM      4  C4  I4B d   1       4.144  -0.004   0.553  0.00  0.00    -0.004 A 
ATOM      5  C5  I4B d   1       4.196   1.387   0.511  0.00  0.00     0.002 A 
ATOM      6  C6  I4B d   1       3.042   2.124   0.206  0.00  0.00     0.003 A 
ENDROOT
BRANCH   1   7
ATOM      7  C1' I4B d   1       0.630   2.215  -0.478  0.00  0.00     0.060 C 
BRANCH   7   8
ATOM      8  C2' I4B d   1      -0.482   1.212  -0.711  0.00  0.00    -0.013 C 
ATOM      9  C4' I4B d   1      -1.646   1.465   0.210  0.00  0.00     0.013 C 
ATOM     10  C3' I4B d   1      -0.898   1.307  -2.149  0.00  0.00     0.013 C 
ENDBRANCH   7   8
ENDBRANCH   1   7
TORSDOF 2
ENDMDL
