MODEL 1
REMARK minimizedAffinity 5.5181756
REMARK minimizedRMSD -1
REMARK  2 active torsions:
REMARK  status: ('A' for Active; 'I' for Inactive)
REMARK    1  A    between atoms: C2'_3  and  C1'_4 
REMARK    2  A    between atoms: C1'_4  and  C1_5 
ROOT
ATOM      1  C1  I4B d   1      -1.415   2.197   1.407  0.00  0.00    -0.075 A 
ATOM      2  C2  I4B d   1      -0.508   2.255   0.378  0.00  0.00     0.003 A 
ATOM      3  C3  I4B d   1       0.794   1.725   0.544  0.00  0.00     0.002 A 
ATOM      4  C4  I4B d   1       1.161   1.195   1.764  0.00  0.00    -0.004 A 
ATOM      5  C5  I4B d   1       0.234   1.115   2.799  0.00  0.00     0.002 A 
ATOM      6  C6  I4B d   1      -1.066   1.608   2.615  0.00  0.00     0.003 A 
ENDROOT
BRANCH   1   7
ATOM      7  C1' I4B d   1      -2.771   2.796   1.207  0.00  0.00     0.060 C 
BRANCH   7   8
ATOM      8  C2' I4B d   1      -3.801   1.720   1.483  0.00  0.00    -0.013 C 
ATOM      9  C4' I4B d   1      -5.122   2.321   1.886  0.00  0.00     0.013 C 
ATOM     10  C3' I4B d   1      -3.942   0.886   0.244  0.00  0.00     0.013 C 
ENDBRANCH   7   8
ENDBRANCH   1   7
TORSDOF 2
ENDMDL
