MODEL 1
REMARK minimizedAffinity 9.61394501
REMARK minimizedRMSD -1
REMARK  2 active torsions:
REMARK  status: ('A' for Active; 'I' for Inactive)
REMARK    1  A    between atoms: C2'_3  and  C1'_4 
REMARK    2  A    between atoms: C1'_4  and  C1_5 
ROOT
ATOM      1  C1  I4B d   1       0.810  -1.285  -0.587  0.00  0.00    -0.075 A 
ATOM      2  C2  I4B d   1      -0.067  -0.274  -0.891  0.00  0.00     0.003 A 
ATOM      3  C3  I4B d   1      -1.033  -0.451  -1.911  0.00  0.00     0.002 A 
ATOM      4  C4  I4B d   1      -1.053  -1.628  -2.631  0.00  0.00    -0.004 A 
ATOM      5  C5  I4B d   1      -0.178  -2.660  -2.306  0.00  0.00     0.002 A 
ATOM      6  C6  I4B d   1       0.752  -2.493  -1.270  0.00  0.00     0.003 A 
ENDROOT
BRANCH   1   7
ATOM      7  C1' I4B d   1       1.839  -1.052   0.473  0.00  0.00     0.060 C 
BRANCH   7   8
ATOM      8  C2' I4B d   1       1.114  -0.732   1.765  0.00  0.00    -0.013 C 
ATOM      9  C4' I4B d   1       1.174  -1.890   2.725  0.00  0.00     0.013 C 
ATOM     10  C3' I4B d   1       1.742   0.495   2.356  0.00  0.00     0.013 C 
ENDBRANCH   7   8
ENDBRANCH   1   7
TORSDOF 2
ENDMDL
