MODEL 1
REMARK minimizedAffinity -1.48888671
REMARK minimizedRMSD -1
REMARK  2 active torsions:
REMARK  status: ('A' for Active; 'I' for Inactive)
REMARK    1  A    between atoms: C2'_3  and  C1'_4 
REMARK    2  A    between atoms: C1'_4  and  C1_5 
ROOT
ATOM      1  C1  I4B d   1       0.668   0.291  -0.920  0.00  0.00    -0.075 A 
ATOM      2  C2  I4B d   1       1.935  -0.204  -0.738  0.00  0.00     0.003 A 
ATOM      3  C3  I4B d   1       2.181  -1.594  -0.856  0.00  0.00     0.002 A 
ATOM      4  C4  I4B d   1       1.128  -2.451  -1.104  0.00  0.00    -0.004 A 
ATOM      5  C5  I4B d   1      -0.151  -1.945  -1.310  0.00  0.00     0.002 A 
ATOM      6  C6  I4B d   1      -0.381  -0.564  -1.230  0.00  0.00     0.003 A 
ENDROOT
BRANCH   1   7
ATOM      7  C1' I4B d   1       0.438   1.760  -0.756  0.00  0.00     0.060 C 
BRANCH   7   8
ATOM      8  C2' I4B d   1      -0.062   2.001   0.654  0.00  0.00    -0.013 C 
ATOM      9  C4' I4B d   1       1.024   1.750   1.667  0.00  0.00     0.013 C 
ATOM     10  C3' I4B d   1      -0.562   3.412   0.733  0.00  0.00     0.013 C 
ENDBRANCH   7   8
ENDBRANCH   1   7
TORSDOF 2
ENDMDL
