MODEL 1
REMARK minimizedAffinity 3.68380713
REMARK minimizedRMSD -1
REMARK  2 active torsions:
REMARK  status: ('A' for Active; 'I' for Inactive)
REMARK    1  A    between atoms: C2'_3  and  C1'_4 
REMARK    2  A    between atoms: C1'_4  and  C1_5 
ROOT
ATOM      1  C1  I4B d   1       0.725   0.691   0.000  0.00  0.00    -0.075 A 
ATOM      2  C2  I4B d   1       1.460  -0.468  -0.050  0.00  0.00     0.003 A 
ATOM      3  C3  I4B d   1       0.980  -1.586  -0.774  0.00  0.00     0.002 A 
ATOM      4  C4  I4B d   1      -0.255  -1.519  -1.387  0.00  0.00    -0.004 A 
ATOM      5  C5  I4B d   1      -0.988  -0.336  -1.355  0.00  0.00     0.002 A 
ATOM      6  C6  I4B d   1      -0.489   0.780  -0.667  0.00  0.00     0.003 A 
ENDROOT
BRANCH   1   7
ATOM      7  C1' I4B d   1       1.247   1.841   0.801  0.00  0.00     0.060 C 
BRANCH   7   8
ATOM      8  C2' I4B d   1       0.658   1.745   2.194  0.00  0.00    -0.013 C 
ATOM      9  C4' I4B d   1       1.670   1.221   3.179  0.00  0.00     0.013 C 
ATOM     10  C3' I4B d   1       0.175   3.109   2.588  0.00  0.00     0.013 C 
ENDBRANCH   7   8
ENDBRANCH   1   7
TORSDOF 2
ENDMDL
