MODEL 1
REMARK minimizedAffinity 13.6385193
REMARK minimizedRMSD -1
REMARK  2 active torsions:
REMARK  status: ('A' for Active; 'I' for Inactive)
REMARK    1  A    between atoms: C2'_3  and  C1'_4 
REMARK    2  A    between atoms: C1'_4  and  C1_5 
ROOT
ATOM      1  C1  I4B d   1       2.173  -0.414  -0.664  0.00  0.00    -0.075 A 
ATOM      2  C2  I4B d   1       2.597  -1.184   0.391  0.00  0.00     0.003 A 
ATOM      3  C3  I4B d   1       2.370  -2.582   0.389  0.00  0.00     0.002 A 
ATOM      4  C4  I4B d   1       1.675  -3.157  -0.655  0.00  0.00    -0.004 A 
ATOM      5  C5  I4B d   1       1.266  -2.378  -1.734  0.00  0.00     0.002 A 
ATOM      6  C6  I4B d   1       1.527  -1.000  -1.745  0.00  0.00     0.003 A 
ENDROOT
BRANCH   1   7
ATOM      7  C1' I4B d   1       2.400   1.063  -0.614  0.00  0.00     0.060 C 
BRANCH   7   8
ATOM      8  C2' I4B d   1       3.895   1.305  -0.597  0.00  0.00    -0.013 C 
ATOM      9  C4' I4B d   1       4.324   2.157  -1.763  0.00  0.00     0.013 C 
ATOM     10  C3' I4B d   1       4.243   1.959   0.707  0.00  0.00     0.013 C 
ENDBRANCH   7   8
ENDBRANCH   1   7
TORSDOF 2
ENDMDL
