MODEL 1
REMARK minimizedAffinity 19.8006153
REMARK minimizedRMSD -1
REMARK  2 active torsions:
REMARK  status: ('A' for Active; 'I' for Inactive)
REMARK    1  A    between atoms: C2'_3  and  C1'_4 
REMARK    2  A    between atoms: C1'_4  and  C1_5 
ROOT
ATOM      1  C1  I4B d   1      -4.804   2.869  -0.325  0.00  0.00    -0.075 A 
ATOM      2  C2  I4B d   1      -4.938   1.572   0.105  0.00  0.00     0.003 A 
ATOM      3  C3  I4B d   1      -5.512   0.595  -0.745  0.00  0.00     0.002 A 
ATOM      4  C4  I4B d   1      -5.980   0.967  -1.989  0.00  0.00    -0.004 A 
ATOM      5  C5  I4B d   1      -5.822   2.277  -2.431  0.00  0.00     0.002 A 
ATOM      6  C6  I4B d   1      -5.219   3.232  -1.599  0.00  0.00     0.003 A 
ENDROOT
BRANCH   1   7
ATOM      7  C1' I4B d   1      -4.225   3.881   0.611  0.00  0.00     0.060 C 
BRANCH   7   8
ATOM      8  C2' I4B d   1      -4.434   5.253   0.002  0.00  0.00    -0.013 C 
ATOM      9  C4' I4B d   1      -5.536   6.000   0.708  0.00  0.00     0.013 C 
ATOM     10  C3' I4B d   1      -3.136   5.999   0.084  0.00  0.00     0.013 C 
ENDBRANCH   7   8
ENDBRANCH   1   7
TORSDOF 2
ENDMDL
