MODEL 1
REMARK minimizedAffinity 27.5893116
REMARK minimizedRMSD -1
REMARK  2 active torsions:
REMARK  status: ('A' for Active; 'I' for Inactive)
REMARK    1  A    between atoms: C2'_3  and  C1'_4 
REMARK    2  A    between atoms: C1'_4  and  C1_5 
ROOT
ATOM      1  C1  I4B d   1       3.506   3.945   3.317  0.00  0.00    -0.075 A 
ATOM      2  C2  I4B d   1       3.436   5.308   3.462  0.00  0.00     0.003 A 
ATOM      3  C3  I4B d   1       2.190   5.973   3.360  0.00  0.00     0.002 A 
ATOM      4  C4  I4B d   1       1.055   5.247   3.064  0.00  0.00    -0.004 A 
ATOM      5  C5  I4B d   1       1.123   3.863   2.939  0.00  0.00     0.002 A 
ATOM      6  C6  I4B d   1       2.354   3.205   3.079  0.00  0.00     0.003 A 
ENDROOT
BRANCH   1   7
ATOM      7  C1' I4B d   1       4.842   3.279   3.398  0.00  0.00     0.060 C 
BRANCH   7   8
ATOM      8  C2' I4B d   1       4.887   2.476   4.682  0.00  0.00    -0.013 C 
ATOM      9  C4' I4B d   1       5.673   1.204   4.503  0.00  0.00     0.013 C 
ATOM     10  C3' I4B d   1       5.491   3.340   5.748  0.00  0.00     0.013 C 
ENDBRANCH   7   8
ENDBRANCH   1   7
TORSDOF 2
ENDMDL
