MODEL 1
REMARK minimizedAffinity 8.70194149
REMARK minimizedRMSD -1
REMARK  2 active torsions:
REMARK  status: ('A' for Active; 'I' for Inactive)
REMARK    1  A    between atoms: C2'_3  and  C1'_4 
REMARK    2  A    between atoms: C1'_4  and  C1_5 
ROOT
ATOM      1  C1  I4B d   1      -5.205   4.102   3.067  0.00  0.00    -0.075 A 
ATOM      2  C2  I4B d   1      -6.000   4.045   4.185  0.00  0.00     0.003 A 
ATOM      3  C3  I4B d   1      -5.830   4.986   5.229  0.00  0.00     0.002 A 
ATOM      4  C4  I4B d   1      -4.827   5.929   5.138  0.00  0.00    -0.004 A 
ATOM      5  C5  I4B d   1      -4.037   6.000   3.994  0.00  0.00     0.002 A 
ATOM      6  C6  I4B d   1      -4.235   5.089   2.946  0.00  0.00     0.003 A 
ENDROOT
BRANCH   1   7
ATOM      7  C1' I4B d   1      -5.389   3.072   1.998  0.00  0.00     0.060 C 
BRANCH   7   8
ATOM      8  C2' I4B d   1      -4.094   2.970   1.219  0.00  0.00    -0.013 C 
ATOM      9  C4' I4B d   1      -3.809   1.547   0.818  0.00  0.00     0.013 C 
ATOM     10  C3' I4B d   1      -4.204   3.860   0.018  0.00  0.00     0.013 C 
ENDBRANCH   7   8
ENDBRANCH   1   7
TORSDOF 2
ENDMDL
