MODEL 1
REMARK minimizedAffinity 12.5368938
REMARK minimizedRMSD -1
REMARK  2 active torsions:
REMARK  status: ('A' for Active; 'I' for Inactive)
REMARK    1  A    between atoms: C2'_3  and  C1'_4 
REMARK    2  A    between atoms: C1'_4  and  C1_5 
ROOT
ATOM      1  C1  I4B d   1      -0.713  -0.966   1.521  0.00  0.00    -0.075 A 
ATOM      2  C2  I4B d   1      -1.389   0.218   1.685  0.00  0.00     0.003 A 
ATOM      3  C3  I4B d   1      -2.734   0.336   1.260  0.00  0.00     0.002 A 
ATOM      4  C4  I4B d   1      -3.345  -0.731   0.633  0.00  0.00    -0.004 A 
ATOM      5  C5  I4B d   1      -2.666  -1.938   0.489  0.00  0.00     0.002 A 
ATOM      6  C6  I4B d   1      -1.346  -2.060   0.946  0.00  0.00     0.003 A 
ENDROOT
BRANCH   1   7
ATOM      7  C1' I4B d   1       0.717  -1.046   1.952  0.00  0.00     0.060 C 
BRANCH   7   8
ATOM      8  C2' I4B d   1       0.993  -2.469   2.393  0.00  0.00    -0.013 C 
ATOM      9  C4' I4B d   1       1.788  -3.217   1.355  0.00  0.00     0.013 C 
ATOM     10  C3' I4B d   1       1.725  -2.415   3.700  0.00  0.00     0.013 C 
ENDBRANCH   7   8
ENDBRANCH   1   7
TORSDOF 2
ENDMDL
