MODEL 1
REMARK minimizedAffinity 9.73815918
REMARK minimizedRMSD -1
REMARK  2 active torsions:
REMARK  status: ('A' for Active; 'I' for Inactive)
REMARK    1  A    between atoms: C2'_3  and  C1'_4 
REMARK    2  A    between atoms: C1'_4  and  C1_5 
ROOT
ATOM      1  C1  I4B d   1      -3.718   1.727   4.398  0.00  0.00    -0.075 A 
ATOM      2  C2  I4B d   1      -4.484   2.865   4.463  0.00  0.00     0.003 A 
ATOM      3  C3  I4B d   1      -5.630   2.906   5.294  0.00  0.00     0.002 A 
ATOM      4  C4  I4B d   1      -5.999   1.779   6.000  0.00  0.00    -0.004 A 
ATOM      5  C5  I4B d   1      -5.208   0.634   5.950  0.00  0.00     0.002 A 
ATOM      6  C6  I4B d   1      -4.054   0.612   5.154  0.00  0.00     0.003 A 
ENDROOT
BRANCH   1   7
ATOM      7  C1' I4B d   1      -2.534   1.707   3.484  0.00  0.00     0.060 C 
BRANCH   7   8
ATOM      8  C2' I4B d   1      -2.109   0.265   3.303  0.00  0.00    -0.013 C 
ATOM      9  C4' I4B d   1      -1.742  -0.020   1.870  0.00  0.00     0.013 C 
ATOM     10  C3' I4B d   1      -0.951   0.004   4.220  0.00  0.00     0.013 C 
ENDBRANCH   7   8
ENDBRANCH   1   7
TORSDOF 2
ENDMDL
