MODEL 1
REMARK minimizedAffinity 6.26707649
REMARK minimizedRMSD -1
REMARK  2 active torsions:
REMARK  status: ('A' for Active; 'I' for Inactive)
REMARK    1  A    between atoms: C2'_3  and  C1'_4 
REMARK    2  A    between atoms: C1'_4  and  C1_5 
ROOT
ATOM      1  C1  I4B d   1      -0.954  -1.064   2.766  0.00  0.00    -0.075 A 
ATOM      2  C2  I4B d   1      -1.496   0.182   2.962  0.00  0.00     0.003 A 
ATOM      3  C3  I4B d   1      -2.445   0.698   2.047  0.00  0.00     0.002 A 
ATOM      4  C4  I4B d   1      -2.783  -0.039   0.930  0.00  0.00    -0.004 A 
ATOM      5  C5  I4B d   1      -2.250  -1.311   0.745  0.00  0.00     0.002 A 
ATOM      6  C6  I4B d   1      -1.339  -1.832   1.676  0.00  0.00     0.003 A 
ENDROOT
BRANCH   1   7
ATOM      7  C1' I4B d   1       0.070  -1.564   3.735  0.00  0.00     0.060 C 
BRANCH   7   8
ATOM      8  C2' I4B d   1       1.164  -2.252   2.944  0.00  0.00    -0.013 C 
ATOM      9  C4' I4B d   1       2.340  -1.335   2.730  0.00  0.00     0.013 C 
ATOM     10  C3' I4B d   1       1.569  -3.487   3.691  0.00  0.00     0.013 C 
ENDBRANCH   7   8
ENDBRANCH   1   7
TORSDOF 2
ENDMDL
