MODEL 1
REMARK minimizedAffinity 9.76391602
REMARK minimizedRMSD -1
REMARK  2 active torsions:
REMARK  status: ('A' for Active; 'I' for Inactive)
REMARK    1  A    between atoms: C2'_3  and  C1'_4 
REMARK    2  A    between atoms: C1'_4  and  C1_5 
ROOT
ATOM      1  C1  I4B d   1      -5.894  -4.777   3.212  0.00  0.00    -0.075 A 
ATOM      2  C2  I4B d   1      -5.844  -3.590   3.899  0.00  0.00     0.003 A 
ATOM      3  C3  I4B d   1      -5.858  -3.586   5.315  0.00  0.00     0.002 A 
ATOM      4  C4  I4B d   1      -5.972  -4.780   5.998  0.00  0.00    -0.004 A 
ATOM      5  C5  I4B d   1      -6.000  -5.983   5.299  0.00  0.00     0.002 A 
ATOM      6  C6  I4B d   1      -5.948  -5.984   3.898  0.00  0.00     0.003 A 
ENDROOT
BRANCH   1   7
ATOM      7  C1' I4B d   1      -5.912  -4.744   1.716  0.00  0.00     0.060 C 
BRANCH   7   8
ATOM      8  C2' I4B d   1      -4.644  -4.057   1.250  0.00  0.00    -0.013 C 
ATOM      9  C4' I4B d   1      -4.331  -2.855   2.102  0.00  0.00     0.013 C 
ATOM     10  C3' I4B d   1      -3.530  -5.059   1.297  0.00  0.00     0.013 C 
ENDBRANCH   7   8
ENDBRANCH   1   7
TORSDOF 2
ENDMDL
