MODEL 1
REMARK minimizedAffinity 9.31664276
REMARK minimizedRMSD -1
REMARK  2 active torsions:
REMARK  status: ('A' for Active; 'I' for Inactive)
REMARK    1  A    between atoms: C2'_3  and  C1'_4 
REMARK    2  A    between atoms: C1'_4  and  C1_5 
ROOT
ATOM      1  C1  I4B d   1      -0.483  -1.820   2.044  0.00  0.00    -0.075 A 
ATOM      2  C2  I4B d   1      -0.425  -0.962   3.114  0.00  0.00     0.003 A 
ATOM      3  C3  I4B d   1       0.579  -1.120   4.100  0.00  0.00     0.002 A 
ATOM      4  C4  I4B d   1       1.466  -2.173   4.004  0.00  0.00    -0.004 A 
ATOM      5  C5  I4B d   1       1.419  -3.028   2.907  0.00  0.00     0.002 A 
ATOM      6  C6  I4B d   1       0.446  -2.843   1.914  0.00  0.00     0.003 A 
ENDROOT
BRANCH   1   7
ATOM      7  C1' I4B d   1      -1.576  -1.644   1.038  0.00  0.00     0.060 C 
BRANCH   7   8
ATOM      8  C2' I4B d   1      -2.190  -3.004   0.773  0.00  0.00    -0.013 C 
ATOM      9  C4' I4B d   1      -3.658  -3.014   1.107  0.00  0.00     0.013 C 
ATOM     10  C3' I4B d   1      -1.960  -3.341  -0.670  0.00  0.00     0.013 C 
ENDBRANCH   7   8
ENDBRANCH   1   7
TORSDOF 2
ENDMDL
