MODEL 1
REMARK minimizedAffinity 15.6053896
REMARK minimizedRMSD -1
REMARK  2 active torsions:
REMARK  status: ('A' for Active; 'I' for Inactive)
REMARK    1  A    between atoms: C2'_3  and  C1'_4 
REMARK    2  A    between atoms: C1'_4  and  C1_5 
ROOT
ATOM      1  C1  I4B d   1      -0.719  -0.763   4.005  0.00  0.00    -0.075 A 
ATOM      2  C2  I4B d   1       0.267  -1.554   4.540  0.00  0.00     0.003 A 
ATOM      3  C3  I4B d   1       0.946  -2.494   3.728  0.00  0.00     0.002 A 
ATOM      4  C4  I4B d   1       0.574  -2.646   2.408  0.00  0.00    -0.004 A 
ATOM      5  C5  I4B d   1      -0.410  -1.828   1.861  0.00  0.00     0.002 A 
ATOM      6  C6  I4B d   1      -1.053  -0.872   2.661  0.00  0.00     0.003 A 
ENDROOT
BRANCH   1   7
ATOM      7  C1' I4B d   1      -1.439   0.196   4.899  0.00  0.00     0.060 C 
BRANCH   7   8
ATOM      8  C2' I4B d   1      -2.887   0.249   4.458  0.00  0.00    -0.013 C 
ATOM      9  C4' I4B d   1      -3.817   0.288   5.643  0.00  0.00     0.013 C 
ATOM     10  C3' I4B d   1      -3.064   1.461   3.592  0.00  0.00     0.013 C 
ENDBRANCH   7   8
ENDBRANCH   1   7
TORSDOF 2
ENDMDL
