MODEL 1
REMARK minimizedAffinity 15.7480974
REMARK minimizedRMSD -1
REMARK  2 active torsions:
REMARK  status: ('A' for Active; 'I' for Inactive)
REMARK    1  A    between atoms: C2'_3  and  C1'_4 
REMARK    2  A    between atoms: C1'_4  and  C1_5 
ROOT
ATOM      1  C1  I4B d   1      -0.474  -1.532   2.001  0.00  0.00    -0.075 A 
ATOM      2  C2  I4B d   1      -1.431  -1.758   1.044  0.00  0.00     0.003 A 
ATOM      3  C3  I4B d   1      -2.559  -0.906   0.948  0.00  0.00     0.002 A 
ATOM      4  C4  I4B d   1      -2.713   0.122   1.856  0.00  0.00    -0.004 A 
ATOM      5  C5  I4B d   1      -1.730   0.363   2.812  0.00  0.00     0.002 A 
ATOM      6  C6  I4B d   1      -0.597  -0.461   2.877  0.00  0.00     0.003 A 
ENDROOT
BRANCH   1   7
ATOM      7  C1' I4B d   1       0.687  -2.470   2.095  0.00  0.00     0.060 C 
BRANCH   7   8
ATOM      8  C2' I4B d   1       1.468  -2.123   3.346  0.00  0.00    -0.013 C 
ATOM      9  C4' I4B d   1       1.359  -3.216   4.377  0.00  0.00     0.013 C 
ATOM     10  C3' I4B d   1       2.896  -1.892   2.951  0.00  0.00     0.013 C 
ENDBRANCH   7   8
ENDBRANCH   1   7
TORSDOF 2
ENDMDL
