MODEL 1
REMARK minimizedAffinity 13.575696
REMARK minimizedRMSD -1
REMARK  2 active torsions:
REMARK  status: ('A' for Active; 'I' for Inactive)
REMARK    1  A    between atoms: C2'_3  and  C1'_4 
REMARK    2  A    between atoms: C1'_4  and  C1_5 
ROOT
ATOM      1  C1  I4B d   1       3.165   1.519  -1.571  0.00  0.00    -0.075 A 
ATOM      2  C2  I4B d   1       4.140   2.449  -1.832  0.00  0.00     0.003 A 
ATOM      3  C3  I4B d   1       3.988   3.359  -2.906  0.00  0.00     0.002 A 
ATOM      4  C4  I4B d   1       2.876   3.271  -3.718  0.00  0.00    -0.004 A 
ATOM      5  C5  I4B d   1       1.877   2.343  -3.438  0.00  0.00     0.002 A 
ATOM      6  C6  I4B d   1       2.016   1.469  -2.350  0.00  0.00     0.003 A 
ENDROOT
BRANCH   1   7
ATOM      7  C1' I4B d   1       3.373   0.551  -0.449  0.00  0.00     0.060 C 
BRANCH   7   8
ATOM      8  C2' I4B d   1       2.438   0.936   0.679  0.00  0.00    -0.013 C 
ATOM      9  C4' I4B d   1       1.660  -0.255   1.173  0.00  0.00     0.013 C 
ATOM     10  C3' I4B d   1       3.262   1.538   1.779  0.00  0.00     0.013 C 
ENDBRANCH   7   8
ENDBRANCH   1   7
TORSDOF 2
ENDMDL
