MODEL 1
REMARK minimizedAffinity 4.69790411
REMARK minimizedRMSD -1
REMARK  2 active torsions:
REMARK  status: ('A' for Active; 'I' for Inactive)
REMARK    1  A    between atoms: C2'_3  and  C1'_4 
REMARK    2  A    between atoms: C1'_4  and  C1_5 
ROOT
ATOM      1  C1  I4B d   1       1.642   5.066  -3.303  0.00  0.00    -0.075 A 
ATOM      2  C2  I4B d   1       2.062   3.769  -3.458  0.00  0.00     0.003 A 
ATOM      3  C3  I4B d   1       3.342   3.374  -2.999  0.00  0.00     0.002 A 
ATOM      4  C4  I4B d   1       4.183   4.314  -2.439  0.00  0.00    -0.004 A 
ATOM      5  C5  I4B d   1       3.747   5.624  -2.262  0.00  0.00     0.002 A 
ATOM      6  C6  I4B d   1       2.463   6.000  -2.685  0.00  0.00     0.003 A 
ENDROOT
BRANCH   1   7
ATOM      7  C1' I4B d   1       0.297   5.456  -3.829  0.00  0.00     0.060 C 
BRANCH   7   8
ATOM      8  C2' I4B d   1       0.267   5.141  -5.311  0.00  0.00    -0.013 C 
ATOM      9  C4' I4B d   1      -0.006   3.680  -5.552  0.00  0.00     0.013 C 
ATOM     10  C3' I4B d   1      -0.786   6.000  -5.945  0.00  0.00     0.013 C 
ENDBRANCH   7   8
ENDBRANCH   1   7
TORSDOF 2
ENDMDL
