MODEL 1
REMARK minimizedAffinity 9.65504646
REMARK minimizedRMSD -1
REMARK  2 active torsions:
REMARK  status: ('A' for Active; 'I' for Inactive)
REMARK    1  A    between atoms: C2'_3  and  C1'_4 
REMARK    2  A    between atoms: C1'_4  and  C1_5 
ROOT
ATOM      1  C1  I4B d   1       3.396  -4.183  -0.663  0.00  0.00    -0.075 A 
ATOM      2  C2  I4B d   1       3.612  -5.502  -0.350  0.00  0.00     0.003 A 
ATOM      3  C3  I4B d   1       4.931  -5.997  -0.218  0.00  0.00     0.002 A 
ATOM      4  C4  I4B d   1       6.000  -5.156  -0.456  0.00  0.00    -0.004 A 
ATOM      5  C5  I4B d   1       5.780  -3.814  -0.750  0.00  0.00     0.002 A 
ATOM      6  C6  I4B d   1       4.470  -3.320  -0.843  0.00  0.00     0.003 A 
ENDROOT
BRANCH   1   7
ATOM      7  C1' I4B d   1       1.990  -3.701  -0.827  0.00  0.00     0.060 C 
BRANCH   7   8
ATOM      8  C2' I4B d   1       1.362  -3.617   0.549  0.00  0.00    -0.013 C 
ATOM      9  C4' I4B d   1       1.859  -2.412   1.303  0.00  0.00     0.013 C 
ATOM     10  C3' I4B d   1      -0.127  -3.571   0.377  0.00  0.00     0.013 C 
ENDBRANCH   7   8
ENDBRANCH   1   7
TORSDOF 2
ENDMDL
