MODEL 1
REMARK minimizedAffinity 16.3745441
REMARK minimizedRMSD -1
REMARK  2 active torsions:
REMARK  status: ('A' for Active; 'I' for Inactive)
REMARK    1  A    between atoms: C2'_3  and  C1'_4 
REMARK    2  A    between atoms: C1'_4  and  C1_5 
ROOT
ATOM      1  C1  I4B d   1       3.866   3.021  -2.579  0.00  0.00    -0.075 A 
ATOM      2  C2  I4B d   1       4.921   3.739  -2.073  0.00  0.00     0.003 A 
ATOM      3  C3  I4B d   1       5.996   4.115  -2.915  0.00  0.00     0.002 A 
ATOM      4  C4  I4B d   1       5.999   3.713  -4.235  0.00  0.00    -0.004 A 
ATOM      5  C5  I4B d   1       4.917   3.005  -4.751  0.00  0.00     0.002 A 
ATOM      6  C6  I4B d   1       3.838   2.668  -3.921  0.00  0.00     0.003 A 
ENDROOT
BRANCH   1   7
ATOM      7  C1' I4B d   1       2.764   2.612  -1.654  0.00  0.00     0.060 C 
BRANCH   7   8
ATOM      8  C2' I4B d   1       3.378   1.822  -0.516  0.00  0.00    -0.013 C 
ATOM      9  C4' I4B d   1       2.640   2.062   0.774  0.00  0.00     0.013 C 
ATOM     10  C3' I4B d   1       3.353   0.371  -0.893  0.00  0.00     0.013 C 
ENDBRANCH   7   8
ENDBRANCH   1   7
TORSDOF 2
ENDMDL
