MODEL 1
REMARK minimizedAffinity 11.6390018
REMARK minimizedRMSD -1
REMARK  2 active torsions:
REMARK  status: ('A' for Active; 'I' for Inactive)
REMARK    1  A    between atoms: C2'_3  and  C1'_4 
REMARK    2  A    between atoms: C1'_4  and  C1_5 
ROOT
ATOM      1  C1  I4B d   1      -4.560  -3.056   2.267  0.00  0.00    -0.075 A 
ATOM      2  C2  I4B d   1      -4.974  -4.135   1.527  0.00  0.00     0.003 A 
ATOM      3  C3  I4B d   1      -5.726  -5.169   2.134  0.00  0.00     0.002 A 
ATOM      4  C4  I4B d   1      -5.998  -5.109   3.486  0.00  0.00    -0.004 A 
ATOM      5  C5  I4B d   1      -5.598  -4.002   4.229  0.00  0.00     0.002 A 
ATOM      6  C6  I4B d   1      -4.885  -2.963   3.614  0.00  0.00     0.003 A 
ENDROOT
BRANCH   1   7
ATOM      7  C1' I4B d   1      -3.739  -1.998   1.601  0.00  0.00     0.060 C 
BRANCH   7   8
ATOM      8  C2' I4B d   1      -2.278  -2.355   1.786  0.00  0.00    -0.013 C 
ATOM      9  C4' I4B d   1      -1.789  -3.245   0.673  0.00  0.00     0.013 C 
ATOM     10  C3' I4B d   1      -1.493  -1.079   1.843  0.00  0.00     0.013 C 
ENDBRANCH   7   8
ENDBRANCH   1   7
TORSDOF 2
ENDMDL
