MODEL 1
REMARK minimizedAffinity 12.7105484
REMARK minimizedRMSD -1
REMARK  2 active torsions:
REMARK  status: ('A' for Active; 'I' for Inactive)
REMARK    1  A    between atoms: C2'_3  and  C1'_4 
REMARK    2  A    between atoms: C1'_4  and  C1_5 
ROOT
ATOM      1  C1  I4B d   1      -1.133  -1.065   2.056  0.00  0.00    -0.075 A 
ATOM      2  C2  I4B d   1      -1.300  -0.368   3.226  0.00  0.00     0.003 A 
ATOM      3  C3  I4B d   1      -2.304   0.626   3.327  0.00  0.00     0.002 A 
ATOM      4  C4  I4B d   1      -3.079   0.923   2.225  0.00  0.00    -0.004 A 
ATOM      5  C5  I4B d   1      -2.924   0.199   1.046  0.00  0.00     0.002 A 
ATOM      6  C6  I4B d   1      -1.953  -0.810   0.965  0.00  0.00     0.003 A 
ENDROOT
BRANCH   1   7
ATOM      7  C1' I4B d   1      -0.042  -2.085   1.974  0.00  0.00     0.060 C 
BRANCH   7   8
ATOM      8  C2' I4B d   1       0.898  -1.857   3.141  0.00  0.00    -0.013 C 
ATOM      9  C4' I4B d   1       1.058  -3.108   3.964  0.00  0.00     0.013 C 
ATOM     10  C3' I4B d   1       2.215  -1.398   2.591  0.00  0.00     0.013 C 
ENDBRANCH   7   8
ENDBRANCH   1   7
TORSDOF 2
ENDMDL
