MODEL 1
REMARK minimizedAffinity 18.1111012
REMARK minimizedRMSD -1
REMARK  2 active torsions:
REMARK  status: ('A' for Active; 'I' for Inactive)
REMARK    1  A    between atoms: C2'_3  and  C1'_4 
REMARK    2  A    between atoms: C1'_4  and  C1_5 
ROOT
ATOM      1  C1  I4B d   1       0.593   4.528  -3.960  0.00  0.00    -0.075 A 
ATOM      2  C2  I4B d   1       0.920   5.748  -3.423  0.00  0.00     0.003 A 
ATOM      3  C3  I4B d   1       2.198   5.954  -2.849  0.00  0.00     0.002 A 
ATOM      4  C4  I4B d   1       3.093   4.906  -2.788  0.00  0.00    -0.004 A 
ATOM      5  C5  I4B d   1       2.768   3.676  -3.353  0.00  0.00     0.002 A 
ATOM      6  C6  I4B d   1       1.515   3.489  -3.954  0.00  0.00     0.003 A 
ENDROOT
BRANCH   1   7
ATOM      7  C1' I4B d   1      -0.777   4.335  -4.529  0.00  0.00     0.060 C 
BRANCH   7   8
ATOM      8  C2' I4B d   1      -0.843   5.076  -5.849  0.00  0.00    -0.013 C 
ATOM      9  C4' I4B d   1      -2.137   5.834  -5.985  0.00  0.00     0.013 C 
ATOM     10  C3' I4B d   1       0.337   5.999  -5.921  0.00  0.00     0.013 C 
ENDBRANCH   7   8
ENDBRANCH   1   7
TORSDOF 2
ENDMDL
