MODEL 1
REMARK minimizedAffinity 7.65786934
REMARK minimizedRMSD -1
REMARK  2 active torsions:
REMARK  status: ('A' for Active; 'I' for Inactive)
REMARK    1  A    between atoms: C2'_3  and  C1'_4 
REMARK    2  A    between atoms: C1'_4  and  C1_5 
ROOT
ATOM      1  C1  I4B d   1       0.449   3.676  -4.247  0.00  0.00    -0.075 A 
ATOM      2  C2  I4B d   1      -0.239   3.532  -5.427  0.00  0.00     0.003 A 
ATOM      3  C3  I4B d   1      -0.912   4.639  -5.999  0.00  0.00     0.002 A 
ATOM      4  C4  I4B d   1      -0.913   5.850  -5.337  0.00  0.00    -0.004 A 
ATOM      5  C5  I4B d   1      -0.196   6.000  -4.153  0.00  0.00     0.002 A 
ATOM      6  C6  I4B d   1       0.500   4.909  -3.611  0.00  0.00     0.003 A 
ENDROOT
BRANCH   1   7
ATOM      7  C1' I4B d   1       1.120   2.478  -3.654  0.00  0.00     0.060 C 
BRANCH   7   8
ATOM      8  C2' I4B d   1       2.155   2.967  -2.661  0.00  0.00    -0.013 C 
ATOM      9  C4' I4B d   1       2.368   1.965  -1.558  0.00  0.00     0.013 C 
ATOM     10  C3' I4B d   1       3.428   3.227  -3.410  0.00  0.00     0.013 C 
ENDBRANCH   7   8
ENDBRANCH   1   7
TORSDOF 2
ENDMDL
