MODEL 1
REMARK minimizedAffinity 0.670278549
REMARK minimizedRMSD -1
REMARK  0 active torsions:
REMARK  status: ('A' for Active; 'I' for Inactive)
ROOT
ATOM      1  C   UNL d   1       0.564   5.963  -4.861  0.00  0.00     0.077 C 
ATOM      2  C1  UNL d   1      -0.561   5.969  -3.869  0.00  0.00    -0.074 A 
ATOM      3  C2  UNL d   1      -0.306   5.983  -2.494  0.00  0.00    -0.005 A 
ATOM      4  C3  UNL d   1      -1.362   5.999  -1.583  0.00  0.00     0.006 A 
ATOM      5  C4  UNL d   1      -2.682   6.000  -2.037  0.00  0.00    -0.005 A 
ATOM      6  C5  UNL d   1      -2.956   5.987  -3.408  0.00  0.00    -0.074 A 
ATOM      7  C6  UNL d   1      -4.368   5.998  -3.913  0.00  0.00     0.077 C 
ATOM      8  C7  UNL d   1      -1.889   5.979  -4.317  0.00  0.00    -0.001 A 
ENDROOT
TORSDOF 0
ENDMDL
