MODEL 1
REMARK minimizedAffinity -0.628503263
REMARK minimizedRMSD -1
REMARK  0 active torsions:
REMARK  status: ('A' for Active; 'I' for Inactive)
ROOT
ATOM      1  C   UNL d   1       0.963   5.999  -5.489  0.00  0.00     0.077 C 
ATOM      2  C1  UNL d   1       2.283   5.322  -5.267  0.00  0.00    -0.074 A 
ATOM      3  C2  UNL d   1       2.354   4.076  -4.636  0.00  0.00    -0.005 A 
ATOM      4  C3  UNL d   1       3.587   3.454  -4.444  0.00  0.00     0.006 A 
ATOM      5  C4  UNL d   1       4.761   4.071  -4.880  0.00  0.00    -0.005 A 
ATOM      6  C5  UNL d   1       4.709   5.317  -5.514  0.00  0.00    -0.074 A 
ATOM      7  C6  UNL d   1       5.960   5.989  -5.998  0.00  0.00     0.077 C 
ATOM      8  C7  UNL d   1       3.465   5.932  -5.709  0.00  0.00    -0.001 A 
ENDROOT
TORSDOF 0
ENDMDL
