MODEL 1
REMARK minimizedAffinity -3.28289843
REMARK minimizedRMSD -1
REMARK  0 active torsions:
REMARK  status: ('A' for Active; 'I' for Inactive)
ROOT
ATOM      1  C   UNL d   1       5.889   6.000  -4.871  0.00  0.00     0.077 C 
ATOM      2  C1  UNL d   1       4.572   5.300  -4.715  0.00  0.00    -0.074 A 
ATOM      3  C2  UNL d   1       4.499   4.024  -4.146  0.00  0.00    -0.005 A 
ATOM      4  C3  UNL d   1       3.266   3.389  -3.999  0.00  0.00     0.006 A 
ATOM      5  C4  UNL d   1       2.095   4.022  -4.418  0.00  0.00    -0.005 A 
ATOM      6  C5  UNL d   1       2.148   5.298  -4.988  0.00  0.00    -0.074 A 
ATOM      7  C6  UNL d   1       0.898   5.997  -5.435  0.00  0.00     0.077 C 
ATOM      8  C7  UNL d   1       3.390   5.933  -5.126  0.00  0.00    -0.001 A 
ENDROOT
TORSDOF 0
ENDMDL
