MODEL 1
REMARK minimizedAffinity 1.19025123
REMARK minimizedRMSD -1
REMARK  0 active torsions:
REMARK  status: ('A' for Active; 'I' for Inactive)
ROOT
ATOM      1  C   UNL d   1      -0.089   5.998  -4.491  0.00  0.00     0.077 C 
ATOM      2  C1  UNL d   1      -1.453   5.990  -3.866  0.00  0.00    -0.074 A 
ATOM      3  C2  UNL d   1      -1.606   5.997  -2.475  0.00  0.00    -0.005 A 
ATOM      4  C3  UNL d   1      -2.880   5.999  -1.908  0.00  0.00     0.006 A 
ATOM      5  C4  UNL d   1      -4.012   5.993  -2.724  0.00  0.00    -0.005 A 
ATOM      6  C5  UNL d   1      -3.879   5.986  -4.116  0.00  0.00    -0.074 A 
ATOM      7  C6  UNL d   1      -5.085   5.990  -5.007  0.00  0.00     0.077 C 
ATOM      8  C7  UNL d   1      -2.595   5.992  -4.678  0.00  0.00    -0.001 A 
ENDROOT
TORSDOF 0
ENDMDL
