MODEL 1
REMARK minimizedAffinity 0.638935685
REMARK minimizedRMSD -1
REMARK  0 active torsions:
REMARK  status: ('A' for Active; 'I' for Inactive)
ROOT
ATOM      1  C   UNL d   1      -3.957   5.989  -4.360  0.00  0.00     0.077 C 
ATOM      2  C1  UNL d   1      -2.490   5.999  -4.047  0.00  0.00    -0.074 A 
ATOM      3  C2  UNL d   1      -2.037   6.000  -2.724  0.00  0.00    -0.005 A 
ATOM      4  C3  UNL d   1      -0.670   6.000  -2.449  0.00  0.00     0.006 A 
ATOM      5  C4  UNL d   1       0.257   5.999  -3.492  0.00  0.00    -0.005 A 
ATOM      6  C5  UNL d   1      -0.177   5.997  -4.821  0.00  0.00    -0.074 A 
ATOM      7  C6  UNL d   1       0.806   5.986  -5.954  0.00  0.00     0.077 C 
ATOM      8  C7  UNL d   1      -1.552   5.990  -5.090  0.00  0.00    -0.001 A 
ENDROOT
TORSDOF 0
ENDMDL
