MODEL 1
REMARK minimizedAffinity 2.15977836
REMARK minimizedRMSD -1
REMARK  0 active torsions:
REMARK  status: ('A' for Active; 'I' for Inactive)
ROOT
ATOM      1  C   UNL d   1      -0.244   3.692  -4.461  0.00  0.00     0.077 C 
ATOM      2  C1  UNL d   1       1.070   4.311  -4.831  0.00  0.00    -0.074 A 
ATOM      3  C2  UNL d   1       1.127   5.428  -5.671  0.00  0.00    -0.005 A 
ATOM      4  C3  UNL d   1       2.357   5.999  -5.999  0.00  0.00     0.006 A 
ATOM      5  C4  UNL d   1       3.540   5.461  -5.491  0.00  0.00    -0.005 A 
ATOM      6  C5  UNL d   1       3.502   4.345  -4.649  0.00  0.00    -0.074 A 
ATOM      7  C6  UNL d   1       4.763   3.759  -4.087  0.00  0.00     0.077 C 
ATOM      8  C7  UNL d   1       2.262   3.781  -4.319  0.00  0.00    -0.001 A 
ENDROOT
TORSDOF 0
ENDMDL
