MODEL 1
REMARK minimizedAffinity 8.20477581
REMARK minimizedRMSD -1
REMARK  0 active torsions:
REMARK  status: ('A' for Active; 'I' for Inactive)
ROOT
ATOM      1  C   UNL d   1       3.243   2.803  -3.110  0.00  0.00     0.077 C 
ATOM      2  C1  UNL d   1       3.289   3.908  -4.123  0.00  0.00    -0.074 A 
ATOM      3  C2  UNL d   1       2.112   4.446  -4.654  0.00  0.00    -0.005 A 
ATOM      4  C3  UNL d   1       2.170   5.480  -5.588  0.00  0.00     0.006 A 
ATOM      5  C4  UNL d   1       3.404   5.986  -6.000  0.00  0.00    -0.005 A 
ATOM      6  C5  UNL d   1       4.591   5.461  -5.479  0.00  0.00    -0.074 A 
ATOM      7  C6  UNL d   1       5.925   6.000  -5.904  0.00  0.00     0.077 C 
ATOM      8  C7  UNL d   1       4.524   4.427  -4.536  0.00  0.00    -0.001 A 
ENDROOT
TORSDOF 0
ENDMDL
