MODEL 1
REMARK minimizedAffinity 3.72559714
REMARK minimizedRMSD -1
REMARK  0 active torsions:
REMARK  status: ('A' for Active; 'I' for Inactive)
ROOT
ATOM      1  C   UNL d   1       1.621   3.067   0.205  0.00  0.00     0.077 C 
ATOM      2  C1  UNL d   1       0.848   1.840   0.588  0.00  0.00    -0.074 A 
ATOM      3  C2  UNL d   1       1.168   1.120   1.743  0.00  0.00    -0.005 A 
ATOM      4  C3  UNL d   1       0.433  -0.014   2.091  0.00  0.00     0.006 A 
ATOM      5  C4  UNL d   1      -0.627  -0.438   1.289  0.00  0.00    -0.005 A 
ATOM      6  C5  UNL d   1      -0.962   0.270   0.131  0.00  0.00    -0.074 A 
ATOM      7  C6  UNL d   1      -2.105  -0.167  -0.737  0.00  0.00     0.077 C 
ATOM      8  C7  UNL d   1      -0.224   1.412  -0.209  0.00  0.00    -0.001 A 
ENDROOT
TORSDOF 0
ENDMDL
