MODEL 1
REMARK minimizedAffinity 0.429042131
REMARK minimizedRMSD -1
REMARK  0 active torsions:
REMARK  status: ('A' for Active; 'I' for Inactive)
ROOT
ATOM      1  C   UNL d   1       1.938   3.003  -0.818  0.00  0.00     0.077 C 
ATOM      2  C1  UNL d   1       1.237   1.830  -0.200  0.00  0.00    -0.074 A 
ATOM      3  C2  UNL d   1       0.879   0.719  -0.970  0.00  0.00    -0.005 A 
ATOM      4  C3  UNL d   1       0.237  -0.369  -0.379  0.00  0.00     0.006 A 
ATOM      5  C4  UNL d   1      -0.054  -0.356   0.986  0.00  0.00    -0.005 A 
ATOM      6  C5  UNL d   1       0.297   0.746   1.772  0.00  0.00    -0.074 A 
ATOM      7  C6  UNL d   1      -0.000   0.771   3.242  0.00  0.00     0.077 C 
ATOM      8  C7  UNL d   1       0.948   1.832   1.172  0.00  0.00    -0.001 A 
ENDROOT
TORSDOF 0
ENDMDL
