MODEL 1
REMARK minimizedAffinity 0.598664343
REMARK minimizedRMSD -1
REMARK  0 active torsions:
REMARK  status: ('A' for Active; 'I' for Inactive)
ROOT
ATOM      1  C   UNL d   1      -1.473   6.000  -1.755  0.00  0.00     0.077 C 
ATOM      2  C1  UNL d   1      -1.214   5.991  -3.233  0.00  0.00    -0.074 A 
ATOM      3  C2  UNL d   1      -2.272   5.996  -4.148  0.00  0.00    -0.005 A 
ATOM      4  C3  UNL d   1      -2.016   5.998  -5.519  0.00  0.00     0.006 A 
ATOM      5  C4  UNL d   1      -0.702   5.995  -5.988  0.00  0.00    -0.005 A 
ATOM      6  C5  UNL d   1       0.369   5.991  -5.088  0.00  0.00    -0.074 A 
ATOM      7  C6  UNL d   1       1.787   5.997  -5.576  0.00  0.00     0.077 C 
ATOM      8  C7  UNL d   1       0.103   5.996  -3.712  0.00  0.00    -0.001 A 
ENDROOT
TORSDOF 0
ENDMDL
