MODEL 1
REMARK minimizedAffinity -2.08186841
REMARK minimizedRMSD -1
REMARK  0 active torsions:
REMARK  status: ('A' for Active; 'I' for Inactive)
ROOT
ATOM      1  C   UNL d   1       1.679   5.061  -5.197  0.00  0.00     0.077 C 
ATOM      2  C1  UNL d   1       3.178   5.036  -5.228  0.00  0.00    -0.074 A 
ATOM      3  C2  UNL d   1       3.899   5.999  -5.941  0.00  0.00    -0.005 A 
ATOM      4  C3  UNL d   1       5.293   5.969  -5.953  0.00  0.00     0.006 A 
ATOM      5  C4  UNL d   1       5.980   4.977  -5.252  0.00  0.00    -0.005 A 
ATOM      6  C5  UNL d   1       5.276   4.006  -4.531  0.00  0.00    -0.074 A 
ATOM      7  C6  UNL d   1       5.999   2.939  -3.764  0.00  0.00     0.077 C 
ATOM      8  C7  UNL d   1       3.875   4.048  -4.519  0.00  0.00    -0.001 A 
ENDROOT
TORSDOF 0
ENDMDL
