MODEL 1
REMARK minimizedAffinity 0.0533404835
REMARK minimizedRMSD -1
REMARK  0 active torsions:
REMARK  status: ('A' for Active; 'I' for Inactive)
ROOT
ATOM      1  C   UNL d   1       5.253   2.653  -3.783  0.00  0.00     0.077 C 
ATOM      2  C1  UNL d   1       4.678   3.823  -4.525  0.00  0.00    -0.074 A 
ATOM      3  C2  UNL d   1       5.474   4.923  -4.860  0.00  0.00    -0.005 A 
ATOM      4  C3  UNL d   1       4.927   6.000  -5.558  0.00  0.00     0.006 A 
ATOM      5  C4  UNL d   1       3.582   5.987  -5.928  0.00  0.00    -0.005 A 
ATOM      6  C5  UNL d   1       2.771   4.896  -5.602  0.00  0.00    -0.074 A 
ATOM      7  C6  UNL d   1       1.325   4.862  -6.000  0.00  0.00     0.077 C 
ATOM      8  C7  UNL d   1       3.329   3.814  -4.906  0.00  0.00    -0.001 A 
ENDROOT
TORSDOF 0
ENDMDL
