MODEL 1
REMARK minimizedAffinity 1.3529408
REMARK minimizedRMSD -1
REMARK  0 active torsions:
REMARK  status: ('A' for Active; 'I' for Inactive)
ROOT
ATOM      1  C   UNL d   1       4.106   1.161   1.358  0.00  0.00     0.077 C 
ATOM      2  C1  UNL d   1       2.676   1.550   1.130  0.00  0.00    -0.074 A 
ATOM      3  C2  UNL d   1       2.338   2.848   0.735  0.00  0.00    -0.005 A 
ATOM      4  C3  UNL d   1       1.004   3.193   0.518  0.00  0.00     0.006 A 
ATOM      5  C4  UNL d   1      -0.004   2.244   0.693  0.00  0.00    -0.005 A 
ATOM      6  C5  UNL d   1       0.314   0.940   1.086  0.00  0.00    -0.074 A 
ATOM      7  C6  UNL d   1      -0.756  -0.095   1.269  0.00  0.00     0.077 C 
ATOM      8  C7  UNL d   1       1.658   0.600   1.296  0.00  0.00    -0.001 A 
ENDROOT
TORSDOF 0
ENDMDL
