MODEL 1
REMARK minimizedAffinity -4.17435122
REMARK minimizedRMSD -1
REMARK  0 active torsions:
REMARK  status: ('A' for Active; 'I' for Inactive)
ROOT
ATOM      1  C   UNL d   1       2.517   5.964  -4.526  0.00  0.00     0.077 C 
ATOM      2  C1  UNL d   1       1.022   5.982  -4.648  0.00  0.00    -0.074 A 
ATOM      3  C2  UNL d   1       0.403   5.983  -5.902  0.00  0.00    -0.005 A 
ATOM      4  C3  UNL d   1      -0.988   5.991  -6.000  0.00  0.00     0.006 A 
ATOM      5  C4  UNL d   1      -1.773   5.996  -4.846  0.00  0.00    -0.005 A 
ATOM      6  C5  UNL d   1      -1.172   5.994  -3.583  0.00  0.00    -0.074 A 
ATOM      7  C6  UNL d   1      -2.001   5.989  -2.333  0.00  0.00     0.077 C 
ATOM      8  C7  UNL d   1       0.227   5.979  -3.494  0.00  0.00    -0.001 A 
ENDROOT
TORSDOF 0
ENDMDL
