MODEL 1
REMARK minimizedAffinity 2.1630156
REMARK minimizedRMSD -1
REMARK  0 active torsions:
REMARK  status: ('A' for Active; 'I' for Inactive)
ROOT
ATOM      1  C   UNL d   1      -4.449   6.000  -3.740  0.00  0.00     0.077 C 
ATOM      2  C1  UNL d   1      -2.988   6.000  -3.401  0.00  0.00    -0.074 A 
ATOM      3  C2  UNL d   1      -2.559   5.986  -2.070  0.00  0.00    -0.005 A 
ATOM      4  C3  UNL d   1      -1.196   5.976  -1.771  0.00  0.00     0.006 A 
ATOM      5  C4  UNL d   1      -0.251   5.981  -2.798  0.00  0.00    -0.005 A 
ATOM      6  C5  UNL d   1      -0.662   5.994  -4.134  0.00  0.00    -0.074 A 
ATOM      7  C6  UNL d   1       0.341   5.990  -5.250  0.00  0.00     0.077 C 
ATOM      8  C7  UNL d   1      -2.032   5.997  -4.427  0.00  0.00    -0.001 A 
ENDROOT
TORSDOF 0
ENDMDL
