MODEL 1
REMARK minimizedAffinity 7.32012749
REMARK minimizedRMSD -1
REMARK  0 active torsions:
REMARK  status: ('A' for Active; 'I' for Inactive)
ROOT
ATOM      1  C   UNL d   1      -4.694   5.994  -3.142  0.00  0.00     0.077 C 
ATOM      2  C1  UNL d   1      -3.255   5.999  -2.719  0.00  0.00    -0.074 A 
ATOM      3  C2  UNL d   1      -2.904   5.997  -1.366  0.00  0.00    -0.005 A 
ATOM      4  C3  UNL d   1      -1.561   5.992  -0.988  0.00  0.00     0.006 A 
ATOM      5  C4  UNL d   1      -0.558   5.988  -1.958  0.00  0.00    -0.005 A 
ATOM      6  C5  UNL d   1      -0.891   5.989  -3.316  0.00  0.00    -0.074 A 
ATOM      7  C6  UNL d   1       0.175   5.976  -4.372  0.00  0.00     0.077 C 
ATOM      8  C7  UNL d   1      -2.242   5.988  -3.688  0.00  0.00    -0.001 A 
ENDROOT
TORSDOF 0
ENDMDL
