MODEL 1
REMARK minimizedAffinity 0.444002986
REMARK minimizedRMSD -1
REMARK  0 active torsions:
REMARK  status: ('A' for Active; 'I' for Inactive)
ROOT
ATOM      1  C   UNL d   1      -1.131   6.000  -1.975  0.00  0.00     0.077 C 
ATOM      2  C1  UNL d   1      -0.519   5.991  -3.344  0.00  0.00    -0.074 A 
ATOM      3  C2  UNL d   1      -1.322   5.998  -4.490  0.00  0.00    -0.005 A 
ATOM      4  C3  UNL d   1      -0.739   5.999  -5.757  0.00  0.00     0.006 A 
ATOM      5  C4  UNL d   1       0.650   5.993  -5.891  0.00  0.00    -0.005 A 
ATOM      6  C5  UNL d   1       1.469   5.986  -4.757  0.00  0.00    -0.074 A 
ATOM      7  C6  UNL d   1       2.963   5.989  -4.884  0.00  0.00     0.077 C 
ATOM      8  C7  UNL d   1       0.875   5.992  -3.487  0.00  0.00    -0.001 A 
ENDROOT
TORSDOF 0
ENDMDL
