MODEL 1
REMARK minimizedAffinity -0.792924345
REMARK minimizedRMSD -1
REMARK  0 active torsions:
REMARK  status: ('A' for Active; 'I' for Inactive)
ROOT
ATOM      1  C   UNL d   1       5.002   1.857  -3.893  0.00  0.00     0.077 C 
ATOM      2  C1  UNL d   1       4.594   3.301  -3.909  0.00  0.00    -0.074 A 
ATOM      3  C2  UNL d   1       5.487   4.304  -3.517  0.00  0.00    -0.005 A 
ATOM      4  C3  UNL d   1       5.096   5.643  -3.546  0.00  0.00     0.006 A 
ATOM      5  C4  UNL d   1       3.812   5.991  -3.966  0.00  0.00    -0.005 A 
ATOM      6  C5  UNL d   1       2.907   5.002  -4.362  0.00  0.00    -0.074 A 
ATOM      7  C6  UNL d   1       1.526   5.360  -4.826  0.00  0.00     0.077 C 
ATOM      8  C7  UNL d   1       3.309   3.659  -4.337  0.00  0.00    -0.001 A 
ENDROOT
TORSDOF 0
ENDMDL
