MODEL 1
REMARK minimizedAffinity 2.91167331
REMARK minimizedRMSD -1
REMARK  0 active torsions:
REMARK  status: ('A' for Active; 'I' for Inactive)
ROOT
ATOM      1  C   UNL d   1       4.237   5.747  -5.169  0.00  0.00     0.077 C 
ATOM      2  C1  UNL d   1       2.839   5.825  -4.631  0.00  0.00    -0.074 A 
ATOM      3  C2  UNL d   1       2.602   5.906  -3.255  0.00  0.00    -0.005 A 
ATOM      4  C3  UNL d   1       1.296   5.988  -2.771  0.00  0.00     0.006 A 
ATOM      5  C4  UNL d   1       0.217   5.990  -3.656  0.00  0.00    -0.005 A 
ATOM      6  C5  UNL d   1       0.436   5.912  -5.035  0.00  0.00    -0.074 A 
ATOM      7  C6  UNL d   1      -0.712   5.923  -6.000  0.00  0.00     0.077 C 
ATOM      8  C7  UNL d   1       1.750   5.836  -5.514  0.00  0.00    -0.001 A 
ENDROOT
TORSDOF 0
ENDMDL
