MODEL 1
REMARK minimizedAffinity 8.91168404
REMARK minimizedRMSD -1
REMARK  0 active torsions:
REMARK  status: ('A' for Active; 'I' for Inactive)
ROOT
ATOM      1  N1  IND d   1       1.687  -5.343  -2.448  0.00  0.00    -0.196 N 
ATOM      2  C2  IND d   1       0.839  -5.018  -1.426  0.00  0.00     0.054 A 
ATOM      3  C3  IND d   1       1.530  -4.486  -0.393  0.00  0.00    -0.031 A 
ATOM      4  C4  IND d   1       4.044  -3.961  -0.204  0.00  0.00     0.051 A 
ATOM      5  C5  IND d   1       5.229  -4.112  -0.869  0.00  0.00    -0.031 A 
ATOM      6  C6  IND d   1       5.294  -4.691  -2.120  0.00  0.00     0.015 A 
ATOM      7  C7  IND d   1       4.171  -5.131  -2.761  0.00  0.00    -0.016 A 
ATOM      8  C8  IND d   1       2.967  -4.985  -2.086  0.00  0.00    -0.047 A 
ATOM      9  C9  IND d   1       2.899  -4.438  -0.799  0.00  0.00    -0.096 A 
ATOM     10  HN1 IND d   1       1.459  -5.709  -3.192  0.00  0.00     0.298 HD
ENDROOT
TORSDOF 0
ENDMDL
