MODEL 1
REMARK minimizedAffinity 9.84528542
REMARK minimizedRMSD -1
REMARK  0 active torsions:
REMARK  status: ('A' for Active; 'I' for Inactive)
ROOT
ATOM      1  N1  IND d   1      -3.364   0.857  -3.545  0.00  0.00    -0.196 N 
ATOM      2  C2  IND d   1      -3.541   0.736  -2.195  0.00  0.00     0.054 A 
ATOM      3  C3  IND d   1      -3.940   1.914  -1.665  0.00  0.00    -0.031 A 
ATOM      4  C4  IND d   1      -4.465   4.143  -2.841  0.00  0.00     0.051 A 
ATOM      5  C5  IND d   1      -4.416   4.753  -4.063  0.00  0.00    -0.031 A 
ATOM      6  C6  IND d   1      -4.009   4.082  -5.198  0.00  0.00     0.015 A 
ATOM      7  C7  IND d   1      -3.645   2.766  -5.155  0.00  0.00    -0.016 A 
ATOM      8  C8  IND d   1      -3.685   2.145  -3.915  0.00  0.00    -0.047 A 
ATOM      9  C9  IND d   1      -4.057   2.832  -2.753  0.00  0.00    -0.096 A 
ATOM     10  HN1 IND d   1      -3.097   0.235  -4.075  0.00  0.00     0.298 HD
ENDROOT
TORSDOF 0
ENDMDL
