MODEL 1
REMARK minimizedAffinity 18.79459
REMARK minimizedRMSD -1
REMARK  0 active torsions:
REMARK  status: ('A' for Active; 'I' for Inactive)
ROOT
ATOM      1  N1  IND d   1      -3.106   2.229  -4.414  0.00  0.00    -0.196 N 
ATOM      2  C2  IND d   1      -3.420   1.378  -3.392  0.00  0.00     0.054 A 
ATOM      3  C3  IND d   1      -4.481   1.848  -2.698  0.00  0.00    -0.031 A 
ATOM      4  C4  IND d   1      -5.919   3.940  -3.128  0.00  0.00     0.051 A 
ATOM      5  C5  IND d   1      -5.998   5.048  -3.925  0.00  0.00    -0.031 A 
ATOM      6  C6  IND d   1      -5.100   5.275  -4.948  0.00  0.00     0.015 A 
ATOM      7  C7  IND d   1      -4.093   4.394  -5.221  0.00  0.00    -0.016 A 
ATOM      8  C8  IND d   1      -4.005   3.272  -4.409  0.00  0.00    -0.047 A 
ATOM      9  C9  IND d   1      -4.887   3.057  -3.342  0.00  0.00    -0.096 A 
ATOM     10  HN1 IND d   1      -2.455   2.129  -4.968  0.00  0.00     0.298 HD
ENDROOT
TORSDOF 0
ENDMDL
