MODEL 1
REMARK minimizedAffinity 10.2402401
REMARK minimizedRMSD -1
REMARK  0 active torsions:
REMARK  status: ('A' for Active; 'I' for Inactive)
ROOT
ATOM      1  N1  IND d   1      -0.098  -4.745  -2.445  0.00  0.00    -0.196 N 
ATOM      2  C2  IND d   1       1.153  -5.269  -2.276  0.00  0.00     0.054 A 
ATOM      3  C3  IND d   1       1.640  -4.941  -1.058  0.00  0.00    -0.031 A 
ATOM      4  C4  IND d   1       0.516  -3.637   0.856  0.00  0.00     0.051 A 
ATOM      5  C5  IND d   1      -0.612  -2.927   1.159  0.00  0.00    -0.031 A 
ATOM      6  C6  IND d   1      -1.648  -2.786   0.258  0.00  0.00     0.015 A 
ATOM      7  C7  IND d   1      -1.599  -3.362  -0.980  0.00  0.00    -0.016 A 
ATOM      8  C8  IND d   1      -0.453  -4.078  -1.293  0.00  0.00    -0.047 A 
ATOM      9  C9  IND d   1       0.620  -4.189  -0.399  0.00  0.00    -0.096 A 
ATOM     10  HN1 IND d   1      -0.581  -4.819  -3.152  0.00  0.00     0.298 HD
ENDROOT
TORSDOF 0
ENDMDL
