MODEL 1
REMARK minimizedAffinity 7.72911787
REMARK minimizedRMSD -1
REMARK  0 active torsions:
REMARK  status: ('A' for Active; 'I' for Inactive)
ROOT
ATOM      1  N1  IND d   1       1.102  -0.925   2.807  0.00  0.00    -0.196 N 
ATOM      2  C2  IND d   1       1.526  -1.477   1.631  0.00  0.00     0.054 A 
ATOM      3  C3  IND d   1       2.193  -2.630   1.867  0.00  0.00    -0.031 A 
ATOM      4  C4  IND d   1       2.617  -3.848   4.095  0.00  0.00     0.051 A 
ATOM      5  C5  IND d   1       2.453  -3.713   5.445  0.00  0.00    -0.031 A 
ATOM      6  C6  IND d   1       1.814  -2.620   5.996  0.00  0.00     0.015 A 
ATOM      7  C7  IND d   1       1.304  -1.624   5.213  0.00  0.00    -0.016 A 
ATOM      8  C8  IND d   1       1.475  -1.754   3.842  0.00  0.00    -0.047 A 
ATOM      9  C9  IND d   1       2.160  -2.840   3.279  0.00  0.00    -0.096 A 
ATOM     10  HN1 IND d   1       0.673  -0.184   2.888  0.00  0.00     0.298 HD
ENDROOT
TORSDOF 0
ENDMDL
