MODEL 1
REMARK minimizedAffinity 18.9294376
REMARK minimizedRMSD -1
REMARK  0 active torsions:
REMARK  status: ('A' for Active; 'I' for Inactive)
ROOT
ATOM      1  N1  IND d   1       0.785  -0.773   2.937  0.00  0.00    -0.196 N 
ATOM      2  C2  IND d   1       1.233  -1.215   1.724  0.00  0.00     0.054 A 
ATOM      3  C3  IND d   1       1.976  -2.334   1.876  0.00  0.00    -0.031 A 
ATOM      4  C4  IND d   1       2.504  -3.668   4.014  0.00  0.00     0.051 A 
ATOM      5  C5  IND d   1       2.345  -3.635   5.371  0.00  0.00    -0.031 A 
ATOM      6  C6  IND d   1       1.641  -2.628   5.998  0.00  0.00     0.015 A 
ATOM      7  C7  IND d   1       1.058  -1.617   5.288  0.00  0.00    -0.016 A 
ATOM      8  C8  IND d   1       1.224  -1.643   3.910  0.00  0.00    -0.047 A 
ATOM      9  C9  IND d   1       1.972  -2.640   3.272  0.00  0.00    -0.096 A 
ATOM     10  HN1 IND d   1       0.310  -0.069   3.070  0.00  0.00     0.298 HD
ENDROOT
TORSDOF 0
ENDMDL
