MODEL 1
REMARK minimizedAffinity 3.50948477
REMARK minimizedRMSD -1
REMARK  0 active torsions:
REMARK  status: ('A' for Active; 'I' for Inactive)
ROOT
ATOM      1  N1  IND d   1      -3.638   2.052  -4.750  0.00  0.00    -0.196 N 
ATOM      2  C2  IND d   1      -3.871   1.130  -3.769  0.00  0.00     0.054 A 
ATOM      3  C3  IND d   1      -4.187   1.747  -2.608  0.00  0.00    -0.031 A 
ATOM      4  C4  IND d   1      -4.480   4.257  -2.118  0.00  0.00     0.051 A 
ATOM      5  C5  IND d   1      -4.338   5.490  -2.690  0.00  0.00    -0.031 A 
ATOM      6  C6  IND d   1      -3.950   5.643  -4.006  0.00  0.00     0.015 A 
ATOM      7  C7  IND d   1      -3.699   4.564  -4.805  0.00  0.00    -0.016 A 
ATOM      8  C8  IND d   1      -3.836   3.310  -4.225  0.00  0.00    -0.047 A 
ATOM      9  C9  IND d   1      -4.188   3.150  -2.879  0.00  0.00    -0.096 A 
ATOM     10  HN1 IND d   1      -3.406   1.876  -5.559  0.00  0.00     0.298 HD
ENDROOT
TORSDOF 0
ENDMDL
