MODEL 1
REMARK minimizedAffinity 14.325819
REMARK minimizedRMSD -1
REMARK  2 active torsions:
REMARK  status: ('A' for Active; 'I' for Inactive)
REMARK    1  A    between atoms: C2'_3  and  C1'_4 
REMARK    2  A    between atoms: C1'_4  and  C1_5 
ROOT
ATOM      1  C1  I4B d   1       2.742   1.333  -0.036  0.00  0.00    -0.075 A 
ATOM      2  C2  I4B d   1       2.334   1.938  -1.199  0.00  0.00     0.003 A 
ATOM      3  C3  I4B d   1       2.325   1.212  -2.415  0.00  0.00     0.002 A 
ATOM      4  C4  I4B d   1       2.777  -0.091  -2.431  0.00  0.00    -0.004 A 
ATOM      5  C5  I4B d   1       3.169  -0.710  -1.248  0.00  0.00     0.002 A 
ATOM      6  C6  I4B d   1       3.140   0.002  -0.040  0.00  0.00     0.003 A 
ENDROOT
BRANCH   1   7
ATOM      7  C1' I4B d   1       2.770   2.139   1.224  0.00  0.00     0.060 C 
BRANCH   7   8
ATOM      8  C2' I4B d   1       4.211   2.509   1.510  0.00  0.00    -0.013 C 
ATOM      9  C4' I4B d   1       4.998   1.315   1.982  0.00  0.00     0.013 C 
ATOM     10  C3' I4B d   1       4.799   3.082   0.255  0.00  0.00     0.013 C 
ENDBRANCH   7   8
ENDBRANCH   1   7
TORSDOF 2
ENDMDL
