MODEL 1
REMARK minimizedAffinity 5.78176165
REMARK minimizedRMSD -1
REMARK  2 active torsions:
REMARK  status: ('A' for Active; 'I' for Inactive)
REMARK    1  A    between atoms: C2'_3  and  C1'_4 
REMARK    2  A    between atoms: C1'_4  and  C1_5 
ROOT
ATOM      1  C1  I4B d   1      -1.845  -2.763   2.463  0.00  0.00    -0.075 A 
ATOM      2  C2  I4B d   1      -1.768  -1.816   1.473  0.00  0.00     0.003 A 
ATOM      3  C3  I4B d   1      -1.328  -2.175   0.176  0.00  0.00     0.002 A 
ATOM      4  C4  I4B d   1      -0.930  -3.473  -0.072  0.00  0.00    -0.004 A 
ATOM      5  C5  I4B d   1      -1.031  -4.437   0.927  0.00  0.00     0.002 A 
ATOM      6  C6  I4B d   1      -1.503  -4.083   2.200  0.00  0.00     0.003 A 
ENDROOT
BRANCH   1   7
ATOM      7  C1' I4B d   1      -2.281  -2.342   3.831  0.00  0.00     0.060 C 
BRANCH   7   8
ATOM      8  C2' I4B d   1      -1.307  -1.295   4.330  0.00  0.00    -0.013 C 
ATOM      9  C4' I4B d   1      -2.030  -0.070   4.826  0.00  0.00     0.013 C 
ATOM     10  C3' I4B d   1      -0.480  -1.913   5.418  0.00  0.00     0.013 C 
ENDBRANCH   7   8
ENDBRANCH   1   7
TORSDOF 2
ENDMDL
