MODEL 1
REMARK minimizedAffinity 10.6071548
REMARK minimizedRMSD -1
REMARK  2 active torsions:
REMARK  status: ('A' for Active; 'I' for Inactive)
REMARK    1  A    between atoms: C2'_3  and  C1'_4 
REMARK    2  A    between atoms: C1'_4  and  C1_5 
ROOT
ATOM      1  C1  I4B d   1       2.928   0.540  -0.239  0.00  0.00    -0.075 A 
ATOM      2  C2  I4B d   1       1.835   1.293   0.109  0.00  0.00     0.003 A 
ATOM      3  C3  I4B d   1       1.959   2.328   1.069  0.00  0.00     0.002 A 
ATOM      4  C4  I4B d   1       3.174   2.539   1.687  0.00  0.00    -0.004 A 
ATOM      5  C5  I4B d   1       4.287   1.790   1.316  0.00  0.00     0.002 A 
ATOM      6  C6  I4B d   1       4.166   0.792   0.338  0.00  0.00     0.003 A 
ENDROOT
BRANCH   1   7
ATOM      7  C1' I4B d   1       2.755  -0.566  -1.231  0.00  0.00     0.060 C 
BRANCH   7   8
ATOM      8  C2' I4B d   1       2.825   0.037  -2.620  0.00  0.00    -0.013 C 
ATOM      9  C4' I4B d   1       3.986  -0.522  -3.399  0.00  0.00     0.013 C 
ATOM     10  C3' I4B d   1       1.524  -0.241  -3.311  0.00  0.00     0.013 C 
ENDBRANCH   7   8
ENDBRANCH   1   7
TORSDOF 2
ENDMDL
