MODEL 1
REMARK minimizedAffinity 6.82532978
REMARK minimizedRMSD -1
REMARK  2 active torsions:
REMARK  status: ('A' for Active; 'I' for Inactive)
REMARK    1  A    between atoms: C2'_3  and  C1'_4 
REMARK    2  A    between atoms: C1'_4  and  C1_5 
ROOT
ATOM      1  C1  I4B d   1      -1.181  -2.992  -0.338  0.00  0.00    -0.075 A 
ATOM      2  C2  I4B d   1      -1.574  -1.969  -1.165  0.00  0.00     0.003 A 
ATOM      3  C3  I4B d   1      -1.729  -2.196  -2.554  0.00  0.00     0.002 A 
ATOM      4  C4  I4B d   1      -1.434  -3.438  -3.078  0.00  0.00    -0.004 A 
ATOM      5  C5  I4B d   1      -1.058  -4.479  -2.234  0.00  0.00     0.002 A 
ATOM      6  C6  I4B d   1      -0.942  -4.259  -0.854  0.00  0.00     0.003 A 
ENDROOT
BRANCH   1   7
ATOM      7  C1' I4B d   1      -0.995  -2.709   1.119  0.00  0.00     0.060 C 
BRANCH   7   8
ATOM      8  C2' I4B d   1      -2.266  -2.067   1.636  0.00  0.00    -0.013 C 
ATOM      9  C4' I4B d   1      -3.486  -2.811   1.158  0.00  0.00     0.013 C 
ATOM     10  C3' I4B d   1      -2.198  -2.046   3.134  0.00  0.00     0.013 C 
ENDBRANCH   7   8
ENDBRANCH   1   7
TORSDOF 2
ENDMDL
