MODEL 1
REMARK minimizedAffinity 10.2907667
REMARK minimizedRMSD -1
REMARK  2 active torsions:
REMARK  status: ('A' for Active; 'I' for Inactive)
REMARK    1  A    between atoms: C2'_3  and  C1'_4 
REMARK    2  A    between atoms: C1'_4  and  C1_5 
ROOT
ATOM      1  C1  I4B d   1       4.445   1.284  -1.519  0.00  0.00    -0.075 A 
ATOM      2  C2  I4B d   1       5.680   1.859  -1.350  0.00  0.00     0.003 A 
ATOM      3  C3  I4B d   1       5.796   3.133  -0.743  0.00  0.00     0.002 A 
ATOM      4  C4  I4B d   1       4.656   3.815  -0.370  0.00  0.00    -0.004 A 
ATOM      5  C5  I4B d   1       3.406   3.221  -0.522  0.00  0.00     0.002 A 
ATOM      6  C6  I4B d   1       3.301   1.942  -1.089  0.00  0.00     0.003 A 
ENDROOT
BRANCH   1   7
ATOM      7  C1' I4B d   1       4.357  -0.048  -2.193  0.00  0.00     0.060 C 
BRANCH   7   8
ATOM      8  C2' I4B d   1       5.768  -0.556  -2.409  0.00  0.00    -0.013 C 
ATOM      9  C4' I4B d   1       5.999  -1.852  -1.676  0.00  0.00     0.013 C 
ATOM     10  C3' I4B d   1       5.978  -0.724  -3.885  0.00  0.00     0.013 C 
ENDBRANCH   7   8
ENDBRANCH   1   7
TORSDOF 2
ENDMDL
