MODEL 1
REMARK minimizedAffinity 6.46618652
REMARK minimizedRMSD -1
REMARK  2 active torsions:
REMARK  status: ('A' for Active; 'I' for Inactive)
REMARK    1  A    between atoms: C2'_3  and  C1'_4 
REMARK    2  A    between atoms: C1'_4  and  C1_5 
ROOT
ATOM      1  C1  I4B d   1       3.295   0.647  -1.927  0.00  0.00    -0.075 A 
ATOM      2  C2  I4B d   1       3.531   1.840  -1.290  0.00  0.00     0.003 A 
ATOM      3  C3  I4B d   1       3.075   2.043   0.035  0.00  0.00     0.002 A 
ATOM      4  C4  I4B d   1       2.348   1.052   0.663  0.00  0.00    -0.004 A 
ATOM      5  C5  I4B d   1       2.129  -0.165   0.024  0.00  0.00     0.002 A 
ATOM      6  C6  I4B d   1       2.616  -0.374  -1.274  0.00  0.00     0.003 A 
ENDROOT
BRANCH   1   7
ATOM      7  C1' I4B d   1       3.762   0.479  -3.338  0.00  0.00     0.060 C 
BRANCH   7   8
ATOM      8  C2' I4B d   1       5.238   0.141  -3.303  0.00  0.00    -0.013 C 
ATOM      9  C4' I4B d   1       5.543  -1.059  -4.160  0.00  0.00     0.013 C 
ATOM     10  C3' I4B d   1       6.000   1.346  -3.769  0.00  0.00     0.013 C 
ENDBRANCH   7   8
ENDBRANCH   1   7
TORSDOF 2
ENDMDL
