MODEL 1
REMARK minimizedAffinity 12.1493101
REMARK minimizedRMSD -1
REMARK  2 active torsions:
REMARK  status: ('A' for Active; 'I' for Inactive)
REMARK    1  A    between atoms: C2'_3  and  C1'_4 
REMARK    2  A    between atoms: C1'_4  and  C1_5 
ROOT
ATOM      1  C1  I4B d   1      -1.897  -2.323   2.152  0.00  0.00    -0.075 A 
ATOM      2  C2  I4B d   1      -2.366  -1.370   1.282  0.00  0.00     0.003 A 
ATOM      3  C3  I4B d   1      -1.878  -1.315  -0.046  0.00  0.00     0.002 A 
ATOM      4  C4  I4B d   1      -0.891  -2.194  -0.443  0.00  0.00    -0.004 A 
ATOM      5  C5  I4B d   1      -0.433  -3.173   0.433  0.00  0.00     0.002 A 
ATOM      6  C6  I4B d   1      -0.948  -3.247   1.735  0.00  0.00     0.003 A 
ENDROOT
BRANCH   1   7
ATOM      7  C1' I4B d   1      -2.411  -2.332   3.557  0.00  0.00     0.060 C 
BRANCH   7   8
ATOM      8  C2' I4B d   1      -1.659  -1.272   4.336  0.00  0.00    -0.013 C 
ATOM      9  C4' I4B d   1      -2.606  -0.354   5.063  0.00  0.00     0.013 C 
ATOM     10  C3' I4B d   1      -0.737  -1.968   5.293  0.00  0.00     0.013 C 
ENDBRANCH   7   8
ENDBRANCH   1   7
TORSDOF 2
ENDMDL
