MODEL 1
REMARK minimizedAffinity 25.8243027
REMARK minimizedRMSD -1
REMARK  2 active torsions:
REMARK  status: ('A' for Active; 'I' for Inactive)
REMARK    1  A    between atoms: C2'_3  and  C1'_4 
REMARK    2  A    between atoms: C1'_4  and  C1_5 
ROOT
ATOM      1  C1  I4B d   1       1.418   1.913  -2.882  0.00  0.00    -0.075 A 
ATOM      2  C2  I4B d   1       1.141   0.633  -3.291  0.00  0.00     0.003 A 
ATOM      3  C3  I4B d   1       1.674  -0.472  -2.584  0.00  0.00     0.002 A 
ATOM      4  C4  I4B d   1       2.514  -0.252  -1.512  0.00  0.00    -0.004 A 
ATOM      5  C5  I4B d   1       2.776   1.047  -1.085  0.00  0.00     0.002 A 
ATOM      6  C6  I4B d   1       2.215   2.136  -1.766  0.00  0.00     0.003 A 
ENDROOT
BRANCH   1   7
ATOM      7  C1' I4B d   1       0.866   3.057  -3.671  0.00  0.00     0.060 C 
BRANCH   7   8
ATOM      8  C2' I4B d   1      -0.102   2.496  -4.693  0.00  0.00    -0.013 C 
ATOM      9  C4' I4B d   1      -1.529   2.678  -4.250  0.00  0.00     0.013 C 
ATOM     10  C3' I4B d   1       0.153   3.186  -6.000  0.00  0.00     0.013 C 
ENDBRANCH   7   8
ENDBRANCH   1   7
TORSDOF 2
ENDMDL
