MODEL 1
REMARK minimizedAffinity 17.1473846
REMARK minimizedRMSD -1
REMARK  2 active torsions:
REMARK  status: ('A' for Active; 'I' for Inactive)
REMARK    1  A    between atoms: C2'_3  and  C1'_4 
REMARK    2  A    between atoms: C1'_4  and  C1_5 
ROOT
ATOM      1  C1  I4B d   1      -1.337  -2.308  -0.804  0.00  0.00    -0.075 A 
ATOM      2  C2  I4B d   1      -2.087  -2.021   0.309  0.00  0.00     0.003 A 
ATOM      3  C3  I4B d   1      -2.048  -2.878   1.435  0.00  0.00     0.002 A 
ATOM      4  C4  I4B d   1      -1.291  -4.031   1.386  0.00  0.00    -0.004 A 
ATOM      5  C5  I4B d   1      -0.513  -4.308   0.266  0.00  0.00     0.002 A 
ATOM      6  C6  I4B d   1      -0.526  -3.435  -0.832  0.00  0.00     0.003 A 
ENDROOT
BRANCH   1   7
ATOM      7  C1' I4B d   1      -1.427  -1.398  -1.988  0.00  0.00     0.060 C 
BRANCH   7   8
ATOM      8  C2' I4B d   1      -0.865  -2.135  -3.187  0.00  0.00    -0.013 C 
ATOM      9  C4' I4B d   1      -1.946  -2.459  -4.183  0.00  0.00     0.013 C 
ATOM     10  C3' I4B d   1       0.198  -1.274  -3.803  0.00  0.00     0.013 C 
ENDBRANCH   7   8
ENDBRANCH   1   7
TORSDOF 2
ENDMDL
