MODEL 1
REMARK minimizedAffinity 20.9717178
REMARK minimizedRMSD -1
REMARK  2 active torsions:
REMARK  status: ('A' for Active; 'I' for Inactive)
REMARK    1  A    between atoms: C2'_3  and  C1'_4 
REMARK    2  A    between atoms: C1'_4  and  C1_5 
ROOT
ATOM      1  C1  I4B d   1      -3.850   4.020  -4.997  0.00  0.00    -0.075 A 
ATOM      2  C2  I4B d   1      -3.667   4.974  -4.028  0.00  0.00     0.003 A 
ATOM      3  C3  I4B d   1      -4.656   5.962  -3.804  0.00  0.00     0.002 A 
ATOM      4  C4  I4B d   1      -5.783   5.989  -4.601  0.00  0.00    -0.004 A 
ATOM      5  C5  I4B d   1      -5.978   5.006  -5.568  0.00  0.00     0.002 A 
ATOM      6  C6  I4B d   1      -5.011   4.008  -5.760  0.00  0.00     0.003 A 
ENDROOT
BRANCH   1   7
ATOM      7  C1' I4B d   1      -2.770   3.011  -5.229  0.00  0.00     0.060 C 
BRANCH   7   8
ATOM      8  C2' I4B d   1      -2.099   2.733  -3.900  0.00  0.00    -0.013 C 
ATOM      9  C4' I4B d   1      -2.640   1.477  -3.268  0.00  0.00     0.013 C 
ATOM     10  C3' I4B d   1      -0.623   2.624  -4.141  0.00  0.00     0.013 C 
ENDBRANCH   7   8
ENDBRANCH   1   7
TORSDOF 2
ENDMDL
