MODEL 1
REMARK minimizedAffinity 13.7344093
REMARK minimizedRMSD -1
REMARK  2 active torsions:
REMARK  status: ('A' for Active; 'I' for Inactive)
REMARK    1  A    between atoms: C2'_3  and  C1'_4 
REMARK    2  A    between atoms: C1'_4  and  C1_5 
ROOT
ATOM      1  C1  I4B d   1       0.064   1.919  -4.130  0.00  0.00    -0.075 A 
ATOM      2  C2  I4B d   1       1.129   2.287  -3.347  0.00  0.00     0.003 A 
ATOM      3  C3  I4B d   1       1.773   1.332  -2.523  0.00  0.00     0.002 A 
ATOM      4  C4  I4B d   1       1.290   0.040  -2.477  0.00  0.00    -0.004 A 
ATOM      5  C5  I4B d   1       0.225  -0.338  -3.289  0.00  0.00     0.002 A 
ATOM      6  C6  I4B d   1      -0.385   0.604  -4.130  0.00  0.00     0.003 A 
ENDROOT
BRANCH   1   7
ATOM      7  C1' I4B d   1      -0.613   2.961  -4.963  0.00  0.00     0.060 C 
BRANCH   7   8
ATOM      8  C2' I4B d   1      -2.101   2.888  -4.683  0.00  0.00    -0.013 C 
ATOM      9  C4' I4B d   1      -2.552   4.040  -3.824  0.00  0.00     0.013 C 
ATOM     10  C3' I4B d   1      -2.819   2.880  -5.999  0.00  0.00     0.013 C 
ENDBRANCH   7   8
ENDBRANCH   1   7
TORSDOF 2
ENDMDL
