MODEL 1
REMARK minimizedAffinity 17.7013893
REMARK minimizedRMSD -1
REMARK  2 active torsions:
REMARK  status: ('A' for Active; 'I' for Inactive)
REMARK    1  A    between atoms: C2'_3  and  C1'_4 
REMARK    2  A    between atoms: C1'_4  and  C1_5 
ROOT
ATOM      1  C1  I4B d   1       4.408   2.028   1.303  0.00  0.00    -0.075 A 
ATOM      2  C2  I4B d   1       5.668   1.488   1.374  0.00  0.00     0.003 A 
ATOM      3  C3  I4B d   1       5.998   0.584   2.412  0.00  0.00     0.002 A 
ATOM      4  C4  I4B d   1       5.060   0.289   3.380  0.00  0.00    -0.004 A 
ATOM      5  C5  I4B d   1       3.776   0.819   3.293  0.00  0.00     0.002 A 
ATOM      6  C6  I4B d   1       3.444   1.685   2.241  0.00  0.00     0.003 A 
ENDROOT
BRANCH   1   7
ATOM      7  C1' I4B d   1       4.104   3.006   0.212  0.00  0.00     0.060 C 
BRANCH   7   8
ATOM      8  C2' I4B d   1       5.311   3.904   0.039  0.00  0.00    -0.013 C 
ATOM      9  C4' I4B d   1       5.999   3.646  -1.276  0.00  0.00     0.013 C 
ATOM     10  C3' I4B d   1       4.848   5.327   0.139  0.00  0.00     0.013 C 
ENDBRANCH   7   8
ENDBRANCH   1   7
TORSDOF 2
ENDMDL
