MODEL 1
REMARK minimizedAffinity 16.2447491
REMARK minimizedRMSD -1
REMARK  2 active torsions:
REMARK  status: ('A' for Active; 'I' for Inactive)
REMARK    1  A    between atoms: C2'_3  and  C1'_4 
REMARK    2  A    between atoms: C1'_4  and  C1_5 
ROOT
ATOM      1  C1  I4B d   1      -4.050   3.734  -5.341  0.00  0.00    -0.075 A 
ATOM      2  C2  I4B d   1      -5.234   3.956  -5.999  0.00  0.00     0.003 A 
ATOM      3  C3  I4B d   1      -5.996   5.117  -5.724  0.00  0.00     0.002 A 
ATOM      4  C4  I4B d   1      -5.564   5.999  -4.754  0.00  0.00    -0.004 A 
ATOM      5  C5  I4B d   1      -4.352   5.785  -4.105  0.00  0.00     0.002 A 
ATOM      6  C6  I4B d   1      -3.583   4.652  -4.409  0.00  0.00     0.003 A 
ENDROOT
BRANCH   1   7
ATOM      7  C1' I4B d   1      -3.287   2.481  -5.632  0.00  0.00     0.060 C 
BRANCH   7   8
ATOM      8  C2' I4B d   1      -2.324   2.244  -4.487  0.00  0.00    -0.013 C 
ATOM      9  C4' I4B d   1      -2.544   0.893  -3.860  0.00  0.00     0.013 C 
ATOM     10  C3' I4B d   1      -0.928   2.372  -5.022  0.00  0.00     0.013 C 
ENDBRANCH   7   8
ENDBRANCH   1   7
TORSDOF 2
ENDMDL
