MODEL 1
REMARK minimizedAffinity 13.4533567
REMARK minimizedRMSD -1
REMARK  2 active torsions:
REMARK  status: ('A' for Active; 'I' for Inactive)
REMARK    1  A    between atoms: C2'_3  and  C1'_4 
REMARK    2  A    between atoms: C1'_4  and  C1_5 
ROOT
ATOM      1  C1  I4B d   1      -1.654  -3.765   1.169  0.00  0.00    -0.075 A 
ATOM      2  C2  I4B d   1      -1.948  -3.855   2.506  0.00  0.00     0.003 A 
ATOM      3  C3  I4B d   1      -1.516  -4.975   3.258  0.00  0.00     0.002 A 
ATOM      4  C4  I4B d   1      -0.840  -5.998   2.625  0.00  0.00    -0.004 A 
ATOM      5  C5  I4B d   1      -0.522  -5.894   1.274  0.00  0.00     0.002 A 
ATOM      6  C6  I4B d   1      -0.921  -4.765   0.543  0.00  0.00     0.003 A 
ENDROOT
BRANCH   1   7
ATOM      7  C1' I4B d   1      -2.155  -2.585   0.398  0.00  0.00     0.060 C 
BRANCH   7   8
ATOM      8  C2' I4B d   1      -1.173  -2.308  -0.722  0.00  0.00    -0.013 C 
ATOM      9  C4' I4B d   1      -1.877  -1.784  -1.946  0.00  0.00     0.013 C 
ATOM     10  C3' I4B d   1      -0.159  -1.326  -0.217  0.00  0.00     0.013 C 
ENDBRANCH   7   8
ENDBRANCH   1   7
TORSDOF 2
ENDMDL
