MODEL 1
REMARK minimizedAffinity 10.6468744
REMARK minimizedRMSD -1
REMARK  2 active torsions:
REMARK  status: ('A' for Active; 'I' for Inactive)
REMARK    1  A    between atoms: C2'_3  and  C1'_4 
REMARK    2  A    between atoms: C1'_4  and  C1_5 
ROOT
ATOM      1  C1  I4B d   1       3.349   0.440  -1.655  0.00  0.00    -0.075 A 
ATOM      2  C2  I4B d   1       3.970   1.582  -1.213  0.00  0.00     0.003 A 
ATOM      3  C3  I4B d   1       3.540   2.210  -0.019  0.00  0.00     0.002 A 
ATOM      4  C4  I4B d   1       2.462   1.695   0.670  0.00  0.00    -0.004 A 
ATOM      5  C5  I4B d   1       1.848   0.524   0.233  0.00  0.00     0.002 A 
ATOM      6  C6  I4B d   1       2.302  -0.114  -0.930  0.00  0.00     0.003 A 
ENDROOT
BRANCH   1   7
ATOM      7  C1' I4B d   1       3.807  -0.179  -2.938  0.00  0.00     0.060 C 
BRANCH   7   8
ATOM      8  C2' I4B d   1       5.309  -0.004  -3.031  0.00  0.00    -0.013 C 
ATOM      9  C4' I4B d   1       5.989  -1.303  -3.371  0.00  0.00     0.013 C 
ATOM     10  C3' I4B d   1       5.589   1.042  -4.069  0.00  0.00     0.013 C 
ENDBRANCH   7   8
ENDBRANCH   1   7
TORSDOF 2
ENDMDL
