MODEL 1
REMARK minimizedAffinity 9.09299755
REMARK minimizedRMSD -1
REMARK  2 active torsions:
REMARK  status: ('A' for Active; 'I' for Inactive)
REMARK    1  A    between atoms: C2'_3  and  C1'_4 
REMARK    2  A    between atoms: C1'_4  and  C1_5 
ROOT
ATOM      1  C1  I4B d   1       3.044   0.372  -1.829  0.00  0.00    -0.075 A 
ATOM      2  C2  I4B d   1       2.163  -0.313  -1.031  0.00  0.00     0.003 A 
ATOM      3  C3  I4B d   1       1.566   0.325   0.084  0.00  0.00     0.002 A 
ATOM      4  C4  I4B d   1       1.916   1.624   0.391  0.00  0.00    -0.004 A 
ATOM      5  C5  I4B d   1       2.792   2.324  -0.433  0.00  0.00     0.002 A 
ATOM      6  C6  I4B d   1       3.351   1.699  -1.557  0.00  0.00     0.003 A 
ENDROOT
BRANCH   1   7
ATOM      7  C1' I4B d   1       3.681  -0.342  -2.979  0.00  0.00     0.060 C 
BRANCH   7   8
ATOM      8  C2' I4B d   1       5.154   0.011  -2.990  0.00  0.00    -0.013 C 
ATOM      9  C4' I4B d   1       5.998  -1.181  -3.359  0.00  0.00     0.013 C 
ATOM     10  C3' I4B d   1       5.353   1.137  -3.961  0.00  0.00     0.013 C 
ENDBRANCH   7   8
ENDBRANCH   1   7
TORSDOF 2
ENDMDL
