MODEL 1
REMARK minimizedAffinity 13.5973959
REMARK minimizedRMSD -1
REMARK  3 active torsions:
REMARK  status: ('A' for Active; 'I' for Inactive)
REMARK    1  A    between atoms: C3'_2  and  C2'_3 
REMARK    2  A    between atoms: C2'_3  and  C1'_4 
REMARK    3  A    between atoms: C1'_4  and  C1_5 
ROOT
ATOM      1  C1  N4B d   1       2.238   0.669   1.221  0.00  0.00    -0.075 A 
ATOM      2  C2  N4B d   1       1.252   0.637   2.232  0.00  0.00     0.002 A 
ATOM      3  C3  N4B d   1       0.330   1.651   2.324  0.00  0.00     0.002 A 
ATOM      4  C4  N4B d   1       0.385   2.711   1.432  0.00  0.00    -0.004 A 
ATOM      5  C5  N4B d   1       1.324   2.722   0.443  0.00  0.00     0.002 A 
ATOM      6  C6  N4B d   1       2.255   1.708   0.336  0.00  0.00     0.002 A 
ENDROOT
BRANCH   1   7
ATOM      7  C1' N4B d   1       3.320  -0.372   1.134  0.00  0.00     0.057 C 
BRANCH   7   8
ATOM      8  C2' N4B d   1       3.811  -0.704   2.540  0.00  0.00     0.009 C 
BRANCH   8   9
ATOM      9  C3' N4B d   1       5.325  -0.810   2.604  0.00  0.00     0.004 C 
ATOM     10  C4' N4B d   1       6.000   0.529   2.639  0.00  0.00     0.003 C 
ENDBRANCH   8   9
ENDBRANCH   7   8
ENDBRANCH   1   7
TORSDOF 3
ENDMDL
