MODEL 1
REMARK minimizedAffinity 11.7746439
REMARK minimizedRMSD -1
REMARK  3 active torsions:
REMARK  status: ('A' for Active; 'I' for Inactive)
REMARK    1  A    between atoms: C3'_2  and  C2'_3 
REMARK    2  A    between atoms: C2'_3  and  C1'_4 
REMARK    3  A    between atoms: C1'_4  and  C1_5 
ROOT
ATOM      1  C1  N4B d   1      -2.942  -2.876  -1.482  0.00  0.00    -0.075 A 
ATOM      2  C2  N4B d   1      -4.026  -3.759  -1.289  0.00  0.00     0.002 A 
ATOM      3  C3  N4B d   1      -4.746  -4.208  -2.369  0.00  0.00     0.002 A 
ATOM      4  C4  N4B d   1      -4.414  -3.774  -3.643  0.00  0.00    -0.004 A 
ATOM      5  C5  N4B d   1      -3.349  -2.941  -3.823  0.00  0.00     0.002 A 
ATOM      6  C6  N4B d   1      -2.614  -2.485  -2.748  0.00  0.00     0.002 A 
ENDROOT
BRANCH   1   7
ATOM      7  C1' N4B d   1      -2.179  -2.291  -0.325  0.00  0.00     0.057 C 
BRANCH   7   8
ATOM      8  C2' N4B d   1      -1.163  -3.314   0.174  0.00  0.00     0.009 C 
BRANCH   8   9
ATOM      9  C3' N4B d   1      -1.485  -3.797   1.578  0.00  0.00     0.004 C 
ATOM     10  C4' N4B d   1      -1.861  -5.248   1.621  0.00  0.00     0.003 C 
ENDBRANCH   8   9
ENDBRANCH   7   8
ENDBRANCH   1   7
TORSDOF 3
ENDMDL
