MODEL 1
REMARK minimizedAffinity 10.6051378
REMARK minimizedRMSD -1
REMARK  3 active torsions:
REMARK  status: ('A' for Active; 'I' for Inactive)
REMARK    1  A    between atoms: C3'_2  and  C2'_3 
REMARK    2  A    between atoms: C2'_3  and  C1'_4 
REMARK    3  A    between atoms: C1'_4  and  C1_5 
ROOT
ATOM      1  C1  N4B d   1       2.224   1.119  -1.342  0.00  0.00    -0.075 A 
ATOM      2  C2  N4B d   1       3.398   0.897  -2.094  0.00  0.00     0.002 A 
ATOM      3  C3  N4B d   1       3.568   1.526  -3.304  0.00  0.00     0.002 A 
ATOM      4  C4  N4B d   1       2.573   2.362  -3.787  0.00  0.00    -0.004 A 
ATOM      5  C5  N4B d   1       1.453   2.591  -3.043  0.00  0.00     0.002 A 
ATOM      6  C6  N4B d   1       1.271   1.969  -1.824  0.00  0.00     0.002 A 
ENDROOT
BRANCH   1   7
ATOM      7  C1' N4B d   1       1.956   0.388  -0.055  0.00  0.00     0.057 C 
BRANCH   7   8
ATOM      8  C2' N4B d   1       1.886   1.396   1.088  0.00  0.00     0.009 C 
BRANCH   8   9
ATOM      9  C3' N4B d   1       1.771   0.714   2.441  0.00  0.00     0.004 C 
ATOM     10  C4' N4B d   1       0.640   1.250   3.268  0.00  0.00     0.003 C 
ENDBRANCH   8   9
ENDBRANCH   7   8
ENDBRANCH   1   7
TORSDOF 3
ENDMDL
