MODEL 1
REMARK minimizedAffinity 15.0557785
REMARK minimizedRMSD -1
REMARK  3 active torsions:
REMARK  status: ('A' for Active; 'I' for Inactive)
REMARK    1  A    between atoms: C3'_2  and  C2'_3 
REMARK    2  A    between atoms: C2'_3  and  C1'_4 
REMARK    3  A    between atoms: C1'_4  and  C1_5 
ROOT
ATOM      1  C1  N4B d   1       2.252   2.304  -2.037  0.00  0.00    -0.075 A 
ATOM      2  C2  N4B d   1       3.506   1.683  -1.847  0.00  0.00     0.002 A 
ATOM      3  C3  N4B d   1       4.255   1.300  -2.933  0.00  0.00     0.002 A 
ATOM      4  C4  N4B d   1       3.763   1.510  -4.213  0.00  0.00    -0.004 A 
ATOM      5  C5  N4B d   1       2.563   2.133  -4.389  0.00  0.00     0.002 A 
ATOM      6  C6  N4B d   1       1.802   2.527  -3.306  0.00  0.00     0.002 A 
ENDROOT
BRANCH   1   7
ATOM      7  C1' N4B d   1       1.360   2.662  -0.881  0.00  0.00     0.057 C 
BRANCH   7   8
ATOM      8  C2' N4B d   1       2.178   2.646   0.407  0.00  0.00     0.009 C 
BRANCH   8   9
ATOM      9  C3' N4B d   1       1.566   3.528   1.481  0.00  0.00     0.004 C 
ATOM     10  C4' N4B d   1       2.271   4.844   1.624  0.00  0.00     0.003 C 
ENDBRANCH   8   9
ENDBRANCH   7   8
ENDBRANCH   1   7
TORSDOF 3
ENDMDL
