MODEL 1
REMARK minimizedAffinity 7.98223734
REMARK minimizedRMSD -1
REMARK  3 active torsions:
REMARK  status: ('A' for Active; 'I' for Inactive)
REMARK    1  A    between atoms: C3'_2  and  C2'_3 
REMARK    2  A    between atoms: C2'_3  and  C1'_4 
REMARK    3  A    between atoms: C1'_4  and  C1_5 
ROOT
ATOM      1  C1  N4B d   1      -4.994   1.294   3.832  0.00  0.00    -0.075 A 
ATOM      2  C2  N4B d   1      -5.633   0.845   5.009  0.00  0.00     0.002 A 
ATOM      3  C3  N4B d   1      -5.998   1.746   5.979  0.00  0.00     0.002 A 
ATOM      4  C4  N4B d   1      -5.717   3.093   5.804  0.00  0.00    -0.004 A 
ATOM      5  C5  N4B d   1      -5.123   3.522   4.653  0.00  0.00     0.002 A 
ATOM      6  C6  N4B d   1      -4.755   2.627   3.668  0.00  0.00     0.002 A 
ENDROOT
BRANCH   1   7
ATOM      7  C1' N4B d   1      -4.500   0.336   2.782  0.00  0.00     0.057 C 
BRANCH   7   8
ATOM      8  C2' N4B d   1      -3.019   0.058   3.016  0.00  0.00     0.009 C 
BRANCH   8   9
ATOM      9  C3' N4B d   1      -2.751  -1.414   3.277  0.00  0.00     0.004 C 
ATOM     10  C4' N4B d   1      -1.667  -1.972   2.403  0.00  0.00     0.003 C 
ENDBRANCH   8   9
ENDBRANCH   7   8
ENDBRANCH   1   7
TORSDOF 3
ENDMDL
