MODEL 1
REMARK minimizedAffinity 2.75876951
REMARK minimizedRMSD -1
REMARK  3 active torsions:
REMARK  status: ('A' for Active; 'I' for Inactive)
REMARK    1  A    between atoms: C3'_2  and  C2'_3 
REMARK    2  A    between atoms: C2'_3  and  C1'_4 
REMARK    3  A    between atoms: C1'_4  and  C1_5 
ROOT
ATOM      1  C1  N4B d   1      -1.222   2.086   1.414  0.00  0.00    -0.075 A 
ATOM      2  C2  N4B d   1      -1.219   0.772   1.929  0.00  0.00     0.002 A 
ATOM      3  C3  N4B d   1      -0.054   0.045   1.951  0.00  0.00     0.002 A 
ATOM      4  C4  N4B d   1       1.111   0.603   1.447  0.00  0.00    -0.004 A 
ATOM      5  C5  N4B d   1       1.106   1.883   0.974  0.00  0.00     0.002 A 
ATOM      6  C6  N4B d   1      -0.057   2.626   0.950  0.00  0.00     0.002 A 
ENDROOT
BRANCH   1   7
ATOM      7  C1' N4B d   1      -2.489   2.888   1.290  0.00  0.00     0.057 C 
BRANCH   7   8
ATOM      8  C2' N4B d   1      -2.623   3.395  -0.142  0.00  0.00     0.009 C 
BRANCH   8   9
ATOM      9  C3' N4B d   1      -2.990   2.281  -1.107  0.00  0.00     0.004 C 
ATOM     10  C4' N4B d   1      -2.421   2.490  -2.479  0.00  0.00     0.003 C 
ENDBRANCH   8   9
ENDBRANCH   7   8
ENDBRANCH   1   7
TORSDOF 3
ENDMDL
