MODEL 1
REMARK minimizedAffinity 4.96475792
REMARK minimizedRMSD -1
REMARK  0 active torsions:
REMARK  status: ('A' for Active; 'I' for Inactive)
ROOT
ATOM      1  C   UNL d   1      -0.467  -2.107   4.181  0.00  0.00     0.020 A 
ATOM      2  C1  UNL d   1      -0.299  -1.140   3.191  0.00  0.00     0.020 A 
ATOM      3  C2  UNL d   1       0.460  -1.429   2.055  0.00  0.00     0.034 A 
ATOM      4  C3  UNL d   1       1.054  -2.687   1.906  0.00  0.00     0.017 A 
ATOM      5  C4  UNL d   1       0.885  -3.657   2.901  0.00  0.00     0.017 A 
ATOM      6  C5  UNL d   1       0.124  -3.363   4.037  0.00  0.00     0.034 A 
ATOM      7 Cl   UNL d   1       1.588  -5.232   2.789  0.00  0.00    -0.070 Cl
ATOM      8 Cl1  UNL d   1       1.979  -2.975   0.476  0.00  0.00    -0.070 Cl
ENDROOT
TORSDOF 0
ENDMDL
