MODEL 1
REMARK minimizedAffinity 12.135107
REMARK minimizedRMSD -1
REMARK  0 active torsions:
REMARK  status: ('A' for Active; 'I' for Inactive)
ROOT
ATOM      1  C   UNL d   1      -2.885  -1.868   4.070  0.00  0.00     0.020 A 
ATOM      2  C1  UNL d   1      -2.915  -2.116   2.699  0.00  0.00     0.020 A 
ATOM      3  C2  UNL d   1      -1.785  -1.863   1.918  0.00  0.00     0.034 A 
ATOM      4  C3  UNL d   1      -0.620  -1.360   2.509  0.00  0.00     0.017 A 
ATOM      5  C4  UNL d   1      -0.590  -1.112   3.886  0.00  0.00     0.017 A 
ATOM      6  C5  UNL d   1      -1.725  -1.367   4.663  0.00  0.00     0.034 A 
ATOM      7 Cl   UNL d   1       0.811  -0.492   4.686  0.00  0.00    -0.070 Cl
ATOM      8 Cl1  UNL d   1       0.740  -1.071   1.484  0.00  0.00    -0.070 Cl
ENDROOT
TORSDOF 0
ENDMDL
