MODEL 1
REMARK minimizedAffinity 19.1930122
REMARK minimizedRMSD -1
REMARK  0 active torsions:
REMARK  status: ('A' for Active; 'I' for Inactive)
ROOT
ATOM      1  C   UNL d   1       1.123  -5.840   2.829  0.00  0.00     0.020 A 
ATOM      2  C1  UNL d   1       0.556  -4.953   3.743  0.00  0.00     0.020 A 
ATOM      3  C2  UNL d   1       0.197  -3.666   3.336  0.00  0.00     0.034 A 
ATOM      4  C3  UNL d   1       0.405  -3.262   2.012  0.00  0.00     0.017 A 
ATOM      5  C4  UNL d   1       0.974  -4.154   1.095  0.00  0.00     0.017 A 
ATOM      6  C5  UNL d   1       1.331  -5.441   1.508  0.00  0.00     0.034 A 
ATOM      7 Cl   UNL d   1       1.260  -3.729  -0.555  0.00  0.00    -0.070 Cl
ATOM      8 Cl1  UNL d   1      -0.063  -1.657   1.579  0.00  0.00    -0.070 Cl
ENDROOT
TORSDOF 0
ENDMDL
