MODEL 1
REMARK minimizedAffinity 16.1403351
REMARK minimizedRMSD -1
REMARK  0 active torsions:
REMARK  status: ('A' for Active; 'I' for Inactive)
ROOT
ATOM      1  C   UNL d   1       1.829  -1.312   1.398  0.00  0.00     0.020 A 
ATOM      2  C1  UNL d   1       0.575  -0.876   0.974  0.00  0.00     0.020 A 
ATOM      3  C2  UNL d   1       0.423   0.409   0.449  0.00  0.00     0.034 A 
ATOM      4  C3  UNL d   1       1.527   1.263   0.346  0.00  0.00     0.017 A 
ATOM      5  C4  UNL d   1       2.787   0.824   0.771  0.00  0.00     0.017 A 
ATOM      6  C5  UNL d   1       2.933  -0.464   1.297  0.00  0.00     0.034 A 
ATOM      7 Cl   UNL d   1       4.196   1.820   0.676  0.00  0.00    -0.070 Cl
ATOM      8 Cl1  UNL d   1       1.267   2.838  -0.314  0.00  0.00    -0.070 Cl
ENDROOT
TORSDOF 0
ENDMDL
