MODEL 1
REMARK minimizedAffinity 14.2552547
REMARK minimizedRMSD -1
REMARK  0 active torsions:
REMARK  status: ('A' for Active; 'I' for Inactive)
ROOT
ATOM      1  C   UNL d   1      -1.323   3.352  -2.486  0.00  0.00     0.020 A 
ATOM      2  C1  UNL d   1      -1.046   2.019  -2.187  0.00  0.00     0.020 A 
ATOM      3  C2  UNL d   1      -0.079   1.705  -1.230  0.00  0.00     0.034 A 
ATOM      4  C3  UNL d   1       0.615   2.725  -0.569  0.00  0.00     0.017 A 
ATOM      5  C4  UNL d   1       0.336   4.063  -0.870  0.00  0.00     0.017 A 
ATOM      6  C5  UNL d   1      -0.633   4.372  -1.829  0.00  0.00     0.034 A 
ATOM      7 Cl   UNL d   1       1.151   5.377  -0.097  0.00  0.00    -0.070 Cl
ATOM      8 Cl1  UNL d   1       1.798   2.264   0.603  0.00  0.00    -0.070 Cl
ENDROOT
TORSDOF 0
ENDMDL
