MODEL 1
REMARK minimizedAffinity 14.4179287
REMARK minimizedRMSD -1
REMARK  0 active torsions:
REMARK  status: ('A' for Active; 'I' for Inactive)
ROOT
ATOM      1  C   UNL d   1      -1.508  -0.814   2.769  0.00  0.00     0.020 A 
ATOM      2  C1  UNL d   1      -1.991  -2.120   2.709  0.00  0.00     0.020 A 
ATOM      3  C2  UNL d   1      -1.178  -3.144   2.218  0.00  0.00     0.034 A 
ATOM      4  C3  UNL d   1       0.122  -2.863   1.784  0.00  0.00     0.017 A 
ATOM      5  C4  UNL d   1       0.607  -1.551   1.845  0.00  0.00     0.017 A 
ATOM      6  C5  UNL d   1      -0.211  -0.530   2.338  0.00  0.00     0.034 A 
ATOM      7 Cl   UNL d   1       2.201  -1.127   1.329  0.00  0.00    -0.070 Cl
ATOM      8 Cl1  UNL d   1       1.072  -4.177   1.189  0.00  0.00    -0.070 Cl
ENDROOT
TORSDOF 0
ENDMDL
