MODEL 1
REMARK minimizedAffinity 8.13806248
REMARK minimizedRMSD -1
REMARK  0 active torsions:
REMARK  status: ('A' for Active; 'I' for Inactive)
ROOT
ATOM      1  C   UNL d   1      -5.710  -3.922   5.956  0.00  0.00     0.020 A 
ATOM      2  C1  UNL d   1      -5.942  -5.259   5.636  0.00  0.00     0.020 A 
ATOM      3  C2  UNL d   1      -5.186  -5.880   4.640  0.00  0.00     0.034 A 
ATOM      4  C3  UNL d   1      -4.194  -5.164   3.960  0.00  0.00     0.017 A 
ATOM      5  C4  UNL d   1      -3.962  -3.821   4.282  0.00  0.00     0.017 A 
ATOM      6  C5  UNL d   1      -4.722  -3.205   5.281  0.00  0.00     0.034 A 
ATOM      7 Cl   UNL d   1      -2.755  -2.873   3.487  0.00  0.00    -0.070 Cl
ATOM      8 Cl1  UNL d   1      -3.296  -5.994   2.740  0.00  0.00    -0.070 Cl
ENDROOT
TORSDOF 0
ENDMDL
