MODEL 1
REMARK minimizedAffinity 10.5304575
REMARK minimizedRMSD -1
REMARK  0 active torsions:
REMARK  status: ('A' for Active; 'I' for Inactive)
ROOT
ATOM      1  C   UNL d   1      -1.151  -2.061   0.955  0.00  0.00     0.020 A 
ATOM      2  C1  UNL d   1      -1.746  -2.193   2.210  0.00  0.00     0.020 A 
ATOM      3  C2  UNL d   1      -1.168  -1.582   3.324  0.00  0.00     0.034 A 
ATOM      4  C3  UNL d   1       0.009  -0.836   3.187  0.00  0.00     0.017 A 
ATOM      5  C4  UNL d   1       0.605  -0.705   1.928  0.00  0.00     0.017 A 
ATOM      6  C5  UNL d   1       0.022  -1.319   0.815  0.00  0.00     0.034 A 
ATOM      7 Cl   UNL d   1       2.058   0.200   1.680  0.00  0.00    -0.070 Cl
ATOM      8 Cl1  UNL d   1       0.669  -0.107   4.608  0.00  0.00    -0.070 Cl
ENDROOT
TORSDOF 0
ENDMDL
