MODEL 1
REMARK minimizedAffinity 17.8765354
REMARK minimizedRMSD -1
REMARK  0 active torsions:
REMARK  status: ('A' for Active; 'I' for Inactive)
ROOT
ATOM      1  C   UNL d   1      -0.479  -2.245   1.926  0.00  0.00     0.020 A 
ATOM      2  C1  UNL d   1      -0.637  -1.217   2.855  0.00  0.00     0.020 A 
ATOM      3  C2  UNL d   1       0.400  -0.307   3.073  0.00  0.00     0.034 A 
ATOM      4  C3  UNL d   1       1.600  -0.423   2.361  0.00  0.00     0.017 A 
ATOM      5  C4  UNL d   1       1.757  -1.455   1.429  0.00  0.00     0.017 A 
ATOM      6  C5  UNL d   1       0.716  -2.363   1.214  0.00  0.00     0.034 A 
ATOM      7 Cl   UNL d   1       3.208  -1.663   0.512  0.00  0.00    -0.070 Cl
ATOM      8 Cl1  UNL d   1       2.839   0.737   2.681  0.00  0.00    -0.070 Cl
ENDROOT
TORSDOF 0
ENDMDL
