MODEL 1
REMARK minimizedAffinity 17.2326717
REMARK minimizedRMSD -1
REMARK  0 active torsions:
REMARK  status: ('A' for Active; 'I' for Inactive)
ROOT
ATOM      1  C   UNL d   1       5.792   0.627  -2.629  0.00  0.00     0.020 A 
ATOM      2  C1  UNL d   1       5.604  -0.726  -2.911  0.00  0.00     0.020 A 
ATOM      3  C2  UNL d   1       4.786  -1.503  -2.088  0.00  0.00     0.034 A 
ATOM      4  C3  UNL d   1       4.154  -0.928  -0.979  0.00  0.00     0.017 A 
ATOM      5  C4  UNL d   1       4.344   0.429  -0.697  0.00  0.00     0.017 A 
ATOM      6  C5  UNL d   1       5.163   1.203  -1.525  0.00  0.00     0.034 A 
ATOM      7 Cl   UNL d   1       3.597   1.209   0.653  0.00  0.00    -0.070 Cl
ATOM      8 Cl1  UNL d   1       3.156  -1.949  -0.005  0.00  0.00    -0.070 Cl
ENDROOT
TORSDOF 0
ENDMDL
