MODEL 1
REMARK minimizedAffinity 11.7276678
REMARK minimizedRMSD -1
REMARK  0 active torsions:
REMARK  status: ('A' for Active; 'I' for Inactive)
ROOT
ATOM      1  C   UNL d   1      -0.438  -2.218   2.220  0.00  0.00     0.020 A 
ATOM      2  C1  UNL d   1      -0.341  -0.924   2.732  0.00  0.00     0.020 A 
ATOM      3  C2  UNL d   1       0.721  -0.101   2.351  0.00  0.00     0.034 A 
ATOM      4  C3  UNL d   1       1.689  -0.569   1.456  0.00  0.00     0.017 A 
ATOM      5  C4  UNL d   1       1.590  -1.867   0.942  0.00  0.00     0.017 A 
ATOM      6  C5  UNL d   1       0.526  -2.688   1.327  0.00  0.00     0.034 A 
ATOM      7 Cl   UNL d   1       2.747  -2.515  -0.167  0.00  0.00    -0.070 Cl
ATOM      8 Cl1  UNL d   1       2.974   0.504   1.029  0.00  0.00    -0.070 Cl
ENDROOT
TORSDOF 0
ENDMDL
