MODEL 1
REMARK minimizedAffinity 13.3703537
REMARK minimizedRMSD -1
REMARK  0 active torsions:
REMARK  status: ('A' for Active; 'I' for Inactive)
ROOT
ATOM      1  C   UNL d   1      -0.144  -1.531   2.839  0.00  0.00     0.020 A 
ATOM      2  C1  UNL d   1       0.164  -1.683   1.487  0.00  0.00     0.020 A 
ATOM      3  C2  UNL d   1      -0.764  -2.264   0.621  0.00  0.00     0.034 A 
ATOM      4  C3  UNL d   1      -2.004  -2.696   1.105  0.00  0.00     0.017 A 
ATOM      5  C4  UNL d   1      -2.312  -2.543   2.461  0.00  0.00     0.017 A 
ATOM      6  C5  UNL d   1      -1.380  -1.960   3.324  0.00  0.00     0.034 A 
ATOM      7 Cl   UNL d   1      -3.822  -3.051   3.132  0.00  0.00    -0.070 Cl
ATOM      8 Cl1  UNL d   1      -3.104  -3.406  -0.023  0.00  0.00    -0.070 Cl
ENDROOT
TORSDOF 0
ENDMDL
