MODEL 1
REMARK minimizedAffinity 13.1678448
REMARK minimizedRMSD -1
REMARK  0 active torsions:
REMARK  status: ('A' for Active; 'I' for Inactive)
ROOT
ATOM      1  C   UNL d   1      -4.278   5.425  -1.901  0.00  0.00     0.020 A 
ATOM      2  C1  UNL d   1      -4.461   4.079  -2.213  0.00  0.00     0.020 A 
ATOM      3  C2  UNL d   1      -3.373   3.300  -2.610  0.00  0.00     0.034 A 
ATOM      4  C3  UNL d   1      -2.096   3.866  -2.695  0.00  0.00     0.017 A 
ATOM      5  C4  UNL d   1      -1.912   5.217  -2.381  0.00  0.00     0.017 A 
ATOM      6  C5  UNL d   1      -3.006   5.993  -1.985  0.00  0.00     0.034 A 
ATOM      7 Cl   UNL d   1      -0.367   5.987  -2.463  0.00  0.00    -0.070 Cl
ATOM      8 Cl1  UNL d   1      -0.795   2.843  -3.192  0.00  0.00    -0.070 Cl
ENDROOT
TORSDOF 0
ENDMDL
