MODEL 1
REMARK minimizedAffinity 12.7967052
REMARK minimizedRMSD -1
REMARK  0 active torsions:
REMARK  status: ('A' for Active; 'I' for Inactive)
ROOT
ATOM      1  C   UNL d   1       1.033   2.412  -1.146  0.00  0.00     0.020 A 
ATOM      2  C1  UNL d   1       1.557   2.609  -2.423  0.00  0.00     0.020 A 
ATOM      3  C2  UNL d   1       2.626   1.828  -2.868  0.00  0.00     0.034 A 
ATOM      4  C3  UNL d   1       3.175   0.846  -2.035  0.00  0.00     0.017 A 
ATOM      5  C4  UNL d   1       2.648   0.648  -0.753  0.00  0.00     0.017 A 
ATOM      6  C5  UNL d   1       1.578   1.433  -0.313  0.00  0.00     0.034 A 
ATOM      7 Cl   UNL d   1       3.272  -0.544   0.332  0.00  0.00    -0.070 Cl
ATOM      8 Cl1  UNL d   1       4.495  -0.083  -2.650  0.00  0.00    -0.070 Cl
ENDROOT
TORSDOF 0
ENDMDL
