MODEL 1
REMARK minimizedAffinity 10.5140419
REMARK minimizedRMSD -1
REMARK  0 active torsions:
REMARK  status: ('A' for Active; 'I' for Inactive)
ROOT
ATOM      1  C   UNL d   1      -1.850   4.985  -4.763  0.00  0.00     0.020 A 
ATOM      2  C1  UNL d   1      -1.855   6.000  -3.807  0.00  0.00     0.020 A 
ATOM      3  C2  UNL d   1      -2.546   5.825  -2.606  0.00  0.00     0.034 A 
ATOM      4  C3  UNL d   1      -3.236   4.633  -2.358  0.00  0.00     0.017 A 
ATOM      5  C4  UNL d   1      -3.231   3.614  -3.319  0.00  0.00     0.017 A 
ATOM      6  C5  UNL d   1      -2.537   3.795  -4.519  0.00  0.00     0.034 A 
ATOM      7 Cl   UNL d   1      -4.058   2.115  -3.084  0.00  0.00    -0.070 Cl
ATOM      8 Cl1  UNL d   1      -4.070   4.485  -0.852  0.00  0.00    -0.070 Cl
ENDROOT
TORSDOF 0
ENDMDL
