MODEL 1
REMARK minimizedAffinity 16.4709892
REMARK minimizedRMSD -1
REMARK  0 active torsions:
REMARK  status: ('A' for Active; 'I' for Inactive)
ROOT
ATOM      1  C   UNL d   1      -1.500   4.856  -4.383  0.00  0.00     0.020 A 
ATOM      2  C1  UNL d   1      -1.687   6.000  -3.608  0.00  0.00     0.020 A 
ATOM      3  C2  UNL d   1      -2.631   5.999  -2.579  0.00  0.00     0.034 A 
ATOM      4  C3  UNL d   1      -3.391   4.853  -2.321  0.00  0.00     0.017 A 
ATOM      5  C4  UNL d   1      -3.202   3.705  -3.100  0.00  0.00     0.017 A 
ATOM      6  C5  UNL d   1      -2.256   3.711  -4.129  0.00  0.00     0.034 A 
ATOM      7 Cl   UNL d   1      -4.102   2.252  -2.842  0.00  0.00    -0.070 Cl
ATOM      8 Cl1  UNL d   1      -4.539   4.923  -1.032  0.00  0.00    -0.070 Cl
ENDROOT
TORSDOF 0
ENDMDL
