MODEL 1
REMARK minimizedAffinity 6.161973
REMARK minimizedRMSD -1
REMARK  0 active torsions:
REMARK  status: ('A' for Active; 'I' for Inactive)
ROOT
ATOM      1  C   UNL d   1      -5.672  -5.910   2.953  0.00  0.00     0.020 A 
ATOM      2  C1  UNL d   1      -5.194  -5.182   4.042  0.00  0.00     0.020 A 
ATOM      3  C2  UNL d   1      -4.198  -4.221   3.856  0.00  0.00     0.034 A 
ATOM      4  C3  UNL d   1      -3.677  -3.985   2.579  0.00  0.00     0.017 A 
ATOM      5  C4  UNL d   1      -4.157  -4.716   1.487  0.00  0.00     0.017 A 
ATOM      6  C5  UNL d   1      -5.154  -5.678   1.678  0.00  0.00     0.034 A 
ATOM      7 Cl   UNL d   1      -3.563  -4.482  -0.119  0.00  0.00    -0.070 Cl
ATOM      8 Cl1  UNL d   1      -2.447  -2.781   2.423  0.00  0.00    -0.070 Cl
ENDROOT
TORSDOF 0
ENDMDL
