MODEL 1
REMARK minimizedAffinity 2.62368703
REMARK minimizedRMSD -1
REMARK  0 active torsions:
REMARK  status: ('A' for Active; 'I' for Inactive)
ROOT
ATOM      1  C   UNL d   1      -5.455  -5.429  -1.130  0.00  0.00     0.020 A 
ATOM      2  C1  UNL d   1      -4.172  -5.974  -1.132  0.00  0.00     0.020 A 
ATOM      3  C2  UNL d   1      -3.423  -6.000   0.046  0.00  0.00     0.034 A 
ATOM      4  C3  UNL d   1      -3.956  -5.480   1.231  0.00  0.00     0.017 A 
ATOM      5  C4  UNL d   1      -5.244  -4.933   1.232  0.00  0.00     0.017 A 
ATOM      6  C5  UNL d   1      -5.990  -4.909   0.049  0.00  0.00     0.034 A 
ATOM      7 Cl   UNL d   1      -5.970  -4.272   2.655  0.00  0.00    -0.070 Cl
ATOM      8 Cl1  UNL d   1      -2.974  -5.545   2.651  0.00  0.00    -0.070 Cl
ENDROOT
TORSDOF 0
ENDMDL
