MODEL 1
REMARK minimizedAffinity -3.36371446
REMARK minimizedRMSD -1
REMARK  0 active torsions:
REMARK  status: ('A' for Active; 'I' for Inactive)
ROOT
ATOM      1  C4' PXY d   1       0.721  -0.616  -2.269  0.00  0.00     0.077 C 
ATOM      2  C1' PXY d   1      -0.884   1.206   2.977  0.00  0.00     0.077 C 
ATOM      3  C1  PXY d   1      -0.475   0.722   1.600  0.00  0.00    -0.082 A 
ATOM      4  C2  PXY d   1       0.809   0.636   1.292  0.00  0.00     0.003 A 
ATOM      5  C3  PXY d   1       1.196   0.230   0.041  0.00  0.00     0.003 A 
ATOM      6  C4  PXY d   1       0.261  -0.142  -0.888  0.00  0.00    -0.082 A 
ATOM      7  C5  PXY d   1      -1.051  -0.067  -0.578  0.00  0.00     0.003 A 
ATOM      8  C6  PXY d   1      -1.424   0.387   0.684  0.00  0.00     0.003 A 
ENDROOT
TORSDOF 0
ENDMDL
