MODEL 1
REMARK minimizedAffinity -3.21618748
REMARK minimizedRMSD -1
REMARK  0 active torsions:
REMARK  status: ('A' for Active; 'I' for Inactive)
ROOT
ATOM      1  C4' PXY d   1       3.125  -0.197  -2.689  0.00  0.00     0.077 C 
ATOM      2  C1' PXY d   1      -1.921   0.575  -5.401  0.00  0.00     0.077 C 
ATOM      3  C1  PXY d   1      -0.603   0.365  -4.680  0.00  0.00    -0.082 A 
ATOM      4  C2  PXY d   1       0.382   1.231  -4.854  0.00  0.00     0.003 A 
ATOM      5  C3  PXY d   1       1.591   1.039  -4.235  0.00  0.00     0.003 A 
ATOM      6  C4  PXY d   1       1.775  -0.021  -3.388  0.00  0.00    -0.082 A 
ATOM      7  C5  PXY d   1       0.771  -0.902  -3.198  0.00  0.00     0.003 A 
ATOM      8  C6  PXY d   1      -0.435  -0.712  -3.867  0.00  0.00     0.003 A 
ENDROOT
TORSDOF 0
ENDMDL
