MODEL 1
REMARK minimizedAffinity -1.57333148
REMARK minimizedRMSD -1
REMARK  0 active torsions:
REMARK  status: ('A' for Active; 'I' for Inactive)
ROOT
ATOM      1  C4' PXY d   1      -3.498  -2.158  -5.956  0.00  0.00     0.077 C 
ATOM      2  C1' PXY d   1       0.989   1.062  -4.249  0.00  0.00     0.077 C 
ATOM      3  C1  PXY d   1      -0.195   0.228  -4.698  0.00  0.00    -0.082 A 
ATOM      4  C2  PXY d   1      -0.256  -1.052  -4.368  0.00  0.00     0.003 A 
ATOM      5  C3  PXY d   1      -1.303  -1.828  -4.793  0.00  0.00     0.003 A 
ATOM      6  C4  PXY d   1      -2.326  -1.276  -5.517  0.00  0.00    -0.082 A 
ATOM      7  C5  PXY d   1      -2.276   0.032  -5.848  0.00  0.00     0.003 A 
ATOM      8  C6  PXY d   1      -1.184   0.793  -5.443  0.00  0.00     0.003 A 
ENDROOT
TORSDOF 0
ENDMDL
