MODEL 1
REMARK minimizedAffinity -4.82104731
REMARK minimizedRMSD -1
REMARK  0 active torsions:
REMARK  status: ('A' for Active; 'I' for Inactive)
ROOT
ATOM      1  C4' PXY d   1      -0.027   0.542   3.610  0.00  0.00     0.077 C 
ATOM      2  C1' PXY d   1      -0.082  -0.280  -2.112  0.00  0.00     0.077 C 
ATOM      3  C1  PXY d   1      -0.078  -0.056  -0.612  0.00  0.00    -0.082 A 
ATOM      4  C2  PXY d   1       1.022  -0.299   0.082  0.00  0.00     0.003 A 
ATOM      5  C3  PXY d   1       1.034  -0.132   1.443  0.00  0.00     0.003 A 
ATOM      6  C4  PXY d   1      -0.075   0.339   2.093  0.00  0.00    -0.082 A 
ATOM      7  C5  PXY d   1      -1.198   0.599   1.390  0.00  0.00     0.003 A 
ATOM      8  C6  PXY d   1      -1.202   0.384   0.015  0.00  0.00     0.003 A 
ENDROOT
TORSDOF 0
ENDMDL
