MODEL 1
REMARK minimizedAffinity -4.6848917
REMARK minimizedRMSD -1
REMARK  0 active torsions:
REMARK  status: ('A' for Active; 'I' for Inactive)
ROOT
ATOM      1  C4' PXY d   1       0.741  -0.766  -1.298  0.00  0.00     0.077 C 
ATOM      2  C1' PXY d   1      -1.112   1.427   3.719  0.00  0.00     0.077 C 
ATOM      3  C1  PXY d   1      -0.638   0.847   2.401  0.00  0.00    -0.082 A 
ATOM      4  C2  PXY d   1       0.642   0.553   2.238  0.00  0.00     0.003 A 
ATOM      5  C3  PXY d   1       1.093   0.058   1.042  0.00  0.00     0.003 A 
ATOM      6  C4  PXY d   1       0.216  -0.188   0.019  0.00  0.00    -0.082 A 
ATOM      7  C5  PXY d   1      -1.093   0.099   0.181  0.00  0.00     0.003 A 
ATOM      8  C6  PXY d   1      -1.524   0.640   1.389  0.00  0.00     0.003 A 
ENDROOT
TORSDOF 0
ENDMDL
