MODEL 1
REMARK minimizedAffinity -3.54477215
REMARK minimizedRMSD -1
REMARK  0 active torsions:
REMARK  status: ('A' for Active; 'I' for Inactive)
ROOT
ATOM      1  C4' PXY d   1       0.674   0.078  -1.843  0.00  0.00     0.077 C 
ATOM      2  C1' PXY d   1      -0.134   1.474   3.708  0.00  0.00     0.077 C 
ATOM      3  C1  PXY d   1       0.089   1.102   2.256  0.00  0.00    -0.082 A 
ATOM      4  C2  PXY d   1      -0.519   1.791   1.304  0.00  0.00     0.003 A 
ATOM      5  C3  PXY d   1      -0.353   1.448  -0.014  0.00  0.00     0.003 A 
ATOM      6  C4  PXY d   1       0.485   0.424  -0.363  0.00  0.00    -0.082 A 
ATOM      7  C5  PXY d   1       1.118  -0.277   0.602  0.00  0.00     0.003 A 
ATOM      8  C6  PXY d   1       0.904   0.060   1.935  0.00  0.00     0.003 A 
ENDROOT
TORSDOF 0
ENDMDL
