MODEL 1
REMARK minimizedAffinity -0.960179746
REMARK minimizedRMSD -1
REMARK  0 active torsions:
REMARK  status: ('A' for Active; 'I' for Inactive)
ROOT
ATOM      1  C4' PXY d   1       0.441  -0.389   3.881  0.00  0.00     0.077 C 
ATOM      2  C1' PXY d   1      -0.083  -0.673  -1.868  0.00  0.00     0.077 C 
ATOM      3  C1  PXY d   1       0.045  -0.589  -0.360  0.00  0.00    -0.082 A 
ATOM      4  C2  PXY d   1       1.181  -0.942   0.221  0.00  0.00     0.003 A 
ATOM      5  C3  PXY d   1       1.303  -0.903   1.586  0.00  0.00     0.003 A 
ATOM      6  C4  PXY d   1       0.270  -0.448   2.361  0.00  0.00    -0.082 A 
ATOM      7  C5  PXY d   1      -0.888  -0.077   1.775  0.00  0.00     0.003 A 
ATOM      8  C6  PXY d   1      -1.006  -0.163   0.391  0.00  0.00     0.003 A 
ENDROOT
TORSDOF 0
ENDMDL
