MODEL 1
REMARK minimizedAffinity -3.23247552
REMARK minimizedRMSD -1
REMARK  0 active torsions:
REMARK  status: ('A' for Active; 'I' for Inactive)
ROOT
ATOM      1  C4' PXY d   1      -2.770   0.693   0.176  0.00  0.00     0.077 C 
ATOM      2  C1' PXY d   1       2.096  -0.798   2.917  0.00  0.00     0.077 C 
ATOM      3  C1  PXY d   1       0.827  -0.405   2.187  0.00  0.00    -0.082 A 
ATOM      4  C2  PXY d   1      -0.215   0.033   2.876  0.00  0.00     0.003 A 
ATOM      5  C3  PXY d   1      -1.381   0.363   2.235  0.00  0.00     0.003 A 
ATOM      6  C4  PXY d   1      -1.465   0.294   0.870  0.00  0.00    -0.082 A 
ATOM      7  C5  PXY d   1      -0.403  -0.142   0.160  0.00  0.00     0.003 A 
ATOM      8  C6  PXY d   1       0.758  -0.511   0.833  0.00  0.00     0.003 A 
ENDROOT
TORSDOF 0
ENDMDL
