MODEL 1
REMARK minimizedAffinity -2.10782218
REMARK minimizedRMSD -1
REMARK  0 active torsions:
REMARK  status: ('A' for Active; 'I' for Inactive)
ROOT
ATOM      1  C4' PXY d   1       2.972   0.824   1.898  0.00  0.00     0.077 C 
ATOM      2  C1' PXY d   1      -2.703  -0.234   1.590  0.00  0.00     0.077 C 
ATOM      3  C1  PXY d   1      -1.217   0.056   1.670  0.00  0.00    -0.082 A 
ATOM      4  C2  PXY d   1      -0.349  -0.852   1.253  0.00  0.00     0.003 A 
ATOM      5  C3  PXY d   1       0.998  -0.619   1.349  0.00  0.00     0.003 A 
ATOM      6  C4  PXY d   1       1.463   0.577   1.827  0.00  0.00    -0.082 A 
ATOM      7  C5  PXY d   1       0.584   1.513   2.244  0.00  0.00     0.003 A 
ATOM      8  C6  PXY d   1      -0.780   1.241   2.177  0.00  0.00     0.003 A 
ENDROOT
TORSDOF 0
ENDMDL
