MODEL 1
REMARK minimizedAffinity 2.28766656
REMARK minimizedRMSD -1
REMARK  0 active torsions:
REMARK  status: ('A' for Active; 'I' for Inactive)
ROOT
ATOM      1  C4' PXY d   1       0.376  -1.368   4.928  0.00  0.00     0.077 C 
ATOM      2  C1' PXY d   1       0.048   1.713   0.048  0.00  0.00     0.077 C 
ATOM      3  C1  PXY d   1       0.134   0.916   1.334  0.00  0.00    -0.082 A 
ATOM      4  C2  PXY d   1       0.640  -0.306   1.314  0.00  0.00     0.003 A 
ATOM      5  C3  PXY d   1       0.696  -1.053   2.463  0.00  0.00     0.003 A 
ATOM      6  C4  PXY d   1       0.278  -0.523   3.654  0.00  0.00    -0.082 A 
ATOM      7  C5  PXY d   1      -0.230   0.727   3.685  0.00  0.00     0.003 A 
ATOM      8  C6  PXY d   1      -0.316   1.453   2.501  0.00  0.00     0.003 A 
ENDROOT
TORSDOF 0
ENDMDL
