MODEL 1
REMARK minimizedAffinity -4.70751762
REMARK minimizedRMSD -1
REMARK  0 active torsions:
REMARK  status: ('A' for Active; 'I' for Inactive)
ROOT
ATOM      1  C4' PXY d   1      -0.812   1.898   3.401  0.00  0.00     0.077 C 
ATOM      2  C1' PXY d   1       0.458  -1.776  -0.878  0.00  0.00     0.077 C 
ATOM      3  C1  PXY d   1       0.114  -0.809   0.238  0.00  0.00    -0.082 A 
ATOM      4  C2  PXY d   1       1.075  -0.342   1.018  0.00  0.00     0.003 A 
ATOM      5  C3  PXY d   1       0.777   0.508   2.052  0.00  0.00     0.003 A 
ATOM      6  C4  PXY d   1      -0.510   0.927   2.256  0.00  0.00    -0.082 A 
ATOM      7  C5  PXY d   1      -1.495   0.463   1.457  0.00  0.00     0.003 A 
ATOM      8  C6  PXY d   1      -1.178  -0.431   0.439  0.00  0.00     0.003 A 
ENDROOT
TORSDOF 0
ENDMDL
