MODEL 1
REMARK minimizedAffinity -2.56061673
REMARK minimizedRMSD -1
REMARK  0 active torsions:
REMARK  status: ('A' for Active; 'I' for Inactive)
ROOT
ATOM      1  C4' PXY d   1      -0.897  -0.294   0.029  0.00  0.00     0.077 C 
ATOM      2  C1' PXY d   1       0.242   0.458   5.646  0.00  0.00     0.077 C 
ATOM      3  C1  PXY d   1      -0.046   0.267   4.170  0.00  0.00    -0.082 A 
ATOM      4  C2  PXY d   1      -1.296   0.127   3.760  0.00  0.00     0.003 A 
ATOM      5  C3  PXY d   1      -1.571  -0.079   2.432  0.00  0.00     0.003 A 
ATOM      6  C4  PXY d   1      -0.561  -0.089   1.509  0.00  0.00    -0.082 A 
ATOM      7  C5  PXY d   1       0.717   0.064   1.918  0.00  0.00     0.003 A 
ATOM      8  C6  PXY d   1       0.978   0.231   3.275  0.00  0.00     0.003 A 
ENDROOT
TORSDOF 0
ENDMDL
