MODEL 1
REMARK minimizedAffinity -4.12581587
REMARK minimizedRMSD -1
REMARK  0 active torsions:
REMARK  status: ('A' for Active; 'I' for Inactive)
ROOT
ATOM      1  C   UNL d   1      -1.066   0.231   2.391  0.00  0.00     0.020 A 
ATOM      2  C1  UNL d   1      -0.282  -0.908   2.570  0.00  0.00     0.020 A 
ATOM      3  C2  UNL d   1       0.464  -1.417   1.505  0.00  0.00     0.034 A 
ATOM      4  C3  UNL d   1       0.428  -0.786   0.256  0.00  0.00     0.017 A 
ATOM      5  C4  UNL d   1      -0.359   0.358   0.077  0.00  0.00     0.017 A 
ATOM      6  C5  UNL d   1      -1.104   0.863   1.147  0.00  0.00     0.034 A 
ATOM      7 Cl   UNL d   1      -0.454   1.190  -1.435  0.00  0.00    -0.070 Cl
ATOM      8 Cl1  UNL d   1       1.376  -1.470  -1.017  0.00  0.00    -0.070 Cl
ENDROOT
TORSDOF 0
ENDMDL
