MODEL 1
REMARK minimizedAffinity -3.89423418
REMARK minimizedRMSD -1
REMARK  0 active torsions:
REMARK  status: ('A' for Active; 'I' for Inactive)
ROOT
ATOM      1  C   UNL d   1       0.198  -1.447   2.221  0.00  0.00     0.020 A 
ATOM      2  C1  UNL d   1      -0.815  -0.494   2.134  0.00  0.00     0.020 A 
ATOM      3  C2  UNL d   1      -1.101   0.111   0.908  0.00  0.00     0.034 A 
ATOM      4  C3  UNL d   1      -0.372  -0.236  -0.235  0.00  0.00     0.017 A 
ATOM      5  C4  UNL d   1       0.645  -1.193  -0.147  0.00  0.00     0.017 A 
ATOM      6  C5  UNL d   1       0.927  -1.796   1.083  0.00  0.00     0.034 A 
ATOM      7 Cl   UNL d   1       1.587  -1.673  -1.514  0.00  0.00    -0.070 Cl
ATOM      8 Cl1  UNL d   1      -0.780   0.552  -1.718  0.00  0.00    -0.070 Cl
ENDROOT
TORSDOF 0
ENDMDL
