MODEL 1
REMARK minimizedAffinity -0.676818192
REMARK minimizedRMSD -1
REMARK  0 active torsions:
REMARK  status: ('A' for Active; 'I' for Inactive)
ROOT
ATOM      1  C   UNL d   1      -0.408   3.463  -2.868  0.00  0.00     0.020 A 
ATOM      2  C1  UNL d   1       0.622   2.795  -2.207  0.00  0.00     0.020 A 
ATOM      3  C2  UNL d   1       0.399   1.526  -1.668  0.00  0.00     0.034 A 
ATOM      4  C3  UNL d   1      -0.857   0.920  -1.790  0.00  0.00     0.017 A 
ATOM      5  C4  UNL d   1      -1.890   1.591  -2.453  0.00  0.00     0.017 A 
ATOM      6  C5  UNL d   1      -1.662   2.862  -2.991  0.00  0.00     0.034 A 
ATOM      7 Cl   UNL d   1      -3.467   0.909  -2.643  0.00  0.00    -0.070 Cl
ATOM      8 Cl1  UNL d   1      -1.061  -0.651  -1.100  0.00  0.00    -0.070 Cl
ENDROOT
TORSDOF 0
ENDMDL
