MODEL 1
REMARK minimizedAffinity -1.7069416
REMARK minimizedRMSD -1
REMARK  0 active torsions:
REMARK  status: ('A' for Active; 'I' for Inactive)
ROOT
ATOM      1  C   UNL d   1      -0.864   0.332  -0.728  0.00  0.00     0.020 A 
ATOM      2  C1  UNL d   1      -1.388   0.353   0.564  0.00  0.00     0.020 A 
ATOM      3  C2  UNL d   1      -0.756  -0.362   1.585  0.00  0.00     0.034 A 
ATOM      4  C3  UNL d   1       0.402  -1.099   1.315  0.00  0.00     0.017 A 
ATOM      5  C4  UNL d   1       0.927  -1.119   0.017  0.00  0.00     0.017 A 
ATOM      6  C5  UNL d   1       0.290  -0.402  -1.001  0.00  0.00     0.034 A 
ATOM      7 Cl   UNL d   1       2.353  -2.006  -0.393  0.00  0.00    -0.070 Cl
ATOM      8 Cl1  UNL d   1       1.131  -1.959   2.624  0.00  0.00    -0.070 Cl
ENDROOT
TORSDOF 0
ENDMDL
