MODEL 1
REMARK minimizedAffinity -3.04956484
REMARK minimizedRMSD -1
REMARK  0 active torsions:
REMARK  status: ('A' for Active; 'I' for Inactive)
ROOT
ATOM      1  C   UNL d   1      -0.007  -1.038   2.226  0.00  0.00     0.020 A 
ATOM      2  C1  UNL d   1      -0.780   0.123   2.263  0.00  0.00     0.020 A 
ATOM      3  C2  UNL d   1      -1.002   0.852   1.093  0.00  0.00     0.034 A 
ATOM      4  C3  UNL d   1      -0.452   0.422  -0.119  0.00  0.00     0.017 A 
ATOM      5  C4  UNL d   1       0.323  -0.743  -0.156  0.00  0.00     0.017 A 
ATOM      6  C5  UNL d   1       0.543  -1.470   1.018  0.00  0.00     0.034 A 
ATOM      7 Cl   UNL d   1       1.035  -1.337  -1.615  0.00  0.00    -0.070 Cl
ATOM      8 Cl1  UNL d   1      -0.768   1.372  -1.527  0.00  0.00    -0.070 Cl
ENDROOT
TORSDOF 0
ENDMDL
