MODEL 1
REMARK minimizedAffinity 0.0365666337
REMARK minimizedRMSD -1
REMARK  0 active torsions:
REMARK  status: ('A' for Active; 'I' for Inactive)
ROOT
ATOM      1  C   UNL d   1      -1.308  -0.166   2.247  0.00  0.00     0.020 A 
ATOM      2  C1  UNL d   1      -0.419  -1.186   2.580  0.00  0.00     0.020 A 
ATOM      3  C2  UNL d   1       0.550  -1.596   1.661  0.00  0.00     0.034 A 
ATOM      4  C3  UNL d   1       0.631  -0.985   0.405  0.00  0.00     0.017 A 
ATOM      5  C4  UNL d   1      -0.262   0.039   0.071  0.00  0.00     0.017 A 
ATOM      6  C5  UNL d   1      -1.230   0.446   0.995  0.00  0.00     0.034 A 
ATOM      7 Cl   UNL d   1      -0.224   0.841  -1.460  0.00  0.00    -0.070 Cl
ATOM      8 Cl1  UNL d   1       1.854  -1.542  -0.682  0.00  0.00    -0.070 Cl
ENDROOT
TORSDOF 0
ENDMDL
