MODEL 1
REMARK minimizedAffinity -3.16559148
REMARK minimizedRMSD -1
REMARK  0 active torsions:
REMARK  status: ('A' for Active; 'I' for Inactive)
ROOT
ATOM      1  C   UNL d   1       0.205  -0.984  -0.215  0.00  0.00     0.172 C 
ATOM      2  N   UNL d   1      -0.595  -0.052   0.544  0.00  0.00    -0.070 N 
ATOM      3  C1  UNL d   1      -0.739   1.282   0.274  0.00  0.00    -0.004 A 
ATOM      4  C2  UNL d   1      -1.579   1.818   1.226  0.00  0.00    -0.047 A 
ATOM      5  C3  UNL d   1      -1.953   0.769   2.099  0.00  0.00    -0.047 A 
ATOM      6  C4  UNL d   1      -1.329  -0.378   1.654  0.00  0.00    -0.004 A 
ENDROOT
TORSDOF 0
ENDMDL
