MODEL 1
REMARK minimizedAffinity -2.08628774
REMARK minimizedRMSD -1
REMARK  0 active torsions:
REMARK  status: ('A' for Active; 'I' for Inactive)
ROOT
ATOM      1  C   UNL d   1      -0.164  -0.058  -0.112  0.00  0.00     0.172 C 
ATOM      2  N   UNL d   1      -0.508   1.142   0.614  0.00  0.00    -0.070 N 
ATOM      3  C1  UNL d   1      -0.242   2.423   0.210  0.00  0.00    -0.004 A 
ATOM      4  C2  UNL d   1      -0.729   3.279   1.174  0.00  0.00    -0.047 A 
ATOM      5  C3  UNL d   1      -1.307   2.485   2.193  0.00  0.00    -0.047 A 
ATOM      6  C4  UNL d   1      -1.157   1.166   1.820  0.00  0.00    -0.004 A 
ENDROOT
TORSDOF 0
ENDMDL
