MODEL 1
REMARK minimizedAffinity -3.2860105
REMARK minimizedRMSD -1
REMARK  0 active torsions:
REMARK  status: ('A' for Active; 'I' for Inactive)
ROOT
ATOM      1  C   UNL d   1       1.124  -1.121  -0.758  0.00  0.00     0.172 C 
ATOM      2  N   UNL d   1       0.226  -0.374   0.092  0.00  0.00    -0.070 N 
ATOM      3  C1  UNL d   1      -0.148  -0.724   1.362  0.00  0.00    -0.004 A 
ATOM      4  C2  UNL d   1      -1.010   0.244   1.830  0.00  0.00    -0.047 A 
ATOM      5  C3  UNL d   1      -1.159   1.209   0.806  0.00  0.00    -0.047 A 
ATOM      6  C4  UNL d   1      -0.383   0.802  -0.259  0.00  0.00    -0.004 A 
ENDROOT
TORSDOF 0
ENDMDL
