MODEL 1
REMARK minimizedAffinity -3.33864522
REMARK minimizedRMSD -1
REMARK  0 active torsions:
REMARK  status: ('A' for Active; 'I' for Inactive)
ROOT
ATOM      1  C   UNL d   1      -0.206  -0.792   1.544  0.00  0.00     0.172 C 
ATOM      2  N   UNL d   1      -0.700   0.502   1.136  0.00  0.00    -0.070 N 
ATOM      3  C1  UNL d   1      -0.990   1.547   1.973  0.00  0.00    -0.004 A 
ATOM      4  C2  UNL d   1      -1.431   2.598   1.199  0.00  0.00    -0.047 A 
ATOM      5  C3  UNL d   1      -1.406   2.171  -0.150  0.00  0.00    -0.047 A 
ATOM      6  C4  UNL d   1      -0.950   0.870  -0.160  0.00  0.00    -0.004 A 
ENDROOT
TORSDOF 0
ENDMDL
