MODEL 1
REMARK minimizedAffinity -3.23861933
REMARK minimizedRMSD -1
REMARK  0 active torsions:
REMARK  status: ('A' for Active; 'I' for Inactive)
ROOT
ATOM      1  C   UNL d   1       0.146  -0.056   0.001  0.00  0.00     0.172 C 
ATOM      2  N   UNL d   1      -0.710   0.923   0.629  0.00  0.00    -0.070 N 
ATOM      3  C1  UNL d   1      -0.749   2.259   0.330  0.00  0.00    -0.004 A 
ATOM      4  C2  UNL d   1      -1.691   2.847   1.146  0.00  0.00    -0.047 A 
ATOM      5  C3  UNL d   1      -2.237   1.830   1.964  0.00  0.00    -0.047 A 
ATOM      6  C4  UNL d   1      -1.612   0.649   1.623  0.00  0.00    -0.004 A 
ENDROOT
TORSDOF 0
ENDMDL
