MODEL 1
REMARK minimizedAffinity -3.31099534
REMARK minimizedRMSD -1
REMARK  0 active torsions:
REMARK  status: ('A' for Active; 'I' for Inactive)
ROOT
ATOM      1  C   UNL d   1      -0.207   0.055   0.386  0.00  0.00     0.172 C 
ATOM      2  N   UNL d   1      -0.002  -0.864  -0.709  0.00  0.00    -0.070 N 
ATOM      3  C1  UNL d   1      -0.961  -1.277  -1.595  0.00  0.00    -0.004 A 
ATOM      4  C2  UNL d   1      -0.368  -2.148  -2.483  0.00  0.00    -0.047 A 
ATOM      5  C3  UNL d   1       0.994  -2.263  -2.118  0.00  0.00    -0.047 A 
ATOM      6  C4  UNL d   1       1.193  -1.458  -1.016  0.00  0.00    -0.004 A 
ENDROOT
TORSDOF 0
ENDMDL
