MODEL 1
REMARK minimizedAffinity -3.01382446
REMARK minimizedRMSD -1
REMARK  0 active torsions:
REMARK  status: ('A' for Active; 'I' for Inactive)
ROOT
ATOM      1  C   UNL d   1      -0.493  -0.074   1.006  0.00  0.00     0.172 C 
ATOM      2  N   UNL d   1      -0.609   1.365   0.974  0.00  0.00    -0.070 N 
ATOM      3  C1  UNL d   1      -1.244   2.135   1.912  0.00  0.00    -0.004 A 
ATOM      4  C2  UNL d   1      -1.134   3.452   1.521  0.00  0.00    -0.047 A 
ATOM      5  C3  UNL d   1      -0.408   3.474   0.307  0.00  0.00    -0.047 A 
ATOM      6  C4  UNL d   1      -0.096   2.168  -0.009  0.00  0.00    -0.004 A 
ENDROOT
TORSDOF 0
ENDMDL
