MODEL 1
REMARK minimizedAffinity -4.17899227
REMARK minimizedRMSD -1
REMARK  0 active torsions:
REMARK  status: ('A' for Active; 'I' for Inactive)
ROOT
ATOM      1  C   UNL d   1       0.651  -0.079  -0.546  0.00  0.00     0.172 C 
ATOM      2  N   UNL d   1      -0.354   0.605   0.235  0.00  0.00    -0.070 N 
ATOM      3  C1  UNL d   1      -0.703   0.305   1.524  0.00  0.00    -0.004 A 
ATOM      4  C2  UNL d   1      -1.693   1.184   1.908  0.00  0.00    -0.047 A 
ATOM      5  C3  UNL d   1      -1.948   2.040   0.810  0.00  0.00    -0.047 A 
ATOM      6  C4  UNL d   1      -1.105   1.659  -0.212  0.00  0.00    -0.004 A 
ENDROOT
TORSDOF 0
ENDMDL
