MODEL 1
REMARK minimizedAffinity -3.09959698
REMARK minimizedRMSD -1
REMARK  0 active torsions:
REMARK  status: ('A' for Active; 'I' for Inactive)
ROOT
ATOM      1  C   UNL d   1      -0.328  -0.696  -0.437  0.00  0.00     0.172 C 
ATOM      2  N   UNL d   1       0.181  -1.836  -1.163  0.00  0.00    -0.070 N 
ATOM      3  C1  UNL d   1      -0.555  -2.916  -1.572  0.00  0.00    -0.004 A 
ATOM      4  C2  UNL d   1       0.293  -3.781  -2.228  0.00  0.00    -0.047 A 
ATOM      5  C3  UNL d   1       1.584  -3.202  -2.212  0.00  0.00    -0.047 A 
ATOM      6  C4  UNL d   1       1.486  -1.999  -1.546  0.00  0.00    -0.004 A 
ENDROOT
TORSDOF 0
ENDMDL
