MODEL 1
REMARK minimizedAffinity -3.9129405
REMARK minimizedRMSD -1
REMARK  0 active torsions:
REMARK  status: ('A' for Active; 'I' for Inactive)
ROOT
ATOM      1  C   UNL d   1      -0.452   0.165  -0.073  0.00  0.00     0.172 C 
ATOM      2  N   UNL d   1      -0.716   1.552   0.230  0.00  0.00    -0.070 N 
ATOM      3  C1  UNL d   1      -1.467   2.011   1.279  0.00  0.00    -0.004 A 
ATOM      4  C2  UNL d   1      -1.477   3.388   1.220  0.00  0.00    -0.047 A 
ATOM      5  C3  UNL d   1      -0.707   3.769   0.096  0.00  0.00    -0.047 A 
ATOM      6  C4  UNL d   1      -0.248   2.613  -0.498  0.00  0.00    -0.004 A 
ENDROOT
TORSDOF 0
ENDMDL
