MODEL 1
REMARK minimizedAffinity -3.10101557
REMARK minimizedRMSD -1
REMARK  0 active torsions:
REMARK  status: ('A' for Active; 'I' for Inactive)
ROOT
ATOM      1  C   UNL d   1       0.949  -0.360  -0.495  0.00  0.00     0.172 C 
ATOM      2  N   UNL d   1       0.096   0.249   0.499  0.00  0.00    -0.070 N 
ATOM      3  C1  UNL d   1      -0.480   1.487   0.406  0.00  0.00    -0.004 A 
ATOM      4  C2  UNL d   1      -1.215   1.698   1.552  0.00  0.00    -0.047 A 
ATOM      5  C3  UNL d   1      -1.075   0.546   2.363  0.00  0.00    -0.047 A 
ATOM      6  C4  UNL d   1      -0.258  -0.335   1.686  0.00  0.00    -0.004 A 
ENDROOT
TORSDOF 0
ENDMDL
