MODEL 1
REMARK minimizedAffinity -3.39268517
REMARK minimizedRMSD -1
REMARK  0 active torsions:
REMARK  status: ('A' for Active; 'I' for Inactive)
ROOT
ATOM      1  C   UNL d   1      -0.542   0.153  -0.048  0.00  0.00     0.172 C 
ATOM      2  N   UNL d   1      -0.118  -0.982  -0.834  0.00  0.00    -0.070 N 
ATOM      3  C1  UNL d   1      -0.789  -1.505  -1.908  0.00  0.00    -0.004 A 
ATOM      4  C2  UNL d   1      -0.060  -2.574  -2.380  0.00  0.00    -0.047 A 
ATOM      5  C3  UNL d   1       1.088  -2.699  -1.562  0.00  0.00    -0.047 A 
ATOM      6  C4  UNL d   1       1.027  -1.701  -0.613  0.00  0.00    -0.004 A 
ENDROOT
TORSDOF 0
ENDMDL
