MODEL 1
REMARK minimizedAffinity -3.54671836
REMARK minimizedRMSD -1
REMARK  0 active torsions:
REMARK  status: ('A' for Active; 'I' for Inactive)
ROOT
ATOM      1  C   UNL d   1       0.312  -0.679   0.264  0.00  0.00     0.172 C 
ATOM      2  N   UNL d   1      -0.585   0.395   0.621  0.00  0.00    -0.070 N 
ATOM      3  C1  UNL d   1      -0.524   1.677   0.145  0.00  0.00    -0.004 A 
ATOM      4  C2  UNL d   1      -1.551   2.391   0.724  0.00  0.00    -0.047 A 
ATOM      5  C3  UNL d   1      -2.253   1.508   1.578  0.00  0.00    -0.047 A 
ATOM      6  C4  UNL d   1      -1.634   0.278   1.495  0.00  0.00    -0.004 A 
ENDROOT
TORSDOF 0
ENDMDL
