MODEL 1
REMARK minimizedAffinity -3.56005859
REMARK minimizedRMSD -1
REMARK  0 active torsions:
REMARK  status: ('A' for Active; 'I' for Inactive)
ROOT
ATOM      1  C   UNL d   1       0.381  -0.160  -0.445  0.00  0.00     0.172 C 
ATOM      2  N   UNL d   1      -0.412   0.862   0.198  0.00  0.00    -0.070 N 
ATOM      3  C1  UNL d   1      -1.068   0.729   1.392  0.00  0.00    -0.004 A 
ATOM      4  C2  UNL d   1      -1.706   1.921   1.658  0.00  0.00    -0.047 A 
ATOM      5  C3  UNL d   1      -1.423   2.801   0.586  0.00  0.00    -0.047 A 
ATOM      6  C4  UNL d   1      -0.620   2.119  -0.303  0.00  0.00    -0.004 A 
ENDROOT
TORSDOF 0
ENDMDL
