MODEL 1
REMARK minimizedAffinity -2.16840076
REMARK minimizedRMSD -1
REMARK  0 active torsions:
REMARK  status: ('A' for Active; 'I' for Inactive)
ROOT
ATOM      1  C   UNL d   1       1.613  -0.768  -1.489  0.00  0.00     0.172 C 
ATOM      2  N   UNL d   1       0.824  -0.508  -0.308  0.00  0.00    -0.070 N 
ATOM      3  C1  UNL d   1      -0.189   0.408  -0.210  0.00  0.00    -0.004 A 
ATOM      4  C2  UNL d   1      -0.688   0.350   1.074  0.00  0.00    -0.047 A 
ATOM      5  C3  UNL d   1       0.052  -0.635   1.771  0.00  0.00    -0.047 A 
ATOM      6  C4  UNL d   1       0.981  -1.150   0.892  0.00  0.00    -0.004 A 
ENDROOT
TORSDOF 0
ENDMDL
