MODEL 1
REMARK minimizedAffinity -4.02558184
REMARK minimizedRMSD -1
REMARK  0 active torsions:
REMARK  status: ('A' for Active; 'I' for Inactive)
ROOT
ATOM      1  C   UNL d   1       0.065  -0.751   1.181  0.00  0.00     0.172 C 
ATOM      2  N   UNL d   1      -0.589   0.533   1.088  0.00  0.00    -0.070 N 
ATOM      3  C1  UNL d   1      -1.077   1.259   2.141  0.00  0.00    -0.004 A 
ATOM      4  C2  UNL d   1      -1.622   2.420   1.637  0.00  0.00    -0.047 A 
ATOM      5  C3  UNL d   1      -1.457   2.391   0.232  0.00  0.00    -0.047 A 
ATOM      6  C4  UNL d   1      -0.815   1.211  -0.081  0.00  0.00    -0.004 A 
ENDROOT
TORSDOF 0
ENDMDL
