MODEL 1
REMARK minimizedAffinity -4.15483904
REMARK minimizedRMSD -1
REMARK  0 active torsions:
REMARK  status: ('A' for Active; 'I' for Inactive)
ROOT
ATOM      1  C   UNL d   1      -0.487  -0.011   0.386  0.00  0.00     0.172 C 
ATOM      2  N   UNL d   1      -0.785   1.400   0.459  0.00  0.00    -0.070 N 
ATOM      3  C1  UNL d   1      -0.229   2.376  -0.325  0.00  0.00    -0.004 A 
ATOM      4  C2  UNL d   1      -0.774   3.583   0.055  0.00  0.00    -0.047 A 
ATOM      5  C3  UNL d   1      -1.688   3.325   1.103  0.00  0.00    -0.047 A 
ATOM      6  C4  UNL d   1      -1.675   1.965   1.334  0.00  0.00    -0.004 A 
ENDROOT
TORSDOF 0
ENDMDL
