MODEL 1
REMARK minimizedAffinity -3.78551149
REMARK minimizedRMSD -1
REMARK  0 active torsions:
REMARK  status: ('A' for Active; 'I' for Inactive)
ROOT
ATOM      1  C   UNL d   1      -0.317  -0.554   1.054  0.00  0.00     0.172 C 
ATOM      2  N   UNL d   1      -0.859   0.781   0.954  0.00  0.00    -0.070 N 
ATOM      3  C1  UNL d   1      -1.774   1.337   1.808  0.00  0.00    -0.004 A 
ATOM      4  C2  UNL d   1      -2.034   2.618   1.372  0.00  0.00    -0.047 A 
ATOM      5  C3  UNL d   1      -1.248   2.839   0.216  0.00  0.00    -0.047 A 
ATOM      6  C4  UNL d   1      -0.531   1.686  -0.020  0.00  0.00    -0.004 A 
ENDROOT
TORSDOF 0
ENDMDL
