MODEL 1
REMARK minimizedAffinity -4.09107733
REMARK minimizedRMSD -1
REMARK  0 active torsions:
REMARK  status: ('A' for Active; 'I' for Inactive)
ROOT
ATOM      1  C   UNL d   1       0.099   3.477  -0.953  0.00  0.00     0.172 C 
ATOM      2  N   UNL d   1      -0.666   2.698  -0.008  0.00  0.00    -0.070 N 
ATOM      3  C1  UNL d   1      -0.682   1.331   0.072  0.00  0.00    -0.004 A 
ATOM      4  C2  UNL d   1      -1.530   0.978   1.099  0.00  0.00    -0.047 A 
ATOM      5  C3  UNL d   1      -2.042   2.174   1.656  0.00  0.00    -0.047 A 
ATOM      6  C4  UNL d   1      -1.490   3.224   0.952  0.00  0.00    -0.004 A 
ENDROOT
TORSDOF 0
ENDMDL
