MODEL 1
REMARK minimizedAffinity 0.197493434
REMARK minimizedRMSD -1
REMARK  0 active torsions:
REMARK  status: ('A' for Active; 'I' for Inactive)
ROOT
ATOM      1  C1  BNZ d   1       2.699  -0.193  -0.797  0.00  0.00     0.000 A 
ATOM      2  C2  BNZ d   1       1.585   0.158  -0.081  0.00  0.00     0.000 A 
ATOM      3  C3  BNZ d   1       1.513   1.366   0.553  0.00  0.00     0.000 A 
ATOM      4  C4  BNZ d   1       2.568   2.205   0.505  0.00  0.00     0.000 A 
ATOM      5  C5  BNZ d   1       3.701   1.862  -0.205  0.00  0.00     0.000 A 
ATOM      6  C6  BNZ d   1       3.756   0.661  -0.875  0.00  0.00     0.000 A 
ENDROOT
TORSDOF 0
ENDMDL
