MODEL 1
REMARK minimizedAffinity 2.73058891
REMARK minimizedRMSD -1
REMARK  0 active torsions:
REMARK  status: ('A' for Active; 'I' for Inactive)
ROOT
ATOM      1  C1  BNZ d   1       2.806   1.042   0.443  0.00  0.00     0.000 A 
ATOM      2  C2  BNZ d   1       2.250  -0.147   0.051  0.00  0.00     0.000 A 
ATOM      3  C3  BNZ d   1       2.637  -1.325   0.626  0.00  0.00     0.000 A 
ATOM      4  C4  BNZ d   1       3.607  -1.317   1.564  0.00  0.00     0.000 A 
ATOM      5  C5  BNZ d   1       4.184  -0.128   1.963  0.00  0.00     0.000 A 
ATOM      6  C6  BNZ d   1       3.763   1.060   1.410  0.00  0.00     0.000 A 
ENDROOT
TORSDOF 0
ENDMDL
