MODEL 1
REMARK minimizedAffinity 3.88013768
REMARK minimizedRMSD -1
REMARK  0 active torsions:
REMARK  status: ('A' for Active; 'I' for Inactive)
ROOT
ATOM      1  C1  BNZ d   1       3.867  -0.064   0.451  0.00  0.00     0.000 A 
ATOM      2  C2  BNZ d   1       3.105  -1.158   0.140  0.00  0.00     0.000 A 
ATOM      3  C3  BNZ d   1       1.752  -1.045  -0.020  0.00  0.00     0.000 A 
ATOM      4  C4  BNZ d   1       1.159   0.151   0.170  0.00  0.00     0.000 A 
ATOM      5  C5  BNZ d   1       1.913   1.261   0.493  0.00  0.00     0.000 A 
ATOM      6  C6  BNZ d   1       3.280   1.152   0.615  0.00  0.00     0.000 A 
ENDROOT
TORSDOF 0
ENDMDL
