MODEL 1
REMARK minimizedAffinity 0.424157143
REMARK minimizedRMSD -1
REMARK  0 active torsions:
REMARK  status: ('A' for Active; 'I' for Inactive)
ROOT
ATOM      1  C1  BNZ d   1       3.827   0.442   0.344  0.00  0.00     0.000 A 
ATOM      2  C2  BNZ d   1       3.177   1.647   0.297  0.00  0.00     0.000 A 
ATOM      3  C3  BNZ d   1       1.849   1.713  -0.019  0.00  0.00     0.000 A 
ATOM      4  C4  BNZ d   1       1.183   0.581  -0.327  0.00  0.00     0.000 A 
ATOM      5  C5  BNZ d   1       1.827  -0.640  -0.293  0.00  0.00     0.000 A 
ATOM      6  C6  BNZ d   1       3.154  -0.707   0.064  0.00  0.00     0.000 A 
ENDROOT
TORSDOF 0
ENDMDL
