MODEL 1
REMARK minimizedAffinity 3.68097782
REMARK minimizedRMSD -1
REMARK  0 active torsions:
REMARK  status: ('A' for Active; 'I' for Inactive)
ROOT
ATOM      1  C1  BNZ d   1       1.200   0.178  -0.360  0.00  0.00     0.000 A 
ATOM      2  C2  BNZ d   1       1.627  -1.121  -0.292  0.00  0.00     0.000 A 
ATOM      3  C3  BNZ d   1       2.911  -1.418   0.071  0.00  0.00     0.000 A 
ATOM      4  C4  BNZ d   1       3.776  -0.415   0.326  0.00  0.00     0.000 A 
ATOM      5  C5  BNZ d   1       3.363   0.900   0.253  0.00  0.00     0.000 A 
ATOM      6  C6  BNZ d   1       2.059   1.194  -0.075  0.00  0.00     0.000 A 
ENDROOT
TORSDOF 0
ENDMDL
