MODEL 1
REMARK minimizedAffinity 2.58060765
REMARK minimizedRMSD -1
REMARK  0 active torsions:
REMARK  status: ('A' for Active; 'I' for Inactive)
ROOT
ATOM      1  C1  BNZ d   1       3.498   4.986   3.672  0.00  0.00     0.000 A 
ATOM      2  C2  BNZ d   1       3.019   3.941   4.417  0.00  0.00     0.000 A 
ATOM      3  C3  BNZ d   1       3.807   3.329   5.351  0.00  0.00     0.000 A 
ATOM      4  C4  BNZ d   1       5.084   3.734   5.511  0.00  0.00     0.000 A 
ATOM      5  C5  BNZ d   1       5.584   4.780   4.761  0.00  0.00     0.000 A 
ATOM      6  C6  BNZ d   1       4.776   5.420   3.849  0.00  0.00     0.000 A 
ENDROOT
TORSDOF 0
ENDMDL
