MODEL 1
REMARK minimizedAffinity 0.0700547546
REMARK minimizedRMSD -1
REMARK  0 active torsions:
REMARK  status: ('A' for Active; 'I' for Inactive)
ROOT
ATOM      1  C1  BNZ d   1       3.887  -0.283   0.654  0.00  0.00     0.000 A 
ATOM      2  C2  BNZ d   1       3.487  -1.580   0.473  0.00  0.00     0.000 A 
ATOM      3  C3  BNZ d   1       2.267  -1.866  -0.074  0.00  0.00     0.000 A 
ATOM      4  C4  BNZ d   1       1.434  -0.858  -0.401  0.00  0.00     0.000 A 
ATOM      5  C5  BNZ d   1       1.820   0.455  -0.217  0.00  0.00     0.000 A 
ATOM      6  C6  BNZ d   1       3.064   0.740   0.298  0.00  0.00     0.000 A 
ENDROOT
TORSDOF 0
ENDMDL
