MODEL 1
REMARK minimizedAffinity 0.299249798
REMARK minimizedRMSD -1
REMARK  0 active torsions:
REMARK  status: ('A' for Active; 'I' for Inactive)
ROOT
ATOM      1  C1  BNZ d   1      -5.660   4.837   1.352  0.00  0.00     0.000 A 
ATOM      2  C2  BNZ d   1      -5.566   5.998   2.072  0.00  0.00     0.000 A 
ATOM      3  C3  BNZ d   1      -5.659   5.985   3.435  0.00  0.00     0.000 A 
ATOM      4  C4  BNZ d   1      -5.885   4.819   4.074  0.00  0.00     0.000 A 
ATOM      5  C5  BNZ d   1      -5.991   3.641   3.361  0.00  0.00     0.000 A 
ATOM      6  C6  BNZ d   1      -5.858   3.653   1.991  0.00  0.00     0.000 A 
ENDROOT
TORSDOF 0
ENDMDL
