MODEL 1
REMARK minimizedAffinity 1.76269782
REMARK minimizedRMSD -1
REMARK  0 active torsions:
REMARK  status: ('A' for Active; 'I' for Inactive)
ROOT
ATOM      1  C1  BNZ d   1       2.714  -2.765  -0.006  0.00  0.00     0.000 A 
ATOM      2  C2  BNZ d   1       1.491  -2.464   0.532  0.00  0.00     0.000 A 
ATOM      3  C3  BNZ d   1       0.461  -2.045  -0.263  0.00  0.00     0.000 A 
ATOM      4  C4  BNZ d   1       0.666  -1.889  -1.587  0.00  0.00     0.000 A 
ATOM      5  C5  BNZ d   1       1.896  -2.180  -2.143  0.00  0.00     0.000 A 
ATOM      6  C6  BNZ d   1       2.919  -2.639  -1.346  0.00  0.00     0.000 A 
ENDROOT
TORSDOF 0
ENDMDL
