MODEL 1
REMARK minimizedAffinity 10.7365637
REMARK minimizedRMSD -1
REMARK  1 active torsions:
REMARK  status: ('A' for Active; 'I' for Inactive)
REMARK    1  A    between atoms: N_2  and  C1_3 
ROOT
ATOM      1  C1  UNL d   1       3.894  -3.540   4.482  0.00  0.00     0.143 A 
ATOM      2  C2  UNL d   1       4.090  -2.189   4.785  0.00  0.00    -0.057 A 
ATOM      3  C3  UNL d   1       3.150  -1.219   4.415  0.00  0.00     0.033 A 
ATOM      4  C4  UNL d   1       2.007  -1.582   3.709  0.00  0.00    -0.042 A 
ATOM      5  C5  UNL d   1       1.805  -2.917   3.376  0.00  0.00     0.033 A 
ATOM      6  C6  UNL d   1       2.744  -3.881   3.754  0.00  0.00    -0.057 A 
ENDROOT
BRANCH   1   7
ATOM      7  N   UNL d   1       4.839  -4.538   4.736  0.00  0.00    -0.732 N 
ATOM      8  C   UNL d   1       5.564  -4.567   5.988  0.00  0.00     0.284 C 
ATOM      9  H3  UNL d   1       4.534  -5.453   4.411  0.00  0.00     0.395 HD
ENDBRANCH   1   7
TORSDOF 1
ENDMDL
