MODEL 1
REMARK minimizedAffinity -1.63087261
REMARK minimizedRMSD -1
REMARK  1 active torsions:
REMARK  status: ('A' for Active; 'I' for Inactive)
REMARK    1  A    between atoms: N_2  and  C1_3 
ROOT
ATOM      1  C1  UNL d   1      -4.162   3.142  -3.105  0.00  0.00     0.143 A 
ATOM      2  C2  UNL d   1      -2.896   2.646  -2.776  0.00  0.00    -0.057 A 
ATOM      3  C3  UNL d   1      -2.730   1.343  -2.291  0.00  0.00     0.033 A 
ATOM      4  C4  UNL d   1      -3.835   0.520  -2.100  0.00  0.00    -0.042 A 
ATOM      5  C5  UNL d   1      -5.105   1.000  -2.397  0.00  0.00     0.033 A 
ATOM      6  C6  UNL d   1      -5.264   2.300  -2.887  0.00  0.00    -0.057 A 
ENDROOT
BRANCH   1   7
ATOM      7  N   UNL d   1      -4.403   4.461  -3.498  0.00  0.00    -0.732 N 
ATOM      8  C   UNL d   1      -5.277   4.750  -4.614  0.00  0.00     0.284 C 
ATOM      9  H3  UNL d   1      -4.521   5.087  -2.704  0.00  0.00     0.395 HD
ENDBRANCH   1   7
TORSDOF 1
ENDMDL
