MODEL 1
REMARK minimizedAffinity -1.29282117
REMARK minimizedRMSD -1
REMARK  1 active torsions:
REMARK  status: ('A' for Active; 'I' for Inactive)
REMARK    1  A    between atoms: N_2  and  C1_3 
ROOT
ATOM      1  C1  UNL d   1      -0.279   2.707   1.786  0.00  0.00     0.143 A 
ATOM      2  C2  UNL d   1      -1.574   3.011   1.354  0.00  0.00    -0.057 A 
ATOM      3  C3  UNL d   1      -1.794   3.781   0.206  0.00  0.00     0.033 A 
ATOM      4  C4  UNL d   1      -0.718   4.286  -0.517  0.00  0.00    -0.042 A 
ATOM      5  C5  UNL d   1       0.578   4.017  -0.092  0.00  0.00     0.033 A 
ATOM      6  C6  UNL d   1       0.791   3.242   1.052  0.00  0.00    -0.057 A 
ENDROOT
BRANCH   1   7
ATOM      7  N   UNL d   1       0.006   2.029   2.975  0.00  0.00    -0.732 N 
ATOM      8  C   UNL d   1      -0.041   0.584   3.029  0.00  0.00     0.284 C 
ATOM      9  H3  UNL d   1       0.790   2.439   3.477  0.00  0.00     0.395 HD
ENDBRANCH   1   7
TORSDOF 1
ENDMDL
