MODEL 1
REMARK minimizedAffinity 7.52382946
REMARK minimizedRMSD -1
REMARK  1 active torsions:
REMARK  status: ('A' for Active; 'I' for Inactive)
REMARK    1  A    between atoms: N_2  and  C1_3 
ROOT
ATOM      1  C1  UNL d   1      -0.524   2.975   1.029  0.00  0.00     0.143 A 
ATOM      2  C2  UNL d   1      -0.102   4.177   0.451  0.00  0.00    -0.057 A 
ATOM      3  C3  UNL d   1      -0.419   4.497  -0.874  0.00  0.00     0.033 A 
ATOM      4  C4  UNL d   1      -1.142   3.603  -1.658  0.00  0.00    -0.042 A 
ATOM      5  C5  UNL d   1      -1.550   2.391  -1.113  0.00  0.00     0.033 A 
ATOM      6  C6  UNL d   1      -1.236   2.081   0.214  0.00  0.00    -0.057 A 
ENDROOT
BRANCH   1   7
ATOM      7  N   UNL d   1      -0.157   2.556   2.310  0.00  0.00    -0.732 N 
ATOM      8  C   UNL d   1      -0.954   1.581   3.023  0.00  0.00     0.284 C 
ATOM      9  H3  UNL d   1       0.847   2.419   2.401  0.00  0.00     0.395 HD
ENDBRANCH   1   7
TORSDOF 1
ENDMDL
