MODEL 1
REMARK minimizedAffinity 2.2352047
REMARK minimizedRMSD -1
REMARK  1 active torsions:
REMARK  status: ('A' for Active; 'I' for Inactive)
REMARK    1  A    between atoms: N_2  and  C1_3 
ROOT
ATOM      1  C1  UNL d   1       4.410  -3.778  -1.095  0.00  0.00     0.143 A 
ATOM      2  C2  UNL d   1       3.056  -4.127  -1.144  0.00  0.00    -0.057 A 
ATOM      3  C3  UNL d   1       2.617  -5.233  -1.882  0.00  0.00     0.033 A 
ATOM      4  C4  UNL d   1       3.525  -5.995  -2.610  0.00  0.00    -0.042 A 
ATOM      5  C5  UNL d   1       4.872  -5.652  -2.596  0.00  0.00     0.033 A 
ATOM      6  C6  UNL d   1       5.305  -4.551  -1.852  0.00  0.00    -0.057 A 
ENDROOT
BRANCH   1   7
ATOM      7  N   UNL d   1       4.896  -2.633  -0.459  0.00  0.00    -0.732 N 
ATOM      8  C   UNL d   1       3.996  -1.571  -0.065  0.00  0.00     0.284 C 
ATOM      9  H3  UNL d   1       5.614  -2.846   0.230  0.00  0.00     0.395 HD
ENDBRANCH   1   7
TORSDOF 1
ENDMDL
