MODEL 1
REMARK minimizedAffinity 9.35157585
REMARK minimizedRMSD -1
REMARK  2 active torsions:
REMARK  status: ('A' for Active; 'I' for Inactive)
REMARK    1  A    between atoms: C2'_3  and  C1'_4 
REMARK    2  A    between atoms: C1'_4  and  C1_5 
ROOT
ATOM      1  C1  I4B d   1      -5.175   5.034   3.544  0.00  0.00    -0.075 A 
ATOM      2  C2  I4B d   1      -6.000   5.034   4.640  0.00  0.00     0.003 A 
ATOM      3  C3  I4B d   1      -5.537   5.537   5.881  0.00  0.00     0.002 A 
ATOM      4  C4  I4B d   1      -4.235   5.979   5.991  0.00  0.00    -0.004 A 
ATOM      5  C5  I4B d   1      -3.406   5.999   4.873  0.00  0.00     0.002 A 
ATOM      6  C6  I4B d   1      -3.883   5.535   3.638  0.00  0.00     0.003 A 
ENDROOT
BRANCH   1   7
ATOM      7  C1' I4B d   1      -5.685   4.465   2.258  0.00  0.00     0.060 C 
BRANCH   7   8
ATOM      8  C2' I4B d   1      -4.492   4.003   1.446  0.00  0.00    -0.013 C 
ATOM      9  C4' I4B d   1      -4.462   2.502   1.328  0.00  0.00     0.013 C 
ATOM     10  C3' I4B d   1      -4.572   4.650   0.095  0.00  0.00     0.013 C 
ENDBRANCH   7   8
ENDBRANCH   1   7
TORSDOF 2
ENDMDL
