MODEL 1
REMARK minimizedAffinity 16.3514442
REMARK minimizedRMSD -1
REMARK  2 active torsions:
REMARK  status: ('A' for Active; 'I' for Inactive)
REMARK    1  A    between atoms: C2'_3  and  C1'_4 
REMARK    2  A    between atoms: C1'_4  and  C1_5 
ROOT
ATOM      1  C1  I4B d   1      -5.103   4.619   3.313  0.00  0.00    -0.075 A 
ATOM      2  C2  I4B d   1      -4.140   5.536   3.654  0.00  0.00     0.003 A 
ATOM      3  C3  I4B d   1      -4.037   5.998   4.989  0.00  0.00     0.002 A 
ATOM      4  C4  I4B d   1      -4.943   5.557   5.932  0.00  0.00    -0.004 A 
ATOM      5  C5  I4B d   1      -5.904   4.611   5.589  0.00  0.00     0.002 A 
ATOM      6  C6  I4B d   1      -5.977   4.129   4.274  0.00  0.00     0.003 A 
ENDROOT
BRANCH   1   7
ATOM      7  C1' I4B d   1      -5.204   4.178   1.887  0.00  0.00     0.060 C 
BRANCH   7   8
ATOM      8  C2' I4B d   1      -4.056   3.229   1.609  0.00  0.00    -0.013 C 
ATOM      9  C4' I4B d   1      -4.323   1.866   2.191  0.00  0.00     0.013 C 
ATOM     10  C3' I4B d   1      -3.865   3.156   0.124  0.00  0.00     0.013 C 
ENDBRANCH   7   8
ENDBRANCH   1   7
TORSDOF 2
ENDMDL
