MODEL 1
REMARK minimizedAffinity 9.27810955
REMARK minimizedRMSD -1
REMARK  2 active torsions:
REMARK  status: ('A' for Active; 'I' for Inactive)
REMARK    1  A    between atoms: C2'_3  and  C1'_4 
REMARK    2  A    between atoms: C1'_4  and  C1_5 
ROOT
ATOM      1  C1  I4B d   1      -3.619   5.689   5.168  0.00  0.00    -0.075 A 
ATOM      2  C2  I4B d   1      -3.664   5.697   3.796  0.00  0.00     0.003 A 
ATOM      3  C3  I4B d   1      -4.867   5.379   3.121  0.00  0.00     0.002 A 
ATOM      4  C4  I4B d   1      -5.980   5.012   3.851  0.00  0.00    -0.004 A 
ATOM      5  C5  I4B d   1      -5.938   5.028   5.242  0.00  0.00     0.002 A 
ATOM      6  C6  I4B d   1      -4.754   5.380   5.905  0.00  0.00     0.003 A 
ENDROOT
BRANCH   1   7
ATOM      7  C1' I4B d   1      -2.322   5.998   5.848  0.00  0.00     0.060 C 
BRANCH   7   8
ATOM      8  C2' I4B d   1      -1.203   5.437   4.995  0.00  0.00    -0.013 C 
ATOM      9  C4' I4B d   1      -1.246   6.000   3.599  0.00  0.00     0.013 C 
ATOM     10  C3' I4B d   1       0.098   5.758   5.669  0.00  0.00     0.013 C 
ENDBRANCH   7   8
ENDBRANCH   1   7
TORSDOF 2
ENDMDL
