MODEL 1
REMARK minimizedAffinity 10.2704372
REMARK minimizedRMSD -1
REMARK  2 active torsions:
REMARK  status: ('A' for Active; 'I' for Inactive)
REMARK    1  A    between atoms: C2'_3  and  C1'_4 
REMARK    2  A    between atoms: C1'_4  and  C1_5 
ROOT
ATOM      1  C1  I4B d   1      -3.609   5.355   4.921  0.00  0.00    -0.075 A 
ATOM      2  C2  I4B d   1      -4.754   5.471   5.668  0.00  0.00     0.003 A 
ATOM      3  C3  I4B d   1      -5.966   4.901   5.209  0.00  0.00     0.002 A 
ATOM      4  C4  I4B d   1      -5.999   4.271   3.981  0.00  0.00    -0.004 A 
ATOM      5  C5  I4B d   1      -4.832   4.135   3.235  0.00  0.00     0.002 A 
ATOM      6  C6  I4B d   1      -3.626   4.669   3.713  0.00  0.00     0.003 A 
ENDROOT
BRANCH   1   7
ATOM      7  C1' I4B d   1      -2.354   5.998   5.420  0.00  0.00     0.060 C 
BRANCH   7   8
ATOM      8  C2' I4B d   1      -1.181   5.321   4.741  0.00  0.00    -0.013 C 
ATOM      9  C4' I4B d   1      -1.064   5.747   3.302  0.00  0.00     0.013 C 
ATOM     10  C3' I4B d   1       0.060   5.665   5.510  0.00  0.00     0.013 C 
ENDBRANCH   7   8
ENDBRANCH   1   7
TORSDOF 2
ENDMDL
