MODEL 1
REMARK minimizedAffinity 7.96286678
REMARK minimizedRMSD -1
REMARK  2 active torsions:
REMARK  status: ('A' for Active; 'I' for Inactive)
REMARK    1  A    between atoms: C2'_3  and  C1'_4 
REMARK    2  A    between atoms: C1'_4  and  C1_5 
ROOT
ATOM      1  C1  I4B d   1       1.311   0.761  -0.787  0.00  0.00    -0.075 A 
ATOM      2  C2  I4B d   1       2.304   0.599  -1.720  0.00  0.00     0.003 A 
ATOM      3  C3  I4B d   1       3.598   0.187  -1.319  0.00  0.00     0.002 A 
ATOM      4  C4  I4B d   1       3.867  -0.002   0.021  0.00  0.00    -0.004 A 
ATOM      5  C5  I4B d   1       2.853   0.141   0.963  0.00  0.00     0.002 A 
ATOM      6  C6  I4B d   1       1.563   0.512   0.556  0.00  0.00     0.003 A 
ENDROOT
BRANCH   1   7
ATOM      7  C1' I4B d   1      -0.035   1.229  -1.241  0.00  0.00     0.060 C 
BRANCH   7   8
ATOM      8  C2' I4B d   1      -0.998   0.064  -1.126  0.00  0.00    -0.013 C 
ATOM      9  C4' I4B d   1      -2.157   0.401  -0.225  0.00  0.00     0.013 C 
ATOM     10  C3' I4B d   1      -1.468  -0.285  -2.506  0.00  0.00     0.013 C 
ENDBRANCH   7   8
ENDBRANCH   1   7
TORSDOF 2
ENDMDL
