MODEL 1
REMARK minimizedAffinity 11.8410854
REMARK minimizedRMSD -1
REMARK  2 active torsions:
REMARK  status: ('A' for Active; 'I' for Inactive)
REMARK    1  A    between atoms: C2'_3  and  C1'_4 
REMARK    2  A    between atoms: C1'_4  and  C1_5 
ROOT
ATOM      1  C1  I4B d   1       2.503  -0.103  -1.287  0.00  0.00    -0.075 A 
ATOM      2  C2  I4B d   1       2.321  -0.009   0.070  0.00  0.00     0.003 A 
ATOM      3  C3  I4B d   1       3.086   0.908   0.830  0.00  0.00     0.002 A 
ATOM      4  C4  I4B d   1       4.052   1.670   0.204  0.00  0.00    -0.004 A 
ATOM      5  C5  I4B d   1       4.220   1.589  -1.175  0.00  0.00     0.002 A 
ATOM      6  C6  I4B d   1       3.432   0.706  -1.928  0.00  0.00     0.003 A 
ENDROOT
BRANCH   1   7
ATOM      7  C1' I4B d   1       1.700  -1.106  -2.054  0.00  0.00     0.060 C 
BRANCH   7   8
ATOM      8  C2' I4B d   1       2.418  -2.438  -1.975  0.00  0.00    -0.013 C 
ATOM      9  C4' I4B d   1       1.509  -3.516  -1.445  0.00  0.00     0.013 C 
ATOM     10  C3' I4B d   1       2.918  -2.777  -3.348  0.00  0.00     0.013 C 
ENDBRANCH   7   8
ENDBRANCH   1   7
TORSDOF 2
ENDMDL
