MODEL 1
REMARK minimizedAffinity 8.55034733
REMARK minimizedRMSD -1
REMARK  2 active torsions:
REMARK  status: ('A' for Active; 'I' for Inactive)
REMARK    1  A    between atoms: C2'_3  and  C1'_4 
REMARK    2  A    between atoms: C1'_4  and  C1_5 
ROOT
ATOM      1  C1  I4B d   1       2.124   0.225  -0.442  0.00  0.00    -0.075 A 
ATOM      2  C2  I4B d   1       2.899   1.329  -0.696  0.00  0.00     0.003 A 
ATOM      3  C3  I4B d   1       4.089   1.548   0.039  0.00  0.00     0.002 A 
ATOM      4  C4  I4B d   1       4.438   0.671   1.046  0.00  0.00    -0.004 A 
ATOM      5  C5  I4B d   1       3.663  -0.459   1.287  0.00  0.00     0.002 A 
ATOM      6  C6  I4B d   1       2.505  -0.691   0.530  0.00  0.00     0.003 A 
ENDROOT
BRANCH   1   7
ATOM      7  C1' I4B d   1       0.857   0.041  -1.215  0.00  0.00     0.060 C 
BRANCH   7   8
ATOM      8  C2' I4B d   1       1.008  -1.198  -2.073  0.00  0.00    -0.013 C 
ATOM      9  C4' I4B d   1       1.315  -2.410  -1.233  0.00  0.00     0.013 C 
ATOM     10  C3' I4B d   1      -0.262  -1.384  -2.847  0.00  0.00     0.013 C 
ENDBRANCH   7   8
ENDBRANCH   1   7
TORSDOF 2
ENDMDL
