MODEL 1
REMARK minimizedAffinity 16.3887787
REMARK minimizedRMSD -1
REMARK  2 active torsions:
REMARK  status: ('A' for Active; 'I' for Inactive)
REMARK    1  A    between atoms: C2'_3  and  C1'_4 
REMARK    2  A    between atoms: C1'_4  and  C1_5 
ROOT
ATOM      1  C1  I4B d   1      -5.181   4.525   2.570  0.00  0.00    -0.075 A 
ATOM      2  C2  I4B d   1      -4.488   3.403   2.188  0.00  0.00     0.003 A 
ATOM      3  C3  I4B d   1      -3.890   3.337   0.907  0.00  0.00     0.002 A 
ATOM      4  C4  I4B d   1      -4.051   4.388   0.027  0.00  0.00    -0.004 A 
ATOM      5  C5  I4B d   1      -4.734   5.534   0.424  0.00  0.00     0.002 A 
ATOM      6  C6  I4B d   1      -5.292   5.608   1.708  0.00  0.00     0.003 A 
ENDROOT
BRANCH   1   7
ATOM      7  C1' I4B d   1      -5.829   4.548   3.919  0.00  0.00     0.060 C 
BRANCH   7   8
ATOM      8  C2' I4B d   1      -5.419   5.831   4.612  0.00  0.00    -0.013 C 
ATOM      9  C4' I4B d   1      -5.999   5.911   5.999  0.00  0.00     0.013 C 
ATOM     10  C3' I4B d   1      -3.921   5.880   4.648  0.00  0.00     0.013 C 
ENDBRANCH   7   8
ENDBRANCH   1   7
TORSDOF 2
ENDMDL
