MODEL 1
REMARK minimizedAffinity 4.40161514
REMARK minimizedRMSD -1
REMARK  0 active torsions:
REMARK  status: ('A' for Active; 'I' for Inactive)
ROOT
ATOM      1  C1  DEN d   1      -0.007  -0.617   1.406  0.00  0.00     0.130 A 
ATOM      2  C2  DEN d   1       1.450  -0.701   1.454  0.00  0.00    -0.031 A 
ATOM      3  C3  DEN d   1       1.951   0.475   2.193  0.00  0.00     0.027 A 
ATOM      4  C4  DEN d   1       0.619   2.406   3.265  0.00  0.00     0.027 A 
ATOM      5  C5  DEN d   1      -0.641   2.920   3.474  0.00  0.00    -0.003 A 
ATOM      6  C6  DEN d   1      -1.767   2.314   2.983  0.00  0.00     0.001 A 
ATOM      7  C7  DEN d   1      -1.658   1.133   2.297  0.00  0.00     0.017 A 
ATOM      8  C8  DEN d   1      -0.390   0.613   2.076  0.00  0.00    -0.094 A 
ATOM      9  C9  DEN d   1       0.735   1.235   2.590  0.00  0.00    -0.072 A 
ENDROOT
TORSDOF 0
ENDMDL
