MODEL 1
REMARK minimizedAffinity 3.2913034
REMARK minimizedRMSD -1
REMARK  0 active torsions:
REMARK  status: ('A' for Active; 'I' for Inactive)
ROOT
ATOM      1  C1  DEN d   1      -2.816   2.069   3.685  0.00  0.00     0.130 A 
ATOM      2  C2  DEN d   1      -2.989   1.959   2.239  0.00  0.00    -0.031 A 
ATOM      3  C3  DEN d   1      -4.174   1.115   1.985  0.00  0.00     0.027 A 
ATOM      4  C4  DEN d   1      -5.751  -0.022   3.680  0.00  0.00     0.027 A 
ATOM      5  C5  DEN d   1      -6.000  -0.226   5.019  0.00  0.00    -0.003 A 
ATOM      6  C6  DEN d   1      -5.192   0.288   5.999  0.00  0.00     0.001 A 
ATOM      7  C7  DEN d   1      -4.122   1.070   5.655  0.00  0.00     0.017 A 
ATOM      8  C8  DEN d   1      -3.860   1.274   4.306  0.00  0.00    -0.094 A 
ATOM      9  C9  DEN d   1      -4.695   0.756   3.331  0.00  0.00    -0.072 A 
ENDROOT
TORSDOF 0
ENDMDL
