MODEL 1
REMARK minimizedAffinity 0.530488431
REMARK minimizedRMSD -1
REMARK  0 active torsions:
REMARK  status: ('A' for Active; 'I' for Inactive)
ROOT
ATOM      1  C1  DEN d   1      -3.813   2.334   5.650  0.00  0.00     0.130 A 
ATOM      2  C2  DEN d   1      -4.340   1.018   6.000  0.00  0.00    -0.031 A 
ATOM      3  C3  DEN d   1      -3.521   0.001   5.311  0.00  0.00     0.027 A 
ATOM      4  C4  DEN d   1      -1.496   0.334   3.748  0.00  0.00     0.027 A 
ATOM      5  C5  DEN d   1      -0.686   1.270   3.144  0.00  0.00    -0.003 A 
ATOM      6  C6  DEN d   1      -0.881   2.617   3.305  0.00  0.00     0.001 A 
ATOM      7  C7  DEN d   1      -1.883   3.064   4.124  0.00  0.00     0.017 A 
ATOM      8  C8  DEN d   1      -2.709   2.126   4.731  0.00  0.00    -0.094 A 
ATOM      9  C9  DEN d   1      -2.488   0.770   4.566  0.00  0.00    -0.072 A 
ENDROOT
TORSDOF 0
ENDMDL
