MODEL 1
REMARK minimizedAffinity 12.0452843
REMARK minimizedRMSD -1
REMARK  0 active torsions:
REMARK  status: ('A' for Active; 'I' for Inactive)
ROOT
ATOM      1  C1  DEN d   1       1.513   0.563   0.296  0.00  0.00     0.130 A 
ATOM      2  C2  DEN d   1       2.486   1.642   0.143  0.00  0.00    -0.031 A 
ATOM      3  C3  DEN d   1       3.624   1.361   1.040  0.00  0.00     0.027 A 
ATOM      4  C4  DEN d   1       3.977  -0.632   2.639  0.00  0.00     0.027 A 
ATOM      5  C5  DEN d   1       3.420  -1.796   3.122  0.00  0.00    -0.003 A 
ATOM      6  C6  DEN d   1       2.184  -2.234   2.726  0.00  0.00     0.001 A 
ATOM      7  C7  DEN d   1       1.483  -1.526   1.785  0.00  0.00     0.017 A 
ATOM      8  C8  DEN d   1       2.034  -0.348   1.299  0.00  0.00    -0.094 A 
ATOM      9  C9  DEN d   1       3.290   0.071   1.703  0.00  0.00    -0.072 A 
ENDROOT
TORSDOF 0
ENDMDL
