MODEL 1
REMARK minimizedAffinity 7.6242218
REMARK minimizedRMSD -1
REMARK  0 active torsions:
REMARK  status: ('A' for Active; 'I' for Inactive)
ROOT
ATOM      1  C1  DEN d   1      -2.268   4.555   5.867  0.00  0.00     0.130 A 
ATOM      2  C2  DEN d   1      -2.678   5.957   5.884  0.00  0.00    -0.031 A 
ATOM      3  C3  DEN d   1      -4.154   6.000   5.918  0.00  0.00     0.027 A 
ATOM      4  C4  DEN d   1      -5.834   4.043   5.951  0.00  0.00     0.027 A 
ATOM      5  C5  DEN d   1      -5.960   2.672   5.936  0.00  0.00    -0.003 A 
ATOM      6  C6  DEN d   1      -4.875   1.839   5.863  0.00  0.00     0.001 A 
ATOM      7  C7  DEN d   1      -3.612   2.370   5.848  0.00  0.00     0.017 A 
ATOM      8  C8  DEN d   1      -3.477   3.752   5.856  0.00  0.00    -0.094 A 
ATOM      9  C9  DEN d   1      -4.586   4.577   5.942  0.00  0.00    -0.072 A 
ENDROOT
TORSDOF 0
ENDMDL
