MODEL 1
REMARK minimizedAffinity 8.52318001
REMARK minimizedRMSD -1
REMARK  0 active torsions:
REMARK  status: ('A' for Active; 'I' for Inactive)
ROOT
ATOM      1  C1  DEN d   1       5.756   0.796   2.343  0.00  0.00     0.130 A 
ATOM      2  C2  DEN d   1       5.077  -0.310   3.013  0.00  0.00    -0.031 A 
ATOM      3  C3  DEN d   1       3.690  -0.367   2.509  0.00  0.00     0.027 A 
ATOM      4  C4  DEN d   1       2.536   1.139   0.762  0.00  0.00     0.027 A 
ATOM      5  C5  DEN d   1       2.704   2.220  -0.075  0.00  0.00    -0.003 A 
ATOM      6  C6  DEN d   1       3.881   2.917  -0.139  0.00  0.00     0.001 A 
ATOM      7  C7  DEN d   1       4.951   2.513   0.615  0.00  0.00     0.017 A 
ATOM      8  C8  DEN d   1       4.787   1.429   1.467  0.00  0.00    -0.094 A 
ATOM      9  C9  DEN d   1       3.593   0.729   1.508  0.00  0.00    -0.072 A 
ENDROOT
TORSDOF 0
ENDMDL
