MODEL 1
REMARK minimizedAffinity 4.92824697
REMARK minimizedRMSD -1
REMARK  0 active torsions:
REMARK  status: ('A' for Active; 'I' for Inactive)
ROOT
ATOM      1  C1  DEN d   1      -3.078   5.980   5.913  0.00  0.00     0.130 A 
ATOM      2  C2  DEN d   1      -1.715   5.457   5.942  0.00  0.00    -0.031 A 
ATOM      3  C3  DEN d   1      -1.793   3.983   5.983  0.00  0.00     0.027 A 
ATOM      4  C4  DEN d   1      -3.880   2.468   5.998  0.00  0.00     0.027 A 
ATOM      5  C5  DEN d   1      -5.257   2.455   5.995  0.00  0.00    -0.003 A 
ATOM      6  C6  DEN d   1      -5.999   3.607   5.998  0.00  0.00     0.001 A 
ATOM      7  C7  DEN d   1      -5.366   4.821   5.959  0.00  0.00     0.017 A 
ATOM      8  C8  DEN d   1      -3.978   4.843   5.970  0.00  0.00    -0.094 A 
ATOM      9  C9  DEN d   1      -3.246   3.667   5.955  0.00  0.00    -0.072 A 
ENDROOT
TORSDOF 0
ENDMDL
