MODEL 1
REMARK minimizedAffinity -2.26809144
REMARK minimizedRMSD -1
REMARK  0 active torsions:
REMARK  status: ('A' for Active; 'I' for Inactive)
ROOT
ATOM      1  C1  DEN d   1      -4.062   5.784   5.961  0.00  0.00     0.130 A 
ATOM      2  C2  DEN d   1      -2.602   5.755   5.985  0.00  0.00    -0.031 A 
ATOM      3  C3  DEN d   1      -2.173   4.342   6.000  0.00  0.00     0.027 A 
ATOM      4  C4  DEN d   1      -3.620   2.207   5.983  0.00  0.00     0.027 A 
ATOM      5  C5  DEN d   1      -4.910   1.726   5.976  0.00  0.00    -0.003 A 
ATOM      6  C6  DEN d   1      -5.999   2.556   5.997  0.00  0.00     0.001 A 
ATOM      7  C7  DEN d   1      -5.818   3.913   5.981  0.00  0.00     0.017 A 
ATOM      8  C8  DEN d   1      -4.520   4.407   5.996  0.00  0.00    -0.094 A 
ATOM      9  C9  DEN d   1      -3.432   3.551   5.962  0.00  0.00    -0.072 A 
ENDROOT
TORSDOF 0
ENDMDL
