MODEL 1
REMARK minimizedAffinity 10.730895
REMARK minimizedRMSD -1
REMARK  0 active torsions:
REMARK  status: ('A' for Active; 'I' for Inactive)
ROOT
ATOM      1  C1  DEN d   1      -4.647   0.579   5.956  0.00  0.00     0.130 A 
ATOM      2  C2  DEN d   1      -3.365  -0.119   5.994  0.00  0.00    -0.031 A 
ATOM      3  C3  DEN d   1      -2.292   0.895   6.000  0.00  0.00     0.027 A 
ATOM      4  C4  DEN d   1      -2.490   3.466   5.958  0.00  0.00     0.027 A 
ATOM      5  C5  DEN d   1      -3.371   4.524   5.911  0.00  0.00    -0.003 A 
ATOM      6  C6  DEN d   1      -4.727   4.342   5.842  0.00  0.00     0.001 A 
ATOM      7  C7  DEN d   1      -5.243   3.073   5.864  0.00  0.00     0.017 A 
ATOM      8  C8  DEN d   1      -4.361   2.002   5.903  0.00  0.00    -0.094 A 
ATOM      9  C9  DEN d   1      -2.994   2.207   5.985  0.00  0.00    -0.072 A 
ENDROOT
TORSDOF 0
ENDMDL
