MODEL 1
REMARK minimizedAffinity 2.6249032
REMARK minimizedRMSD -1
REMARK  0 active torsions:
REMARK  status: ('A' for Active; 'I' for Inactive)
ROOT
ATOM      1  C1  DEN d   1       4.777  -0.637   3.211  0.00  0.00     0.130 A 
ATOM      2  C2  DEN d   1       5.997  -0.046   2.666  0.00  0.00    -0.031 A 
ATOM      3  C3  DEN d   1       5.647   0.646   1.410  0.00  0.00     0.027 A 
ATOM      4  C4  DEN d   1       3.347   0.863   0.263  0.00  0.00     0.027 A 
ATOM      5  C5  DEN d   1       2.015   0.518   0.343  0.00  0.00    -0.003 A 
ATOM      6  C6  DEN d   1       1.522  -0.257   1.359  0.00  0.00     0.001 A 
ATOM      7  C7  DEN d   1       2.357  -0.677   2.360  0.00  0.00     0.017 A 
ATOM      8  C8  DEN d   1       3.702  -0.340   2.282  0.00  0.00    -0.094 A 
ATOM      9  C9  DEN d   1       4.179   0.455   1.254  0.00  0.00    -0.072 A 
ENDROOT
TORSDOF 0
ENDMDL
