MODEL 1
REMARK minimizedAffinity 16.7723198
REMARK minimizedRMSD -1
REMARK  0 active torsions:
REMARK  status: ('A' for Active; 'I' for Inactive)
ROOT
ATOM      1  C1  DEN d   1       3.540   2.119  -0.003  0.00  0.00     0.130 A 
ATOM      2  C2  DEN d   1       2.092   1.954  -0.096  0.00  0.00    -0.031 A 
ATOM      3  C3  DEN d   1       1.677   0.974   0.927  0.00  0.00     0.027 A 
ATOM      4  C4  DEN d   1       3.128  -0.295   2.641  0.00  0.00     0.027 A 
ATOM      5  C5  DEN d   1       4.413  -0.493   3.096  0.00  0.00    -0.003 A 
ATOM      6  C6  DEN d   1       5.492   0.134   2.532  0.00  0.00     0.001 A 
ATOM      7  C7  DEN d   1       5.301   1.026   1.509  0.00  0.00     0.017 A 
ATOM      8  C8  DEN d   1       4.009   1.225   1.041  0.00  0.00    -0.094 A 
ATOM      9  C9  DEN d   1       2.930   0.591   1.632  0.00  0.00    -0.072 A 
ENDROOT
TORSDOF 0
ENDMDL
