MODEL 1
REMARK minimizedAffinity 0.528111219
REMARK minimizedRMSD -1
REMARK  0 active torsions:
REMARK  status: ('A' for Active; 'I' for Inactive)
ROOT
ATOM      1  C1  DEN d   1       2.928  -2.668   2.878  0.00  0.00     0.130 A 
ATOM      2  C2  DEN d   1       1.522  -2.741   2.489  0.00  0.00    -0.031 A 
ATOM      3  C3  DEN d   1       1.197  -1.523   1.720  0.00  0.00     0.027 A 
ATOM      4  C4  DEN d   1       2.727   0.457   1.094  0.00  0.00     0.027 A 
ATOM      5  C5  DEN d   1       3.999   0.974   1.212  0.00  0.00    -0.003 A 
ATOM      6  C6  DEN d   1       4.985   0.335   1.916  0.00  0.00     0.001 A 
ATOM      7  C7  DEN d   1       4.728  -0.881   2.492  0.00  0.00     0.017 A 
ATOM      8  C8  DEN d   1       3.447  -1.405   2.384  0.00  0.00    -0.094 A 
ATOM      9  C9  DEN d   1       2.467  -0.750   1.658  0.00  0.00    -0.072 A 
ENDROOT
TORSDOF 0
ENDMDL
