MODEL 1
REMARK minimizedAffinity 1.48481178
REMARK minimizedRMSD -1
REMARK  0 active torsions:
REMARK  status: ('A' for Active; 'I' for Inactive)
ROOT
ATOM      1  C1  DEN d   1      -3.003  -1.390   4.615  0.00  0.00     0.130 A 
ATOM      2  C2  DEN d   1      -3.255  -1.780   6.000  0.00  0.00    -0.031 A 
ATOM      3  C3  DEN d   1      -3.749  -3.172   6.000  0.00  0.00     0.027 A 
ATOM      4  C4  DEN d   1      -4.141  -4.754   4.001  0.00  0.00     0.027 A 
ATOM      5  C5  DEN d   1      -4.079  -4.867   2.630  0.00  0.00    -0.003 A 
ATOM      6  C6  DEN d   1      -3.691  -3.826   1.828  0.00  0.00     0.001 A 
ATOM      7  C7  DEN d   1      -3.305  -2.640   2.395  0.00  0.00     0.017 A 
ATOM      8  C8  DEN d   1      -3.371  -2.517   3.777  0.00  0.00    -0.094 A 
ATOM      9  C9  DEN d   1      -3.755  -3.584   4.570  0.00  0.00    -0.072 A 
ENDROOT
TORSDOF 0
ENDMDL
