MODEL 1
REMARK minimizedAffinity 13.2473469
REMARK minimizedRMSD -1
REMARK  0 active torsions:
REMARK  status: ('A' for Active; 'I' for Inactive)
ROOT
ATOM      1  C1  DEN d   1      -3.741  -2.834   6.000  0.00  0.00     0.130 A 
ATOM      2  C2  DEN d   1      -3.004  -1.573   6.000  0.00  0.00    -0.031 A 
ATOM      3  C3  DEN d   1      -2.752  -1.192   4.596  0.00  0.00     0.027 A 
ATOM      4  C4  DEN d   1      -3.429  -2.423   2.433  0.00  0.00     0.027 A 
ATOM      5  C5  DEN d   1      -4.058  -3.540   1.927  0.00  0.00    -0.003 A 
ATOM      6  C6  DEN d   1      -4.590  -4.508   2.736  0.00  0.00     0.001 A 
ATOM      7  C7  DEN d   1      -4.544  -4.356   4.097  0.00  0.00     0.017 A 
ATOM      8  C8  DEN d   1      -3.906  -3.237   4.615  0.00  0.00    -0.094 A 
ATOM      9  C9  DEN d   1      -3.384  -2.263   3.780  0.00  0.00    -0.072 A 
ENDROOT
TORSDOF 0
ENDMDL
