MODEL 1
REMARK minimizedAffinity 14.7357292
REMARK minimizedRMSD -1
REMARK  0 active torsions:
REMARK  status: ('A' for Active; 'I' for Inactive)
ROOT
ATOM      1  C1  DEN d   1       4.680  -2.027  -2.744  0.00  0.00     0.130 A 
ATOM      2  C2  DEN d   1       5.644  -1.017  -2.317  0.00  0.00    -0.031 A 
ATOM      3  C3  DEN d   1       5.175   0.297  -2.803  0.00  0.00     0.027 A 
ATOM      4  C4  DEN d   1       3.059   0.861  -4.164  0.00  0.00     0.027 A 
ATOM      5  C5  DEN d   1       1.941   0.334  -4.772  0.00  0.00    -0.003 A 
ATOM      6  C6  DEN d   1       1.677  -1.010  -4.775  0.00  0.00     0.001 A 
ATOM      7  C7  DEN d   1       2.520  -1.869  -4.120  0.00  0.00     0.017 A 
ATOM      8  C8  DEN d   1       3.653  -1.345  -3.512  0.00  0.00    -0.094 A 
ATOM      9  C9  DEN d   1       3.895   0.018  -3.509  0.00  0.00    -0.072 A 
ENDROOT
TORSDOF 0
ENDMDL
