MODEL 1
REMARK minimizedAffinity -1.9665513
REMARK minimizedRMSD -1
REMARK  1 active torsions:
REMARK  status: ('A' for Active; 'I' for Inactive)
REMARK    1  A    between atoms: C1_2  and  C2_3 
ROOT
ATOM      1  C2  UNL d   1      -0.560   0.862   0.198  0.00  0.00    -0.081 A 
ATOM      2  C3  UNL d   1      -1.103   0.059   1.208  0.00  0.00     0.006 A 
ATOM      3  C4  UNL d   1      -0.996  -1.333   1.141  0.00  0.00     0.002 A 
ATOM      4  C5  UNL d   1      -0.338  -1.943   0.068  0.00  0.00    -0.080 A 
ATOM      5  C6  UNL d   1      -0.190  -3.434  -0.002  0.00  0.00     0.076 C 
ATOM      6  C7  UNL d   1       0.189  -1.141  -0.950  0.00  0.00     0.002 A 
ATOM      7  C8  UNL d   1       0.082   0.250  -0.884  0.00  0.00     0.006 A 
ENDROOT
BRANCH   1   8
ATOM      8  C1  UNL d   1      -0.618   2.365   0.301  0.00  0.00     0.054 C 
ATOM      9  C   UNL d   1       0.749   2.950   0.627  0.00  0.00     0.018 C 
ENDBRANCH   1   8
TORSDOF 1
ENDMDL
