MODEL 1
REMARK minimizedAffinity -5.76571798
REMARK minimizedRMSD -1
REMARK  1 active torsions:
REMARK  status: ('A' for Active; 'I' for Inactive)
REMARK    1  A    between atoms: C1_2  and  C2_3 
ROOT
ATOM      1  C2  UNL d   1       0.215   0.832  -0.158  0.00  0.00    -0.081 A 
ATOM      2  C3  UNL d   1      -0.490   0.421   0.979  0.00  0.00     0.006 A 
ATOM      3  C4  UNL d   1      -0.608  -0.937   1.287  0.00  0.00     0.002 A 
ATOM      4  C5  UNL d   1      -0.016  -1.904   0.468  0.00  0.00    -0.080 A 
ATOM      5  C6  UNL d   1      -0.109  -3.363   0.804  0.00  0.00     0.076 C 
ATOM      6  C7  UNL d   1       0.673  -1.495  -0.678  0.00  0.00     0.002 A 
ATOM      7  C8  UNL d   1       0.790  -0.138  -0.987  0.00  0.00     0.006 A 
ENDROOT
BRANCH   1   8
ATOM      8  C1  UNL d   1       0.399   2.298  -0.458  0.00  0.00     0.054 C 
ATOM      9  C   UNL d   1       1.278   2.970   0.586  0.00  0.00     0.018 C 
ENDBRANCH   1   8
TORSDOF 1
ENDMDL
