MODEL 1
REMARK minimizedAffinity -1.53340185
REMARK minimizedRMSD -1
REMARK  1 active torsions:
REMARK  status: ('A' for Active; 'I' for Inactive)
REMARK    1  A    between atoms: C1_2  and  C2_3 
ROOT
ATOM      1  C2  UNL d   1      -0.884  -1.720   0.596  0.00  0.00    -0.081 A 
ATOM      2  C3  UNL d   1      -1.418  -0.765   1.470  0.00  0.00     0.006 A 
ATOM      3  C4  UNL d   1      -1.223   0.598   1.234  0.00  0.00     0.002 A 
ATOM      4  C5  UNL d   1      -0.498   1.029   0.118  0.00  0.00    -0.080 A 
ATOM      5  C6  UNL d   1      -0.307   2.490  -0.162  0.00  0.00     0.076 C 
ATOM      6  C7  UNL d   1       0.051   0.075  -0.745  0.00  0.00     0.002 A 
ATOM      7  C8  UNL d   1      -0.143  -1.288  -0.510  0.00  0.00     0.006 A 
ENDROOT
BRANCH   1   8
ATOM      8  C1  UNL d   1      -1.147  -3.188   0.812  0.00  0.00     0.054 C 
ATOM      9  C   UNL d   1      -0.085  -4.045   0.138  0.00  0.00     0.018 C 
ENDBRANCH   1   8
TORSDOF 1
ENDMDL
