MODEL 1
REMARK minimizedAffinity -4.36345816
REMARK minimizedRMSD -1
REMARK  1 active torsions:
REMARK  status: ('A' for Active; 'I' for Inactive)
REMARK    1  A    between atoms: C1_2  and  C2_3 
ROOT
ATOM      1  C2  UNL d   1      -0.069  -0.370  -0.877  0.00  0.00    -0.081 A 
ATOM      2  C3  UNL d   1      -0.542  -0.933   0.315  0.00  0.00     0.006 A 
ATOM      3  C4  UNL d   1      -0.531  -2.318   0.496  0.00  0.00     0.002 A 
ATOM      4  C5  UNL d   1      -0.042  -3.162  -0.507  0.00  0.00    -0.080 A 
ATOM      5  C6  UNL d   1       0.003  -4.648  -0.313  0.00  0.00     0.076 C 
ATOM      6  C7  UNL d   1       0.414  -2.600  -1.704  0.00  0.00     0.002 A 
ATOM      7  C8  UNL d   1       0.403  -1.215  -1.886  0.00  0.00     0.006 A 
ENDROOT
BRANCH   1   8
ATOM      8  C1  UNL d   1      -0.019   1.127  -1.050  0.00  0.00     0.054 C 
ATOM      9  C   UNL d   1       0.698   1.795   0.115  0.00  0.00     0.018 C 
ENDBRANCH   1   8
TORSDOF 1
ENDMDL
