MODEL 1
REMARK minimizedAffinity -4.275002
REMARK minimizedRMSD -1
REMARK  1 active torsions:
REMARK  status: ('A' for Active; 'I' for Inactive)
REMARK    1  A    between atoms: C1_2  and  C2_3 
ROOT
ATOM      1  C2  UNL d   1      -0.119   0.940  -0.347  0.00  0.00    -0.081 A 
ATOM      2  C3  UNL d   1      -0.726   0.355   0.771  0.00  0.00     0.006 A 
ATOM      3  C4  UNL d   1      -0.640  -1.023   0.984  0.00  0.00     0.002 A 
ATOM      4  C5  UNL d   1       0.061  -1.837   0.088  0.00  0.00    -0.080 A 
ATOM      5  C6  UNL d   1       0.187  -3.314   0.321  0.00  0.00     0.076 C 
ATOM      6  C7  UNL d   1       0.652  -1.256  -1.038  0.00  0.00     0.002 A 
ATOM      7  C8  UNL d   1       0.566   0.122  -1.252  0.00  0.00     0.006 A 
ENDROOT
BRANCH   1   8
ATOM      8  C1  UNL d   1      -0.155   2.433  -0.545  0.00  0.00     0.054 C 
ATOM      9  C   UNL d   1       0.930   3.126   0.266  0.00  0.00     0.018 C 
ENDBRANCH   1   8
TORSDOF 1
ENDMDL
