MODEL 1
REMARK minimizedAffinity -5.24403811
REMARK minimizedRMSD -1
REMARK  1 active torsions:
REMARK  status: ('A' for Active; 'I' for Inactive)
REMARK    1  A    between atoms: C1_2  and  C2_3 
ROOT
ATOM      1  C2  UNL d   1       0.260   0.177   0.554  0.00  0.00    -0.081 A 
ATOM      2  C3  UNL d   1       1.107   0.575   1.596  0.00  0.00     0.006 A 
ATOM      3  C4  UNL d   1       1.689   1.845   1.589  0.00  0.00     0.002 A 
ATOM      4  C5  UNL d   1       1.428   2.740   0.546  0.00  0.00    -0.080 A 
ATOM      5  C6  UNL d   1       2.022   4.117   0.543  0.00  0.00     0.076 C 
ATOM      6  C7  UNL d   1       0.595   2.336  -0.503  0.00  0.00     0.002 A 
ATOM      7  C8  UNL d   1       0.014   1.066  -0.498  0.00  0.00     0.006 A 
ENDROOT
BRANCH   1   8
ATOM      8  C1  UNL d   1      -0.421  -1.168   0.591  0.00  0.00     0.054 C 
ATOM      9  C   UNL d   1       0.401  -2.224  -0.135  0.00  0.00     0.018 C 
ENDBRANCH   1   8
TORSDOF 1
ENDMDL
