MODEL 1
REMARK minimizedAffinity -4.12278938
REMARK minimizedRMSD -1
REMARK  1 active torsions:
REMARK  status: ('A' for Active; 'I' for Inactive)
REMARK    1  A    between atoms: C1_2  and  C2_3 
ROOT
ATOM      1  C2  UNL d   1      -0.207   0.042  -0.054  0.00  0.00    -0.081 A 
ATOM      2  C3  UNL d   1      -0.616  -0.657   1.088  0.00  0.00     0.006 A 
ATOM      3  C4  UNL d   1      -0.463  -2.044   1.162  0.00  0.00     0.002 A 
ATOM      4  C5  UNL d   1       0.107  -2.753   0.100  0.00  0.00    -0.080 A 
ATOM      5  C6  UNL d   1       0.304  -4.238   0.179  0.00  0.00     0.076 C 
ATOM      6  C7  UNL d   1       0.499  -2.057  -1.049  0.00  0.00     0.002 A 
ATOM      7  C8  UNL d   1       0.346  -0.671  -1.124  0.00  0.00     0.006 A 
ENDROOT
BRANCH   1   8
ATOM      8  C1  UNL d   1      -0.310   1.544  -0.111  0.00  0.00     0.054 C 
ATOM      9  C   UNL d   1       1.038   2.202   0.144  0.00  0.00     0.018 C 
ENDBRANCH   1   8
TORSDOF 1
ENDMDL
