MODEL 1
REMARK minimizedAffinity -1.68974066
REMARK minimizedRMSD -1
REMARK  1 active torsions:
REMARK  status: ('A' for Active; 'I' for Inactive)
REMARK    1  A    between atoms: C1_2  and  C2_3 
ROOT
ATOM      1  C2  UNL d   1      -0.611   1.137  -0.053  0.00  0.00    -0.081 A 
ATOM      2  C3  UNL d   1      -0.535  -0.067   0.659  0.00  0.00     0.006 A 
ATOM      3  C4  UNL d   1      -0.024  -1.217   0.053  0.00  0.00     0.002 A 
ATOM      4  C5  UNL d   1       0.427  -1.181  -1.271  0.00  0.00    -0.080 A 
ATOM      5  C6  UNL d   1       1.007  -2.401  -1.923  0.00  0.00     0.076 C 
ATOM      6  C7  UNL d   1       0.335   0.017  -1.988  0.00  0.00     0.002 A 
ATOM      7  C8  UNL d   1      -0.177   1.167  -1.383  0.00  0.00     0.006 A 
ENDROOT
BRANCH   1   8
ATOM      8  C1  UNL d   1      -1.102   2.394   0.617  0.00  0.00     0.054 C 
ATOM      9  C   UNL d   1       0.004   3.435   0.720  0.00  0.00     0.018 C 
ENDBRANCH   1   8
TORSDOF 1
ENDMDL
