MODEL 1
REMARK minimizedAffinity -4.17302752
REMARK minimizedRMSD -1
REMARK  1 active torsions:
REMARK  status: ('A' for Active; 'I' for Inactive)
REMARK    1  A    between atoms: C1_2  and  C2_3 
ROOT
ATOM      1  C2  UNL d   1      -0.106   0.610  -0.554  0.00  0.00    -0.081 A 
ATOM      2  C3  UNL d   1      -0.808   0.139   0.562  0.00  0.00     0.006 A 
ATOM      3  C4  UNL d   1      -0.884  -1.231   0.823  0.00  0.00     0.002 A 
ATOM      4  C5  UNL d   1      -0.255  -2.151  -0.021  0.00  0.00    -0.080 A 
ATOM      5  C6  UNL d   1      -0.304  -3.623   0.265  0.00  0.00     0.076 C 
ATOM      6  C7  UNL d   1       0.432  -1.682  -1.146  0.00  0.00     0.002 A 
ATOM      7  C8  UNL d   1       0.509  -0.312  -1.409  0.00  0.00     0.006 A 
ENDROOT
BRANCH   1   8
ATOM      8  C1  UNL d   1       0.034   2.090  -0.803  0.00  0.00     0.054 C 
ATOM      9  C   UNL d   1       0.681   2.792   0.382  0.00  0.00     0.018 C 
ENDBRANCH   1   8
TORSDOF 1
ENDMDL
