MODEL 1
REMARK minimizedAffinity -4.24353981
REMARK minimizedRMSD -1
REMARK  1 active torsions:
REMARK  status: ('A' for Active; 'I' for Inactive)
REMARK    1  A    between atoms: C1_2  and  C2_3 
ROOT
ATOM      1  C2  UNL d   1      -0.407  -0.659   0.764  0.00  0.00    -0.081 A 
ATOM      2  C3  UNL d   1      -0.662   0.221  -0.294  0.00  0.00     0.006 A 
ATOM      3  C4  UNL d   1       0.153   1.338  -0.499  0.00  0.00     0.002 A 
ATOM      4  C5  UNL d   1       1.240   1.587   0.346  0.00  0.00    -0.080 A 
ATOM      5  C6  UNL d   1       2.140   2.765   0.120  0.00  0.00     0.076 C 
ATOM      6  C7  UNL d   1       1.484   0.717   1.414  0.00  0.00     0.002 A 
ATOM      7  C8  UNL d   1       0.669  -0.399   1.619  0.00  0.00     0.006 A 
ENDROOT
BRANCH   1   8
ATOM      8  C1  UNL d   1      -1.245  -1.899   0.948  0.00  0.00     0.054 C 
ATOM      9  C   UNL d   1      -1.113  -2.838  -0.243  0.00  0.00     0.018 C 
ENDBRANCH   1   8
TORSDOF 1
ENDMDL
