MODEL 1
REMARK minimizedAffinity -2.3510313
REMARK minimizedRMSD -1
REMARK  1 active torsions:
REMARK  status: ('A' for Active; 'I' for Inactive)
REMARK    1  A    between atoms: C1_2  and  C2_3 
ROOT
ATOM      1  C2  UNL d   1      -0.337   0.419  -0.019  0.00  0.00    -0.081 A 
ATOM      2  C3  UNL d   1      -0.961  -0.341   0.978  0.00  0.00     0.006 A 
ATOM      3  C4  UNL d   1      -0.798  -1.728   1.017  0.00  0.00     0.002 A 
ATOM      4  C5  UNL d   1      -0.004  -2.377   0.066  0.00  0.00    -0.080 A 
ATOM      5  C6  UNL d   1       0.203  -3.861   0.114  0.00  0.00     0.076 C 
ATOM      6  C7  UNL d   1       0.605  -1.620  -0.941  0.00  0.00     0.002 A 
ATOM      7  C8  UNL d   1       0.442  -0.233  -0.981  0.00  0.00     0.006 A 
ENDROOT
BRANCH   1   8
ATOM      8  C1  UNL d   1      -0.457   1.922  -0.026  0.00  0.00     0.054 C 
ATOM      9  C   UNL d   1       0.682   2.571   0.747  0.00  0.00     0.018 C 
ENDBRANCH   1   8
TORSDOF 1
ENDMDL
