MODEL 1
REMARK minimizedAffinity 18.6722641
REMARK minimizedRMSD -1
REMARK  0 active torsions:
REMARK  status: ('A' for Active; 'I' for Inactive)
ROOT
ATOM      1  C   UNL d   1      -2.945   5.999   0.629  0.00  0.00     0.020 A 
ATOM      2  C1  UNL d   1      -4.220   5.706   1.111  0.00  0.00     0.020 A 
ATOM      3  C2  UNL d   1      -4.567   4.387   1.410  0.00  0.00     0.034 A 
ATOM      4  C3  UNL d   1      -3.639   3.356   1.227  0.00  0.00     0.017 A 
ATOM      5  C4  UNL d   1      -2.359   3.651   0.743  0.00  0.00     0.017 A 
ATOM      6  C5  UNL d   1      -2.016   4.974   0.445  0.00  0.00     0.034 A 
ATOM      7 Cl   UNL d   1      -1.159   2.433   0.492  0.00  0.00    -0.070 Cl
ATOM      8 Cl1  UNL d   1      -4.136   1.748   1.617  0.00  0.00    -0.070 Cl
ENDROOT
TORSDOF 0
ENDMDL
