MODEL 1
REMARK minimizedAffinity 11.1696949
REMARK minimizedRMSD -1
REMARK  0 active torsions:
REMARK  status: ('A' for Active; 'I' for Inactive)
ROOT
ATOM      1  C   UNL d   1      -1.457   5.999  -4.510  0.00  0.00     0.020 A 
ATOM      2  C1  UNL d   1      -2.787   5.811  -4.137  0.00  0.00     0.020 A 
ATOM      3  C2  UNL d   1      -3.369   4.546  -4.242  0.00  0.00     0.034 A 
ATOM      4  C3  UNL d   1      -2.621   3.464  -4.720  0.00  0.00     0.017 A 
ATOM      5  C4  UNL d   1      -1.285   3.654  -5.094  0.00  0.00     0.017 A 
ATOM      6  C5  UNL d   1      -0.708   4.923  -4.987  0.00  0.00     0.034 A 
ATOM      7 Cl   UNL d   1      -0.299   2.368  -5.694  0.00  0.00    -0.070 Cl
ATOM      8 Cl1  UNL d   1      -3.405   1.928  -4.823  0.00  0.00    -0.070 Cl
ENDROOT
TORSDOF 0
ENDMDL
