MODEL 1
REMARK minimizedAffinity 14.4139347
REMARK minimizedRMSD -1
REMARK  0 active torsions:
REMARK  status: ('A' for Active; 'I' for Inactive)
ROOT
ATOM      1  C   UNL d   1      -3.437   5.830   0.678  0.00  0.00     0.020 A 
ATOM      2  C1  UNL d   1      -4.603   5.685   1.430  0.00  0.00     0.020 A 
ATOM      3  C2  UNL d   1      -5.097   4.410   1.713  0.00  0.00     0.034 A 
ATOM      4  C3  UNL d   1      -4.425   3.275   1.245  0.00  0.00     0.017 A 
ATOM      5  C4  UNL d   1      -3.256   3.421   0.491  0.00  0.00     0.017 A 
ATOM      6  C5  UNL d   1      -2.765   4.700   0.210  0.00  0.00     0.034 A 
ATOM      7 Cl   UNL d   1      -2.372   2.067  -0.121  0.00  0.00    -0.070 Cl
ATOM      8 Cl1  UNL d   1      -5.093   1.729   1.634  0.00  0.00    -0.070 Cl
ENDROOT
TORSDOF 0
ENDMDL
