MODEL 1
REMARK minimizedAffinity 10.5238171
REMARK minimizedRMSD -1
REMARK  0 active torsions:
REMARK  status: ('A' for Active; 'I' for Inactive)
ROOT
ATOM      1  C   UNL d   1      -5.360  -5.226   4.937  0.00  0.00     0.020 A 
ATOM      2  C1  UNL d   1      -5.994  -4.196   5.630  0.00  0.00     0.020 A 
ATOM      3  C2  UNL d   1      -5.291  -3.031   5.946  0.00  0.00     0.034 A 
ATOM      4  C3  UNL d   1      -3.950  -2.894   5.569  0.00  0.00     0.017 A 
ATOM      5  C4  UNL d   1      -3.314  -3.929   4.873  0.00  0.00     0.017 A 
ATOM      6  C5  UNL d   1      -4.023  -5.093   4.559  0.00  0.00     0.034 A 
ATOM      7 Cl   UNL d   1      -1.663  -3.833   4.374  0.00  0.00    -0.070 Cl
ATOM      8 Cl1  UNL d   1      -3.142  -1.427   5.993  0.00  0.00    -0.070 Cl
ENDROOT
TORSDOF 0
ENDMDL
