MODEL 1
REMARK minimizedAffinity 24.5894451
REMARK minimizedRMSD -1
REMARK  0 active torsions:
REMARK  status: ('A' for Active; 'I' for Inactive)
ROOT
ATOM      1  C   UNL d   1       6.000  -4.562   0.744  0.00  0.00     0.020 A 
ATOM      2  C1  UNL d   1       5.711  -5.586  -0.156  0.00  0.00     0.020 A 
ATOM      3  C2  UNL d   1       4.513  -5.568  -0.874  0.00  0.00     0.034 A 
ATOM      4  C3  UNL d   1       3.600  -4.523  -0.693  0.00  0.00     0.017 A 
ATOM      5  C4  UNL d   1       3.891  -3.495   0.211  0.00  0.00     0.017 A 
ATOM      6  C5  UNL d   1       5.091  -3.518   0.928  0.00  0.00     0.034 A 
ATOM      7 Cl   UNL d   1       2.814  -2.172   0.489  0.00  0.00    -0.070 Cl
ATOM      8 Cl1  UNL d   1       2.139  -4.563  -1.614  0.00  0.00    -0.070 Cl
ENDROOT
TORSDOF 0
ENDMDL
