MODEL 1
REMARK minimizedAffinity 11.3743858
REMARK minimizedRMSD -1
REMARK  0 active torsions:
REMARK  status: ('A' for Active; 'I' for Inactive)
ROOT
ATOM      1  C   UNL d   1      -3.250   5.450  -5.986  0.00  0.00     0.020 A 
ATOM      2  C1  UNL d   1      -2.217   6.000  -5.228  0.00  0.00     0.020 A 
ATOM      3  C2  UNL d   1      -1.660   5.272  -4.174  0.00  0.00     0.034 A 
ATOM      4  C3  UNL d   1      -2.137   3.990  -3.875  0.00  0.00     0.017 A 
ATOM      5  C4  UNL d   1      -3.174   3.440  -4.636  0.00  0.00     0.017 A 
ATOM      6  C5  UNL d   1      -3.728   4.173  -5.690  0.00  0.00     0.034 A 
ATOM      7 Cl   UNL d   1      -3.815   1.864  -4.327  0.00  0.00    -0.070 Cl
ATOM      8 Cl1  UNL d   1      -1.402   3.147  -2.558  0.00  0.00    -0.070 Cl
ENDROOT
TORSDOF 0
ENDMDL
