MODEL 1
REMARK minimizedAffinity -1.01102293
REMARK minimizedRMSD -1
REMARK  0 active torsions:
REMARK  status: ('A' for Active; 'I' for Inactive)
ROOT
ATOM      1  C   UNL d   1      -2.708   6.000  -5.289  0.00  0.00     0.020 A 
ATOM      2  C1  UNL d   1      -3.812   5.530  -6.000  0.00  0.00     0.020 A 
ATOM      3  C2  UNL d   1      -4.330   4.262  -5.728  0.00  0.00     0.034 A 
ATOM      4  C3  UNL d   1      -3.744   3.459  -4.742  0.00  0.00     0.017 A 
ATOM      5  C4  UNL d   1      -2.636   3.931  -4.029  0.00  0.00     0.017 A 
ATOM      6  C5  UNL d   1      -2.122   5.202  -4.306  0.00  0.00     0.034 A 
ATOM      7 Cl   UNL d   1      -1.859   2.999  -2.799  0.00  0.00    -0.070 Cl
ATOM      8 Cl1  UNL d   1      -4.436   1.902  -4.458  0.00  0.00    -0.070 Cl
ENDROOT
TORSDOF 0
ENDMDL
