MODEL 1
REMARK minimizedAffinity 14.9558277
REMARK minimizedRMSD -1
REMARK  0 active torsions:
REMARK  status: ('A' for Active; 'I' for Inactive)
ROOT
ATOM      1  C   UNL d   1      -1.554   6.000  -5.257  0.00  0.00     0.020 A 
ATOM      2  C1  UNL d   1      -2.626   5.506  -6.000  0.00  0.00     0.020 A 
ATOM      3  C2  UNL d   1      -3.216   4.289  -5.650  0.00  0.00     0.034 A 
ATOM      4  C3  UNL d   1      -2.733   3.562  -4.556  0.00  0.00     0.017 A 
ATOM      5  C4  UNL d   1      -1.657   4.058  -3.812  0.00  0.00     0.017 A 
ATOM      6  C5  UNL d   1      -1.071   5.278  -4.166  0.00  0.00     0.034 A 
ATOM      7 Cl   UNL d   1      -1.007   3.218  -2.449  0.00  0.00    -0.070 Cl
ATOM      8 Cl1  UNL d   1      -3.510   2.065  -4.181  0.00  0.00    -0.070 Cl
ENDROOT
TORSDOF 0
ENDMDL
