MODEL 1
REMARK minimizedAffinity 8.73205853
REMARK minimizedRMSD -1
REMARK  0 active torsions:
REMARK  status: ('A' for Active; 'I' for Inactive)
ROOT
ATOM      1  C   UNL d   1      -1.714  -3.380   4.668  0.00  0.00     0.020 A 
ATOM      2  C1  UNL d   1      -2.046  -2.400   5.603  0.00  0.00     0.020 A 
ATOM      3  C2  UNL d   1      -3.375  -2.235   6.000  0.00  0.00     0.034 A 
ATOM      4  C3  UNL d   1      -4.376  -3.051   5.463  0.00  0.00     0.017 A 
ATOM      5  C4  UNL d   1      -4.043  -4.035   4.525  0.00  0.00     0.017 A 
ATOM      6  C5  UNL d   1      -2.711  -4.196   4.131  0.00  0.00     0.034 A 
ATOM      7 Cl   UNL d   1      -5.223  -5.081   3.818  0.00  0.00    -0.070 Cl
ATOM      8 Cl1  UNL d   1      -5.998  -2.792   6.000  0.00  0.00    -0.070 Cl
ENDROOT
TORSDOF 0
ENDMDL
