MODEL 1
REMARK minimizedAffinity 1.85676813
REMARK minimizedRMSD -1
REMARK  0 active torsions:
REMARK  status: ('A' for Active; 'I' for Inactive)
ROOT
ATOM      1  C   UNL d   1      -3.022   5.870  -5.220  0.00  0.00     0.020 A 
ATOM      2  C1  UNL d   1      -2.096   5.210  -4.412  0.00  0.00     0.020 A 
ATOM      3  C2  UNL d   1      -2.290   3.867  -4.082  0.00  0.00     0.034 A 
ATOM      4  C3  UNL d   1      -3.411   3.179  -4.560  0.00  0.00     0.017 A 
ATOM      5  C4  UNL d   1      -4.339   3.842  -5.371  0.00  0.00     0.017 A 
ATOM      6  C5  UNL d   1      -4.141   5.187  -5.698  0.00  0.00     0.034 A 
ATOM      7 Cl   UNL d   1      -5.747   3.060  -5.998  0.00  0.00    -0.070 Cl
ATOM      8 Cl1  UNL d   1      -3.587   1.520  -4.112  0.00  0.00    -0.070 Cl
ENDROOT
TORSDOF 0
ENDMDL
