MODEL 1
REMARK minimizedAffinity 3.12113547
REMARK minimizedRMSD -1
REMARK  0 active torsions:
REMARK  status: ('A' for Active; 'I' for Inactive)
ROOT
ATOM      1  C   UNL d   1      -2.545   6.000  -5.158  0.00  0.00     0.020 A 
ATOM      2  C1  UNL d   1      -3.609   5.680  -6.000  0.00  0.00     0.020 A 
ATOM      3  C2  UNL d   1      -4.170   4.401  -5.962  0.00  0.00     0.034 A 
ATOM      4  C3  UNL d   1      -3.666   3.438  -5.080  0.00  0.00     0.017 A 
ATOM      5  C4  UNL d   1      -2.597   3.760  -4.236  0.00  0.00     0.017 A 
ATOM      6  C5  UNL d   1      -2.040   5.042  -4.278  0.00  0.00     0.034 A 
ATOM      7 Cl   UNL d   1      -1.921   2.625  -3.122  0.00  0.00    -0.070 Cl
ATOM      8 Cl1  UNL d   1      -4.407   1.877  -5.086  0.00  0.00    -0.070 Cl
ENDROOT
TORSDOF 0
ENDMDL
