MODEL 1
REMARK minimizedAffinity 18.4235344
REMARK minimizedRMSD -1
REMARK  0 active torsions:
REMARK  status: ('A' for Active; 'I' for Inactive)
ROOT
ATOM      1  C   UNL d   1       1.941  -6.000  -2.243  0.00  0.00     0.020 A 
ATOM      2  C1  UNL d   1       1.031  -4.943  -2.225  0.00  0.00     0.020 A 
ATOM      3  C2  UNL d   1       1.314  -3.791  -1.487  0.00  0.00     0.034 A 
ATOM      4  C3  UNL d   1       2.508  -3.694  -0.764  0.00  0.00     0.017 A 
ATOM      5  C4  UNL d   1       3.420  -4.755  -0.782  0.00  0.00     0.017 A 
ATOM      6  C5  UNL d   1       3.132  -5.906  -1.523  0.00  0.00     0.034 A 
ATOM      7 Cl   UNL d   1       4.914  -4.709   0.085  0.00  0.00    -0.070 Cl
ATOM      8 Cl1  UNL d   1       2.792  -2.241   0.127  0.00  0.00    -0.070 Cl
ENDROOT
TORSDOF 0
ENDMDL
