MODEL 1
REMARK minimizedAffinity 0.657643378
REMARK minimizedRMSD -1
REMARK  0 active torsions:
REMARK  status: ('A' for Active; 'I' for Inactive)
ROOT
ATOM      1  C   UNL d   1       0.261   3.724   0.437  0.00  0.00     0.020 A 
ATOM      2  C1  UNL d   1       0.034   2.352   0.544  0.00  0.00     0.020 A 
ATOM      3  C2  UNL d   1      -0.693   1.686  -0.444  0.00  0.00     0.034 A 
ATOM      4  C3  UNL d   1      -1.196   2.390  -1.544  0.00  0.00     0.017 A 
ATOM      5  C4  UNL d   1      -0.967   3.767  -1.651  0.00  0.00     0.017 A 
ATOM      6  C5  UNL d   1      -0.238   4.429  -0.658  0.00  0.00     0.034 A 
ATOM      7 Cl   UNL d   1      -1.555   4.704  -2.979  0.00  0.00    -0.070 Cl
ATOM      8 Cl1  UNL d   1      -2.086   1.502  -2.729  0.00  0.00    -0.070 Cl
ENDROOT
TORSDOF 0
ENDMDL
