MODEL 1
REMARK minimizedAffinity 14.2583447
REMARK minimizedRMSD -1
REMARK  0 active torsions:
REMARK  status: ('A' for Active; 'I' for Inactive)
ROOT
ATOM      1  C   UNL d   1       1.125   2.640   3.271  0.00  0.00     0.020 A 
ATOM      2  C1  UNL d   1       0.277   2.297   4.323  0.00  0.00     0.020 A 
ATOM      3  C2  UNL d   1      -1.024   1.861   4.058  0.00  0.00     0.034 A 
ATOM      4  C3  UNL d   1      -1.479   1.768   2.738  0.00  0.00     0.017 A 
ATOM      5  C4  UNL d   1      -0.627   2.113   1.683  0.00  0.00     0.017 A 
ATOM      6  C5  UNL d   1       0.674   2.548   1.954  0.00  0.00     0.034 A 
ATOM      7 Cl   UNL d   1      -1.118   2.024   0.028  0.00  0.00    -0.070 Cl
ATOM      8 Cl1  UNL d   1      -3.099   1.222   2.484  0.00  0.00    -0.070 Cl
ENDROOT
TORSDOF 0
ENDMDL
