MODEL 1
REMARK minimizedAffinity 25.2728004
REMARK minimizedRMSD -1
REMARK  0 active torsions:
REMARK  status: ('A' for Active; 'I' for Inactive)
ROOT
ATOM      1  C   UNL d   1      -4.770   5.130  -1.728  0.00  0.00     0.020 A 
ATOM      2  C1  UNL d   1      -5.983   5.173  -1.041  0.00  0.00     0.020 A 
ATOM      3  C2  UNL d   1      -6.000   5.443   0.329  0.00  0.00     0.034 A 
ATOM      4  C3  UNL d   1      -4.802   5.671   1.016  0.00  0.00     0.017 A 
ATOM      5  C4  UNL d   1      -3.586   5.629   0.325  0.00  0.00     0.017 A 
ATOM      6  C5  UNL d   1      -3.574   5.358  -1.046  0.00  0.00     0.034 A 
ATOM      7 Cl   UNL d   1      -2.067   5.901   1.105  0.00  0.00    -0.070 Cl
ATOM      8 Cl1  UNL d   1      -4.898   6.000   2.710  0.00  0.00    -0.070 Cl
ENDROOT
TORSDOF 0
ENDMDL
