MODEL 1
REMARK minimizedAffinity 16.9128361
REMARK minimizedRMSD -1
REMARK  0 active torsions:
REMARK  status: ('A' for Active; 'I' for Inactive)
ROOT
ATOM      1  C   UNL d   1      -1.445   1.796   0.887  0.00  0.00     0.020 A 
ATOM      2  C1  UNL d   1      -0.089   1.902   1.194  0.00  0.00     0.020 A 
ATOM      3  C2  UNL d   1       0.835   2.187   0.186  0.00  0.00     0.034 A 
ATOM      4  C3  UNL d   1       0.405   2.367  -1.133  0.00  0.00     0.017 A 
ATOM      5  C4  UNL d   1      -0.956   2.260  -1.441  0.00  0.00     0.017 A 
ATOM      6  C5  UNL d   1      -1.877   1.974  -0.428  0.00  0.00     0.034 A 
ATOM      7 Cl   UNL d   1      -1.563   2.468  -3.045  0.00  0.00    -0.070 Cl
ATOM      8 Cl1  UNL d   1       1.602   2.717  -2.328  0.00  0.00    -0.070 Cl
ENDROOT
TORSDOF 0
ENDMDL
