MODEL 1
REMARK minimizedAffinity 13.033905
REMARK minimizedRMSD -1
REMARK  0 active torsions:
REMARK  status: ('A' for Active; 'I' for Inactive)
ROOT
ATOM      1  C   UNL d   1      -3.129   2.081   1.817  0.00  0.00     0.020 A 
ATOM      2  C1  UNL d   1      -1.901   2.390   1.234  0.00  0.00     0.020 A 
ATOM      3  C2  UNL d   1      -0.754   1.688   1.608  0.00  0.00     0.034 A 
ATOM      4  C3  UNL d   1      -0.831   0.673   2.569  0.00  0.00     0.017 A 
ATOM      5  C4  UNL d   1      -2.065   0.363   3.153  0.00  0.00     0.017 A 
ATOM      6  C5  UNL d   1      -3.211   1.069   2.775  0.00  0.00     0.034 A 
ATOM      7 Cl   UNL d   1      -2.240  -0.877   4.345  0.00  0.00    -0.070 Cl
ATOM      8 Cl1  UNL d   1       0.628  -0.154   2.983  0.00  0.00    -0.070 Cl
ENDROOT
TORSDOF 0
ENDMDL
