MODEL 1
REMARK minimizedAffinity 8.22041988
REMARK minimizedRMSD -1
REMARK  0 active torsions:
REMARK  status: ('A' for Active; 'I' for Inactive)
ROOT
ATOM      1  C   UNL d   1      -5.430  -5.102   3.292  0.00  0.00     0.020 A 
ATOM      2  C1  UNL d   1      -5.419  -3.814   3.826  0.00  0.00     0.020 A 
ATOM      3  C2  UNL d   1      -5.588  -2.709   2.988  0.00  0.00     0.034 A 
ATOM      4  C3  UNL d   1      -5.769  -2.891   1.612  0.00  0.00     0.017 A 
ATOM      5  C4  UNL d   1      -5.781  -4.184   1.077  0.00  0.00     0.017 A 
ATOM      6  C5  UNL d   1      -5.611  -5.286   1.921  0.00  0.00     0.034 A 
ATOM      7 Cl   UNL d   1      -5.999  -4.488  -0.610  0.00  0.00    -0.070 Cl
ATOM      8 Cl1  UNL d   1      -5.973  -1.480   0.635  0.00  0.00    -0.070 Cl
ENDROOT
TORSDOF 0
ENDMDL
