MODEL 1
REMARK minimizedAffinity 19.5867825
REMARK minimizedRMSD -1
REMARK  0 active torsions:
REMARK  status: ('A' for Active; 'I' for Inactive)
ROOT
ATOM      1  C   UNL d   1      -2.096  -2.500   5.171  0.00  0.00     0.020 A 
ATOM      2  C1  UNL d   1      -1.922  -3.709   4.499  0.00  0.00     0.020 A 
ATOM      3  C2  UNL d   1      -3.014  -4.551   4.282  0.00  0.00     0.034 A 
ATOM      4  C3  UNL d   1      -4.287  -4.185   4.736  0.00  0.00     0.017 A 
ATOM      5  C4  UNL d   1      -4.461  -2.970   5.410  0.00  0.00     0.017 A 
ATOM      6  C5  UNL d   1      -3.363  -2.131   5.625  0.00  0.00     0.034 A 
ATOM      7 Cl   UNL d   1      -6.000  -2.450   6.000  0.00  0.00    -0.070 Cl
ATOM      8 Cl1  UNL d   1      -5.593  -5.274   4.432  0.00  0.00    -0.070 Cl
ENDROOT
TORSDOF 0
ENDMDL
