MODEL 1
REMARK minimizedAffinity 15.8695402
REMARK minimizedRMSD -1
REMARK  0 active torsions:
REMARK  status: ('A' for Active; 'I' for Inactive)
ROOT
ATOM      1  C   UNL d   1       0.114   2.135  -0.243  0.00  0.00     0.020 A 
ATOM      2  C1  UNL d   1       0.047   3.471  -0.637  0.00  0.00     0.020 A 
ATOM      3  C2  UNL d   1      -1.114   4.210  -0.402  0.00  0.00     0.034 A 
ATOM      4  C3  UNL d   1      -2.213   3.614   0.228  0.00  0.00     0.017 A 
ATOM      5  C4  UNL d   1      -2.144   2.273   0.623  0.00  0.00     0.017 A 
ATOM      6  C5  UNL d   1      -0.979   1.538   0.385  0.00  0.00     0.034 A 
ATOM      7 Cl   UNL d   1      -3.458   1.469   1.406  0.00  0.00    -0.070 Cl
ATOM      8 Cl1  UNL d   1      -3.616   4.588   0.487  0.00  0.00    -0.070 Cl
ENDROOT
TORSDOF 0
ENDMDL
