MODEL 1
REMARK minimizedAffinity 0.873700678
REMARK minimizedRMSD -1
REMARK  1 active torsions:
REMARK  status: ('A' for Active; 'I' for Inactive)
REMARK    1  A    between atoms: C1_2  and  C2_3 
ROOT
ATOM      1  C2  UNL d   1       1.968   5.345  -5.217  0.00  0.00    -0.073 A 
ATOM      2  C3  UNL d   1       1.883   4.146  -4.499  0.00  0.00    -0.002 A 
ATOM      3  C4  UNL d   1       3.035   3.547  -3.988  0.00  0.00     0.004 A 
ATOM      4  C5  UNL d   1       4.281   4.143  -4.182  0.00  0.00    -0.004 A 
ATOM      5  C6  UNL d   1       4.385   5.347  -4.886  0.00  0.00    -0.075 A 
ATOM      6  C7  UNL d   1       5.719   5.999  -5.105  0.00  0.00     0.076 C 
ATOM      7  C8  UNL d   1       3.224   5.941  -5.399  0.00  0.00     0.001 A 
ENDROOT
BRANCH   1   8
ATOM      8  C1  UNL d   1       0.726   5.999  -5.765  0.00  0.00     0.053 C 
ATOM      9  C   UNL d   1      -0.410   5.005  -5.944  0.00  0.00     0.018 C 
ENDBRANCH   1   8
TORSDOF 1
ENDMDL
