MODEL 1
REMARK minimizedAffinity 4.57337093
REMARK minimizedRMSD -1
REMARK  1 active torsions:
REMARK  status: ('A' for Active; 'I' for Inactive)
REMARK    1  A    between atoms: C1_2  and  C2_3 
ROOT
ATOM      1  C2  UNL d   1       1.658   5.556  -4.782  0.00  0.00    -0.073 A 
ATOM      2  C3  UNL d   1       0.968   5.679  -5.993  0.00  0.00    -0.002 A 
ATOM      3  C4  UNL d   1      -0.411   5.896  -5.999  0.00  0.00     0.004 A 
ATOM      4  C5  UNL d   1      -1.111   6.000  -4.797  0.00  0.00    -0.004 A 
ATOM      5  C6  UNL d   1      -0.436   5.892  -3.577  0.00  0.00    -0.075 A 
ATOM      6  C7  UNL d   1      -1.175   5.999  -2.275  0.00  0.00     0.076 C 
ATOM      7  C8  UNL d   1       0.948   5.670  -3.579  0.00  0.00     0.001 A 
ENDROOT
BRANCH   1   8
ATOM      8  C1  UNL d   1       3.148   5.327  -4.770  0.00  0.00     0.053 C 
ATOM      9  C   UNL d   1       3.837   5.999  -5.947  0.00  0.00     0.018 C 
ENDBRANCH   1   8
TORSDOF 1
ENDMDL
