MODEL 1
REMARK minimizedAffinity 1.17402506
REMARK minimizedRMSD -1
REMARK  1 active torsions:
REMARK  status: ('A' for Active; 'I' for Inactive)
REMARK    1  A    between atoms: C1_2  and  C2_3 
ROOT
ATOM      1  C2  UNL d   1       4.217   4.289  -4.585  0.00  0.00    -0.073 A 
ATOM      2  C3  UNL d   1       3.668   3.099  -4.097  0.00  0.00    -0.002 A 
ATOM      3  C4  UNL d   1       2.299   2.852  -4.217  0.00  0.00     0.004 A 
ATOM      4  C5  UNL d   1       1.469   3.789  -4.831  0.00  0.00    -0.004 A 
ATOM      5  C6  UNL d   1       2.001   4.980  -5.336  0.00  0.00    -0.075 A 
ATOM      6  C7  UNL d   1       1.121   5.999  -5.998  0.00  0.00     0.076 C 
ATOM      7  C8  UNL d   1       3.376   5.221  -5.210  0.00  0.00     0.001 A 
ENDROOT
BRANCH   1   8
ATOM      8  C1  UNL d   1       5.695   4.557  -4.464  0.00  0.00     0.053 C 
ATOM      9  C   UNL d   1       5.983   5.992  -4.052  0.00  0.00     0.018 C 
ENDBRANCH   1   8
TORSDOF 1
ENDMDL
