MODEL 1
REMARK minimizedAffinity -1.52669132
REMARK minimizedRMSD -1
REMARK  1 active torsions:
REMARK  status: ('A' for Active; 'I' for Inactive)
REMARK    1  A    between atoms: C1_2  and  C2_3 
ROOT
ATOM      1  C2  UNL d   1      -0.619   5.999  -3.746  0.00  0.00    -0.073 A 
ATOM      2  C3  UNL d   1      -0.743   5.995  -2.352  0.00  0.00    -0.002 A 
ATOM      3  C4  UNL d   1      -2.005   5.999  -1.757  0.00  0.00     0.004 A 
ATOM      4  C5  UNL d   1      -3.154   6.000  -2.548  0.00  0.00    -0.004 A 
ATOM      5  C6  UNL d   1      -3.051   5.992  -3.942  0.00  0.00    -0.075 A 
ATOM      6  C7  UNL d   1      -4.277   5.995  -4.807  0.00  0.00     0.076 C 
ATOM      7  C8  UNL d   1      -1.780   5.991  -4.533  0.00  0.00     0.001 A 
ENDROOT
BRANCH   1   8
ATOM      8  C1  UNL d   1       0.742   5.989  -4.394  0.00  0.00     0.053 C 
ATOM      9  C   UNL d   1       0.742   5.224  -5.708  0.00  0.00     0.018 C 
ENDBRANCH   1   8
TORSDOF 1
ENDMDL
