MODEL 1
REMARK minimizedAffinity -0.832847238
REMARK minimizedRMSD -1
REMARK  1 active torsions:
REMARK  status: ('A' for Active; 'I' for Inactive)
REMARK    1  A    between atoms: C1_2  and  C2_3 
ROOT
ATOM      1  C2  UNL d   1       1.872   5.951  -4.437  0.00  0.00    -0.073 A 
ATOM      2  C3  UNL d   1       1.390   5.970  -5.751  0.00  0.00    -0.002 A 
ATOM      3  C4  UNL d   1       0.016   5.990  -5.997  0.00  0.00     0.004 A 
ATOM      4  C5  UNL d   1      -0.887   5.999  -4.934  0.00  0.00    -0.004 A 
ATOM      5  C6  UNL d   1      -0.424   5.993  -3.615  0.00  0.00    -0.075 A 
ATOM      6  C7  UNL d   1      -1.383   6.000  -2.460  0.00  0.00     0.076 C 
ATOM      7  C8  UNL d   1       0.956   5.969  -3.376  0.00  0.00     0.001 A 
ENDROOT
BRANCH   1   8
ATOM      8  C1  UNL d   1       3.355   5.935  -4.166  0.00  0.00     0.053 C 
ATOM      9  C   UNL d   1       4.169   5.970  -5.450  0.00  0.00     0.018 C 
ENDBRANCH   1   8
TORSDOF 1
ENDMDL
