MODEL 1
REMARK minimizedAffinity -0.348478645
REMARK minimizedRMSD -1
REMARK  1 active torsions:
REMARK  status: ('A' for Active; 'I' for Inactive)
REMARK    1  A    between atoms: C1_2  and  C2_3 
ROOT
ATOM      1  C2  UNL d   1       0.456   5.991  -3.376  0.00  0.00    -0.073 A 
ATOM      2  C3  UNL d   1      -0.422   6.000  -4.466  0.00  0.00    -0.002 A 
ATOM      3  C4  UNL d   1       0.073   5.987  -5.771  0.00  0.00     0.004 A 
ATOM      4  C5  UNL d   1       1.449   5.959  -5.999  0.00  0.00    -0.004 A 
ATOM      5  C6  UNL d   1       2.342   5.938  -4.923  0.00  0.00    -0.075 A 
ATOM      6  C7  UNL d   1       3.825   5.910  -5.151  0.00  0.00     0.076 C 
ATOM      7  C8  UNL d   1       1.837   5.954  -3.616  0.00  0.00     0.001 A 
ENDROOT
BRANCH   1   8
ATOM      8  C1  UNL d   1      -0.075   5.998  -1.966  0.00  0.00     0.053 C 
ATOM      9  C   UNL d   1      -1.594   5.957  -1.928  0.00  0.00     0.018 C 
ENDBRANCH   1   8
TORSDOF 1
ENDMDL
