MODEL 1
REMARK minimizedAffinity 6.2467041
REMARK minimizedRMSD -1
REMARK  1 active torsions:
REMARK  status: ('A' for Active; 'I' for Inactive)
REMARK    1  A    between atoms: C1_2  and  C2_3 
ROOT
ATOM      1  C2  UNL d   1       4.584   4.154  -4.531  0.00  0.00    -0.073 A 
ATOM      2  C3  UNL d   1       4.934   5.304  -5.247  0.00  0.00    -0.002 A 
ATOM      3  C4  UNL d   1       3.971   6.000  -5.979  0.00  0.00     0.004 A 
ATOM      4  C5  UNL d   1       2.648   5.557  -5.997  0.00  0.00    -0.004 A 
ATOM      5  C6  UNL d   1       2.276   4.416  -5.279  0.00  0.00    -0.075 A 
ATOM      6  C7  UNL d   1       0.858   3.926  -5.290  0.00  0.00     0.076 C 
ATOM      7  C8  UNL d   1       3.250   3.722  -4.549  0.00  0.00     0.001 A 
ENDROOT
BRANCH   1   8
ATOM      8  C1  UNL d   1       5.619   3.403  -3.734  0.00  0.00     0.053 C 
ATOM      9  C   UNL d   1       5.630   1.920  -4.068  0.00  0.00     0.018 C 
ENDBRANCH   1   8
TORSDOF 1
ENDMDL
