MODEL 1
REMARK minimizedAffinity 2.83061743
REMARK minimizedRMSD -1
REMARK  1 active torsions:
REMARK  status: ('A' for Active; 'I' for Inactive)
REMARK    1  A    between atoms: C1_2  and  C2_3 
ROOT
ATOM      1  C2  UNL d   1      -1.079  -3.274   2.375  0.00  0.00    -0.073 A 
ATOM      2  C3  UNL d   1      -0.433  -4.499   2.577  0.00  0.00    -0.002 A 
ATOM      3  C4  UNL d   1      -0.605  -5.197   3.773  0.00  0.00     0.004 A 
ATOM      4  C5  UNL d   1      -1.428  -4.683   4.774  0.00  0.00    -0.004 A 
ATOM      5  C6  UNL d   1      -2.092  -3.466   4.586  0.00  0.00    -0.075 A 
ATOM      6  C7  UNL d   1      -2.979  -2.898   5.654  0.00  0.00     0.076 C 
ATOM      7  C8  UNL d   1      -1.912  -2.769   3.384  0.00  0.00     0.001 A 
ENDROOT
BRANCH   1   8
ATOM      8  C1  UNL d   1      -0.901  -2.519   1.083  0.00  0.00     0.053 C 
ATOM      9  C   UNL d   1      -0.139  -1.218   1.283  0.00  0.00     0.018 C 
ENDBRANCH   1   8
TORSDOF 1
ENDMDL
