MODEL 1
REMARK minimizedAffinity -0.519655347
REMARK minimizedRMSD -1
REMARK  1 active torsions:
REMARK  status: ('A' for Active; 'I' for Inactive)
REMARK    1  A    between atoms: C1_2  and  C2_3 
ROOT
ATOM      1  C2  UNL d   1      -0.576   5.152  -2.309  0.00  0.00    -0.073 A 
ATOM      2  C3  UNL d   1      -1.963   5.266  -2.164  0.00  0.00    -0.002 A 
ATOM      3  C4  UNL d   1      -2.759   5.623  -3.254  0.00  0.00     0.004 A 
ATOM      4  C5  UNL d   1      -2.178   5.863  -4.499  0.00  0.00    -0.004 A 
ATOM      5  C6  UNL d   1      -0.795   5.743  -4.667  0.00  0.00    -0.075 A 
ATOM      6  C7  UNL d   1      -0.154   6.000  -5.999  0.00  0.00     0.076 C 
ATOM      7  C8  UNL d   1      -0.002   5.387  -3.567  0.00  0.00     0.001 A 
ENDROOT
BRANCH   1   8
ATOM      8  C1  UNL d   1       0.287   4.761  -1.138  0.00  0.00     0.053 C 
ATOM      9  C   UNL d   1       0.596   3.272  -1.130  0.00  0.00     0.018 C 
ENDBRANCH   1   8
TORSDOF 1
ENDMDL
