MODEL 1
REMARK minimizedAffinity -2.27431655
REMARK minimizedRMSD -1
REMARK  1 active torsions:
REMARK  status: ('A' for Active; 'I' for Inactive)
REMARK    1  A    between atoms: C1_2  and  C2_3 
ROOT
ATOM      1  C2  UNL d   1      -1.166   5.977  -3.312  0.00  0.00    -0.073 A 
ATOM      2  C3  UNL d   1      -1.917   5.992  -4.493  0.00  0.00    -0.002 A 
ATOM      3  C4  UNL d   1      -3.312   5.999  -4.442  0.00  0.00     0.004 A 
ATOM      4  C5  UNL d   1      -3.969   5.999  -3.211  0.00  0.00    -0.004 A 
ATOM      5  C6  UNL d   1      -3.236   5.995  -2.020  0.00  0.00    -0.075 A 
ATOM      6  C7  UNL d   1      -3.927   5.992  -0.689  0.00  0.00     0.076 C 
ATOM      7  C8  UNL d   1      -1.836   5.985  -2.080  0.00  0.00     0.001 A 
ENDROOT
BRANCH   1   8
ATOM      8  C1  UNL d   1       0.340   5.975  -3.363  0.00  0.00     0.053 C 
ATOM      9  C   UNL d   1       0.862   5.996  -4.791  0.00  0.00     0.018 C 
ENDBRANCH   1   8
TORSDOF 1
ENDMDL
