MODEL 1
REMARK minimizedAffinity 2.42407799
REMARK minimizedRMSD -1
REMARK  1 active torsions:
REMARK  status: ('A' for Active; 'I' for Inactive)
REMARK    1  A    between atoms: C1_2  and  C2_3 
ROOT
ATOM      1  C2  UNL d   1      -0.013   5.951  -4.829  0.00  0.00    -0.073 A 
ATOM      2  C3  UNL d   1       0.426   5.963  -3.501  0.00  0.00    -0.002 A 
ATOM      3  C4  UNL d   1      -0.496   5.991  -2.453  0.00  0.00     0.004 A 
ATOM      4  C5  UNL d   1      -1.864   5.999  -2.723  0.00  0.00    -0.004 A 
ATOM      5  C6  UNL d   1      -2.323   5.975  -4.044  0.00  0.00    -0.075 A 
ATOM      6  C7  UNL d   1      -3.792   5.986  -4.351  0.00  0.00     0.076 C 
ATOM      7  C8  UNL d   1      -1.391   5.950  -5.090  0.00  0.00     0.001 A 
ENDROOT
BRANCH   1   8
ATOM      8  C1  UNL d   1       0.979   5.915  -5.963  0.00  0.00     0.053 C 
ATOM      9  C   UNL d   1       2.414   5.998  -5.468  0.00  0.00     0.018 C 
ENDBRANCH   1   8
TORSDOF 1
ENDMDL
