MODEL 1
REMARK minimizedAffinity -4.25650311
REMARK minimizedRMSD -1
REMARK  2 active torsions:
REMARK  status: ('A' for Active; 'I' for Inactive)
REMARK    1  A    between atoms: C1_2  and  C2_3 
REMARK    2  A    between atoms: C2_3  and  C3_4 
ROOT
ATOM      1  C3  UNL d   1      -3.649  -3.008  -4.637  0.00  0.00    -0.075 A 
ATOM      2  C4  UNL d   1      -4.946  -3.473  -4.897  0.00  0.00     0.002 A 
ATOM      3  C5  UNL d   1      -5.997  -2.574  -5.079  0.00  0.00     0.002 A 
ATOM      4  C6  UNL d   1      -5.768  -1.203  -4.993  0.00  0.00    -0.004 A 
ATOM      5  C7  UNL d   1      -4.486  -0.730  -4.719  0.00  0.00     0.002 A 
ATOM      6  C8  UNL d   1      -3.432  -1.627  -4.541  0.00  0.00     0.002 A 
ENDROOT
BRANCH   1   7
ATOM      7  C2  UNL d   1      -2.501  -3.974  -4.468  0.00  0.00     0.056 C 
BRANCH   7   8
ATOM      8  C1  UNL d   1      -2.703  -5.314  -5.184  0.00  0.00     0.007 C 
ATOM      9  C   UNL d   1      -1.492  -5.748  -5.999  0.00  0.00     0.009 C 
ENDBRANCH   7   8
ENDBRANCH   1   7
TORSDOF 2
ENDMDL
