MODEL 1
REMARK minimizedAffinity -3.84565353
REMARK minimizedRMSD -1
REMARK  2 active torsions:
REMARK  status: ('A' for Active; 'I' for Inactive)
REMARK    1  A    between atoms: C1_2  and  C2_3 
REMARK    2  A    between atoms: C2_3  and  C3_4 
ROOT
ATOM      1  C3  UNL d   1      -3.511  -3.713  -5.513  0.00  0.00    -0.075 A 
ATOM      2  C4  UNL d   1      -4.001  -4.873  -4.895  0.00  0.00     0.002 A 
ATOM      3  C5  UNL d   1      -3.181  -5.991  -4.737  0.00  0.00     0.002 A 
ATOM      4  C6  UNL d   1      -1.869  -5.968  -5.204  0.00  0.00    -0.004 A 
ATOM      5  C7  UNL d   1      -1.378  -4.827  -5.835  0.00  0.00     0.002 A 
ATOM      6  C8  UNL d   1      -2.194  -3.705  -5.990  0.00  0.00     0.002 A 
ENDROOT
BRANCH   1   7
ATOM      7  C2  UNL d   1      -4.384  -2.489  -5.660  0.00  0.00     0.056 C 
BRANCH   7   8
ATOM      8  C1  UNL d   1      -5.285  -2.217  -4.451  0.00  0.00     0.007 C 
ATOM      9  C   UNL d   1      -6.000  -0.874  -4.526  0.00  0.00     0.009 C 
ENDBRANCH   7   8
ENDBRANCH   1   7
TORSDOF 2
ENDMDL
