MODEL 1
REMARK minimizedAffinity -2.04636669
REMARK minimizedRMSD -1
REMARK  2 active torsions:
REMARK  status: ('A' for Active; 'I' for Inactive)
REMARK    1  A    between atoms: C1_2  and  C2_3 
REMARK    2  A    between atoms: C2_3  and  C3_4 
ROOT
ATOM      1  C3  UNL d   1      -4.095  -4.244  -4.766  0.00  0.00    -0.075 A 
ATOM      2  C4  UNL d   1      -4.120  -5.338  -5.644  0.00  0.00     0.002 A 
ATOM      3  C5  UNL d   1      -2.937  -5.987  -6.000  0.00  0.00     0.002 A 
ATOM      4  C6  UNL d   1      -1.717  -5.546  -5.492  0.00  0.00    -0.004 A 
ATOM      5  C7  UNL d   1      -1.679  -4.451  -4.633  0.00  0.00     0.002 A 
ATOM      6  C8  UNL d   1      -2.861  -3.802  -4.272  0.00  0.00     0.002 A 
ENDROOT
BRANCH   1   7
ATOM      7  C2  UNL d   1      -5.375  -3.556  -4.354  0.00  0.00     0.056 C 
BRANCH   7   8
ATOM      8  C1  UNL d   1      -5.771  -2.384  -5.258  0.00  0.00     0.007 C 
ATOM      9  C   UNL d   1      -6.000  -1.087  -4.493  0.00  0.00     0.009 C 
ENDBRANCH   7   8
ENDBRANCH   1   7
TORSDOF 2
ENDMDL
