MODEL 1
REMARK minimizedAffinity -3.35866785
REMARK minimizedRMSD -1
REMARK  2 active torsions:
REMARK  status: ('A' for Active; 'I' for Inactive)
REMARK    1  A    between atoms: C1_2  and  C2_3 
REMARK    2  A    between atoms: C2_3  and  C3_4 
ROOT
ATOM      1  C3  UNL d   1      -4.531  -4.666  -4.856  0.00  0.00    -0.075 A 
ATOM      2  C4  UNL d   1      -4.930  -4.191  -3.598  0.00  0.00     0.002 A 
ATOM      3  C5  UNL d   1      -5.664  -3.010  -3.487  0.00  0.00     0.002 A 
ATOM      4  C6  UNL d   1      -6.000  -2.285  -4.628  0.00  0.00    -0.004 A 
ATOM      5  C7  UNL d   1      -5.595  -2.738  -5.881  0.00  0.00     0.002 A 
ATOM      6  C8  UNL d   1      -4.864  -3.922  -5.996  0.00  0.00     0.002 A 
ENDROOT
BRANCH   1   7
ATOM      7  C2  UNL d   1      -3.762  -5.959  -4.985  0.00  0.00     0.056 C 
BRANCH   7   8
ATOM      8  C1  UNL d   1      -2.615  -5.903  -6.000  0.00  0.00     0.007 C 
ATOM      9  C   UNL d   1      -1.237  -5.936  -5.351  0.00  0.00     0.009 C 
ENDBRANCH   7   8
ENDBRANCH   1   7
TORSDOF 2
ENDMDL
