MODEL 1
REMARK minimizedAffinity -1.48700309
REMARK minimizedRMSD -1
REMARK  2 active torsions:
REMARK  status: ('A' for Active; 'I' for Inactive)
REMARK    1  A    between atoms: C1_2  and  C2_3 
REMARK    2  A    between atoms: C2_3  and  C3_4 
ROOT
ATOM      1  C3  UNL d   1      -4.048  -4.630  -5.077  0.00  0.00    -0.075 A 
ATOM      2  C4  UNL d   1      -3.266  -3.609  -5.636  0.00  0.00     0.002 A 
ATOM      3  C5  UNL d   1      -3.845  -2.392  -5.999  0.00  0.00     0.002 A 
ATOM      4  C6  UNL d   1      -5.211  -2.186  -5.818  0.00  0.00    -0.004 A 
ATOM      5  C7  UNL d   1      -6.000  -3.200  -5.280  0.00  0.00     0.002 A 
ATOM      6  C8  UNL d   1      -5.423  -4.416  -4.912  0.00  0.00     0.002 A 
ENDROOT
BRANCH   1   7
ATOM      7  C2  UNL d   1      -3.423  -5.939  -4.655  0.00  0.00     0.056 C 
BRANCH   7   8
ATOM      8  C1  UNL d   1      -2.992  -5.978  -3.185  0.00  0.00     0.007 C 
ATOM      9  C   UNL d   1      -2.770  -4.595  -2.587  0.00  0.00     0.009 C 
ENDBRANCH   7   8
ENDBRANCH   1   7
TORSDOF 2
ENDMDL
