MODEL 1
REMARK minimizedAffinity -1.39817595
REMARK minimizedRMSD -1
REMARK  2 active torsions:
REMARK  status: ('A' for Active; 'I' for Inactive)
REMARK    1  A    between atoms: C1_2  and  C2_3 
REMARK    2  A    between atoms: C2_3  and  C3_4 
ROOT
ATOM      1  C3  UNL d   1      -3.946  -4.963  -5.072  0.00  0.00    -0.075 A 
ATOM      2  C4  UNL d   1      -4.992  -4.826  -5.996  0.00  0.00     0.002 A 
ATOM      3  C5  UNL d   1      -5.996  -3.879  -5.794  0.00  0.00     0.002 A 
ATOM      4  C6  UNL d   1      -5.973  -3.065  -4.663  0.00  0.00    -0.004 A 
ATOM      5  C7  UNL d   1      -4.948  -3.204  -3.730  0.00  0.00     0.002 A 
ATOM      6  C8  UNL d   1      -3.939  -4.148  -3.932  0.00  0.00     0.002 A 
ENDROOT
BRANCH   1   7
ATOM      7  C2  UNL d   1      -2.841  -5.967  -5.300  0.00  0.00     0.056 C 
BRANCH   7   8
ATOM      8  C1  UNL d   1      -1.472  -5.335  -5.573  0.00  0.00     0.007 C 
ATOM      9  C   UNL d   1      -0.386  -5.819  -4.621  0.00  0.00     0.009 C 
ENDBRANCH   7   8
ENDBRANCH   1   7
TORSDOF 2
ENDMDL
