MODEL 1
REMARK minimizedAffinity -0.383016646
REMARK minimizedRMSD -1
REMARK  2 active torsions:
REMARK  status: ('A' for Active; 'I' for Inactive)
REMARK    1  A    between atoms: C1_2  and  C2_3 
REMARK    2  A    between atoms: C2_3  and  C3_4 
ROOT
ATOM      1  C3  UNL d   1      -4.187  -4.104  -4.568  0.00  0.00    -0.075 A 
ATOM      2  C4  UNL d   1      -2.838  -3.719  -4.582  0.00  0.00     0.002 A 
ATOM      3  C5  UNL d   1      -1.898  -4.459  -5.298  0.00  0.00     0.002 A 
ATOM      4  C6  UNL d   1      -2.290  -5.598  -5.999  0.00  0.00    -0.004 A 
ATOM      5  C7  UNL d   1      -3.624  -6.000  -5.978  0.00  0.00     0.002 A 
ATOM      6  C8  UNL d   1      -4.568  -5.258  -5.266  0.00  0.00     0.002 A 
ENDROOT
BRANCH   1   7
ATOM      7  C2  UNL d   1      -5.215  -3.290  -3.819  0.00  0.00     0.056 C 
BRANCH   7   8
ATOM      8  C1  UNL d   1      -5.486  -1.912  -4.431  0.00  0.00     0.007 C 
ATOM      9  C   UNL d   1      -5.987  -1.981  -5.868  0.00  0.00     0.009 C 
ENDBRANCH   7   8
ENDBRANCH   1   7
TORSDOF 2
ENDMDL
