MODEL 1
REMARK minimizedAffinity -0.572351992
REMARK minimizedRMSD -1
REMARK  2 active torsions:
REMARK  status: ('A' for Active; 'I' for Inactive)
REMARK    1  A    between atoms: C1_2  and  C2_3 
REMARK    2  A    between atoms: C2_3  and  C3_4 
ROOT
ATOM      1  C3  UNL d   1      -0.500  -1.818   1.864  0.00  0.00    -0.075 A 
ATOM      2  C4  UNL d   1      -1.235  -1.130   2.840  0.00  0.00     0.002 A 
ATOM      3  C5  UNL d   1      -2.554  -0.746   2.595  0.00  0.00     0.002 A 
ATOM      4  C6  UNL d   1      -3.150  -1.036   1.369  0.00  0.00    -0.004 A 
ATOM      5  C7  UNL d   1      -2.423  -1.704   0.386  0.00  0.00     0.002 A 
ATOM      6  C8  UNL d   1      -1.105  -2.093   0.631  0.00  0.00     0.002 A 
ENDROOT
BRANCH   1   7
ATOM      7  C2  UNL d   1       0.918  -2.262   2.135  0.00  0.00     0.056 C 
BRANCH   7   8
ATOM      8  C1  UNL d   1       1.205  -2.569   3.608  0.00  0.00     0.007 C 
ATOM      9  C   UNL d   1       1.562  -4.028   3.859  0.00  0.00     0.009 C 
ENDBRANCH   7   8
ENDBRANCH   1   7
TORSDOF 2
ENDMDL
