MODEL 1
REMARK minimizedAffinity 4.71931267
REMARK minimizedRMSD -1
REMARK  2 active torsions:
REMARK  status: ('A' for Active; 'I' for Inactive)
REMARK    1  A    between atoms: C1_2  and  C2_3 
REMARK    2  A    between atoms: C2_3  and  C3_4 
ROOT
ATOM      1  C3  UNL d   1      -3.774  -4.520  -4.219  0.00  0.00    -0.075 A 
ATOM      2  C4  UNL d   1      -3.030  -5.307  -3.328  0.00  0.00     0.002 A 
ATOM      3  C5  UNL d   1      -1.898  -5.995  -3.767  0.00  0.00     0.002 A 
ATOM      4  C6  UNL d   1      -1.502  -5.914  -5.100  0.00  0.00    -0.004 A 
ATOM      5  C7  UNL d   1      -2.244  -5.148  -5.997  0.00  0.00     0.002 A 
ATOM      6  C8  UNL d   1      -3.374  -4.455  -5.561  0.00  0.00     0.002 A 
ENDROOT
BRANCH   1   7
ATOM      7  C2  UNL d   1      -4.983  -3.750  -3.745  0.00  0.00     0.056 C 
BRANCH   7   8
ATOM      8  C1  UNL d   1      -5.727  -3.008  -4.860  0.00  0.00     0.007 C 
ATOM      9  C   UNL d   1      -6.000  -1.546  -4.530  0.00  0.00     0.009 C 
ENDBRANCH   7   8
ENDBRANCH   1   7
TORSDOF 2
ENDMDL
