MODEL 1
REMARK minimizedAffinity -0.265822917
REMARK minimizedRMSD -1
REMARK  2 active torsions:
REMARK  status: ('A' for Active; 'I' for Inactive)
REMARK    1  A    between atoms: C1_2  and  C2_3 
REMARK    2  A    between atoms: C2_3  and  C3_4 
ROOT
ATOM      1  C3  UNL d   1      -3.921  -4.471  -4.107  0.00  0.00    -0.075 A 
ATOM      2  C4  UNL d   1      -3.662  -4.057  -2.792  0.00  0.00     0.002 A 
ATOM      3  C5  UNL d   1      -2.594  -4.599  -2.076  0.00  0.00     0.002 A 
ATOM      4  C6  UNL d   1      -1.779  -5.565  -2.661  0.00  0.00    -0.004 A 
ATOM      5  C7  UNL d   1      -2.036  -5.995  -3.961  0.00  0.00     0.002 A 
ATOM      6  C8  UNL d   1      -3.102  -5.452  -4.681  0.00  0.00     0.002 A 
ENDROOT
BRANCH   1   7
ATOM      7  C2  UNL d   1      -5.058  -3.867  -4.897  0.00  0.00     0.056 C 
BRANCH   7   8
ATOM      8  C1  UNL d   1      -5.997  -2.988  -4.065  0.00  0.00     0.007 C 
ATOM      9  C   UNL d   1      -5.936  -1.515  -4.448  0.00  0.00     0.009 C 
ENDBRANCH   7   8
ENDBRANCH   1   7
TORSDOF 2
ENDMDL
