MODEL 1
REMARK minimizedAffinity -3.35250473
REMARK minimizedRMSD -1
REMARK  2 active torsions:
REMARK  status: ('A' for Active; 'I' for Inactive)
REMARK    1  A    between atoms: C1_2  and  C2_3 
REMARK    2  A    between atoms: C2_3  and  C3_4 
ROOT
ATOM      1  C3  UNL d   1      -3.501  -3.929  -5.624  0.00  0.00    -0.075 A 
ATOM      2  C4  UNL d   1      -4.552  -4.749  -5.191  0.00  0.00     0.002 A 
ATOM      3  C5  UNL d   1      -5.795  -4.200  -4.874  0.00  0.00     0.002 A 
ATOM      4  C6  UNL d   1      -5.999  -2.826  -4.977  0.00  0.00    -0.004 A 
ATOM      5  C7  UNL d   1      -4.957  -1.999  -5.390  0.00  0.00     0.002 A 
ATOM      6  C8  UNL d   1      -3.713  -2.547  -5.712  0.00  0.00     0.002 A 
ENDROOT
BRANCH   1   7
ATOM      7  C2  UNL d   1      -2.162  -4.521  -5.997  0.00  0.00     0.056 C 
BRANCH   7   8
ATOM      8  C1  UNL d   1      -1.925  -5.928  -5.438  0.00  0.00     0.007 C 
ATOM      9  C   UNL d   1      -0.749  -6.000  -4.474  0.00  0.00     0.009 C 
ENDBRANCH   7   8
ENDBRANCH   1   7
TORSDOF 2
ENDMDL
