MODEL 1
REMARK minimizedAffinity -3.03132892
REMARK minimizedRMSD -1
REMARK  2 active torsions:
REMARK  status: ('A' for Active; 'I' for Inactive)
REMARK    1  A    between atoms: C1_2  and  C2_3 
REMARK    2  A    between atoms: C2_3  and  C3_4 
ROOT
ATOM      1  C3  UNL d   1      -4.652  -4.278  -4.853  0.00  0.00    -0.075 A 
ATOM      2  C4  UNL d   1      -4.194  -4.871  -3.667  0.00  0.00     0.002 A 
ATOM      3  C5  UNL d   1      -2.952  -5.504  -3.626  0.00  0.00     0.002 A 
ATOM      4  C6  UNL d   1      -2.158  -5.562  -4.770  0.00  0.00    -0.004 A 
ATOM      5  C7  UNL d   1      -2.611  -4.991  -5.957  0.00  0.00     0.002 A 
ATOM      6  C8  UNL d   1      -3.851  -4.352  -6.000  0.00  0.00     0.002 A 
ENDROOT
BRANCH   1   7
ATOM      7  C2  UNL d   1      -5.983  -3.565  -4.896  0.00  0.00     0.056 C 
BRANCH   7   8
ATOM      8  C1  UNL d   1      -5.998  -2.325  -5.795  0.00  0.00     0.007 C 
ATOM      9  C   UNL d   1      -5.997  -1.017  -5.014  0.00  0.00     0.009 C 
ENDBRANCH   7   8
ENDBRANCH   1   7
TORSDOF 2
ENDMDL
