MODEL 1
REMARK minimizedAffinity -3.71348453
REMARK minimizedRMSD -1
REMARK  2 active torsions:
REMARK  status: ('A' for Active; 'I' for Inactive)
REMARK    1  A    between atoms: C1_2  and  C2_3 
REMARK    2  A    between atoms: C2_3  and  C3_4 
ROOT
ATOM      1  C3  UNL d   1      -3.582  -5.240  -4.947  0.00  0.00    -0.075 A 
ATOM      2  C4  UNL d   1      -3.751  -3.948  -4.429  0.00  0.00     0.002 A 
ATOM      3  C5  UNL d   1      -4.955  -3.265  -4.608  0.00  0.00     0.002 A 
ATOM      4  C6  UNL d   1      -5.998  -3.860  -5.314  0.00  0.00    -0.004 A 
ATOM      5  C7  UNL d   1      -5.835  -5.137  -5.847  0.00  0.00     0.002 A 
ATOM      6  C8  UNL d   1      -4.633  -5.824  -5.665  0.00  0.00     0.002 A 
ENDROOT
BRANCH   1   7
ATOM      7  C2  UNL d   1      -2.292  -5.995  -4.731  0.00  0.00     0.056 C 
BRANCH   7   8
ATOM      8  C1  UNL d   1      -1.585  -5.659  -3.414  0.00  0.00     0.007 C 
ATOM      9  C   UNL d   1      -0.118  -5.292  -3.597  0.00  0.00     0.009 C 
ENDBRANCH   7   8
ENDBRANCH   1   7
TORSDOF 2
ENDMDL
