MODEL 1
REMARK minimizedAffinity -4.65864754
REMARK minimizedRMSD -1
REMARK  2 active torsions:
REMARK  status: ('A' for Active; 'I' for Inactive)
REMARK    1  A    between atoms: C1_2  and  C2_3 
REMARK    2  A    between atoms: C2_3  and  C3_4 
ROOT
ATOM      1  C3  UNL d   1      -2.979  -4.153  -5.132  0.00  0.00    -0.075 A 
ATOM      2  C4  UNL d   1      -1.997  -4.900  -5.798  0.00  0.00     0.002 A 
ATOM      3  C5  UNL d   1      -1.101  -5.692  -5.079  0.00  0.00     0.002 A 
ATOM      4  C6  UNL d   1      -1.170  -5.741  -3.688  0.00  0.00    -0.004 A 
ATOM      5  C7  UNL d   1      -2.132  -4.990  -3.016  0.00  0.00     0.002 A 
ATOM      6  C8  UNL d   1      -3.032  -4.199  -3.733  0.00  0.00     0.002 A 
ENDROOT
BRANCH   1   7
ATOM      7  C2  UNL d   1      -3.970  -3.316  -5.906  0.00  0.00     0.056 C 
BRANCH   7   8
ATOM      8  C1  UNL d   1      -5.338  -3.183  -5.228  0.00  0.00     0.007 C 
ATOM      9  C   UNL d   1      -5.857  -1.752  -5.199  0.00  0.00     0.009 C 
ENDBRANCH   7   8
ENDBRANCH   1   7
TORSDOF 2
ENDMDL
