MODEL 1
REMARK minimizedAffinity 7.06525517
REMARK minimizedRMSD -1
REMARK  0 active torsions:
REMARK  status: ('A' for Active; 'I' for Inactive)
ROOT
ATOM      1  C   UNL d   1      -0.674  -1.607   2.486  0.00  0.00     0.124 A 
ATOM      2  C1  UNL d   1       0.026  -1.010   1.446  0.00  0.00     0.062 A 
ATOM      3  C2  UNL d   1       1.114  -1.661   0.871  0.00  0.00     0.162 A 
ATOM      4  C3  UNL d   1       1.508  -2.917   1.334  0.00  0.00    -0.034 A 
ATOM      5  C4  UNL d   1       0.799  -3.510   2.380  0.00  0.00     0.162 A 
ATOM      6  C5  UNL d   1      -0.287  -2.855   2.952  0.00  0.00     0.062 A 
ATOM      7  F   UNL d   1      -0.963  -3.433   3.956  0.00  0.00    -0.097 F 
ATOM      8  F1  UNL d   1       1.151  -4.716   2.849  0.00  0.00    -0.096 F 
ATOM      9  I   UNL d   1       3.134  -3.893   0.476  0.00  0.00    -0.060 I 
ATOM     10  F2  UNL d   1       1.772  -1.061  -0.132  0.00  0.00    -0.096 F 
ATOM     11  F3  UNL d   1      -0.345   0.196   0.995  0.00  0.00    -0.097 F 
ATOM     12  F4  UNL d   1      -1.720  -0.978   3.038  0.00  0.00    -0.092 F 
ENDROOT
TORSDOF 0
ENDMDL
