MODEL 1
REMARK minimizedAffinity 20.0642509
REMARK minimizedRMSD -1
REMARK  0 active torsions:
REMARK  status: ('A' for Active; 'I' for Inactive)
ROOT
ATOM      1  C   UNL d   1       2.492   0.470  -0.689  0.00  0.00     0.124 A 
ATOM      2  C1  UNL d   1       2.215  -0.883  -0.550  0.00  0.00     0.062 A 
ATOM      3  C2  UNL d   1       3.215  -1.765  -0.151  0.00  0.00     0.162 A 
ATOM      4  C3  UNL d   1       4.502  -1.297   0.114  0.00  0.00    -0.034 A 
ATOM      5  C4  UNL d   1       4.773   0.065  -0.030  0.00  0.00     0.162 A 
ATOM      6  C5  UNL d   1       3.770   0.942  -0.429  0.00  0.00     0.062 A 
ATOM      7  F   UNL d   1       4.040   2.249  -0.563  0.00  0.00    -0.097 F 
ATOM      8  F1  UNL d   1       6.000   0.549   0.216  0.00  0.00    -0.096 F 
ATOM      9  I   UNL d   1       6.000  -2.613   0.711  0.00  0.00    -0.060 I 
ATOM     10  F2  UNL d   1       2.918  -3.067  -0.024  0.00  0.00    -0.096 F 
ATOM     11  F3  UNL d   1       0.980  -1.343  -0.802  0.00  0.00    -0.097 F 
ATOM     12  F4  UNL d   1       1.528   1.316  -1.075  0.00  0.00    -0.092 F 
ENDROOT
TORSDOF 0
ENDMDL
