MODEL 1
REMARK minimizedAffinity 13.6502962
REMARK minimizedRMSD -1
REMARK  0 active torsions:
REMARK  status: ('A' for Active; 'I' for Inactive)
ROOT
ATOM      1  C   UNL d   1      -2.972   0.007   2.687  0.00  0.00     0.124 A 
ATOM      2  C1  UNL d   1      -1.821   0.752   2.901  0.00  0.00     0.062 A 
ATOM      3  C2  UNL d   1      -0.569   0.163   2.751  0.00  0.00     0.162 A 
ATOM      4  C3  UNL d   1      -0.461  -1.178   2.383  0.00  0.00    -0.034 A 
ATOM      5  C4  UNL d   1      -1.624  -1.921   2.170  0.00  0.00     0.162 A 
ATOM      6  C5  UNL d   1      -2.873  -1.328   2.321  0.00  0.00     0.062 A 
ATOM      7  F   UNL d   1      -3.984  -2.049   2.114  0.00  0.00    -0.097 F 
ATOM      8  F1  UNL d   1      -1.556  -3.212   1.815  0.00  0.00    -0.096 F 
ATOM      9  I   UNL d   1       1.410  -2.062   2.157  0.00  0.00    -0.060 I 
ATOM     10  F2  UNL d   1       0.527   0.907   2.964  0.00  0.00    -0.096 F 
ATOM     11  F3  UNL d   1      -1.914   2.042   3.255  0.00  0.00    -0.097 F 
ATOM     12  F4  UNL d   1      -4.176   0.576   2.833  0.00  0.00    -0.092 F 
ENDROOT
TORSDOF 0
ENDMDL
