MODEL 1
REMARK minimizedAffinity 32.4219627
REMARK minimizedRMSD -1
REMARK  0 active torsions:
REMARK  status: ('A' for Active; 'I' for Inactive)
ROOT
ATOM      1  C   UNL d   1      -2.491   2.280  -2.369  0.00  0.00     0.124 A 
ATOM      2  C1  UNL d   1      -1.239   1.740  -2.629  0.00  0.00     0.062 A 
ATOM      3  C2  UNL d   1      -0.426   2.298  -3.612  0.00  0.00     0.162 A 
ATOM      4  C3  UNL d   1      -0.863   3.403  -4.342  0.00  0.00    -0.034 A 
ATOM      5  C4  UNL d   1      -2.124   3.939  -4.076  0.00  0.00     0.162 A 
ATOM      6  C5  UNL d   1      -2.932   3.378  -3.093  0.00  0.00     0.062 A 
ATOM      7  F   UNL d   1      -4.142   3.901  -2.844  0.00  0.00    -0.097 F 
ATOM      8  F1  UNL d   1      -2.575   5.002  -4.760  0.00  0.00    -0.096 F 
ATOM      9  I   UNL d   1       0.349   4.240  -5.813  0.00  0.00    -0.060 I 
ATOM     10  F2  UNL d   1       0.779   1.756  -3.841  0.00  0.00    -0.096 F 
ATOM     11  F3  UNL d   1      -0.811   0.678  -1.932  0.00  0.00    -0.097 F 
ATOM     12  F4  UNL d   1      -3.271   1.740  -1.424  0.00  0.00    -0.092 F 
ENDROOT
TORSDOF 0
ENDMDL
