MODEL 1
REMARK minimizedAffinity -1.40236747
REMARK minimizedRMSD -1
REMARK  0 active torsions:
REMARK  status: ('A' for Active; 'I' for Inactive)
ROOT
ATOM      1  O1  BZF d   1       1.459  -1.578   2.023  0.00  0.00    -0.204 OA
ATOM      2  C2  BZF d   1       0.483  -2.554   1.964  0.00  0.00     0.174 A 
ATOM      3  C3  BZF d   1      -0.548  -2.153   1.192  0.00  0.00    -0.012 A 
ATOM      4  C3A BZF d   1      -0.152  -0.883   0.666  0.00  0.00    -0.107 A 
ATOM      5  C4  BZF d   1      -0.746   0.009  -0.180  0.00  0.00     0.055 A 
ATOM      6  C5  BZF d   1      -0.126   1.191  -0.437  0.00  0.00    -0.016 A 
ATOM      7  C6  BZF d   1       1.085   1.514   0.139  0.00  0.00     0.022 A 
ATOM      8  C7  BZF d   1       1.716   0.659   0.981  0.00  0.00     0.029 A 
ATOM      9  C7A BZF d   1       1.107  -0.549   1.216  0.00  0.00     0.058 A 
ENDROOT
TORSDOF 0
ENDMDL
