MODEL 1
REMARK minimizedAffinity -4.98542833
REMARK minimizedRMSD -1
REMARK  0 active torsions:
REMARK  status: ('A' for Active; 'I' for Inactive)
ROOT
ATOM      1  O1  BZF d   1       0.382   0.937   0.127  0.00  0.00    -0.204 OA
ATOM      2  C2  BZF d   1      -0.848   0.335  -0.058  0.00  0.00     0.174 A 
ATOM      3  C3  BZF d   1      -0.788  -0.978   0.244  0.00  0.00    -0.012 A 
ATOM      4  C3A BZF d   1       0.540  -1.192   0.731  0.00  0.00    -0.107 A 
ATOM      5  C4  BZF d   1       1.202  -2.290   1.202  0.00  0.00     0.055 A 
ATOM      6  C5  BZF d   1       2.516  -2.179   1.529  0.00  0.00    -0.016 A 
ATOM      7  C6  BZF d   1       3.201  -0.989   1.392  0.00  0.00     0.022 A 
ATOM      8  C7  BZF d   1       2.585   0.129   0.934  0.00  0.00     0.029 A 
ATOM      9  C7A BZF d   1       1.249   0.028   0.634  0.00  0.00     0.058 A 
ENDROOT
TORSDOF 0
ENDMDL
