MODEL 1
REMARK minimizedAffinity -5.2935338
REMARK minimizedRMSD -1
REMARK  0 active torsions:
REMARK  status: ('A' for Active; 'I' for Inactive)
ROOT
ATOM      1  O1  BZF d   1       1.559   1.141   0.377  0.00  0.00    -0.204 OA
ATOM      2  C2  BZF d   1       2.777   0.573   0.699  0.00  0.00     0.174 A 
ATOM      3  C3  BZF d   1       2.607  -0.655   1.228  0.00  0.00    -0.012 A 
ATOM      4  C3A BZF d   1       1.200  -0.907   1.151  0.00  0.00    -0.107 A 
ATOM      5  C4  BZF d   1       0.415  -1.966   1.505  0.00  0.00     0.055 A 
ATOM      6  C5  BZF d   1      -0.933  -1.865   1.366  0.00  0.00    -0.016 A 
ATOM      7  C6  BZF d   1      -1.529  -0.719   0.882  0.00  0.00     0.022 A 
ATOM      8  C7  BZF d   1      -0.791   0.356   0.514  0.00  0.00     0.029 A 
ATOM      9  C7A BZF d   1       0.573   0.245   0.622  0.00  0.00     0.058 A 
ENDROOT
TORSDOF 0
ENDMDL
