MODEL 1
REMARK minimizedAffinity -6.35020399
REMARK minimizedRMSD -1
REMARK  0 active torsions:
REMARK  status: ('A' for Active; 'I' for Inactive)
ROOT
ATOM      1  O1  BZF d   1      -0.607  -0.647   0.193  0.00  0.00    -0.204 OA
ATOM      2  C2  BZF d   1      -0.585   0.638  -0.314  0.00  0.00     0.174 A 
ATOM      3  C3  BZF d   1       0.639   1.186  -0.172  0.00  0.00    -0.012 A 
ATOM      4  C3A BZF d   1       1.455   0.148   0.379  0.00  0.00    -0.107 A 
ATOM      5  C4  BZF d   1       2.773   0.077   0.731  0.00  0.00     0.055 A 
ATOM      6  C5  BZF d   1       3.241  -1.060   1.309  0.00  0.00    -0.016 A 
ATOM      7  C6  BZF d   1       2.420  -2.141   1.555  0.00  0.00     0.022 A 
ATOM      8  C7  BZF d   1       1.107  -2.119   1.219  0.00  0.00     0.029 A 
ATOM      9  C7A BZF d   1       0.639  -0.984   0.604  0.00  0.00     0.058 A 
ENDROOT
TORSDOF 0
ENDMDL
