MODEL 1
REMARK minimizedAffinity -1.91331577
REMARK minimizedRMSD -1
REMARK  0 active torsions:
REMARK  status: ('A' for Active; 'I' for Inactive)
ROOT
ATOM      1  O1  BZF d   1      -1.468  -1.138  -0.772  0.00  0.00    -0.204 OA
ATOM      2  C2  BZF d   1      -1.031   0.004  -0.129  0.00  0.00     0.174 A 
ATOM      3  C3  BZF d   1      -1.432   1.109  -0.791  0.00  0.00    -0.012 A 
ATOM      4  C3A BZF d   1      -2.243   0.629  -1.867  0.00  0.00    -0.107 A 
ATOM      5  C4  BZF d   1      -2.940   1.248  -2.865  0.00  0.00     0.055 A 
ATOM      6  C5  BZF d   1      -3.570   0.488  -3.800  0.00  0.00    -0.016 A 
ATOM      7  C6  BZF d   1      -3.520  -0.890  -3.769  0.00  0.00     0.022 A 
ATOM      8  C7  BZF d   1      -2.846  -1.549  -2.795  0.00  0.00     0.029 A 
ATOM      9  C7A BZF d   1      -2.235  -0.784  -1.831  0.00  0.00     0.058 A 
ENDROOT
TORSDOF 0
ENDMDL
