MODEL 1
REMARK minimizedAffinity -2.7305541
REMARK minimizedRMSD -1
REMARK  0 active torsions:
REMARK  status: ('A' for Active; 'I' for Inactive)
ROOT
ATOM      1  O1  BZF d   1      -0.828   1.407  -1.123  0.00  0.00    -0.204 OA
ATOM      2  C2  BZF d   1      -0.544   0.510  -0.112  0.00  0.00     0.174 A 
ATOM      3  C3  BZF d   1      -1.183  -0.660  -0.317  0.00  0.00    -0.012 A 
ATOM      4  C3A BZF d   1      -1.838  -0.514  -1.581  0.00  0.00    -0.107 A 
ATOM      5  C4  BZF d   1      -2.619  -1.343  -2.334  0.00  0.00     0.055 A 
ATOM      6  C5  BZF d   1      -3.163  -0.871  -3.486  0.00  0.00    -0.016 A 
ATOM      7  C6  BZF d   1      -2.952   0.424  -3.912  0.00  0.00     0.022 A 
ATOM      8  C7  BZF d   1      -2.180   1.282  -3.200  0.00  0.00     0.029 A 
ATOM      9  C7A BZF d   1      -1.602   0.798  -2.053  0.00  0.00     0.058 A 
ENDROOT
TORSDOF 0
ENDMDL
