MODEL 1
REMARK minimizedAffinity -5.40114355
REMARK minimizedRMSD -1
REMARK  0 active torsions:
REMARK  status: ('A' for Active; 'I' for Inactive)
ROOT
ATOM      1  O1  BZF d   1      -0.741  -0.747   0.013  0.00  0.00    -0.204 OA
ATOM      2  C2  BZF d   1      -0.792   0.522  -0.531  0.00  0.00     0.174 A 
ATOM      3  C3  BZF d   1       0.353   1.192  -0.291  0.00  0.00    -0.012 A 
ATOM      4  C3A BZF d   1       1.207   0.253   0.371  0.00  0.00    -0.107 A 
ATOM      5  C4  BZF d   1       2.484   0.321   0.850  0.00  0.00     0.055 A 
ATOM      6  C5  BZF d   1       3.000  -0.750   1.508  0.00  0.00    -0.016 A 
ATOM      7  C6  BZF d   1       2.266  -1.901   1.710  0.00  0.00     0.022 A 
ATOM      8  C7  BZF d   1       0.997  -2.017   1.249  0.00  0.00     0.029 A 
ATOM      9  C7A BZF d   1       0.484  -0.949   0.554  0.00  0.00     0.058 A 
ENDROOT
TORSDOF 0
ENDMDL
