MODEL 1
REMARK minimizedAffinity 0.76898241
REMARK minimizedRMSD -1
REMARK  0 active torsions:
REMARK  status: ('A' for Active; 'I' for Inactive)
ROOT
ATOM      1  N1  IND d   1       0.149   4.892  -4.017  0.00  0.00    -0.196 N 
ATOM      2  C2  IND d   1       0.283   5.392  -5.282  0.00  0.00     0.054 A 
ATOM      3  C3  IND d   1      -0.839   5.165  -6.000  0.00  0.00    -0.031 A 
ATOM      4  C4  IND d   1      -3.057   4.080  -5.268  0.00  0.00     0.051 A 
ATOM      5  C5  IND d   1      -3.645   3.436  -4.217  0.00  0.00    -0.031 A 
ATOM      6  C6  IND d   1      -2.987   3.242  -3.019  0.00  0.00     0.015 A 
ATOM      7  C7  IND d   1      -1.714   3.698  -2.825  0.00  0.00    -0.016 A 
ATOM      8  C8  IND d   1      -1.110   4.347  -3.893  0.00  0.00    -0.047 A 
ATOM      9  C9  IND d   1      -1.758   4.508  -5.125  0.00  0.00    -0.096 A 
ATOM     10  HN1 IND d   1       0.749   4.914  -3.402  0.00  0.00     0.298 HD
ENDROOT
TORSDOF 0
ENDMDL
