MODEL 1
REMARK minimizedAffinity -3.79514599
REMARK minimizedRMSD -1
REMARK  0 active torsions:
REMARK  status: ('A' for Active; 'I' for Inactive)
ROOT
ATOM      1  N1  IND d   1      -3.021   1.970  -4.609  0.00  0.00    -0.196 N 
ATOM      2  C2  IND d   1      -3.148   1.337  -3.403  0.00  0.00     0.054 A 
ATOM      3  C3  IND d   1      -2.989   2.219  -2.391  0.00  0.00    -0.031 A 
ATOM      4  C4  IND d   1      -2.613   4.764  -2.482  0.00  0.00     0.051 A 
ATOM      5  C5  IND d   1      -2.391   5.789  -3.357  0.00  0.00    -0.031 A 
ATOM      6  C6  IND d   1      -2.370   5.590  -4.723  0.00  0.00     0.015 A 
ATOM      7  C7  IND d   1      -2.583   4.355  -5.266  0.00  0.00    -0.016 A 
ATOM      8  C8  IND d   1      -2.801   3.310  -4.379  0.00  0.00    -0.047 A 
ATOM      9  C9  IND d   1      -2.781   3.498  -2.991  0.00  0.00    -0.096 A 
ATOM     10  HN1 IND d   1      -3.070   1.593  -5.380  0.00  0.00     0.298 HD
ENDROOT
TORSDOF 0
ENDMDL
