MODEL 1
REMARK minimizedAffinity -0.671625912
REMARK minimizedRMSD -1
REMARK  0 active torsions:
REMARK  status: ('A' for Active; 'I' for Inactive)
ROOT
ATOM      1  N1  IND d   1      -2.845   5.710  -3.317  0.00  0.00    -0.196 N 
ATOM      2  C2  IND d   1      -2.745   5.739  -4.680  0.00  0.00     0.054 A 
ATOM      3  C3  IND d   1      -2.758   4.483  -5.179  0.00  0.00    -0.031 A 
ATOM      4  C4  IND d   1      -3.035   2.238  -3.951  0.00  0.00     0.051 A 
ATOM      5  C5  IND d   1      -3.124   1.699  -2.698  0.00  0.00    -0.031 A 
ATOM      6  C6  IND d   1      -3.127   2.486  -1.565  0.00  0.00     0.015 A 
ATOM      7  C7  IND d   1      -3.052   3.848  -1.643  0.00  0.00    -0.016 A 
ATOM      8  C8  IND d   1      -2.955   4.398  -2.913  0.00  0.00    -0.047 A 
ATOM      9  C9  IND d   1      -2.909   3.602  -4.065  0.00  0.00    -0.096 A 
ATOM     10  HN1 IND d   1      -2.839   6.397  -2.799  0.00  0.00     0.298 HD
ENDROOT
TORSDOF 0
ENDMDL
