MODEL 1
REMARK minimizedAffinity -2.39910936
REMARK minimizedRMSD -1
REMARK  0 active torsions:
REMARK  status: ('A' for Active; 'I' for Inactive)
ROOT
ATOM      1  N1  IND d   1      -1.173   3.580  -2.955  0.00  0.00    -0.196 N 
ATOM      2  C2  IND d   1      -1.827   4.642  -3.515  0.00  0.00     0.054 A 
ATOM      3  C3  IND d   1      -3.053   4.267  -3.943  0.00  0.00    -0.031 A 
ATOM      4  C4  IND d   1      -4.233   1.988  -3.733  0.00  0.00     0.051 A 
ATOM      5  C5  IND d   1      -4.023   0.700  -3.329  0.00  0.00    -0.031 A 
ATOM      6  C6  IND d   1      -2.829   0.298  -2.765  0.00  0.00     0.015 A 
ATOM      7  C7  IND d   1      -1.800   1.176  -2.574  0.00  0.00    -0.016 A 
ATOM      8  C8  IND d   1      -2.007   2.484  -2.990  0.00  0.00    -0.047 A 
ATOM      9  C9  IND d   1      -3.201   2.888  -3.601  0.00  0.00    -0.096 A 
ATOM     10  HN1 IND d   1      -0.375   3.594  -2.635  0.00  0.00     0.298 HD
ENDROOT
TORSDOF 0
ENDMDL
