MODEL 1
REMARK minimizedAffinity 3.50194669
REMARK minimizedRMSD -1
REMARK  0 active torsions:
REMARK  status: ('A' for Active; 'I' for Inactive)
ROOT
ATOM      1  N1  IND d   1      -2.948   3.383  -1.053  0.00  0.00    -0.196 N 
ATOM      2  C2  IND d   1      -2.810   2.023  -1.079  0.00  0.00     0.054 A 
ATOM      3  C3  IND d   1      -2.945   1.561  -2.343  0.00  0.00    -0.031 A 
ATOM      4  C4  IND d   1      -3.293   2.867  -4.534  0.00  0.00     0.051 A 
ATOM      5  C5  IND d   1      -3.516   4.128  -5.012  0.00  0.00    -0.031 A 
ATOM      6  C6  IND d   1      -3.559   5.227  -4.179  0.00  0.00     0.015 A 
ATOM      7  C7  IND d   1      -3.368   5.107  -2.832  0.00  0.00    -0.016 A 
ATOM      8  C8  IND d   1      -3.149   3.828  -2.341  0.00  0.00    -0.047 A 
ATOM      9  C9  IND d   1      -3.147   2.703  -3.176  0.00  0.00    -0.096 A 
ATOM     10  HN1 IND d   1      -2.914   3.877  -0.350  0.00  0.00     0.298 HD
ENDROOT
TORSDOF 0
ENDMDL
