MODEL 1
REMARK minimizedAffinity 0.244440332
REMARK minimizedRMSD -1
REMARK  0 active torsions:
REMARK  status: ('A' for Active; 'I' for Inactive)
ROOT
ATOM      1  N1  IND d   1       0.020  -1.918   0.365  0.00  0.00    -0.196 N 
ATOM      2  C2  IND d   1       1.171  -1.940   1.103  0.00  0.00     0.054 A 
ATOM      3  C3  IND d   1       0.981  -1.315   2.287  0.00  0.00    -0.031 A 
ATOM      4  C4  IND d   1      -1.162  -0.274   3.263  0.00  0.00     0.051 A 
ATOM      5  C5  IND d   1      -2.458   0.020   2.944  0.00  0.00    -0.031 A 
ATOM      6  C6  IND d   1      -3.006  -0.327   1.726  0.00  0.00     0.015 A 
ATOM      7  C7  IND d   1      -2.279  -0.993   0.781  0.00  0.00    -0.016 A 
ATOM      8  C8  IND d   1      -0.960  -1.287   1.099  0.00  0.00    -0.047 A 
ATOM      9  C9  IND d   1      -0.386  -0.900   2.316  0.00  0.00    -0.096 A 
ATOM     10  HN1 IND d   1      -0.075  -2.244  -0.425  0.00  0.00     0.298 HD
ENDROOT
TORSDOF 0
ENDMDL
