MODEL 1
REMARK minimizedAffinity 1.49983358
REMARK minimizedRMSD -1
REMARK  0 active torsions:
REMARK  status: ('A' for Active; 'I' for Inactive)
ROOT
ATOM      1  N1  IND d   1      -2.292  -0.530   4.618  0.00  0.00    -0.196 N 
ATOM      2  C2  IND d   1      -3.528  -0.043   4.296  0.00  0.00     0.054 A 
ATOM      3  C3  IND d   1      -3.729  -0.116   2.961  0.00  0.00    -0.031 A 
ATOM      4  C4  IND d   1      -2.207  -1.093   1.129  0.00  0.00     0.051 A 
ATOM      5  C5  IND d   1      -0.963  -1.622   0.931  0.00  0.00    -0.031 A 
ATOM      6  C6  IND d   1      -0.081  -1.820   1.974  0.00  0.00     0.015 A 
ATOM      7  C7  IND d   1      -0.416  -1.506   3.260  0.00  0.00    -0.016 A 
ATOM      8  C8  IND d   1      -1.677  -0.963   3.464  0.00  0.00    -0.047 A 
ATOM      9  C9  IND d   1      -2.560  -0.720   2.404  0.00  0.00    -0.096 A 
ATOM     10  HN1 IND d   1      -1.955  -0.561   5.409  0.00  0.00     0.298 HD
ENDROOT
TORSDOF 0
ENDMDL
