MODEL 1
REMARK minimizedAffinity 2.49207377
REMARK minimizedRMSD -1
REMARK  0 active torsions:
REMARK  status: ('A' for Active; 'I' for Inactive)
ROOT
ATOM      1  N1  IND d   1      -2.117   4.234  -4.036  0.00  0.00    -0.196 N 
ATOM      2  C2  IND d   1      -3.014   5.108  -4.584  0.00  0.00     0.054 A 
ATOM      3  C3  IND d   1      -4.204   5.020  -3.948  0.00  0.00    -0.031 A 
ATOM      4  C4  IND d   1      -4.873   3.585  -1.918  0.00  0.00     0.051 A 
ATOM      5  C5  IND d   1      -4.403   2.603  -1.092  0.00  0.00    -0.031 A 
ATOM      6  C6  IND d   1      -3.121   2.106  -1.205  0.00  0.00     0.015 A 
ATOM      7  C7  IND d   1      -2.252   2.583  -2.146  0.00  0.00    -0.016 A 
ATOM      8  C8  IND d   1      -2.728   3.576  -2.991  0.00  0.00    -0.047 A 
ATOM      9  C9  IND d   1      -4.042   4.054  -2.909  0.00  0.00    -0.096 A 
ATOM     10  HN1 IND d   1      -1.307   4.116  -4.299  0.00  0.00     0.298 HD
ENDROOT
TORSDOF 0
ENDMDL
