MODEL 1
REMARK minimizedAffinity 6.70320129
REMARK minimizedRMSD -1
REMARK  0 active torsions:
REMARK  status: ('A' for Active; 'I' for Inactive)
ROOT
ATOM      1  N1  IND d   1       0.893  -2.288   0.138  0.00  0.00    -0.196 N 
ATOM      2  C2  IND d   1       1.890  -2.630   1.008  0.00  0.00     0.054 A 
ATOM      3  C3  IND d   1       1.600  -2.188   2.253  0.00  0.00    -0.031 A 
ATOM      4  C4  IND d   1      -0.502  -0.970   3.107  0.00  0.00     0.051 A 
ATOM      5  C5  IND d   1      -1.671  -0.408   2.676  0.00  0.00    -0.031 A 
ATOM      6  C6  IND d   1      -2.054  -0.448   1.351  0.00  0.00     0.015 A 
ATOM      7  C7  IND d   1      -1.284  -1.063   0.405  0.00  0.00    -0.016 A 
ATOM      8  C8  IND d   1      -0.093  -1.628   0.837  0.00  0.00    -0.047 A 
ATOM      9  C9  IND d   1       0.321  -1.555   2.173  0.00  0.00    -0.096 A 
ATOM     10  HN1 IND d   1       0.884  -2.457  -0.705  0.00  0.00     0.298 HD
ENDROOT
TORSDOF 0
ENDMDL
