MODEL 1
REMARK minimizedAffinity -2.32630014
REMARK minimizedRMSD -1
REMARK  0 active torsions:
REMARK  status: ('A' for Active; 'I' for Inactive)
ROOT
ATOM      1  N1  IND d   1      -2.131   5.014  -3.194  0.00  0.00    -0.196 N 
ATOM      2  C2  IND d   1      -3.417   4.987  -3.656  0.00  0.00     0.054 A 
ATOM      3  C3  IND d   1      -3.873   3.715  -3.702  0.00  0.00    -0.031 A 
ATOM      4  C4  IND d   1      -2.716   1.535  -2.970  0.00  0.00     0.051 A 
ATOM      5  C5  IND d   1      -1.522   1.049  -2.517  0.00  0.00    -0.031 A 
ATOM      6  C6  IND d   1      -0.449   1.877  -2.258  0.00  0.00     0.015 A 
ATOM      7  C7  IND d   1      -0.534   3.229  -2.433  0.00  0.00    -0.016 A 
ATOM      8  C8  IND d   1      -1.743   3.725  -2.900  0.00  0.00    -0.047 A 
ATOM      9  C9  IND d   1      -2.822   2.885  -3.205  0.00  0.00    -0.096 A 
ATOM     10  HN1 IND d   1      -1.645   5.718  -3.102  0.00  0.00     0.298 HD
ENDROOT
TORSDOF 0
ENDMDL
