MODEL 1
REMARK minimizedAffinity -3.63462496
REMARK minimizedRMSD -1
REMARK  0 active torsions:
REMARK  status: ('A' for Active; 'I' for Inactive)
ROOT
ATOM      1  N1  IND d   1      -1.466   4.605  -5.242  0.00  0.00    -0.196 N 
ATOM      2  C2  IND d   1      -0.100   4.562  -5.279  0.00  0.00     0.054 A 
ATOM      3  C3  IND d   1       0.375   3.817  -4.256  0.00  0.00    -0.031 A 
ATOM      4  C4  IND d   1      -0.911   2.492  -2.463  0.00  0.00     0.051 A 
ATOM      5  C5  IND d   1      -2.174   2.254  -1.998  0.00  0.00    -0.031 A 
ATOM      6  C6  IND d   1      -3.288   2.797  -2.605  0.00  0.00     0.015 A 
ATOM      7  C7  IND d   1      -3.181   3.592  -3.711  0.00  0.00    -0.016 A 
ATOM      8  C8  IND d   1      -1.900   3.841  -4.181  0.00  0.00    -0.047 A 
ATOM      9  C9  IND d   1      -0.762   3.327  -3.544  0.00  0.00    -0.096 A 
ATOM     10  HN1 IND d   1      -1.969   5.037  -5.790  0.00  0.00     0.298 HD
ENDROOT
TORSDOF 0
ENDMDL
