MODEL 1
REMARK minimizedAffinity -0.728451133
REMARK minimizedRMSD -1
REMARK  1 active torsions:
REMARK  status: ('A' for Active; 'I' for Inactive)
REMARK    1  A    between atoms: C1_2  and  C2_3 
ROOT
ATOM      1  C2  UNL d   1      -0.175  -2.163  -0.813  0.00  0.00    -0.077 A 
ATOM      2  C3  UNL d   1       0.900  -1.315  -1.115  0.00  0.00     0.002 A 
ATOM      3  C4  UNL d   1       1.029  -0.083  -0.472  0.00  0.00     0.002 A 
ATOM      4  C5  UNL d   1       0.091   0.311   0.479  0.00  0.00    -0.004 A 
ATOM      5  C6  UNL d   1      -0.983  -0.525   0.786  0.00  0.00     0.002 A 
ATOM      6  C7  UNL d   1      -1.114  -1.757   0.143  0.00  0.00     0.002 A 
ENDROOT
BRANCH   1   7
ATOM      7  C1  UNL d   1      -0.289  -3.514  -1.469  0.00  0.00     0.055 C 
ATOM      8  C   UNL d   1       0.028  -4.635  -0.489  0.00  0.00     0.019 C 
ENDBRANCH   1   7
TORSDOF 1
ENDMDL
