MODEL 1
REMARK minimizedAffinity -4.31121016
REMARK minimizedRMSD -1
REMARK  1 active torsions:
REMARK  status: ('A' for Active; 'I' for Inactive)
REMARK    1  A    between atoms: C1_2  and  C2_3 
ROOT
ATOM      1  C2  UNL d   1      -0.146   1.339   0.417  0.00  0.00    -0.077 A 
ATOM      2  C3  UNL d   1       0.408   0.117   0.010  0.00  0.00     0.002 A 
ATOM      3  C4  UNL d   1       0.663  -0.127  -1.341  0.00  0.00     0.002 A 
ATOM      4  C5  UNL d   1       0.371   0.846  -2.294  0.00  0.00    -0.004 A 
ATOM      5  C6  UNL d   1      -0.182   2.063  -1.900  0.00  0.00     0.002 A 
ATOM      6  C7  UNL d   1      -0.439   2.309  -0.550  0.00  0.00     0.002 A 
ENDROOT
BRANCH   1   7
ATOM      7  C1  UNL d   1      -0.377   1.624   1.878  0.00  0.00     0.055 C 
ATOM      8  C   UNL d   1       0.633   0.892   2.751  0.00  0.00     0.019 C 
ENDBRANCH   1   7
TORSDOF 1
ENDMDL
