MODEL 1
REMARK minimizedAffinity -3.96653056
REMARK minimizedRMSD -1
REMARK  1 active torsions:
REMARK  status: ('A' for Active; 'I' for Inactive)
REMARK    1  A    between atoms: C1_2  and  C2_3 
ROOT
ATOM      1  C2  UNL d   1      -0.554   0.962   0.571  0.00  0.00    -0.077 A 
ATOM      2  C3  UNL d   1       0.281   0.123   1.322  0.00  0.00     0.002 A 
ATOM      3  C4  UNL d   1       0.900  -0.976   0.723  0.00  0.00     0.002 A 
ATOM      4  C5  UNL d   1       0.695  -1.242  -0.629  0.00  0.00    -0.004 A 
ATOM      5  C6  UNL d   1      -0.136  -0.414  -1.384  0.00  0.00     0.002 A 
ATOM      6  C7  UNL d   1      -0.757   0.684  -0.787  0.00  0.00     0.002 A 
ENDROOT
BRANCH   1   7
ATOM      7  C1  UNL d   1      -1.184   2.176   1.203  0.00  0.00     0.055 C 
ATOM      8  C   UNL d   1      -0.165   2.975   2.004  0.00  0.00     0.019 C 
ENDBRANCH   1   7
TORSDOF 1
ENDMDL
