MODEL 1
REMARK minimizedAffinity -2.74874616
REMARK minimizedRMSD -1
REMARK  0 active torsions:
REMARK  status: ('A' for Active; 'I' for Inactive)
ROOT
ATOM      1  C2' OXE d   1      -0.371   1.881   2.680  0.00  0.00     0.078 C 
ATOM      2  C1' OXE d   1      -2.675   0.849   1.451  0.00  0.00     0.078 C 
ATOM      3  C1  OXE d   1      -1.337   0.471   0.867  0.00  0.00    -0.078 A 
ATOM      4  C2  OXE d   1      -0.217   1.017   1.446  0.00  0.00    -0.078 A 
ATOM      5  C3  OXE d   1       1.044   0.658   0.981  0.00  0.00     0.003 A 
ATOM      6  C4  OXE d   1       1.178  -0.133  -0.167  0.00  0.00    -0.002 A 
ATOM      7  C5  OXE d   1       0.049  -0.668  -0.795  0.00  0.00    -0.002 A 
ATOM      8  C6  OXE d   1      -1.211  -0.411  -0.267  0.00  0.00     0.003 A 
ENDROOT
TORSDOF 0
ENDMDL
