MODEL 1
REMARK minimizedAffinity -4.9525466
REMARK minimizedRMSD -1
REMARK  0 active torsions:
REMARK  status: ('A' for Active; 'I' for Inactive)
ROOT
ATOM      1  C2' OXE d   1       0.188  -0.588  -0.593  0.00  0.00     0.078 C 
ATOM      2  C1' OXE d   1      -2.027   0.752   0.493  0.00  0.00     0.078 C 
ATOM      3  C1  OXE d   1      -0.866   0.453   1.409  0.00  0.00    -0.078 A 
ATOM      4  C2  OXE d   1       0.193  -0.244   0.881  0.00  0.00    -0.078 A 
ATOM      5  C3  OXE d   1       1.313  -0.498   1.667  0.00  0.00     0.003 A 
ATOM      6  C4  OXE d   1       1.306  -0.186   3.032  0.00  0.00    -0.002 A 
ATOM      7  C5  OXE d   1       0.220   0.489   3.600  0.00  0.00    -0.002 A 
ATOM      8  C6  OXE d   1      -0.853   0.853   2.795  0.00  0.00     0.003 A 
ENDROOT
TORSDOF 0
ENDMDL
