MODEL 1
REMARK minimizedAffinity -4.49725533
REMARK minimizedRMSD -1
REMARK  0 active torsions:
REMARK  status: ('A' for Active; 'I' for Inactive)
ROOT
ATOM      1  C2' OXE d   1      -0.432   1.286   2.766  0.00  0.00     0.078 C 
ATOM      2  C1' OXE d   1       2.054   0.076   2.280  0.00  0.00     0.078 C 
ATOM      3  C1  OXE d   1       0.999  -0.029   1.207  0.00  0.00    -0.078 A 
ATOM      4  C2  OXE d   1      -0.230   0.526   1.473  0.00  0.00    -0.078 A 
ATOM      5  C3  OXE d   1      -1.221   0.505   0.496  0.00  0.00     0.003 A 
ATOM      6  C4  OXE d   1      -1.030  -0.208  -0.694  0.00  0.00    -0.002 A 
ATOM      7  C5  OXE d   1       0.201  -0.815  -0.967  0.00  0.00    -0.002 A 
ATOM      8  C6  OXE d   1       1.237  -0.698  -0.048  0.00  0.00     0.003 A 
ENDROOT
TORSDOF 0
ENDMDL
