MODEL 1
REMARK minimizedAffinity -4.15212536
REMARK minimizedRMSD -1
REMARK  0 active torsions:
REMARK  status: ('A' for Active; 'I' for Inactive)
ROOT
ATOM      1  C2' OXE d   1       2.118   0.636  -3.146  0.00  0.00     0.078 C 
ATOM      2  C1' OXE d   1       0.264  -1.072  -1.912  0.00  0.00     0.078 C 
ATOM      3  C1  OXE d   1      -0.019  -0.631  -3.326  0.00  0.00    -0.078 A 
ATOM      4  C2  OXE d   1       0.870   0.242  -3.906  0.00  0.00    -0.078 A 
ATOM      5  C3  OXE d   1       0.685   0.637  -5.228  0.00  0.00     0.003 A 
ATOM      6  C4  OXE d   1      -0.477   0.275  -5.920  0.00  0.00    -0.002 A 
ATOM      7  C5  OXE d   1      -1.415  -0.582  -5.334  0.00  0.00    -0.002 A 
ATOM      8  C6  OXE d   1      -1.180  -1.077  -4.056  0.00  0.00     0.003 A 
ENDROOT
TORSDOF 0
ENDMDL
