MODEL 1
REMARK minimizedAffinity -4.77061653
REMARK minimizedRMSD -1
REMARK  0 active torsions:
REMARK  status: ('A' for Active; 'I' for Inactive)
ROOT
ATOM      1  C2' OXE d   1       1.551   0.405  -3.270  0.00  0.00     0.078 C 
ATOM      2  C1' OXE d   1      -0.916  -0.795  -3.867  0.00  0.00     0.078 C 
ATOM      3  C1  OXE d   1      -0.627  -0.461  -2.425  0.00  0.00    -0.078 A 
ATOM      4  C2  OXE d   1       0.602   0.084  -2.136  0.00  0.00    -0.078 A 
ATOM      5  C3  OXE d   1       0.898   0.461  -0.830  0.00  0.00     0.003 A 
ATOM      6  C4  OXE d   1       0.019   0.151   0.215  0.00  0.00    -0.002 A 
ATOM      7  C5  OXE d   1      -1.220  -0.440  -0.052  0.00  0.00    -0.002 A 
ATOM      8  C6  OXE d   1      -1.576  -0.712  -1.369  0.00  0.00     0.003 A 
ENDROOT
TORSDOF 0
ENDMDL
