MODEL 1
REMARK minimizedAffinity -2.06801224
REMARK minimizedRMSD -1
REMARK  0 active torsions:
REMARK  status: ('A' for Active; 'I' for Inactive)
ROOT
ATOM      1  C2' OXE d   1       2.296   0.776  -4.106  0.00  0.00     0.078 C 
ATOM      2  C1' OXE d   1      -0.510   0.758  -4.167  0.00  0.00     0.078 C 
ATOM      3  C1  OXE d   1       0.172   0.108  -2.989  0.00  0.00    -0.078 A 
ATOM      4  C2  OXE d   1       1.546   0.081  -2.991  0.00  0.00    -0.078 A 
ATOM      5  C3  OXE d   1       2.226  -0.458  -1.902  0.00  0.00     0.003 A 
ATOM      6  C4  OXE d   1       1.525  -1.108  -0.879  0.00  0.00    -0.002 A 
ATOM      7  C5  OXE d   1       0.126  -1.126  -0.878  0.00  0.00    -0.002 A 
ATOM      8  C6  OXE d   1      -0.565  -0.487  -1.902  0.00  0.00     0.003 A 
ENDROOT
TORSDOF 0
ENDMDL
