MODEL 1
REMARK minimizedAffinity -0.381585896
REMARK minimizedRMSD -1
REMARK  0 active torsions:
REMARK  status: ('A' for Active; 'I' for Inactive)
ROOT
ATOM      1  C2' OXE d   1      -0.506   1.820   4.013  0.00  0.00     0.078 C 
ATOM      2  C1' OXE d   1      -1.795  -0.666   3.816  0.00  0.00     0.078 C 
ATOM      3  C1  OXE d   1      -1.148  -0.108   2.573  0.00  0.00    -0.078 A 
ATOM      4  C2  OXE d   1      -0.560   1.130   2.667  0.00  0.00    -0.078 A 
ATOM      5  C3  OXE d   1       0.099   1.666   1.564  0.00  0.00     0.003 A 
ATOM      6  C4  OXE d   1       0.035   1.026   0.320  0.00  0.00    -0.002 A 
ATOM      7  C5  OXE d   1      -0.593  -0.217   0.193  0.00  0.00    -0.002 A 
ATOM      8  C6  OXE d   1      -1.151  -0.817   1.317  0.00  0.00     0.003 A 
ENDROOT
TORSDOF 0
ENDMDL
