MODEL 1
REMARK minimizedAffinity -4.6748476
REMARK minimizedRMSD -1
REMARK  0 active torsions:
REMARK  status: ('A' for Active; 'I' for Inactive)
ROOT
ATOM      1  C2' OXE d   1      -2.053  -0.044   0.460  0.00  0.00     0.078 C 
ATOM      2  C1' OXE d   1       0.399  -1.173  -0.310  0.00  0.00     0.078 C 
ATOM      3  C1  OXE d   1       0.377  -0.318   0.932  0.00  0.00    -0.078 A 
ATOM      4  C2  OXE d   1      -0.817   0.268   1.276  0.00  0.00    -0.078 A 
ATOM      5  C3  OXE d   1      -0.905   1.021   2.443  0.00  0.00     0.003 A 
ATOM      6  C4  OXE d   1       0.245   1.313   3.187  0.00  0.00    -0.002 A 
ATOM      7  C5  OXE d   1       1.479   0.758   2.832  0.00  0.00    -0.002 A 
ATOM      8  C6  OXE d   1       1.554  -0.092   1.734  0.00  0.00     0.003 A 
ENDROOT
TORSDOF 0
ENDMDL
