MODEL 1
REMARK minimizedAffinity -2.26188159
REMARK minimizedRMSD -1
REMARK  0 active torsions:
REMARK  status: ('A' for Active; 'I' for Inactive)
ROOT
ATOM      1  C2' OXE d   1       0.741   0.551  -1.204  0.00  0.00     0.078 C 
ATOM      2  C1' OXE d   1      -0.948  -1.400  -0.101  0.00  0.00     0.078 C 
ATOM      3  C1  OXE d   1      -0.644  -0.181   0.733  0.00  0.00    -0.078 A 
ATOM      4  C2  OXE d   1       0.221   0.747   0.204  0.00  0.00    -0.078 A 
ATOM      5  C3  OXE d   1       0.493   1.916   0.908  0.00  0.00     0.003 A 
ATOM      6  C4  OXE d   1       0.016   2.085   2.214  0.00  0.00    -0.002 A 
ATOM      7  C5  OXE d   1      -0.834   1.133   2.787  0.00  0.00    -0.002 A 
ATOM      8  C6  OXE d   1      -1.207   0.018   2.045  0.00  0.00     0.003 A 
ENDROOT
TORSDOF 0
ENDMDL
