MODEL 1
REMARK minimizedAffinity 1.72826242
REMARK minimizedRMSD -1
REMARK  0 active torsions:
REMARK  status: ('A' for Active; 'I' for Inactive)
ROOT
ATOM      1  C2' OXE d   1       2.154  -0.463   1.240  0.00  0.00     0.078 C 
ATOM      2  C1' OXE d   1       0.961   0.644  -1.047  0.00  0.00     0.078 C 
ATOM      3  C1  OXE d   1       0.095   0.446   0.172  0.00  0.00    -0.078 A 
ATOM      4  C2  OXE d   1       0.676  -0.140   1.271  0.00  0.00    -0.078 A 
ATOM      5  C3  OXE d   1      -0.063  -0.296   2.440  0.00  0.00     0.003 A 
ATOM      6  C4  OXE d   1      -1.432  -0.004   2.457  0.00  0.00    -0.002 A 
ATOM      7  C5  OXE d   1      -2.053   0.556   1.336  0.00  0.00    -0.002 A 
ATOM      8  C6  OXE d   1      -1.295   0.827   0.202  0.00  0.00     0.003 A 
ENDROOT
TORSDOF 0
ENDMDL
