MODEL 1
REMARK minimizedAffinity -3.22577691
REMARK minimizedRMSD -1
REMARK  0 active torsions:
REMARK  status: ('A' for Active; 'I' for Inactive)
ROOT
ATOM      1  C2' OXE d   1       0.109  -0.956  -1.131  0.00  0.00     0.078 C 
ATOM      2  C1' OXE d   1       2.306  -0.931   0.616  0.00  0.00     0.078 C 
ATOM      3  C1  OXE d   1       1.068  -0.178   1.033  0.00  0.00    -0.078 A 
ATOM      4  C2  OXE d   1       0.014  -0.157   0.151  0.00  0.00    -0.078 A 
ATOM      5  C3  OXE d   1      -1.172   0.478   0.510  0.00  0.00     0.003 A 
ATOM      6  C4  OXE d   1      -1.247   1.223   1.693  0.00  0.00    -0.002 A 
ATOM      7  C5  OXE d   1      -0.172   1.247   2.586  0.00  0.00    -0.002 A 
ATOM      8  C6  OXE d   1       0.976   0.518   2.292  0.00  0.00     0.003 A 
ENDROOT
TORSDOF 0
ENDMDL
