MODEL 1
REMARK minimizedAffinity -2.49296474
REMARK minimizedRMSD -1
REMARK  0 active torsions:
REMARK  status: ('A' for Active; 'I' for Inactive)
ROOT
ATOM      1  C2' OXE d   1       2.195  -1.317   0.780  0.00  0.00     0.078 C 
ATOM      2  C1' OXE d   1      -0.094  -1.615  -0.817  0.00  0.00     0.078 C 
ATOM      3  C1  OXE d   1      -0.201  -0.743   0.409  0.00  0.00    -0.078 A 
ATOM      4  C2  OXE d   1       0.911  -0.640   1.210  0.00  0.00    -0.078 A 
ATOM      5  C3  OXE d   1       0.884   0.195   2.323  0.00  0.00     0.003 A 
ATOM      6  C4  OXE d   1      -0.310   0.809   2.720  0.00  0.00    -0.002 A 
ATOM      7  C5  OXE d   1      -1.465   0.686   1.940  0.00  0.00    -0.002 A 
ATOM      8  C6  OXE d   1      -1.415  -0.050   0.761  0.00  0.00     0.003 A 
ENDROOT
TORSDOF 0
ENDMDL
