MODEL 1
REMARK minimizedAffinity -4.61154079
REMARK minimizedRMSD -1
REMARK  0 active torsions:
REMARK  status: ('A' for Active; 'I' for Inactive)
ROOT
ATOM      1  C2' OXE d   1       0.441  -0.413  -1.859  0.00  0.00     0.078 C 
ATOM      2  C1' OXE d   1       2.376   1.103  -3.215  0.00  0.00     0.078 C 
ATOM      3  C1  OXE d   1       1.103   0.767  -3.951  0.00  0.00    -0.078 A 
ATOM      4  C2  OXE d   1       0.182  -0.014  -3.296  0.00  0.00    -0.078 A 
ATOM      5  C3  OXE d   1      -1.033  -0.307  -3.909  0.00  0.00     0.003 A 
ATOM      6  C4  OXE d   1      -1.261   0.056  -5.241  0.00  0.00    -0.002 A 
ATOM      7  C5  OXE d   1      -0.319   0.819  -5.940  0.00  0.00    -0.002 A 
ATOM      8  C6  OXE d   1       0.847   1.218  -5.297  0.00  0.00     0.003 A 
ENDROOT
TORSDOF 0
ENDMDL
