MODEL 1
REMARK minimizedAffinity 6.28478432
REMARK minimizedRMSD -1
REMARK  0 active torsions:
REMARK  status: ('A' for Active; 'I' for Inactive)
ROOT
ATOM      1  C   UNL d   1      -2.832  -1.313  -5.993  0.00  0.00     0.124 A 
ATOM      2  C1  UNL d   1      -1.876  -2.319  -5.995  0.00  0.00     0.062 A 
ATOM      3  C2  UNL d   1      -2.265  -3.655  -5.995  0.00  0.00     0.162 A 
ATOM      4  C3  UNL d   1      -3.618  -3.994  -5.994  0.00  0.00    -0.034 A 
ATOM      5  C4  UNL d   1      -4.574  -2.977  -5.991  0.00  0.00     0.162 A 
ATOM      6  C5  UNL d   1      -4.180  -1.643  -5.991  0.00  0.00     0.062 A 
ATOM      7  F   UNL d   1      -5.106  -0.673  -5.988  0.00  0.00    -0.097 F 
ATOM      8  F1  UNL d   1      -5.884  -3.268  -5.990  0.00  0.00    -0.096 F 
ATOM      9  I   UNL d   1      -4.204  -5.991  -5.994  0.00  0.00    -0.060 I 
ATOM     10  F2  UNL d   1      -1.319  -4.606  -5.998  0.00  0.00    -0.096 F 
ATOM     11  F3  UNL d   1      -0.573  -2.003  -5.997  0.00  0.00    -0.097 F 
ATOM     12  F4  UNL d   1      -2.455  -0.028  -5.992  0.00  0.00    -0.092 F 
ENDROOT
TORSDOF 0
ENDMDL
