MODEL 1
REMARK minimizedAffinity 12.3406687
REMARK minimizedRMSD -1
REMARK  0 active torsions:
REMARK  status: ('A' for Active; 'I' for Inactive)
ROOT
ATOM      1  C   UNL d   1      -4.323  -0.873   0.706  0.00  0.00     0.124 A 
ATOM      2  C1  UNL d   1      -3.233  -1.712   0.520  0.00  0.00     0.062 A 
ATOM      3  C2  UNL d   1      -1.977  -1.342   0.994  0.00  0.00     0.162 A 
ATOM      4  C3  UNL d   1      -1.805  -0.128   1.658  0.00  0.00    -0.034 A 
ATOM      5  C4  UNL d   1      -2.906   0.711   1.840  0.00  0.00     0.162 A 
ATOM      6  C5  UNL d   1      -4.159   0.337   1.365  0.00  0.00     0.062 A 
ATOM      7  F   UNL d   1      -5.212   1.148   1.545  0.00  0.00    -0.097 F 
ATOM      8  F1  UNL d   1      -2.777   1.885   2.475  0.00  0.00    -0.096 F 
ATOM      9  I   UNL d   1       0.071   0.429   2.368  0.00  0.00    -0.060 I 
ATOM     10  F2  UNL d   1      -0.941  -2.172   0.801  0.00  0.00    -0.096 F 
ATOM     11  F3  UNL d   1      -3.388  -2.881  -0.117  0.00  0.00    -0.097 F 
ATOM     12  F4  UNL d   1      -5.530  -1.231   0.248  0.00  0.00    -0.092 F 
ENDROOT
TORSDOF 0
ENDMDL
