MODEL 1
REMARK minimizedAffinity 18.3625793
REMARK minimizedRMSD -1
REMARK  0 active torsions:
REMARK  status: ('A' for Active; 'I' for Inactive)
ROOT
ATOM      1  C   UNL d   1      -2.669   0.635   1.756  0.00  0.00     0.124 A 
ATOM      2  C1  UNL d   1      -3.957   0.953   2.165  0.00  0.00     0.062 A 
ATOM      3  C2  UNL d   1      -4.445   0.471   3.376  0.00  0.00     0.162 A 
ATOM      4  C3  UNL d   1      -3.646  -0.334   4.187  0.00  0.00    -0.034 A 
ATOM      5  C4  UNL d   1      -2.352  -0.650   3.769  0.00  0.00     0.162 A 
ATOM      6  C5  UNL d   1      -1.868  -0.166   2.558  0.00  0.00     0.062 A 
ATOM      7  F   UNL d   1      -0.624  -0.474   2.164  0.00  0.00    -0.097 F 
ATOM      8  F1  UNL d   1      -1.556  -1.421   4.524  0.00  0.00    -0.096 F 
ATOM      9  I   UNL d   1      -4.373  -1.057   5.998  0.00  0.00    -0.060 I 
ATOM     10  F2  UNL d   1      -5.694   0.793   3.746  0.00  0.00    -0.096 F 
ATOM     11  F3  UNL d   1      -4.733   1.726   1.392  0.00  0.00    -0.097 F 
ATOM     12  F4  UNL d   1      -2.201   1.100   0.590  0.00  0.00    -0.092 F 
ENDROOT
TORSDOF 0
ENDMDL
