MODEL 1
REMARK minimizedAffinity 17.9812164
REMARK minimizedRMSD -1
REMARK  0 active torsions:
REMARK  status: ('A' for Active; 'I' for Inactive)
ROOT
ATOM      1  C   UNL d   1      -2.181  -1.347   0.869  0.00  0.00     0.124 A 
ATOM      2  C1  UNL d   1      -3.295  -1.881   0.236  0.00  0.00     0.062 A 
ATOM      3  C2  UNL d   1      -4.386  -1.070  -0.062  0.00  0.00     0.162 A 
ATOM      4  C3  UNL d   1      -4.368   0.284   0.270  0.00  0.00    -0.034 A 
ATOM      5  C4  UNL d   1      -3.245   0.814   0.907  0.00  0.00     0.162 A 
ATOM      6  C5  UNL d   1      -2.157  -0.001   1.204  0.00  0.00     0.062 A 
ATOM      7  F   UNL d   1      -1.081   0.517   1.815  0.00  0.00    -0.097 F 
ATOM      8  F1  UNL d   1      -3.194   2.112   1.241  0.00  0.00    -0.096 F 
ATOM      9  I   UNL d   1      -5.998   1.500  -0.174  0.00  0.00    -0.060 I 
ATOM     10  F2  UNL d   1      -5.450  -1.613  -0.674  0.00  0.00    -0.096 F 
ATOM     11  F3  UNL d   1      -3.322  -3.182  -0.088  0.00  0.00    -0.097 F 
ATOM     12  F4  UNL d   1      -1.133  -2.130   1.156  0.00  0.00    -0.092 F 
ENDROOT
TORSDOF 0
ENDMDL
