MODEL 1
REMARK minimizedAffinity 11.2485085
REMARK minimizedRMSD -1
REMARK  0 active torsions:
REMARK  status: ('A' for Active; 'I' for Inactive)
ROOT
ATOM      1  C   UNL d   1      -0.976   1.612   2.670  0.00  0.00     0.124 A 
ATOM      2  C1  UNL d   1      -0.536   0.340   2.330  0.00  0.00     0.062 A 
ATOM      3  C2  UNL d   1      -1.400  -0.557   1.709  0.00  0.00     0.162 A 
ATOM      4  C3  UNL d   1      -2.713  -0.185   1.422  0.00  0.00    -0.034 A 
ATOM      5  C4  UNL d   1      -3.149   1.096   1.768  0.00  0.00     0.162 A 
ATOM      6  C5  UNL d   1      -2.282   1.988   2.389  0.00  0.00     0.062 A 
ATOM      7  F   UNL d   1      -2.709   3.216   2.717  0.00  0.00    -0.097 F 
ATOM      8  F1  UNL d   1      -4.405   1.486   1.506  0.00  0.00    -0.096 F 
ATOM      9  I   UNL d   1      -4.008  -1.523   0.493  0.00  0.00    -0.060 I 
ATOM     10  F2  UNL d   1      -0.947  -1.779   1.392  0.00  0.00    -0.096 F 
ATOM     11  F3  UNL d   1       0.725  -0.026   2.602  0.00  0.00    -0.097 F 
ATOM     12  F4  UNL d   1      -0.143   2.472   3.269  0.00  0.00    -0.092 F 
ENDROOT
TORSDOF 0
ENDMDL
