MODEL 1
REMARK minimizedAffinity 15.2310781
REMARK minimizedRMSD -1
REMARK  0 active torsions:
REMARK  status: ('A' for Active; 'I' for Inactive)
ROOT
ATOM      1  C   UNL d   1       4.203  -5.960   2.837  0.00  0.00     0.124 A 
ATOM      2  C1  UNL d   1       3.029  -5.957   3.577  0.00  0.00     0.062 A 
ATOM      3  C2  UNL d   1       1.795  -5.967   2.933  0.00  0.00     0.162 A 
ATOM      4  C3  UNL d   1       1.729  -5.983   1.540  0.00  0.00    -0.034 A 
ATOM      5  C4  UNL d   1       2.914  -5.985   0.802  0.00  0.00     0.162 A 
ATOM      6  C5  UNL d   1       4.144  -5.974   1.450  0.00  0.00     0.062 A 
ATOM      7  F   UNL d   1       5.277  -5.978   0.733  0.00  0.00    -0.097 F 
ATOM      8  F1  UNL d   1       2.886  -6.000  -0.539  0.00  0.00    -0.096 F 
ATOM      9  I   UNL d   1      -0.114  -5.999   0.573  0.00  0.00    -0.060 I 
ATOM     10  F2  UNL d   1       0.677  -5.964   3.674  0.00  0.00    -0.096 F 
ATOM     11  F3  UNL d   1       3.083  -5.942   4.917  0.00  0.00    -0.097 F 
ATOM     12  F4  UNL d   1       5.389  -5.949   3.459  0.00  0.00    -0.092 F 
ENDROOT
TORSDOF 0
ENDMDL
