MODEL 1
REMARK minimizedAffinity 14.1025743
REMARK minimizedRMSD -1
REMARK  0 active torsions:
REMARK  status: ('A' for Active; 'I' for Inactive)
ROOT
ATOM      1  C   UNL d   1      -2.067   1.837   2.517  0.00  0.00     0.124 A 
ATOM      2  C1  UNL d   1      -0.833   1.347   2.924  0.00  0.00     0.062 A 
ATOM      3  C2  UNL d   1      -0.449   0.052   2.589  0.00  0.00     0.162 A 
ATOM      4  C3  UNL d   1      -1.300  -0.763   1.842  0.00  0.00    -0.034 A 
ATOM      5  C4  UNL d   1      -2.539  -0.263   1.438  0.00  0.00     0.162 A 
ATOM      6  C5  UNL d   1      -2.918   1.032   1.775  0.00  0.00     0.062 A 
ATOM      7  F   UNL d   1      -4.110   1.503   1.382  0.00  0.00    -0.097 F 
ATOM      8  F1  UNL d   1      -3.382  -1.020   0.718  0.00  0.00    -0.096 F 
ATOM      9  I   UNL d   1      -0.730  -2.700   1.339  0.00  0.00    -0.060 I 
ATOM     10  F2  UNL d   1       0.748  -0.395   2.995  0.00  0.00    -0.096 F 
ATOM     11  F3  UNL d   1      -0.009   2.124   3.642  0.00  0.00    -0.097 F 
ATOM     12  F4  UNL d   1      -2.434   3.084   2.842  0.00  0.00    -0.092 F 
ENDROOT
TORSDOF 0
ENDMDL
