MODEL 1
REMARK minimizedAffinity 14.4375038
REMARK minimizedRMSD -1
REMARK  0 active torsions:
REMARK  status: ('A' for Active; 'I' for Inactive)
ROOT
ATOM      1  C   UNL d   1      -0.427   2.410   2.992  0.00  0.00     0.124 A 
ATOM      2  C1  UNL d   1      -0.010   1.538   1.996  0.00  0.00     0.062 A 
ATOM      3  C2  UNL d   1      -0.909   0.636   1.435  0.00  0.00     0.162 A 
ATOM      4  C3  UNL d   1      -2.235   0.601   1.868  0.00  0.00    -0.034 A 
ATOM      5  C4  UNL d   1      -2.646   1.481   2.871  0.00  0.00     0.162 A 
ATOM      6  C5  UNL d   1      -1.744   2.381   3.429  0.00  0.00     0.062 A 
ATOM      7  F   UNL d   1      -2.148   3.223   4.391  0.00  0.00    -0.097 F 
ATOM      8  F1  UNL d   1      -3.913   1.475   3.311  0.00  0.00    -0.096 F 
ATOM      9  I   UNL d   1      -3.582  -0.746   1.032  0.00  0.00    -0.060 I 
ATOM     10  F2  UNL d   1      -0.480  -0.196   0.474  0.00  0.00    -0.096 F 
ATOM     11  F3  UNL d   1       1.262   1.563   1.573  0.00  0.00    -0.097 F 
ATOM     12  F4  UNL d   1       0.441   3.277   3.531  0.00  0.00    -0.092 F 
ENDROOT
TORSDOF 0
ENDMDL
