MODEL 1
REMARK minimizedAffinity 17.1968994
REMARK minimizedRMSD -1
REMARK  0 active torsions:
REMARK  status: ('A' for Active; 'I' for Inactive)
ROOT
ATOM      1  C   UNL d   1      -4.110  -0.428   0.703  0.00  0.00     0.124 A 
ATOM      2  C1  UNL d   1      -4.002   0.829   1.282  0.00  0.00     0.062 A 
ATOM      3  C2  UNL d   1      -2.766   1.291   1.725  0.00  0.00     0.162 A 
ATOM      4  C3  UNL d   1      -1.628   0.496   1.591  0.00  0.00    -0.034 A 
ATOM      5  C4  UNL d   1      -1.745  -0.768   1.009  0.00  0.00     0.162 A 
ATOM      6  C5  UNL d   1      -2.982  -1.225   0.568  0.00  0.00     0.062 A 
ATOM      7  F   UNL d   1      -3.085  -2.440   0.009  0.00  0.00    -0.097 F 
ATOM      8  F1  UNL d   1      -0.671  -1.559   0.865  0.00  0.00    -0.096 F 
ATOM      9  I   UNL d   1       0.222   1.183   2.253  0.00  0.00    -0.060 I 
ATOM     10  F2  UNL d   1      -2.691   2.510   2.280  0.00  0.00    -0.096 F 
ATOM     11  F3  UNL d   1      -5.090   1.600   1.414  0.00  0.00    -0.097 F 
ATOM     12  F4  UNL d   1      -5.301  -0.871   0.278  0.00  0.00    -0.092 F 
ENDROOT
TORSDOF 0
ENDMDL
