MODEL 1
REMARK minimizedAffinity 8.38364792
REMARK minimizedRMSD -1
REMARK  0 active torsions:
REMARK  status: ('A' for Active; 'I' for Inactive)
ROOT
ATOM      1  C   UNL d   1      -1.982   0.341   1.781  0.00  0.00     0.124 A 
ATOM      2  C1  UNL d   1      -3.172   0.719   1.175  0.00  0.00     0.062 A 
ATOM      3  C2  UNL d   1      -4.313   0.930   1.943  0.00  0.00     0.162 A 
ATOM      4  C3  UNL d   1      -4.271   0.764   3.327  0.00  0.00    -0.034 A 
ATOM      5  C4  UNL d   1      -3.071   0.382   3.930  0.00  0.00     0.162 A 
ATOM      6  C5  UNL d   1      -1.933   0.172   3.158  0.00  0.00     0.062 A 
ATOM      7  F   UNL d   1      -0.784  -0.193   3.746  0.00  0.00    -0.097 F 
ATOM      8  F1  UNL d   1      -2.995   0.213   5.258  0.00  0.00    -0.096 F 
ATOM      9  I   UNL d   1      -5.975   1.078   4.479  0.00  0.00    -0.060 I 
ATOM     10  F2  UNL d   1      -5.449   1.295   1.330  0.00  0.00    -0.096 F 
ATOM     11  F3  UNL d   1      -3.222   0.882  -0.155  0.00  0.00    -0.097 F 
ATOM     12  F4  UNL d   1      -0.886   0.138   1.040  0.00  0.00    -0.092 F 
ENDROOT
TORSDOF 0
ENDMDL
