MODEL 1
REMARK minimizedAffinity 14.0389242
REMARK minimizedRMSD -1
REMARK  0 active torsions:
REMARK  status: ('A' for Active; 'I' for Inactive)
ROOT
ATOM      1  C   UNL d   1      -1.948   1.283   1.845  0.00  0.00     0.124 A 
ATOM      2  C1  UNL d   1      -1.316   1.706   3.006  0.00  0.00     0.062 A 
ATOM      3  C2  UNL d   1       0.052   1.508   3.169  0.00  0.00     0.162 A 
ATOM      4  C3  UNL d   1       0.798   0.885   2.169  0.00  0.00    -0.034 A 
ATOM      5  C4  UNL d   1       0.155   0.462   1.004  0.00  0.00     0.162 A 
ATOM      6  C5  UNL d   1      -1.213   0.662   0.846  0.00  0.00     0.062 A 
ATOM      7  F   UNL d   1      -1.822   0.253  -0.277  0.00  0.00    -0.097 F 
ATOM      8  F1  UNL d   1       0.841  -0.141   0.022  0.00  0.00    -0.096 F 
ATOM      9  I   UNL d   1       2.844   0.587   2.409  0.00  0.00    -0.060 I 
ATOM     10  F2  UNL d   1       0.637   1.926   4.302  0.00  0.00    -0.096 F 
ATOM     11  F3  UNL d   1      -2.024   2.305   3.974  0.00  0.00    -0.097 F 
ATOM     12  F4  UNL d   1      -3.265   1.474   1.691  0.00  0.00    -0.092 F 
ENDROOT
TORSDOF 0
ENDMDL
