MODEL 1
REMARK minimizedAffinity -4.60301971
REMARK minimizedRMSD -1
REMARK  2 active torsions:
REMARK  status: ('A' for Active; 'I' for Inactive)
REMARK    1  A    between atoms: C2'_3  and  C1'_4 
REMARK    2  A    between atoms: C1'_4  and  C1_5 
ROOT
ATOM      1  C1  I4B d   1      -0.858  -0.034   0.438  0.00  0.00    -0.075 A 
ATOM      2  C2  I4B d   1      -2.032  -0.183   1.133  0.00  0.00     0.003 A 
ATOM      3  C3  I4B d   1      -2.157   0.340   2.443  0.00  0.00     0.002 A 
ATOM      4  C4  I4B d   1      -1.074   0.956   3.035  0.00  0.00    -0.004 A 
ATOM      5  C5  I4B d   1       0.109   1.126   2.321  0.00  0.00     0.002 A 
ATOM      6  C6  I4B d   1       0.214   0.639   1.010  0.00  0.00     0.003 A 
ENDROOT
BRANCH   1   7
ATOM      7  C1' I4B d   1      -0.749  -0.627  -0.931  0.00  0.00     0.060 C 
BRANCH   7   8
ATOM      8  C2' I4B d   1       0.722  -0.732  -1.279  0.00  0.00    -0.013 C 
ATOM      9  C4' I4B d   1       1.336  -1.970  -0.681  0.00  0.00     0.013 C 
ATOM     10  C3' I4B d   1       0.845  -0.733  -2.773  0.00  0.00     0.013 C 
ENDBRANCH   7   8
ENDBRANCH   1   7
TORSDOF 2
ENDMDL
