MODEL 1
REMARK minimizedAffinity -0.538690388
REMARK minimizedRMSD -1
REMARK  2 active torsions:
REMARK  status: ('A' for Active; 'I' for Inactive)
REMARK    1  A    between atoms: C2'_3  and  C1'_4 
REMARK    2  A    between atoms: C1'_4  and  C1_5 
ROOT
ATOM      1  C1  I4B d   1       0.210  -0.288  -1.189  0.00  0.00    -0.075 A 
ATOM      2  C2  I4B d   1      -1.058   0.221  -1.055  0.00  0.00     0.003 A 
ATOM      3  C3  I4B d   1      -1.666   0.294   0.221  0.00  0.00     0.002 A 
ATOM      4  C4  I4B d   1      -0.995  -0.197   1.323  0.00  0.00    -0.004 A 
ATOM      5  C5  I4B d   1       0.299  -0.691   1.189  0.00  0.00     0.002 A 
ATOM      6  C6  I4B d   1       0.911  -0.726  -0.072  0.00  0.00     0.003 A 
ENDROOT
BRANCH   1   7
ATOM      7  C1' I4B d   1       0.810  -0.380  -2.556  0.00  0.00     0.060 C 
BRANCH   7   8
ATOM      8  C2' I4B d   1       0.641   0.965  -3.231  0.00  0.00    -0.013 C 
ATOM      9  C4' I4B d   1       1.974   1.559  -3.604  0.00  0.00     0.013 C 
ATOM     10  C3' I4B d   1      -0.222   0.771  -4.442  0.00  0.00     0.013 C 
ENDBRANCH   7   8
ENDBRANCH   1   7
TORSDOF 2
ENDMDL
