MODEL 1
REMARK minimizedAffinity -0.320331752
REMARK minimizedRMSD -1
REMARK  2 active torsions:
REMARK  status: ('A' for Active; 'I' for Inactive)
REMARK    1  A    between atoms: C2'_3  and  C1'_4 
REMARK    2  A    between atoms: C1'_4  and  C1_5 
ROOT
ATOM      1  C1  I4B d   1       0.344   0.435   1.497  0.00  0.00    -0.075 A 
ATOM      2  C2  I4B d   1      -0.538  -0.306   0.752  0.00  0.00     0.003 A 
ATOM      3  C3  I4B d   1      -1.908  -0.355   1.109  0.00  0.00     0.002 A 
ATOM      4  C4  I4B d   1      -2.339   0.308   2.240  0.00  0.00    -0.004 A 
ATOM      5  C5  I4B d   1      -1.447   1.078   2.981  0.00  0.00     0.002 A 
ATOM      6  C6  I4B d   1      -0.099   1.153   2.601  0.00  0.00     0.003 A 
ENDROOT
BRANCH   1   7
ATOM      7  C1' I4B d   1       1.789   0.437   1.111  0.00  0.00     0.060 C 
BRANCH   7   8
ATOM      8  C2' I4B d   1       2.491  -0.635   1.920  0.00  0.00    -0.013 C 
ATOM      9  C4' I4B d   1       3.035  -1.720   1.030  0.00  0.00     0.013 C 
ATOM     10  C3' I4B d   1       3.586   0.021   2.707  0.00  0.00     0.013 C 
ENDBRANCH   7   8
ENDBRANCH   1   7
TORSDOF 2
ENDMDL
