MODEL 1
REMARK minimizedAffinity -4.54128218
REMARK minimizedRMSD -1
REMARK  2 active torsions:
REMARK  status: ('A' for Active; 'I' for Inactive)
REMARK    1  A    between atoms: C2'_3  and  C1'_4 
REMARK    2  A    between atoms: C1'_4  and  C1_5 
ROOT
ATOM      1  C1  I4B d   1       0.653  -0.105  -0.832  0.00  0.00    -0.075 A 
ATOM      2  C2  I4B d   1       0.206   1.078  -0.298  0.00  0.00     0.003 A 
ATOM      3  C3  I4B d   1       0.221   1.278   1.104  0.00  0.00     0.002 A 
ATOM      4  C4  I4B d   1       0.641   0.257   1.932  0.00  0.00    -0.004 A 
ATOM      5  C5  I4B d   1       1.115  -0.933   1.388  0.00  0.00     0.002 A 
ATOM      6  C6  I4B d   1       1.133  -1.111  -0.003  0.00  0.00     0.003 A 
ENDROOT
BRANCH   1   7
ATOM      7  C1' I4B d   1       0.592  -0.295  -2.314  0.00  0.00     0.060 C 
BRANCH   7   8
ATOM      8  C2' I4B d   1       1.065   0.987  -2.969  0.00  0.00    -0.013 C 
ATOM      9  C4' I4B d   1       2.507   0.883  -3.393  0.00  0.00     0.013 C 
ATOM     10  C3' I4B d   1       0.174   1.264  -4.143  0.00  0.00     0.013 C 
ENDBRANCH   7   8
ENDBRANCH   1   7
TORSDOF 2
ENDMDL
