MODEL 1
REMARK minimizedAffinity -3.02671194
REMARK minimizedRMSD -1
REMARK  1 active torsions:
REMARK  status: ('A' for Active; 'I' for Inactive)
REMARK    1  A    between atoms: C1_2  and  C2_3 
ROOT
ATOM      1  C2  UNL d   1       0.590   0.539  -0.578  0.00  0.00    -0.073 A 
ATOM      2  C3  UNL d   1      -0.395   1.085   0.253  0.00  0.00    -0.002 A 
ATOM      3  C4  UNL d   1      -1.136   0.263   1.103  0.00  0.00     0.004 A 
ATOM      4  C5  UNL d   1      -0.895  -1.111   1.136  0.00  0.00    -0.004 A 
ATOM      5  C6  UNL d   1       0.094  -1.674   0.322  0.00  0.00    -0.075 A 
ATOM      6  C7  UNL d   1       0.364  -3.149   0.345  0.00  0.00     0.076 C 
ATOM      7  C8  UNL d   1       0.832  -0.841  -0.530  0.00  0.00     0.001 A 
ENDROOT
BRANCH   1   8
ATOM      8  C1  UNL d   1       1.397   1.424  -1.492  0.00  0.00     0.053 C 
ATOM      9  C   UNL d   1       2.365   2.308  -0.722  0.00  0.00     0.018 C 
ENDBRANCH   1   8
TORSDOF 1
ENDMDL
