MODEL 1
REMARK minimizedAffinity -4.97904587
REMARK minimizedRMSD -1
REMARK  1 active torsions:
REMARK  status: ('A' for Active; 'I' for Inactive)
REMARK    1  A    between atoms: C1_2  and  C2_3 
ROOT
ATOM      1  C2  UNL d   1       0.807  -1.626  -0.630  0.00  0.00    -0.073 A 
ATOM      2  C3  UNL d   1       1.021  -1.858  -1.994  0.00  0.00    -0.002 A 
ATOM      3  C4  UNL d   1       1.037  -0.793  -2.895  0.00  0.00     0.004 A 
ATOM      4  C5  UNL d   1       0.847   0.513  -2.443  0.00  0.00    -0.004 A 
ATOM      5  C6  UNL d   1       0.643   0.766  -1.083  0.00  0.00    -0.075 A 
ATOM      6  C7  UNL d   1       0.434   2.164  -0.581  0.00  0.00     0.076 C 
ATOM      7  C8  UNL d   1       0.625  -0.309  -0.184  0.00  0.00     0.001 A 
ENDROOT
BRANCH   1   8
ATOM      8  C1  UNL d   1       0.795  -2.772   0.348  0.00  0.00     0.053 C 
ATOM      9  C   UNL d   1      -0.603  -3.337   0.548  0.00  0.00     0.018 C 
ENDBRANCH   1   8
TORSDOF 1
ENDMDL
