MODEL 1
REMARK minimizedAffinity -2.38233948
REMARK minimizedRMSD -1
REMARK  1 active torsions:
REMARK  status: ('A' for Active; 'I' for Inactive)
REMARK    1  A    between atoms: C1_2  and  C2_3 
ROOT
ATOM      1  C2  UNL d   1      -0.121   0.881  -0.165  0.00  0.00    -0.073 A 
ATOM      2  C3  UNL d   1      -0.037   0.739  -1.555  0.00  0.00    -0.002 A 
ATOM      3  C4  UNL d   1      -0.011  -0.531  -2.133  0.00  0.00     0.004 A 
ATOM      4  C5  UNL d   1      -0.075  -1.669  -1.330  0.00  0.00    -0.004 A 
ATOM      5  C6  UNL d   1      -0.171  -1.548   0.060  0.00  0.00    -0.075 A 
ATOM      6  C7  UNL d   1      -0.238  -2.763   0.938  0.00  0.00     0.076 C 
ATOM      7  C8  UNL d   1      -0.194  -0.270   0.633  0.00  0.00     0.001 A 
ENDROOT
BRANCH   1   8
ATOM      8  C1  UNL d   1      -0.156   2.250   0.464  0.00  0.00     0.053 C 
ATOM      9  C   UNL d   1       1.175   2.973   0.331  0.00  0.00     0.018 C 
ENDBRANCH   1   8
TORSDOF 1
ENDMDL
