MODEL 1
REMARK minimizedAffinity -1.93895221
REMARK minimizedRMSD -1
REMARK  1 active torsions:
REMARK  status: ('A' for Active; 'I' for Inactive)
REMARK    1  A    between atoms: C1_2  and  C2_3 
ROOT
ATOM      1  C2  UNL d   1      -0.124   0.311  -0.283  0.00  0.00    -0.073 A 
ATOM      2  C3  UNL d   1      -1.167   0.522   0.625  0.00  0.00    -0.002 A 
ATOM      3  C4  UNL d   1      -1.701  -0.547   1.346  0.00  0.00     0.004 A 
ATOM      4  C5  UNL d   1      -1.192  -1.834   1.173  0.00  0.00    -0.004 A 
ATOM      5  C6  UNL d   1      -0.142  -2.063   0.279  0.00  0.00    -0.075 A 
ATOM      6  C7  UNL d   1       0.415  -3.442   0.079  0.00  0.00     0.076 C 
ATOM      7  C8  UNL d   1       0.387  -0.985  -0.444  0.00  0.00     0.001 A 
ENDROOT
BRANCH   1   8
ATOM      8  C1  UNL d   1       0.460   1.463  -1.060  0.00  0.00     0.053 C 
ATOM      9  C   UNL d   1       1.090   2.504  -0.148  0.00  0.00     0.018 C 
ENDBRANCH   1   8
TORSDOF 1
ENDMDL
