MODEL 1
REMARK minimizedAffinity -3.79718637
REMARK minimizedRMSD -1
REMARK  1 active torsions:
REMARK  status: ('A' for Active; 'I' for Inactive)
REMARK    1  A    between atoms: C1_2  and  C2_3 
ROOT
ATOM      1  C2  UNL d   1      -0.555  -2.025   0.385  0.00  0.00    -0.073 A 
ATOM      2  C3  UNL d   1      -0.624  -3.282  -0.227  0.00  0.00    -0.002 A 
ATOM      3  C4  UNL d   1      -0.386  -3.413  -1.595  0.00  0.00     0.004 A 
ATOM      4  C5  UNL d   1      -0.072  -2.293  -2.364  0.00  0.00    -0.004 A 
ATOM      5  C6  UNL d   1       0.014  -1.030  -1.768  0.00  0.00    -0.075 A 
ATOM      6  C7  UNL d   1       0.349   0.186  -2.581  0.00  0.00     0.076 C 
ATOM      7  C8  UNL d   1      -0.229  -0.906  -0.394  0.00  0.00     0.001 A 
ENDROOT
BRANCH   1   8
ATOM      8  C1  UNL d   1      -0.804  -1.879   1.864  0.00  0.00     0.053 C 
ATOM      9  C   UNL d   1      -1.180  -0.455   2.242  0.00  0.00     0.018 C 
ENDBRANCH   1   8
TORSDOF 1
ENDMDL
