MODEL 1
REMARK minimizedAffinity -4.48347473
REMARK minimizedRMSD -1
REMARK  1 active torsions:
REMARK  status: ('A' for Active; 'I' for Inactive)
REMARK    1  A    between atoms: C1_2  and  C2_3 
ROOT
ATOM      1  C2  UNL d   1       0.830   0.660   0.391  0.00  0.00    -0.073 A 
ATOM      2  C3  UNL d   1      -0.504   0.969   0.104  0.00  0.00    -0.002 A 
ATOM      3  C4  UNL d   1      -1.446  -0.049  -0.049  0.00  0.00     0.004 A 
ATOM      4  C5  UNL d   1      -1.067  -1.384   0.091  0.00  0.00    -0.004 A 
ATOM      5  C6  UNL d   1       0.260  -1.712   0.390  0.00  0.00    -0.075 A 
ATOM      6  C7  UNL d   1       0.685  -3.143   0.542  0.00  0.00     0.076 C 
ATOM      7  C8  UNL d   1       1.200  -0.684   0.539  0.00  0.00     0.001 A 
ENDROOT
BRANCH   1   8
ATOM      8  C1  UNL d   1       1.850   1.756   0.563  0.00  0.00     0.053 C 
ATOM      9  C   UNL d   1       1.201   3.128   0.664  0.00  0.00     0.018 C 
ENDBRANCH   1   8
TORSDOF 1
ENDMDL
