MODEL 1
REMARK minimizedAffinity -3.83186316
REMARK minimizedRMSD -1
REMARK  1 active torsions:
REMARK  status: ('A' for Active; 'I' for Inactive)
REMARK    1  A    between atoms: C1_2  and  C2_3 
ROOT
ATOM      1  C2  UNL d   1      -0.160   0.230  -0.016  0.00  0.00    -0.073 A 
ATOM      2  C3  UNL d   1      -0.961   0.482   1.104  0.00  0.00    -0.002 A 
ATOM      3  C4  UNL d   1      -1.487  -0.575   1.846  0.00  0.00     0.004 A 
ATOM      4  C5  UNL d   1      -1.212  -1.894   1.483  0.00  0.00    -0.004 A 
ATOM      5  C6  UNL d   1      -0.403  -2.166   0.375  0.00  0.00    -0.075 A 
ATOM      6  C7  UNL d   1      -0.100  -3.578  -0.030  0.00  0.00     0.076 C 
ATOM      7  C8  UNL d   1       0.119  -1.098  -0.368  0.00  0.00     0.001 A 
ENDROOT
BRANCH   1   8
ATOM      8  C1  UNL d   1       0.416   1.369  -0.817  0.00  0.00     0.053 C 
ATOM      9  C   UNL d   1       0.877   2.514   0.070  0.00  0.00     0.018 C 
ENDBRANCH   1   8
TORSDOF 1
ENDMDL
