MODEL 1
REMARK minimizedAffinity -3.86268854
REMARK minimizedRMSD -1
REMARK  1 active torsions:
REMARK  status: ('A' for Active; 'I' for Inactive)
REMARK    1  A    between atoms: C1_2  and  C2_3 
ROOT
ATOM      1  C2  UNL d   1      -0.324   0.572  -0.173  0.00  0.00    -0.073 A 
ATOM      2  C3  UNL d   1      -1.554   0.444   0.481  0.00  0.00    -0.002 A 
ATOM      3  C4  UNL d   1      -1.934  -0.780   1.034  0.00  0.00     0.004 A 
ATOM      4  C5  UNL d   1      -1.087  -1.884   0.945  0.00  0.00    -0.004 A 
ATOM      5  C6  UNL d   1       0.152  -1.772   0.306  0.00  0.00    -0.075 A 
ATOM      6  C7  UNL d   1       1.074  -2.951   0.199  0.00  0.00     0.076 C 
ATOM      7  C8  UNL d   1       0.525  -0.541  -0.249  0.00  0.00     0.001 A 
ENDROOT
BRANCH   1   8
ATOM      8  C1  UNL d   1       0.094   1.893  -0.765  0.00  0.00     0.053 C 
ATOM      9  C   UNL d   1       1.276   2.501  -0.027  0.00  0.00     0.018 C 
ENDBRANCH   1   8
TORSDOF 1
ENDMDL
