MODEL 1
REMARK minimizedAffinity 1.73182178
REMARK minimizedRMSD -1
REMARK  2 active torsions:
REMARK  status: ('A' for Active; 'I' for Inactive)
REMARK    1  A    between atoms: C1_2  and  C2_3 
REMARK    2  A    between atoms: C2_3  and  C3_4 
ROOT
ATOM      1  C3  UNL d   1      -0.126  -0.209   1.087  0.00  0.00    -0.075 A 
ATOM      2  C4  UNL d   1      -1.151   0.434   1.796  0.00  0.00     0.002 A 
ATOM      3  C5  UNL d   1      -2.441   0.502   1.269  0.00  0.00     0.002 A 
ATOM      4  C6  UNL d   1      -2.720  -0.061   0.026  0.00  0.00    -0.004 A 
ATOM      5  C7  UNL d   1      -1.706  -0.688  -0.694  0.00  0.00     0.002 A 
ATOM      6  C8  UNL d   1      -0.415  -0.762  -0.168  0.00  0.00     0.002 A 
ENDROOT
BRANCH   1   7
ATOM      7  C2  UNL d   1       1.266  -0.312   1.664  0.00  0.00     0.056 C 
BRANCH   7   8
ATOM      8  C1  UNL d   1       2.360  -0.544   0.617  0.00  0.00     0.007 C 
ATOM      9  C   UNL d   1       2.660   0.691  -0.222  0.00  0.00     0.009 C 
ENDBRANCH   7   8
ENDBRANCH   1   7
TORSDOF 2
ENDMDL
