MODEL 1
REMARK minimizedAffinity -3.18870449
REMARK minimizedRMSD -1
REMARK  2 active torsions:
REMARK  status: ('A' for Active; 'I' for Inactive)
REMARK    1  A    between atoms: C1_2  and  C2_3 
REMARK    2  A    between atoms: C2_3  and  C3_4 
ROOT
ATOM      1  C3  UNL d   1      -0.154  -0.327   4.067  0.00  0.00    -0.075 A 
ATOM      2  C4  UNL d   1       0.120  -1.503   4.780  0.00  0.00     0.002 A 
ATOM      3  C5  UNL d   1      -0.894  -2.424   5.046  0.00  0.00     0.002 A 
ATOM      4  C6  UNL d   1      -2.194  -2.177   4.612  0.00  0.00    -0.004 A 
ATOM      5  C7  UNL d   1      -2.482  -1.004   3.917  0.00  0.00     0.002 A 
ATOM      6  C8  UNL d   1      -1.468  -0.083   3.646  0.00  0.00     0.002 A 
ENDROOT
BRANCH   1   7
ATOM      7  C2  UNL d   1       0.945   0.659   3.751  0.00  0.00     0.056 C 
BRANCH   7   8
ATOM      8  C1  UNL d   1       1.053   1.017   2.265  0.00  0.00     0.007 C 
ATOM      9  C   UNL d   1       1.212  -0.200   1.364  0.00  0.00     0.009 C 
ENDBRANCH   7   8
ENDBRANCH   1   7
TORSDOF 2
ENDMDL
