MODEL 1
REMARK minimizedAffinity -5.77347088
REMARK minimizedRMSD -1
REMARK  2 active torsions:
REMARK  status: ('A' for Active; 'I' for Inactive)
REMARK    1  A    between atoms: C1_2  and  C2_3 
REMARK    2  A    between atoms: C2_3  and  C3_4 
ROOT
ATOM      1  C3  UNL d   1       0.390  -0.260   0.102  0.00  0.00    -0.075 A 
ATOM      2  C4  UNL d   1       0.584   0.625   1.173  0.00  0.00     0.002 A 
ATOM      3  C5  UNL d   1      -0.507   1.145   1.869  0.00  0.00     0.002 A 
ATOM      4  C6  UNL d   1      -1.804   0.796   1.499  0.00  0.00    -0.004 A 
ATOM      5  C7  UNL d   1      -2.009  -0.070   0.427  0.00  0.00     0.002 A 
ATOM      6  C8  UNL d   1      -0.919  -0.595  -0.269  0.00  0.00     0.002 A 
ENDROOT
BRANCH   1   7
ATOM      7  C2  UNL d   1       1.568  -0.850  -0.636  0.00  0.00     0.056 C 
BRANCH   7   8
ATOM      8  C1  UNL d   1       2.346   0.165  -1.480  0.00  0.00     0.007 C 
ATOM      9  C   UNL d   1       1.651   0.518  -2.788  0.00  0.00     0.009 C 
ENDBRANCH   7   8
ENDBRANCH   1   7
TORSDOF 2
ENDMDL
