MODEL 1
REMARK minimizedAffinity -4.11984634
REMARK minimizedRMSD -1
REMARK  2 active torsions:
REMARK  status: ('A' for Active; 'I' for Inactive)
REMARK    1  A    between atoms: C1_2  and  C2_3 
REMARK    2  A    between atoms: C2_3  and  C3_4 
ROOT
ATOM      1  C3  UNL d   1      -0.623  -0.150   0.010  0.00  0.00    -0.075 A 
ATOM      2  C4  UNL d   1      -1.793  -0.883  -0.235  0.00  0.00     0.002 A 
ATOM      3  C5  UNL d   1      -2.950  -0.638   0.505  0.00  0.00     0.002 A 
ATOM      4  C6  UNL d   1      -2.950   0.333   1.503  0.00  0.00    -0.004 A 
ATOM      5  C7  UNL d   1      -1.788   1.056   1.766  0.00  0.00     0.002 A 
ATOM      6  C8  UNL d   1      -0.630   0.816   1.025  0.00  0.00     0.002 A 
ENDROOT
BRANCH   1   7
ATOM      7  C2  UNL d   1       0.625  -0.390  -0.807  0.00  0.00     0.056 C 
BRANCH   7   8
ATOM      8  C1  UNL d   1       1.929  -0.141  -0.042  0.00  0.00     0.007 C 
ATOM      9  C   UNL d   1       2.293  -1.274   0.908  0.00  0.00     0.009 C 
ENDBRANCH   7   8
ENDBRANCH   1   7
TORSDOF 2
ENDMDL
