MODEL 1
REMARK minimizedAffinity 6.51014948
REMARK minimizedRMSD -1
REMARK  2 active torsions:
REMARK  status: ('A' for Active; 'I' for Inactive)
REMARK    1  A    between atoms: C2'_3  and  C1'_4 
REMARK    2  A    between atoms: C1'_4  and  C1_5 
ROOT
ATOM      1  C1  I4B d   1       0.617  -1.494   0.347  0.00  0.00    -0.075 A 
ATOM      2  C2  I4B d   1      -0.497  -1.684   1.126  0.00  0.00     0.003 A 
ATOM      3  C3  I4B d   1      -0.919  -0.674   2.025  0.00  0.00     0.002 A 
ATOM      4  C4  I4B d   1      -0.174   0.481   2.148  0.00  0.00    -0.004 A 
ATOM      5  C5  I4B d   1       0.942   0.681   1.341  0.00  0.00     0.002 A 
ATOM      6  C6  I4B d   1       1.334  -0.306   0.426  0.00  0.00     0.003 A 
ENDROOT
BRANCH   1   7
ATOM      7  C1' I4B d   1       1.053  -2.594  -0.567  0.00  0.00     0.060 C 
BRANCH   7   8
ATOM      8  C2' I4B d   1       0.126  -3.773  -0.355  0.00  0.00    -0.013 C 
ATOM      9  C4' I4B d   1      -0.702  -4.043  -1.583  0.00  0.00     0.013 C 
ATOM     10  C3' I4B d   1       0.964  -4.963   0.006  0.00  0.00     0.013 C 
ENDBRANCH   7   8
ENDBRANCH   1   7
TORSDOF 2
ENDMDL
