MODEL 1
REMARK minimizedAffinity 5.64152336
REMARK minimizedRMSD -1
REMARK  2 active torsions:
REMARK  status: ('A' for Active; 'I' for Inactive)
REMARK    1  A    between atoms: C2'_3  and  C1'_4 
REMARK    2  A    between atoms: C1'_4  and  C1_5 
ROOT
ATOM      1  C1  I4B d   1      -0.460  -2.674  -0.685  0.00  0.00    -0.075 A 
ATOM      2  C2  I4B d   1       0.858  -2.889  -0.367  0.00  0.00     0.003 A 
ATOM      3  C3  I4B d   1       1.391  -4.201  -0.387  0.00  0.00     0.002 A 
ATOM      4  C4  I4B d   1       0.564  -5.266  -0.680  0.00  0.00    -0.004 A 
ATOM      5  C5  I4B d   1      -0.766  -5.043  -1.024  0.00  0.00     0.002 A 
ATOM      6  C6  I4B d   1      -1.279  -3.738  -1.039  0.00  0.00     0.003 A 
ENDROOT
BRANCH   1   7
ATOM      7  C1' I4B d   1      -0.998  -1.279  -0.622  0.00  0.00     0.060 C 
BRANCH   7   8
ATOM      8  C2' I4B d   1       0.154  -0.348  -0.303  0.00  0.00    -0.013 C 
ATOM      9  C4' I4B d   1       0.086   0.908  -1.131  0.00  0.00     0.013 C 
ATOM     10  C3' I4B d   1       0.104  -0.034   1.163  0.00  0.00     0.013 C 
ENDBRANCH   7   8
ENDBRANCH   1   7
TORSDOF 2
ENDMDL
