MODEL 1
REMARK minimizedAffinity -3.41561103
REMARK minimizedRMSD -1
REMARK  2 active torsions:
REMARK  status: ('A' for Active; 'I' for Inactive)
REMARK    1  A    between atoms: C2'_3  and  C1'_4 
REMARK    2  A    between atoms: C1'_4  and  C1_5 
ROOT
ATOM      1  C1  I4B d   1       0.148   0.232  -0.113  0.00  0.00    -0.075 A 
ATOM      2  C2  I4B d   1      -0.134   1.210  -1.034  0.00  0.00     0.003 A 
ATOM      3  C3  I4B d   1      -0.391   2.537  -0.609  0.00  0.00     0.002 A 
ATOM      4  C4  I4B d   1      -0.405   2.828   0.739  0.00  0.00    -0.004 A 
ATOM      5  C5  I4B d   1      -0.095   1.840   1.670  0.00  0.00     0.002 A 
ATOM      6  C6  I4B d   1       0.195   0.537   1.241  0.00  0.00     0.003 A 
ENDROOT
BRANCH   1   7
ATOM      7  C1' I4B d   1       0.382  -1.165  -0.595  0.00  0.00     0.060 C 
BRANCH   7   8
ATOM      8  C2' I4B d   1      -0.952  -1.884  -0.605  0.00  0.00    -0.013 C 
ATOM      9  C4' I4B d   1      -0.846  -3.218  -1.295  0.00  0.00     0.013 C 
ATOM     10  C3' I4B d   1      -1.403  -2.043   0.816  0.00  0.00     0.013 C 
ENDBRANCH   7   8
ENDBRANCH   1   7
TORSDOF 2
ENDMDL
