MODEL 1
REMARK minimizedAffinity 4.70525265
REMARK minimizedRMSD -1
REMARK  1 active torsions:
REMARK  status: ('A' for Active; 'I' for Inactive)
REMARK    1  A    between atoms: C3_4  and  O_7 
ROOT
ATOM      1  C   UNL d   1       5.569   4.902   4.117  0.00  0.00    -0.033 A 
ATOM      2  C1  UNL d   1       4.901   5.981   3.535  0.00  0.00     0.039 A 
ATOM      3  C2  UNL d   1       4.665   5.998   2.159  0.00  0.00    -0.080 A 
ATOM      4  C3  UNL d   1       5.101   4.931   1.378  0.00  0.00     0.150 A 
ATOM      5  C4  UNL d   1       5.764   3.852   1.952  0.00  0.00    -0.007 A 
ATOM      6  C5  UNL d   1       6.000   3.837   3.326  0.00  0.00     0.039 A 
ENDROOT
BRANCH   4   7
ATOM      7  O   UNL d   1       4.897   4.906   0.030  0.00  0.00    -0.526 OA
ATOM      8  H5  UNL d   1       4.453   5.730  -0.230  0.00  0.00     0.418 HD
ENDBRANCH   4   7
TORSDOF 1
ENDMDL
