MODEL 1
REMARK minimizedAffinity 0.800987244
REMARK minimizedRMSD -1
REMARK  1 active torsions:
REMARK  status: ('A' for Active; 'I' for Inactive)
REMARK    1  A    between atoms: C3_4  and  O_7 
ROOT
ATOM      1  C   UNL d   1       4.897   5.854   1.193  0.00  0.00    -0.033 A 
ATOM      2  C1  UNL d   1       3.605   5.948   1.715  0.00  0.00     0.039 A 
ATOM      3  C2  UNL d   1       3.410   5.982   3.098  0.00  0.00    -0.080 A 
ATOM      4  C3  UNL d   1       4.513   5.923   3.945  0.00  0.00     0.150 A 
ATOM      5  C4  UNL d   1       5.803   5.832   3.431  0.00  0.00    -0.007 A 
ATOM      6  C5  UNL d   1       5.995   5.797   2.051  0.00  0.00     0.039 A 
ENDROOT
BRANCH   4   7
ATOM      7  O   UNL d   1       4.373   5.948   5.301  0.00  0.00    -0.526 OA
ATOM      8  H5  UNL d   1       3.425   5.983   5.511  0.00  0.00     0.418 HD
ENDBRANCH   4   7
TORSDOF 1
ENDMDL
