MODEL 1
REMARK minimizedAffinity 1.01869988
REMARK minimizedRMSD -1
REMARK  1 active torsions:
REMARK  status: ('A' for Active; 'I' for Inactive)
REMARK    1  A    between atoms: C3_4  and  O_7 
ROOT
ATOM      1  C   UNL d   1       5.482   4.835   1.318  0.00  0.00    -0.033 A 
ATOM      2  C1  UNL d   1       5.233   6.000   2.046  0.00  0.00     0.039 A 
ATOM      3  C2  UNL d   1       5.364   5.998   3.436  0.00  0.00    -0.080 A 
ATOM      4  C3  UNL d   1       5.746   4.826   4.085  0.00  0.00     0.150 A 
ATOM      5  C4  UNL d   1       5.999   3.663   3.365  0.00  0.00    -0.007 A 
ATOM      6  C5  UNL d   1       5.867   3.667   1.978  0.00  0.00     0.039 A 
ENDROOT
BRANCH   4   7
ATOM      7  O   UNL d   1       5.883   4.775   5.440  0.00  0.00    -0.526 OA
ATOM      8  H5  UNL d   1       5.647   5.643   5.807  0.00  0.00     0.418 HD
ENDBRANCH   4   7
TORSDOF 1
ENDMDL
