MODEL 1
REMARK minimizedAffinity 3.37588787
REMARK minimizedRMSD -1
REMARK  1 active torsions:
REMARK  status: ('A' for Active; 'I' for Inactive)
REMARK    1  A    between atoms: C3_4  and  O_7 
ROOT
ATOM      1  C   UNL d   1       4.859   5.530   4.792  0.00  0.00    -0.033 A 
ATOM      2  C1  UNL d   1       5.991   5.114   4.089  0.00  0.00     0.039 A 
ATOM      3  C2  UNL d   1       5.994   5.134   2.693  0.00  0.00    -0.080 A 
ATOM      4  C3  UNL d   1       4.861   5.572   2.013  0.00  0.00     0.150 A 
ATOM      5  C4  UNL d   1       3.731   5.992   2.708  0.00  0.00    -0.007 A 
ATOM      6  C5  UNL d   1       3.729   5.970   4.102  0.00  0.00     0.039 A 
ENDROOT
BRANCH   4   7
ATOM      7  O   UNL d   1       4.814   5.605   0.651  0.00  0.00    -0.526 OA
ATOM      8  H5  UNL d   1       5.655   5.260   0.306  0.00  0.00     0.418 HD
ENDBRANCH   4   7
TORSDOF 1
ENDMDL
