MODEL 1
REMARK minimizedAffinity 3.84736156
REMARK minimizedRMSD -1
REMARK  1 active torsions:
REMARK  status: ('A' for Active; 'I' for Inactive)
REMARK    1  A    between atoms: C3_4  and  O_7 
ROOT
ATOM      1  C   UNL d   1      -2.380  -0.893  -0.002  0.00  0.00    -0.033 A 
ATOM      2  C1  UNL d   1      -2.819  -1.203   1.287  0.00  0.00     0.039 A 
ATOM      3  C2  UNL d   1      -2.410  -0.425   2.371  0.00  0.00    -0.080 A 
ATOM      4  C3  UNL d   1      -1.563   0.659   2.154  0.00  0.00     0.150 A 
ATOM      5  C4  UNL d   1      -1.125   0.975   0.872  0.00  0.00    -0.007 A 
ATOM      6  C5  UNL d   1      -1.534   0.197  -0.210  0.00  0.00     0.039 A 
ENDROOT
BRANCH   4   7
ATOM      7  O   UNL d   1      -1.133   1.444   3.182  0.00  0.00    -0.526 OA
ATOM      8  H5  UNL d   1      -1.493   1.090   4.012  0.00  0.00     0.418 HD
ENDBRANCH   4   7
TORSDOF 1
ENDMDL
