MODEL 1
REMARK minimizedAffinity 6.45741129
REMARK minimizedRMSD -1
REMARK  1 active torsions:
REMARK  status: ('A' for Active; 'I' for Inactive)
REMARK    1  A    between atoms: C3_4  and  O_7 
ROOT
ATOM      1  C   UNL d   1      -2.190   1.021   3.474  0.00  0.00    -0.033 A 
ATOM      2  C1  UNL d   1      -2.695   0.002   2.664  0.00  0.00     0.039 A 
ATOM      3  C2  UNL d   1      -2.287  -0.101   1.333  0.00  0.00    -0.080 A 
ATOM      4  C3  UNL d   1      -1.375   0.820   0.825  0.00  0.00     0.150 A 
ATOM      5  C4  UNL d   1      -0.865   1.835   1.627  0.00  0.00    -0.007 A 
ATOM      6  C5  UNL d   1      -1.274   1.937   2.956  0.00  0.00     0.039 A 
ENDROOT
BRANCH   4   7
ATOM      7  O   UNL d   1      -0.951   0.763  -0.470  0.00  0.00    -0.526 OA
ATOM      8  H5  UNL d   1      -1.408   0.028  -0.911  0.00  0.00     0.418 HD
ENDBRANCH   4   7
TORSDOF 1
ENDMDL
