MODEL 1
REMARK minimizedAffinity 5.64919472
REMARK minimizedRMSD -1
REMARK  1 active torsions:
REMARK  status: ('A' for Active; 'I' for Inactive)
REMARK    1  A    between atoms: C3_4  and  O_7 
ROOT
ATOM      1  C   UNL d   1      -2.685  -0.586   1.144  0.00  0.00    -0.033 A 
ATOM      2  C1  UNL d   1      -2.952  -0.756   2.504  0.00  0.00     0.039 A 
ATOM      3  C2  UNL d   1      -2.430   0.142   3.438  0.00  0.00    -0.080 A 
ATOM      4  C3  UNL d   1      -1.646   1.205   2.998  0.00  0.00     0.150 A 
ATOM      5  C4  UNL d   1      -1.380   1.383   1.645  0.00  0.00    -0.007 A 
ATOM      6  C5  UNL d   1      -1.901   0.485   0.714  0.00  0.00     0.039 A 
ENDROOT
BRANCH   4   7
ATOM      7  O   UNL d   1      -1.111   2.104   3.872  0.00  0.00    -0.526 OA
ATOM      8  H5  UNL d   1      -1.354   1.839   4.775  0.00  0.00     0.418 HD
ENDBRANCH   4   7
TORSDOF 1
ENDMDL
