MODEL 1
REMARK minimizedAffinity -1.97009099
REMARK minimizedRMSD -1
REMARK  1 active torsions:
REMARK  status: ('A' for Active; 'I' for Inactive)
REMARK    1  A    between atoms: C3_4  and  O_7 
ROOT
ATOM      1  C   UNL d   1       4.937   5.399   1.736  0.00  0.00    -0.033 A 
ATOM      2  C1  UNL d   1       3.876   5.987   2.427  0.00  0.00     0.039 A 
ATOM      3  C2  UNL d   1       3.871   5.999   3.823  0.00  0.00    -0.080 A 
ATOM      4  C3  UNL d   1       4.931   5.421   4.516  0.00  0.00     0.150 A 
ATOM      5  C4  UNL d   1       5.993   4.836   3.834  0.00  0.00    -0.007 A 
ATOM      6  C5  UNL d   1       5.996   4.824   2.440  0.00  0.00     0.039 A 
ENDROOT
BRANCH   4   7
ATOM      7  O   UNL d   1       4.967   5.404   5.878  0.00  0.00    -0.526 OA
ATOM      8  H5  UNL d   1       4.154   5.817   6.213  0.00  0.00     0.418 HD
ENDBRANCH   4   7
TORSDOF 1
ENDMDL
