MODEL 1
REMARK minimizedAffinity -1.4230634
REMARK minimizedRMSD -1
REMARK  1 active torsions:
REMARK  status: ('A' for Active; 'I' for Inactive)
REMARK    1  A    between atoms: C3_4  and  O_7 
ROOT
ATOM      1  C   UNL d   1       4.915   5.427   0.541  0.00  0.00    -0.033 A 
ATOM      2  C1  UNL d   1       5.981   4.833   1.220  0.00  0.00     0.039 A 
ATOM      3  C2  UNL d   1       5.999   4.815   2.615  0.00  0.00    -0.080 A 
ATOM      4  C3  UNL d   1       4.946   5.392   3.320  0.00  0.00     0.150 A 
ATOM      5  C4  UNL d   1       3.879   5.982   2.651  0.00  0.00    -0.007 A 
ATOM      6  C5  UNL d   1       3.863   6.000   1.257  0.00  0.00     0.039 A 
ENDROOT
BRANCH   4   7
ATOM      7  O   UNL d   1       4.922   5.402   4.683  0.00  0.00    -0.526 OA
ATOM      8  H5  UNL d   1       5.737   4.986   5.009  0.00  0.00     0.418 HD
ENDBRANCH   4   7
TORSDOF 1
ENDMDL
