MODEL 1
REMARK minimizedAffinity -1.86226487
REMARK minimizedRMSD -1
REMARK  1 active torsions:
REMARK  status: ('A' for Active; 'I' for Inactive)
REMARK    1  A    between atoms: C3_4  and  O_7 
ROOT
ATOM      1  C   UNL d   1       4.842   5.068   0.420  0.00  0.00    -0.033 A 
ATOM      2  C1  UNL d   1       4.085   6.000   1.131  0.00  0.00     0.039 A 
ATOM      3  C2  UNL d   1       4.103   5.998   2.527  0.00  0.00    -0.080 A 
ATOM      4  C3  UNL d   1       4.884   5.061   3.199  0.00  0.00     0.150 A 
ATOM      5  C4  UNL d   1       5.644   4.132   2.496  0.00  0.00    -0.007 A 
ATOM      6  C5  UNL d   1       5.623   4.134   1.102  0.00  0.00     0.039 A 
ENDROOT
BRANCH   4   7
ATOM      7  O   UNL d   1       4.930   5.017   4.560  0.00  0.00    -0.526 OA
ATOM      8  H5  UNL d   1       4.333   5.699   4.911  0.00  0.00     0.418 HD
ENDBRANCH   4   7
TORSDOF 1
ENDMDL
