MODEL 1
REMARK minimizedAffinity 2.01718831
REMARK minimizedRMSD -1
REMARK  1 active torsions:
REMARK  status: ('A' for Active; 'I' for Inactive)
REMARK    1  A    between atoms: C3_4  and  O_7 
ROOT
ATOM      1  C   UNL d   1       5.087   5.157   5.075  0.00  0.00    -0.033 A 
ATOM      2  C1  UNL d   1       5.976   4.329   4.387  0.00  0.00     0.039 A 
ATOM      3  C2  UNL d   1       5.998   4.334   2.991  0.00  0.00    -0.080 A 
ATOM      4  C3  UNL d   1       5.128   5.170   2.296  0.00  0.00     0.150 A 
ATOM      5  C4  UNL d   1       4.242   6.000   2.976  0.00  0.00    -0.007 A 
ATOM      6  C5  UNL d   1       4.221   5.993   4.370  0.00  0.00     0.039 A 
ENDROOT
BRANCH   4   7
ATOM      7  O   UNL d   1       5.110   5.205   0.933  0.00  0.00    -0.526 OA
ATOM      8  H5  UNL d   1       5.754   4.559   0.600  0.00  0.00     0.418 HD
ENDBRANCH   4   7
TORSDOF 1
ENDMDL
