MODEL 1
REMARK minimizedAffinity 6.53093147
REMARK minimizedRMSD -1
REMARK  1 active torsions:
REMARK  status: ('A' for Active; 'I' for Inactive)
REMARK    1  A    between atoms: C3_4  and  O_7 
ROOT
ATOM      1  C   UNL d   1      -2.558  -0.843   2.915  0.00  0.00    -0.033 A 
ATOM      2  C1  UNL d   1      -2.955  -0.376   4.169  0.00  0.00     0.039 A 
ATOM      3  C2  UNL d   1      -2.480   0.848   4.644  0.00  0.00    -0.080 A 
ATOM      4  C3  UNL d   1      -1.611   1.595   3.855  0.00  0.00     0.150 A 
ATOM      5  C4  UNL d   1      -1.213   1.139   2.602  0.00  0.00    -0.007 A 
ATOM      6  C5  UNL d   1      -1.688  -0.085   2.131  0.00  0.00     0.039 A 
ENDROOT
BRANCH   4   7
ATOM      7  O   UNL d   1      -1.117   2.794   4.277  0.00  0.00    -0.526 OA
ATOM      8  H5  UNL d   1      -1.455   2.968   5.172  0.00  0.00     0.418 HD
ENDBRANCH   4   7
TORSDOF 1
ENDMDL
