MODEL 1
REMARK minimizedAffinity 7.3853364
REMARK minimizedRMSD -1
REMARK  1 active torsions:
REMARK  status: ('A' for Active; 'I' for Inactive)
REMARK    1  A    between atoms: C3_4  and  O_7 
ROOT
ATOM      1  C   UNL d   1       2.268   0.366  -3.293  0.00  0.00    -0.033 A 
ATOM      2  C1  UNL d   1       2.113   0.406  -1.906  0.00  0.00     0.039 A 
ATOM      3  C2  UNL d   1       0.884   0.765  -1.349  0.00  0.00    -0.080 A 
ATOM      4  C3  UNL d   1      -0.181   1.080  -2.188  0.00  0.00     0.150 A 
ATOM      5  C4  UNL d   1      -0.035   1.039  -3.571  0.00  0.00    -0.007 A 
ATOM      6  C5  UNL d   1       1.193   0.681  -4.125  0.00  0.00     0.039 A 
ENDROOT
BRANCH   4   7
ATOM      7  O   UNL d   1      -1.398   1.441  -1.690  0.00  0.00    -0.526 OA
ATOM      8  H5  UNL d   1      -1.342   1.453  -0.720  0.00  0.00     0.418 HD
ENDBRANCH   4   7
TORSDOF 1
ENDMDL
