MODEL 1
REMARK minimizedAffinity 8.4590559
REMARK minimizedRMSD -1
REMARK  1 active torsions:
REMARK  status: ('A' for Active; 'I' for Inactive)
REMARK    1  A    between atoms: C3_4  and  O_7 
ROOT
ATOM      1  C   UNL d   1      -2.318  -0.467   1.685  0.00  0.00    -0.033 A 
ATOM      2  C1  UNL d   1      -2.819  -0.413   2.987  0.00  0.00     0.039 A 
ATOM      3  C2  UNL d   1      -2.452   0.635   3.835  0.00  0.00    -0.080 A 
ATOM      4  C3  UNL d   1      -1.587   1.620   3.368  0.00  0.00     0.150 A 
ATOM      5  C4  UNL d   1      -1.087   1.574   2.071  0.00  0.00    -0.007 A 
ATOM      6  C5  UNL d   1      -1.453   0.527   1.227  0.00  0.00     0.039 A 
ENDROOT
BRANCH   4   7
ATOM      7  O   UNL d   1      -1.197   2.659   4.161  0.00  0.00    -0.526 OA
ATOM      8  H5  UNL d   1      -1.598   2.544   5.038  0.00  0.00     0.418 HD
ENDBRANCH   4   7
TORSDOF 1
ENDMDL
