MODEL 1
REMARK minimizedAffinity 4.85679722
REMARK minimizedRMSD -1
REMARK  1 active torsions:
REMARK  status: ('A' for Active; 'I' for Inactive)
REMARK    1  A    between atoms: C3_4  and  O_7 
ROOT
ATOM      1  C   UNL d   1      -4.222   5.832   2.807  0.00  0.00    -0.033 A 
ATOM      2  C1  UNL d   1      -4.975   5.069   1.911  0.00  0.00     0.039 A 
ATOM      3  C2  UNL d   1      -4.473   3.859   1.429  0.00  0.00    -0.080 A 
ATOM      4  C3  UNL d   1      -3.220   3.423   1.850  0.00  0.00     0.150 A 
ATOM      5  C4  UNL d   1      -2.466   4.175   2.745  0.00  0.00    -0.007 A 
ATOM      6  C5  UNL d   1      -2.969   5.384   3.225  0.00  0.00     0.039 A 
ENDROOT
BRANCH   4   7
ATOM      7  O   UNL d   1      -2.686   2.251   1.403  0.00  0.00    -0.526 OA
ATOM      8  H5  UNL d   1      -3.305   1.853   0.769  0.00  0.00     0.418 HD
ENDBRANCH   4   7
TORSDOF 1
ENDMDL
