MODEL 1
REMARK minimizedAffinity 0.432884485
REMARK minimizedRMSD -1
REMARK  1 active torsions:
REMARK  status: ('A' for Active; 'I' for Inactive)
REMARK    1  A    between atoms: C3_4  and  O_7 
ROOT
ATOM      1  C   UNL d   1       5.118   5.180   0.751  0.00  0.00    -0.033 A 
ATOM      2  C1  UNL d   1       4.219   6.000   1.436  0.00  0.00     0.039 A 
ATOM      3  C2  UNL d   1       4.195   5.999   2.832  0.00  0.00    -0.080 A 
ATOM      4  C3  UNL d   1       5.075   5.177   3.530  0.00  0.00     0.150 A 
ATOM      5  C4  UNL d   1       5.975   4.360   2.854  0.00  0.00    -0.007 A 
ATOM      6  C5  UNL d   1       5.997   4.361   1.460  0.00  0.00     0.039 A 
ENDROOT
BRANCH   4   7
ATOM      7  O   UNL d   1       5.085   5.139   4.893  0.00  0.00    -0.526 OA
ATOM      8  H5  UNL d   1       4.390   5.733   5.222  0.00  0.00     0.418 HD
ENDBRANCH   4   7
TORSDOF 1
ENDMDL
