MODEL 1
REMARK minimizedAffinity -0.551279604
REMARK minimizedRMSD -1
REMARK  1 active torsions:
REMARK  status: ('A' for Active; 'I' for Inactive)
REMARK    1  A    between atoms: C3_4  and  O_7 
ROOT
ATOM      1  C   UNL d   1      -4.872   0.872   2.272  0.00  0.00    -0.033 A 
ATOM      2  C1  UNL d   1      -4.360  -0.098   3.136  0.00  0.00     0.039 A 
ATOM      3  C2  UNL d   1      -3.089   0.061   3.692  0.00  0.00    -0.080 A 
ATOM      4  C3  UNL d   1      -2.341   1.192   3.376  0.00  0.00     0.150 A 
ATOM      5  C4  UNL d   1      -2.846   2.164   2.518  0.00  0.00    -0.007 A 
ATOM      6  C5  UNL d   1      -4.116   2.003   1.963  0.00  0.00     0.039 A 
ENDROOT
BRANCH   4   7
ATOM      7  O   UNL d   1      -1.094   1.388   3.890  0.00  0.00    -0.526 OA
ATOM      8  H5  UNL d   1      -0.865   0.623   4.442  0.00  0.00     0.418 HD
ENDBRANCH   4   7
TORSDOF 1
ENDMDL
