MODEL 1
REMARK minimizedAffinity -2.00923395
REMARK minimizedRMSD -1
REMARK  1 active torsions:
REMARK  status: ('A' for Active; 'I' for Inactive)
REMARK    1  A    between atoms: C3_4  and  O_7 
ROOT
ATOM      1  C   UNL d   1       4.875   5.866   1.084  0.00  0.00    -0.033 A 
ATOM      2  C1  UNL d   1       6.000   5.797   1.908  0.00  0.00     0.039 A 
ATOM      3  C2  UNL d   1       5.853   5.833   3.296  0.00  0.00    -0.080 A 
ATOM      4  C3  UNL d   1       4.579   5.935   3.846  0.00  0.00     0.150 A 
ATOM      5  C4  UNL d   1       3.453   6.000   3.031  0.00  0.00    -0.007 A 
ATOM      6  C5  UNL d   1       3.602   5.965   1.645  0.00  0.00     0.039 A 
ENDROOT
BRANCH   4   7
ATOM      7  O   UNL d   1       4.386   5.978   5.195  0.00  0.00    -0.526 OA
ATOM      8  H5  UNL d   1       5.254   5.953   5.631  0.00  0.00     0.418 HD
ENDBRANCH   4   7
TORSDOF 1
ENDMDL
