MODEL 1
REMARK minimizedAffinity -2.36331797
REMARK minimizedRMSD -1
REMARK  0 active torsions:
REMARK  status: ('A' for Active; 'I' for Inactive)
ROOT
ATOM      1  C1  DEN d   1      -0.159  -1.849  -0.826  0.00  0.00     0.130 A 
ATOM      2  C2  DEN d   1       0.904  -1.436  -1.738  0.00  0.00    -0.031 A 
ATOM      3  C3  DEN d   1       1.192  -0.009  -1.488  0.00  0.00     0.027 A 
ATOM      4  C4  DEN d   1       0.104   1.590   0.219  0.00  0.00     0.027 A 
ATOM      5  C5  DEN d   1      -0.852   1.698   1.205  0.00  0.00    -0.003 A 
ATOM      6  C6  DEN d   1      -1.660   0.650   1.557  0.00  0.00     0.001 A 
ATOM      7  C7  DEN d   1      -1.497  -0.567   0.948  0.00  0.00     0.017 A 
ATOM      8  C8  DEN d   1      -0.541  -0.682  -0.052  0.00  0.00    -0.094 A 
ATOM      9  C9  DEN d   1       0.275   0.386  -0.384  0.00  0.00    -0.072 A 
ENDROOT
TORSDOF 0
ENDMDL
