MODEL 1
REMARK minimizedAffinity -1.47896278
REMARK minimizedRMSD -1
REMARK  0 active torsions:
REMARK  status: ('A' for Active; 'I' for Inactive)
ROOT
ATOM      1  C1  DEN d   1       0.744  -1.391  -0.416  0.00  0.00     0.130 A 
ATOM      2  C2  DEN d   1       0.502  -1.020  -1.808  0.00  0.00    -0.031 A 
ATOM      3  C3  DEN d   1      -0.396   0.152  -1.818  0.00  0.00     0.027 A 
ATOM      4  C4  DEN d   1      -1.425   1.426   0.175  0.00  0.00     0.027 A 
ATOM      5  C5  DEN d   1      -1.518   1.475   1.548  0.00  0.00    -0.003 A 
ATOM      6  C6  DEN d   1      -0.896   0.559   2.355  0.00  0.00     0.001 A 
ATOM      7  C7  DEN d   1      -0.116  -0.419   1.797  0.00  0.00     0.017 A 
ATOM      8  C8  DEN d   1      -0.024  -0.479   0.413  0.00  0.00    -0.094 A 
ATOM      9  C9  DEN d   1      -0.650   0.463  -0.386  0.00  0.00    -0.072 A 
ENDROOT
TORSDOF 0
ENDMDL
