MODEL 1
REMARK minimizedAffinity -4.99831295
REMARK minimizedRMSD -1
REMARK  0 active torsions:
REMARK  status: ('A' for Active; 'I' for Inactive)
ROOT
ATOM      1  C1  DEN d   1      -0.401  -2.011   0.200  0.00  0.00     0.130 A 
ATOM      2  C2  DEN d   1       0.173  -1.818  -1.129  0.00  0.00    -0.031 A 
ATOM      3  C3  DEN d   1       0.184  -0.369  -1.415  0.00  0.00     0.027 A 
ATOM      4  C4  DEN d   1      -0.623   1.583   0.065  0.00  0.00     0.027 A 
ATOM      5  C5  DEN d   1      -1.197   1.914   1.272  0.00  0.00    -0.003 A 
ATOM      6  C6  DEN d   1      -1.574   0.965   2.185  0.00  0.00     0.001 A 
ATOM      7  C7  DEN d   1      -1.341  -0.359   1.924  0.00  0.00     0.017 A 
ATOM      8  C8  DEN d   1      -0.769  -0.701   0.706  0.00  0.00    -0.094 A 
ATOM      9  C9  DEN d   1      -0.383   0.274  -0.199  0.00  0.00    -0.072 A 
ENDROOT
TORSDOF 0
ENDMDL
