MODEL 1
REMARK minimizedAffinity -5.07812452
REMARK minimizedRMSD -1
REMARK  0 active torsions:
REMARK  status: ('A' for Active; 'I' for Inactive)
ROOT
ATOM      1  C1  DEN d   1      -1.065  -0.429  -1.313  0.00  0.00     0.130 A 
ATOM      2  C2  DEN d   1       0.110  -1.288  -1.185  0.00  0.00    -0.031 A 
ATOM      3  C3  DEN d   1       0.692  -1.068   0.154  0.00  0.00     0.027 A 
ATOM      4  C4  DEN d   1      -0.108   0.506   2.034  0.00  0.00     0.027 A 
ATOM      5  C5  DEN d   1      -1.054   1.444   2.386  0.00  0.00    -0.003 A 
ATOM      6  C6  DEN d   1      -2.041   1.844   1.525  0.00  0.00     0.001 A 
ATOM      7  C7  DEN d   1      -2.132   1.272   0.284  0.00  0.00     0.017 A 
ATOM      8  C8  DEN d   1      -1.178   0.332  -0.081  0.00  0.00    -0.094 A 
ATOM      9  C9  DEN d   1      -0.195  -0.069   0.807  0.00  0.00    -0.072 A 
ENDROOT
TORSDOF 0
ENDMDL
