MODEL 1
REMARK minimizedAffinity -4.96673346
REMARK minimizedRMSD -1
REMARK  0 active torsions:
REMARK  status: ('A' for Active; 'I' for Inactive)
ROOT
ATOM      1  C1  DEN d   1      -0.310   0.639  -1.298  0.00  0.00     0.130 A 
ATOM      2  C2  DEN d   1       0.571  -0.525  -1.297  0.00  0.00    -0.031 A 
ATOM      3  C3  DEN d   1       0.526  -1.132   0.049  0.00  0.00     0.027 A 
ATOM      4  C4  DEN d   1      -0.821  -0.388   2.119  0.00  0.00     0.027 A 
ATOM      5  C5  DEN d   1      -1.701   0.553   2.607  0.00  0.00    -0.003 A 
ATOM      6  C6  DEN d   1      -2.150   1.598   1.844  0.00  0.00     0.001 A 
ATOM      7  C7  DEN d   1      -1.754   1.703   0.537  0.00  0.00     0.017 A 
ATOM      8  C8  DEN d   1      -0.861   0.764   0.040  0.00  0.00    -0.094 A 
ATOM      9  C9  DEN d   1      -0.428  -0.293   0.823  0.00  0.00    -0.072 A 
ENDROOT
TORSDOF 0
ENDMDL
