MODEL 1
REMARK minimizedAffinity -4.92239428
REMARK minimizedRMSD -1
REMARK  0 active torsions:
REMARK  status: ('A' for Active; 'I' for Inactive)
ROOT
ATOM      1  C1  DEN d   1       0.577   1.663  -1.125  0.00  0.00     0.130 A 
ATOM      2  C2  DEN d   1       1.585   0.633  -1.362  0.00  0.00    -0.031 A 
ATOM      3  C3  DEN d   1       1.261  -0.527  -0.509  0.00  0.00     0.027 A 
ATOM      4  C4  DEN d   1      -0.694  -0.830   1.145  0.00  0.00     0.027 A 
ATOM      5  C5  DEN d   1      -1.803  -0.226   1.696  0.00  0.00    -0.003 A 
ATOM      6  C6  DEN d   1      -2.173   1.053   1.373  0.00  0.00     0.001 A 
ATOM      7  C7  DEN d   1      -1.454   1.753   0.441  0.00  0.00     0.017 A 
ATOM      8  C8  DEN d   1      -0.331   1.153  -0.113  0.00  0.00    -0.094 A 
ATOM      9  C9  DEN d   1       0.020  -0.145   0.217  0.00  0.00    -0.072 A 
ENDROOT
TORSDOF 0
ENDMDL
