MODEL 1
REMARK minimizedAffinity -5.8708272
REMARK minimizedRMSD -1
REMARK  0 active torsions:
REMARK  status: ('A' for Active; 'I' for Inactive)
ROOT
ATOM      1  C1  DEN d   1       0.209   2.221  -1.374  0.00  0.00     0.130 A 
ATOM      2  C2  DEN d   1       1.244   1.296  -1.828  0.00  0.00    -0.031 A 
ATOM      3  C3  DEN d   1       1.211   0.108  -0.951  0.00  0.00     0.027 A 
ATOM      4  C4  DEN d   1      -0.337  -0.388   1.052  0.00  0.00     0.027 A 
ATOM      5  C5  DEN d   1      -1.365   0.104   1.824  0.00  0.00    -0.003 A 
ATOM      6  C6  DEN d   1      -1.914   1.341   1.608  0.00  0.00     0.001 A 
ATOM      7  C7  DEN d   1      -1.467   2.109   0.565  0.00  0.00     0.017 A 
ATOM      8  C8  DEN d   1      -0.425   1.622  -0.213  0.00  0.00    -0.094 A 
ATOM      9  C9  DEN d   1       0.108   0.365   0.014  0.00  0.00    -0.072 A 
ENDROOT
TORSDOF 0
ENDMDL
