MODEL 1
REMARK minimizedAffinity -5.43544054
REMARK minimizedRMSD -1
REMARK  0 active torsions:
REMARK  status: ('A' for Active; 'I' for Inactive)
ROOT
ATOM      1  C1  DEN d   1       2.673  -3.793   0.116  0.00  0.00     0.130 A 
ATOM      2  C2  DEN d   1       2.609  -5.218  -0.194  0.00  0.00    -0.031 A 
ATOM      3  C3  DEN d   1       1.533  -5.422  -1.185  0.00  0.00     0.027 A 
ATOM      4  C4  DEN d   1      -0.027  -3.677  -2.268  0.00  0.00     0.027 A 
ATOM      5  C5  DEN d   1      -0.359  -2.341  -2.311  0.00  0.00    -0.003 A 
ATOM      6  C6  DEN d   1       0.269  -1.407  -1.529  0.00  0.00     0.001 A 
ATOM      7  C7  DEN d   1       1.293  -1.791  -0.703  0.00  0.00     0.017 A 
ATOM      8  C8  DEN d   1       1.628  -3.138  -0.649  0.00  0.00    -0.094 A 
ATOM      9  C9  DEN d   1       0.989  -4.064  -1.457  0.00  0.00    -0.072 A 
ENDROOT
TORSDOF 0
ENDMDL
