MODEL 1
REMARK minimizedAffinity -4.27772951
REMARK minimizedRMSD -1
REMARK  0 active torsions:
REMARK  status: ('A' for Active; 'I' for Inactive)
ROOT
ATOM      1  C1  DEN d   1      -1.923   2.390   0.175  0.00  0.00     0.130 A 
ATOM      2  C2  DEN d   1      -2.517   2.217   1.498  0.00  0.00    -0.031 A 
ATOM      3  C3  DEN d   1      -1.848   1.075   2.153  0.00  0.00     0.027 A 
ATOM      4  C4  DEN d   1       0.044  -0.430   1.255  0.00  0.00     0.027 A 
ATOM      5  C5  DEN d   1       0.866  -0.677   0.178  0.00  0.00    -0.003 A 
ATOM      6  C6  DEN d   1       0.794   0.053  -0.979  0.00  0.00     0.001 A 
ATOM      7  C7  DEN d   1      -0.090   1.096  -1.069  0.00  0.00     0.017 A 
ATOM      8  C8  DEN d   1      -0.927   1.346   0.010  0.00  0.00    -0.094 A 
ATOM      9  C9  DEN d   1      -0.831   0.605   1.175  0.00  0.00    -0.072 A 
ENDROOT
TORSDOF 0
ENDMDL
