MODEL 1
REMARK minimizedAffinity -5.26433325
REMARK minimizedRMSD -1
REMARK  0 active torsions:
REMARK  status: ('A' for Active; 'I' for Inactive)
ROOT
ATOM      1  C1  DEN d   1       0.356   1.927  -1.311  0.00  0.00     0.130 A 
ATOM      2  C2  DEN d   1       1.592   1.163  -1.454  0.00  0.00    -0.031 A 
ATOM      3  C3  DEN d   1       1.563   0.059  -0.474  0.00  0.00     0.027 A 
ATOM      4  C4  DEN d   1      -0.271  -0.543   1.237  0.00  0.00     0.027 A 
ATOM      5  C5  DEN d   1      -1.501  -0.180   1.739  0.00  0.00    -0.003 A 
ATOM      6  C6  DEN d   1      -2.178   0.922   1.286  0.00  0.00     0.001 A 
ATOM      7  C7  DEN d   1      -1.648   1.674   0.271  0.00  0.00     0.017 A 
ATOM      8  C8  DEN d   1      -0.405   1.318  -0.235  0.00  0.00    -0.094 A 
ATOM      9  C9  DEN d   1       0.258   0.194   0.227  0.00  0.00    -0.072 A 
ENDROOT
TORSDOF 0
ENDMDL
