MODEL 1
REMARK minimizedAffinity -3.52625823
REMARK minimizedRMSD -1
REMARK  0 active torsions:
REMARK  status: ('A' for Active; 'I' for Inactive)
ROOT
ATOM      1  C1  DEN d   1       0.355   0.422  -1.421  0.00  0.00     0.130 A 
ATOM      2  C2  DEN d   1       0.913  -0.871  -1.035  0.00  0.00    -0.031 A 
ATOM      3  C3  DEN d   1       0.468  -1.167   0.342  0.00  0.00     0.027 A 
ATOM      4  C4  DEN d   1      -1.027   0.241   1.902  0.00  0.00     0.027 A 
ATOM      5  C5  DEN d   1      -1.731   1.419   2.020  0.00  0.00    -0.003 A 
ATOM      6  C6  DEN d   1      -1.761   2.355   1.021  0.00  0.00     0.001 A 
ATOM      7  C7  DEN d   1      -1.111   2.109  -0.160  0.00  0.00     0.017 A 
ATOM      8  C8  DEN d   1      -0.393   0.926  -0.283  0.00  0.00    -0.094 A 
ATOM      9  C9  DEN d   1      -0.385  -0.013   0.734  0.00  0.00    -0.072 A 
ENDROOT
TORSDOF 0
ENDMDL
