MODEL 1
REMARK minimizedAffinity -4.96982574
REMARK minimizedRMSD -1
REMARK  1 active torsions:
REMARK  status: ('A' for Active; 'I' for Inactive)
REMARK    1  A    between atoms: C1_2  and  C2_3 
ROOT
ATOM      1  C2  UNL d   1      -0.084   0.243  -0.022  0.00  0.00    -0.073 A 
ATOM      2  C3  UNL d   1       1.161   0.834  -0.267  0.00  0.00    -0.002 A 
ATOM      3  C4  UNL d   1       2.331   0.081  -0.160  0.00  0.00     0.004 A 
ATOM      4  C5  UNL d   1       2.268  -1.269   0.185  0.00  0.00    -0.004 A 
ATOM      5  C6  UNL d   1       1.033  -1.880   0.422  0.00  0.00    -0.075 A 
ATOM      6  C7  UNL d   1       0.948  -3.331   0.796  0.00  0.00     0.076 C 
ATOM      7  C8  UNL d   1      -0.138  -1.117   0.315  0.00  0.00     0.001 A 
ENDROOT
BRANCH   1   8
ATOM      8  C1  UNL d   1      -1.351   1.050  -0.142  0.00  0.00     0.053 C 
ATOM      9  C   UNL d   1      -1.800   1.195  -1.588  0.00  0.00     0.018 C 
ENDBRANCH   1   8
TORSDOF 1
ENDMDL
