MODEL 1
REMARK minimizedAffinity -4.90286732
REMARK minimizedRMSD -1
REMARK  1 active torsions:
REMARK  status: ('A' for Active; 'I' for Inactive)
REMARK    1  A    between atoms: C1_2  and  C2_3 
ROOT
ATOM      1  C2  UNL d   1       0.341  -0.958   0.782  0.00  0.00    -0.073 A 
ATOM      2  C3  UNL d   1      -0.810  -0.205   1.045  0.00  0.00    -0.002 A 
ATOM      3  C4  UNL d   1      -0.861   1.147   0.704  0.00  0.00     0.004 A 
ATOM      4  C5  UNL d   1       0.233   1.759   0.093  0.00  0.00    -0.004 A 
ATOM      5  C6  UNL d   1       1.388   1.021  -0.188  0.00  0.00    -0.075 A 
ATOM      6  C7  UNL d   1       2.574   1.665  -0.844  0.00  0.00     0.076 C 
ATOM      7  C8  UNL d   1       1.433  -0.336   0.159  0.00  0.00     0.001 A 
ENDROOT
BRANCH   1   8
ATOM      8  C1  UNL d   1       0.399  -2.420   1.142  0.00  0.00     0.053 C 
ATOM      9  C   UNL d   1       1.810  -2.976   1.041  0.00  0.00     0.018 C 
ENDBRANCH   1   8
TORSDOF 1
ENDMDL
