MODEL 1
REMARK minimizedAffinity -5.87451649
REMARK minimizedRMSD -1
REMARK  1 active torsions:
REMARK  status: ('A' for Active; 'I' for Inactive)
REMARK    1  A    between atoms: C1_2  and  C2_3 
ROOT
ATOM      1  C2  UNL d   1      -0.786   0.762  -0.146  0.00  0.00    -0.073 A 
ATOM      2  C3  UNL d   1      -1.541   0.895   1.025  0.00  0.00    -0.002 A 
ATOM      3  C4  UNL d   1      -1.435  -0.054   2.043  0.00  0.00     0.004 A 
ATOM      4  C5  UNL d   1      -0.569  -1.138   1.904  0.00  0.00    -0.004 A 
ATOM      5  C6  UNL d   1       0.203  -1.282   0.747  0.00  0.00    -0.075 A 
ATOM      6  C7  UNL d   1       1.137  -2.444   0.581  0.00  0.00     0.076 C 
ATOM      7  C8  UNL d   1       0.088  -0.327  -0.273  0.00  0.00     0.001 A 
ENDROOT
BRANCH   1   8
ATOM      8  C1  UNL d   1      -0.893   1.787  -1.246  0.00  0.00     0.053 C 
ATOM      9  C   UNL d   1      -2.070   1.512  -2.169  0.00  0.00     0.018 C 
ENDBRANCH   1   8
TORSDOF 1
ENDMDL
