MODEL 1
REMARK minimizedAffinity -5.28817511
REMARK minimizedRMSD -1
REMARK  1 active torsions:
REMARK  status: ('A' for Active; 'I' for Inactive)
REMARK    1  A    between atoms: C1_2  and  C2_3 
ROOT
ATOM      1  C2  UNL d   1      -0.290   0.467  -0.054  0.00  0.00    -0.073 A 
ATOM      2  C3  UNL d   1       0.865   1.052  -0.586  0.00  0.00    -0.002 A 
ATOM      3  C4  UNL d   1       2.072   0.351  -0.593  0.00  0.00     0.004 A 
ATOM      4  C5  UNL d   1       2.135  -0.943  -0.075  0.00  0.00    -0.004 A 
ATOM      5  C6  UNL d   1       0.989  -1.549   0.451  0.00  0.00    -0.075 A 
ATOM      6  C7  UNL d   1       1.041  -2.939   1.014  0.00  0.00     0.076 C 
ATOM      7  C8  UNL d   1      -0.218  -0.837   0.456  0.00  0.00     0.001 A 
ENDROOT
BRANCH   1   8
ATOM      8  C1  UNL d   1      -1.596   1.217  -0.051  0.00  0.00     0.053 C 
ATOM      9  C   UNL d   1      -2.171   1.367  -1.450  0.00  0.00     0.018 C 
ENDBRANCH   1   8
TORSDOF 1
ENDMDL
