MODEL 1
REMARK minimizedAffinity -4.94398022
REMARK minimizedRMSD -1
REMARK  1 active torsions:
REMARK  status: ('A' for Active; 'I' for Inactive)
REMARK    1  A    between atoms: C1_2  and  C2_3 
ROOT
ATOM      1  C2  UNL d   1      -0.118   0.574   0.029  0.00  0.00    -0.073 A 
ATOM      2  C3  UNL d   1       1.246   0.802  -0.190  0.00  0.00    -0.002 A 
ATOM      3  C4  UNL d   1       2.160  -0.247  -0.091  0.00  0.00     0.004 A 
ATOM      4  C5  UNL d   1       1.722  -1.534   0.221  0.00  0.00    -0.004 A 
ATOM      5  C6  UNL d   1       0.362  -1.784   0.432  0.00  0.00    -0.075 A 
ATOM      6  C7  UNL d   1      -0.126  -3.162   0.771  0.00  0.00     0.076 C 
ATOM      7  C8  UNL d   1      -0.550  -0.724   0.333  0.00  0.00     0.001 A 
ENDROOT
BRANCH   1   8
ATOM      8  C1  UNL d   1      -1.110   1.703  -0.084  0.00  0.00     0.053 C 
ATOM      9  C   UNL d   1      -1.153   2.287  -1.487  0.00  0.00     0.018 C 
ENDBRANCH   1   8
TORSDOF 1
ENDMDL
