MODEL 1
REMARK minimizedAffinity -4.16879272
REMARK minimizedRMSD -1
REMARK  1 active torsions:
REMARK  status: ('A' for Active; 'I' for Inactive)
REMARK    1  A    between atoms: C1_2  and  C2_3 
ROOT
ATOM      1  C2  UNL d   1      -0.378   0.807  -0.573  0.00  0.00    -0.073 A 
ATOM      2  C3  UNL d   1       0.835   0.200  -0.920  0.00  0.00    -0.002 A 
ATOM      3  C4  UNL d   1       1.303  -0.901  -0.201  0.00  0.00     0.004 A 
ATOM      4  C5  UNL d   1       0.561  -1.411   0.865  0.00  0.00    -0.004 A 
ATOM      5  C6  UNL d   1      -0.659  -0.825   1.219  0.00  0.00    -0.075 A 
ATOM      6  C7  UNL d   1      -1.467  -1.360   2.364  0.00  0.00     0.076 C 
ATOM      7  C8  UNL d   1      -1.121   0.282   0.494  0.00  0.00     0.001 A 
ENDROOT
BRANCH   1   8
ATOM      8  C1  UNL d   1      -0.890   1.992  -1.350  0.00  0.00     0.053 C 
ATOM      9  C   UNL d   1      -1.892   1.583  -2.418  0.00  0.00     0.018 C 
ENDBRANCH   1   8
TORSDOF 1
ENDMDL
