MODEL 1
REMARK minimizedAffinity -4.05525208
REMARK minimizedRMSD -1
REMARK  1 active torsions:
REMARK  status: ('A' for Active; 'I' for Inactive)
REMARK    1  A    between atoms: C1_2  and  C2_3 
ROOT
ATOM      1  C2  UNL d   1      -0.476   0.712  -0.407  0.00  0.00    -0.073 A 
ATOM      2  C3  UNL d   1       0.716   1.401  -0.661  0.00  0.00    -0.002 A 
ATOM      3  C4  UNL d   1       1.947   0.764  -0.500  0.00  0.00     0.004 A 
ATOM      4  C5  UNL d   1       1.999  -0.568  -0.090  0.00  0.00    -0.004 A 
ATOM      5  C6  UNL d   1       0.819  -1.277   0.158  0.00  0.00    -0.075 A 
ATOM      6  C7  UNL d   1       0.858  -2.710   0.602  0.00  0.00     0.076 C 
ATOM      7  C8  UNL d   1      -0.413  -0.630  -0.004  0.00  0.00     0.001 A 
ENDROOT
BRANCH   1   8
ATOM      8  C1  UNL d   1      -1.807   1.394  -0.586  0.00  0.00     0.053 C 
ATOM      9  C   UNL d   1      -2.158   1.583  -2.054  0.00  0.00     0.018 C 
ENDBRANCH   1   8
TORSDOF 1
ENDMDL
