MODEL 1
REMARK minimizedAffinity -5.0829215
REMARK minimizedRMSD -1
REMARK  1 active torsions:
REMARK  status: ('A' for Active; 'I' for Inactive)
REMARK    1  A    between atoms: C1_2  and  C2_3 
ROOT
ATOM      1  C2  UNL d   1      -0.458   0.206  -0.168  0.00  0.00    -0.073 A 
ATOM      2  C3  UNL d   1      -1.265  -0.600   0.643  0.00  0.00    -0.002 A 
ATOM      3  C4  UNL d   1      -0.740  -1.745   1.244  0.00  0.00     0.004 A 
ATOM      4  C5  UNL d   1       0.597  -2.091   1.047  0.00  0.00    -0.004 A 
ATOM      5  C6  UNL d   1       1.423  -1.291   0.250  0.00  0.00    -0.075 A 
ATOM      6  C7  UNL d   1       2.862  -1.651   0.027  0.00  0.00     0.076 C 
ATOM      7  C8  UNL d   1       0.887  -0.145  -0.352  0.00  0.00     0.001 A 
ENDROOT
BRANCH   1   8
ATOM      8  C1  UNL d   1      -1.019   1.447  -0.814  0.00  0.00     0.053 C 
ATOM      9  C   UNL d   1      -2.061   1.117  -1.870  0.00  0.00     0.018 C 
ENDBRANCH   1   8
TORSDOF 1
ENDMDL
