MODEL 1
REMARK minimizedAffinity -4.08327675
REMARK minimizedRMSD -1
REMARK  1 active torsions:
REMARK  status: ('A' for Active; 'I' for Inactive)
REMARK    1  A    between atoms: C1_2  and  C2_3 
ROOT
ATOM      1  C2  UNL d   1      -0.040  -1.342   0.592  0.00  0.00    -0.073 A 
ATOM      2  C3  UNL d   1      -0.637  -0.942   1.793  0.00  0.00    -0.002 A 
ATOM      3  C4  UNL d   1      -1.378   0.239   1.852  0.00  0.00     0.004 A 
ATOM      4  C5  UNL d   1      -1.536   1.027   0.712  0.00  0.00    -0.004 A 
ATOM      5  C6  UNL d   1      -0.956   0.638  -0.500  0.00  0.00    -0.075 A 
ATOM      6  C7  UNL d   1      -1.114   1.476  -1.735  0.00  0.00     0.076 C 
ATOM      7  C8  UNL d   1      -0.211  -0.548  -0.551  0.00  0.00     0.001 A 
ENDROOT
BRANCH   1   8
ATOM      8  C1  UNL d   1       0.756  -2.619   0.522  0.00  0.00     0.053 C 
ATOM      9  C   UNL d   1       2.112  -2.484   1.196  0.00  0.00     0.018 C 
ENDBRANCH   1   8
TORSDOF 1
ENDMDL
