MODEL 1
REMARK minimizedAffinity -0.38654232
REMARK minimizedRMSD -1
REMARK  1 active torsions:
REMARK  status: ('A' for Active; 'I' for Inactive)
REMARK    1  A    between atoms: C1_2  and  C2_3 
ROOT
ATOM      1  C2  UNL d   1      -0.445   0.569  -0.153  0.00  0.00    -0.073 A 
ATOM      2  C3  UNL d   1      -1.391   0.550   0.879  0.00  0.00    -0.002 A 
ATOM      3  C4  UNL d   1      -1.184  -0.240   2.010  0.00  0.00     0.004 A 
ATOM      4  C5  UNL d   1      -0.029  -1.014   2.125  0.00  0.00    -0.004 A 
ATOM      5  C6  UNL d   1       0.933  -0.999   1.110  0.00  0.00    -0.075 A 
ATOM      6  C7  UNL d   1       2.180  -1.827   1.217  0.00  0.00     0.076 C 
ATOM      7  C8  UNL d   1       0.718  -0.204  -0.024  0.00  0.00     0.001 A 
ENDROOT
BRANCH   1   8
ATOM      8  C1  UNL d   1      -0.660   1.427  -1.373  0.00  0.00     0.053 C 
ATOM      9  C   UNL d   1      -1.850   0.958  -2.196  0.00  0.00     0.018 C 
ENDBRANCH   1   8
TORSDOF 1
ENDMDL
