MODEL 1
REMARK minimizedAffinity -3.96597767
REMARK minimizedRMSD -1
REMARK  1 active torsions:
REMARK  status: ('A' for Active; 'I' for Inactive)
REMARK    1  A    between atoms: C1_2  and  C2_3 
ROOT
ATOM      1  C2  UNL d   1      -0.400   0.702  -0.385  0.00  0.00    -0.073 A 
ATOM      2  C3  UNL d   1       0.816   1.105  -0.949  0.00  0.00    -0.002 A 
ATOM      3  C4  UNL d   1       1.973   0.352  -0.742  0.00  0.00     0.004 A 
ATOM      4  C5  UNL d   1       1.925  -0.813   0.023  0.00  0.00    -0.004 A 
ATOM      5  C6  UNL d   1       0.717  -1.239   0.584  0.00  0.00    -0.075 A 
ATOM      6  C7  UNL d   1       0.648  -2.489   1.412  0.00  0.00     0.076 C 
ATOM      7  C8  UNL d   1      -0.440  -0.476   0.374  0.00  0.00     0.001 A 
ENDROOT
BRANCH   1   8
ATOM      8  C1  UNL d   1      -1.653   1.508  -0.611  0.00  0.00     0.053 C 
ATOM      9  C   UNL d   1      -1.799   1.940  -2.062  0.00  0.00     0.018 C 
ENDBRANCH   1   8
TORSDOF 1
ENDMDL
