MODEL 1
REMARK minimizedAffinity -2.45649409
REMARK minimizedRMSD -1
REMARK  1 active torsions:
REMARK  status: ('A' for Active; 'I' for Inactive)
REMARK    1  A    between atoms: C1_2  and  C2_3 
ROOT
ATOM      1  C2  UNL d   1      -0.578   0.138  -0.367  0.00  0.00    -0.073 A 
ATOM      2  C3  UNL d   1       0.486   1.042  -0.264  0.00  0.00    -0.002 A 
ATOM      3  C4  UNL d   1       1.756   0.596   0.104  0.00  0.00     0.004 A 
ATOM      4  C5  UNL d   1       1.977  -0.756   0.366  0.00  0.00    -0.004 A 
ATOM      5  C6  UNL d   1       0.929  -1.676   0.258  0.00  0.00    -0.075 A 
ATOM      6  C7  UNL d   1       1.150  -3.133   0.538  0.00  0.00     0.076 C 
ATOM      7  C8  UNL d   1      -0.344  -1.220  -0.110  0.00  0.00     0.001 A 
ENDROOT
BRANCH   1   8
ATOM      8  C1  UNL d   1      -1.950   0.614  -0.770  0.00  0.00     0.053 C 
ATOM      9  C   UNL d   1      -1.960   1.201  -2.172  0.00  0.00     0.018 C 
ENDBRANCH   1   8
TORSDOF 1
ENDMDL
