MODEL 1
REMARK minimizedAffinity 14.7246237
REMARK minimizedRMSD -1
REMARK  1 active torsions:
REMARK  status: ('A' for Active; 'I' for Inactive)
REMARK    1  A    between atoms: C1_2  and  C2_3 
ROOT
ATOM      1  C2  UNL d   1      -0.993  -2.148   3.006  0.00  0.00    -0.081 A 
ATOM      2  C3  UNL d   1      -2.136  -2.394   2.236  0.00  0.00     0.006 A 
ATOM      3  C4  UNL d   1      -3.245  -1.548   2.325  0.00  0.00     0.002 A 
ATOM      4  C5  UNL d   1      -3.225  -0.439   3.178  0.00  0.00    -0.080 A 
ATOM      5  C6  UNL d   1      -4.396   0.494   3.260  0.00  0.00     0.076 C 
ATOM      6  C7  UNL d   1      -2.089  -0.204   3.960  0.00  0.00     0.002 A 
ATOM      7  C8  UNL d   1      -0.981  -1.050   3.873  0.00  0.00     0.006 A 
ENDROOT
BRANCH   1   8
ATOM      8  C1  UNL d   1       0.228  -3.021   2.865  0.00  0.00     0.054 C 
ATOM      9  C   UNL d   1       1.043  -2.638   1.638  0.00  0.00     0.018 C 
ENDBRANCH   1   8
TORSDOF 1
ENDMDL
