MODEL 1
REMARK minimizedAffinity 7.57224178
REMARK minimizedRMSD -1
REMARK  1 active torsions:
REMARK  status: ('A' for Active; 'I' for Inactive)
REMARK    1  A    between atoms: C1_2  and  C2_3 
ROOT
ATOM      1  C2  UNL d   1      -4.203  -1.200  -3.584  0.00  0.00    -0.081 A 
ATOM      2  C3  UNL d   1      -4.984  -0.038  -3.549  0.00  0.00     0.006 A 
ATOM      3  C4  UNL d   1      -5.082   0.715  -2.376  0.00  0.00     0.002 A 
ATOM      4  C5  UNL d   1      -4.394   0.324  -1.223  0.00  0.00    -0.080 A 
ATOM      5  C6  UNL d   1      -4.465   1.140   0.034  0.00  0.00     0.076 C 
ATOM      6  C7  UNL d   1      -3.627  -0.845  -1.252  0.00  0.00     0.002 A 
ATOM      7  C8  UNL d   1      -3.530  -1.599  -2.424  0.00  0.00     0.006 A 
ENDROOT
BRANCH   1   8
ATOM      8  C1  UNL d   1      -4.044  -1.978  -4.864  0.00  0.00     0.054 C 
ATOM      9  C   UNL d   1      -3.567  -1.084  -6.000  0.00  0.00     0.018 C 
ENDBRANCH   1   8
TORSDOF 1
ENDMDL
