MODEL 1
REMARK minimizedAffinity 5.37077475
REMARK minimizedRMSD -1
REMARK  1 active torsions:
REMARK  status: ('A' for Active; 'I' for Inactive)
REMARK    1  A    between atoms: C1_2  and  C2_3 
ROOT
ATOM      1  C2  UNL d   1       1.249  -1.331   1.114  0.00  0.00    -0.081 A 
ATOM      2  C3  UNL d   1       0.381  -1.414   0.018  0.00  0.00     0.006 A 
ATOM      3  C4  UNL d   1       0.373  -0.415  -0.957  0.00  0.00     0.002 A 
ATOM      4  C5  UNL d   1       1.239   0.680  -0.859  0.00  0.00    -0.080 A 
ATOM      5  C6  UNL d   1       1.262   1.745  -1.915  0.00  0.00     0.076 C 
ATOM      6  C7  UNL d   1       2.094   0.773   0.245  0.00  0.00     0.002 A 
ATOM      7  C8  UNL d   1       2.101  -0.226   1.221  0.00  0.00     0.006 A 
ENDROOT
BRANCH   1   8
ATOM      8  C1  UNL d   1       1.305  -2.439   2.134  0.00  0.00     0.054 C 
ATOM      9  C   UNL d   1       1.900  -3.708   1.540  0.00  0.00     0.018 C 
ENDBRANCH   1   8
TORSDOF 1
ENDMDL
