MODEL 1
REMARK minimizedAffinity -0.495014876
REMARK minimizedRMSD -1
REMARK  1 active torsions:
REMARK  status: ('A' for Active; 'I' for Inactive)
REMARK    1  A    between atoms: C1_2  and  C2_3 
ROOT
ATOM      1  C2  UNL d   1       2.726  -4.101   2.558  0.00  0.00    -0.081 A 
ATOM      2  C3  UNL d   1       3.263  -5.389   2.448  0.00  0.00     0.006 A 
ATOM      3  C4  UNL d   1       3.875  -5.998   3.546  0.00  0.00     0.002 A 
ATOM      4  C5  UNL d   1       3.953  -5.331   4.774  0.00  0.00    -0.080 A 
ATOM      5  C6  UNL d   1       4.581  -5.985   5.969  0.00  0.00     0.076 C 
ATOM      6  C7  UNL d   1       3.433  -4.037   4.879  0.00  0.00     0.002 A 
ATOM      7  C8  UNL d   1       2.822  -3.428   3.781  0.00  0.00     0.006 A 
ENDROOT
BRANCH   1   8
ATOM      8  C1  UNL d   1       2.008  -3.467   1.393  0.00  0.00     0.054 C 
ATOM      9  C   UNL d   1       1.079  -2.355   1.855  0.00  0.00     0.018 C 
ENDBRANCH   1   8
TORSDOF 1
ENDMDL
