MODEL 1
REMARK minimizedAffinity 0.996871591
REMARK minimizedRMSD -1
REMARK  1 active torsions:
REMARK  status: ('A' for Active; 'I' for Inactive)
REMARK    1  A    between atoms: C1_2  and  C2_3 
ROOT
ATOM      1  C2  UNL d   1       2.991  -4.292   3.284  0.00  0.00    -0.081 A 
ATOM      2  C3  UNL d   1       2.948  -3.980   4.648  0.00  0.00     0.006 A 
ATOM      3  C4  UNL d   1       3.873  -4.540   5.532  0.00  0.00     0.002 A 
ATOM      4  C5  UNL d   1       4.861  -5.415   5.066  0.00  0.00    -0.080 A 
ATOM      5  C6  UNL d   1       5.879  -5.999   6.000  0.00  0.00     0.076 C 
ATOM      6  C7  UNL d   1       4.893  -5.740   3.706  0.00  0.00     0.002 A 
ATOM      7  C8  UNL d   1       3.968  -5.181   2.822  0.00  0.00     0.006 A 
ENDROOT
BRANCH   1   8
ATOM      8  C1  UNL d   1       2.035  -3.640   2.318  0.00  0.00     0.054 C 
ATOM      9  C   UNL d   1       1.057  -2.725   3.041  0.00  0.00     0.018 C 
ENDBRANCH   1   8
TORSDOF 1
ENDMDL
