MODEL 1
REMARK minimizedAffinity 16.7808647
REMARK minimizedRMSD -1
REMARK  1 active torsions:
REMARK  status: ('A' for Active; 'I' for Inactive)
REMARK    1  A    between atoms: C1_2  and  C2_3 
ROOT
ATOM      1  C2  UNL d   1      -4.500  -2.133  -3.433  0.00  0.00    -0.081 A 
ATOM      2  C3  UNL d   1      -5.227  -0.950  -3.617  0.00  0.00     0.006 A 
ATOM      3  C4  UNL d   1      -5.252   0.027  -2.619  0.00  0.00     0.002 A 
ATOM      4  C5  UNL d   1      -4.546  -0.158  -1.426  0.00  0.00    -0.080 A 
ATOM      5  C6  UNL d   1      -4.541   0.897  -0.359  0.00  0.00     0.076 C 
ATOM      6  C7  UNL d   1      -3.835  -1.347  -1.235  0.00  0.00     0.002 A 
ATOM      7  C8  UNL d   1      -3.809  -2.325  -2.231  0.00  0.00     0.006 A 
ENDROOT
BRANCH   1   8
ATOM      8  C1  UNL d   1      -4.417  -3.160  -4.533  0.00  0.00     0.054 C 
ATOM      9  C   UNL d   1      -3.617  -2.639  -5.718  0.00  0.00     0.018 C 
ENDBRANCH   1   8
TORSDOF 1
ENDMDL
