MODEL 1
REMARK minimizedAffinity -1.77639949
REMARK minimizedRMSD -1
REMARK  1 active torsions:
REMARK  status: ('A' for Active; 'I' for Inactive)
REMARK    1  A    between atoms: C1_2  and  C2_3 
ROOT
ATOM      1  C2  UNL d   1       2.983  -4.098   2.992  0.00  0.00    -0.081 A 
ATOM      2  C3  UNL d   1       3.011  -3.598   4.300  0.00  0.00     0.006 A 
ATOM      3  C4  UNL d   1       3.791  -4.217   5.279  0.00  0.00     0.002 A 
ATOM      4  C5  UNL d   1       4.563  -5.341   4.965  0.00  0.00    -0.080 A 
ATOM      5  C6  UNL d   1       5.429  -5.997   5.999  0.00  0.00     0.076 C 
ATOM      6  C7  UNL d   1       4.522  -5.852   3.663  0.00  0.00     0.002 A 
ATOM      7  C8  UNL d   1       3.741  -5.233   2.684  0.00  0.00     0.006 A 
ENDROOT
BRANCH   1   8
ATOM      8  C1  UNL d   1       2.193  -3.394   1.919  0.00  0.00     0.054 C 
ATOM      9  C   UNL d   1       1.114  -2.505   2.519  0.00  0.00     0.018 C 
ENDBRANCH   1   8
TORSDOF 1
ENDMDL
