MODEL 1
REMARK minimizedAffinity 4.06945419
REMARK minimizedRMSD -1
REMARK  2 active torsions:
REMARK  status: ('A' for Active; 'I' for Inactive)
REMARK    1  A    between atoms: C2'_3  and  C1'_4 
REMARK    2  A    between atoms: C1'_4  and  C1_5 
ROOT
ATOM      1  C1  I4B d   1       1.493   3.489   1.365  0.00  0.00    -0.075 A 
ATOM      2  C2  I4B d   1       0.342   3.626   0.629  0.00  0.00     0.003 A 
ATOM      3  C3  I4B d   1      -0.028   4.892   0.114  0.00  0.00     0.002 A 
ATOM      4  C4  I4B d   1       0.750   5.996   0.399  0.00  0.00    -0.004 A 
ATOM      5  C5  I4B d   1       1.928   5.851   1.126  0.00  0.00     0.002 A 
ATOM      6  C6  I4B d   1       2.309   4.588   1.602  0.00  0.00     0.003 A 
ENDROOT
BRANCH   1   7
ATOM      7  C1' I4B d   1       1.837   2.144   1.922  0.00  0.00     0.060 C 
BRANCH   7   8
ATOM      8  C2' I4B d   1       1.270   2.061   3.325  0.00  0.00    -0.013 C 
ATOM      9  C4' I4B d   1      -0.232   1.967   3.302  0.00  0.00     0.013 C 
ATOM     10  C3' I4B d   1       1.878   0.867   3.999  0.00  0.00     0.013 C 
ENDBRANCH   7   8
ENDBRANCH   1   7
TORSDOF 2
ENDMDL
