MODEL 1
REMARK minimizedAffinity 15.4853439
REMARK minimizedRMSD -1
REMARK  2 active torsions:
REMARK  status: ('A' for Active; 'I' for Inactive)
REMARK    1  A    between atoms: C2'_3  and  C1'_4 
REMARK    2  A    between atoms: C1'_4  and  C1_5 
ROOT
ATOM      1  C1  I4B d   1       0.172  -5.387  -4.589  0.00  0.00    -0.075 A 
ATOM      2  C2  I4B d   1      -0.414  -6.000  -5.669  0.00  0.00     0.003 A 
ATOM      3  C3  I4B d   1      -1.763  -5.724  -5.999  0.00  0.00     0.002 A 
ATOM      4  C4  I4B d   1      -2.498  -4.874  -5.199  0.00  0.00    -0.004 A 
ATOM      5  C5  I4B d   1      -1.896  -4.236  -4.118  0.00  0.00     0.002 A 
ATOM      6  C6  I4B d   1      -0.549  -4.484  -3.818  0.00  0.00     0.003 A 
ENDROOT
BRANCH   1   7
ATOM      7  C1' I4B d   1       1.589  -5.727  -4.250  0.00  0.00     0.060 C 
BRANCH   7   8
ATOM      8  C2' I4B d   1       1.929  -5.051  -2.937  0.00  0.00    -0.013 C 
ATOM      9  C4' I4B d   1       1.770  -5.999  -1.778  0.00  0.00     0.013 C 
ATOM     10  C3' I4B d   1       3.336  -4.541  -3.030  0.00  0.00     0.013 C 
ENDBRANCH   7   8
ENDBRANCH   1   7
TORSDOF 2
ENDMDL
