MODEL 1
REMARK minimizedAffinity 21.2649288
REMARK minimizedRMSD -1
REMARK  2 active torsions:
REMARK  status: ('A' for Active; 'I' for Inactive)
REMARK    1  A    between atoms: C2'_3  and  C1'_4 
REMARK    2  A    between atoms: C1'_4  and  C1_5 
ROOT
ATOM      1  C1  I4B d   1       5.293  -2.315  -1.757  0.00  0.00    -0.075 A 
ATOM      2  C2  I4B d   1       5.586  -3.543  -1.220  0.00  0.00     0.003 A 
ATOM      3  C3  I4B d   1       4.957  -3.967  -0.024  0.00  0.00     0.002 A 
ATOM      4  C4  I4B d   1       4.086  -3.115   0.624  0.00  0.00    -0.004 A 
ATOM      5  C5  I4B d   1       3.773  -1.879   0.066  0.00  0.00     0.002 A 
ATOM      6  C6  I4B d   1       4.370  -1.481  -1.139  0.00  0.00     0.003 A 
ENDROOT
BRANCH   1   7
ATOM      7  C1' I4B d   1       6.000  -1.886  -3.004  0.00  0.00     0.060 C 
BRANCH   7   8
ATOM      8  C2' I4B d   1       5.269  -2.490  -4.186  0.00  0.00    -0.013 C 
ATOM      9  C4' I4B d   1       5.545  -1.717  -5.449  0.00  0.00     0.013 C 
ATOM     10  C3' I4B d   1       5.705  -3.918  -4.319  0.00  0.00     0.013 C 
ENDBRANCH   7   8
ENDBRANCH   1   7
TORSDOF 2
ENDMDL
