MODEL 1
REMARK minimizedAffinity 15.4049692
REMARK minimizedRMSD -1
REMARK  2 active torsions:
REMARK  status: ('A' for Active; 'I' for Inactive)
REMARK    1  A    between atoms: C2'_3  and  C1'_4 
REMARK    2  A    between atoms: C1'_4  and  C1_5 
ROOT
ATOM      1  C1  I4B d   1       5.215  -2.992  -1.091  0.00  0.00    -0.075 A 
ATOM      2  C2  I4B d   1       6.000  -1.868  -1.157  0.00  0.00     0.003 A 
ATOM      3  C3  I4B d   1       5.612  -0.687  -0.479  0.00  0.00     0.002 A 
ATOM      4  C4  I4B d   1       4.414  -0.659   0.206  0.00  0.00    -0.004 A 
ATOM      5  C5  I4B d   1       3.630  -1.806   0.290  0.00  0.00     0.002 A 
ATOM      6  C6  I4B d   1       4.039  -2.984  -0.352  0.00  0.00     0.003 A 
ENDROOT
BRANCH   1   7
ATOM      7  C1' I4B d   1       5.638  -4.212  -1.846  0.00  0.00     0.060 C 
BRANCH   7   8
ATOM      8  C2' I4B d   1       4.798  -4.298  -3.104  0.00  0.00    -0.013 C 
ATOM      9  C4' I4B d   1       5.664  -4.357  -4.335  0.00  0.00     0.013 C 
ATOM     10  C3' I4B d   1       3.926  -5.513  -2.997  0.00  0.00     0.013 C 
ENDBRANCH   7   8
ENDBRANCH   1   7
TORSDOF 2
ENDMDL
