MODEL 1
REMARK minimizedAffinity 9.04034901
REMARK minimizedRMSD -1
REMARK  2 active torsions:
REMARK  status: ('A' for Active; 'I' for Inactive)
REMARK    1  A    between atoms: C2'_3  and  C1'_4 
REMARK    2  A    between atoms: C1'_4  and  C1_5 
ROOT
ATOM      1  C1  I4B d   1       0.315   3.353   0.396  0.00  0.00    -0.075 A 
ATOM      2  C2  I4B d   1       1.442   4.106   0.178  0.00  0.00     0.003 A 
ATOM      3  C3  I4B d   1       1.328   5.458  -0.225  0.00  0.00     0.002 A 
ATOM      4  C4  I4B d   1       0.078   5.999  -0.446  0.00  0.00    -0.004 A 
ATOM      5  C5  I4B d   1      -1.064   5.240  -0.203  0.00  0.00     0.002 A 
ATOM      6  C6  I4B d   1      -0.945   3.913   0.233  0.00  0.00     0.003 A 
ENDROOT
BRANCH   1   7
ATOM      7  C1' I4B d   1       0.473   1.918   0.790  0.00  0.00     0.060 C 
BRANCH   7   8
ATOM      8  C2' I4B d   1       0.312   1.072  -0.456  0.00  0.00    -0.013 C 
ATOM      9  C4' I4B d   1       1.478   0.135  -0.633  0.00  0.00     0.013 C 
ATOM     10  C3' I4B d   1      -0.977   0.316  -0.340  0.00  0.00     0.013 C 
ENDBRANCH   7   8
ENDBRANCH   1   7
TORSDOF 2
ENDMDL
