MODEL 1
REMARK minimizedAffinity 12.8808336
REMARK minimizedRMSD -1
REMARK  2 active torsions:
REMARK  status: ('A' for Active; 'I' for Inactive)
REMARK    1  A    between atoms: C2'_3  and  C1'_4 
REMARK    2  A    between atoms: C1'_4  and  C1_5 
ROOT
ATOM      1  C1  I4B d   1      -0.219   1.868   0.104  0.00  0.00    -0.075 A 
ATOM      2  C2  I4B d   1      -1.487   1.425  -0.180  0.00  0.00     0.003 A 
ATOM      3  C3  I4B d   1      -1.681   0.163  -0.790  0.00  0.00     0.002 A 
ATOM      4  C4  I4B d   1      -0.585  -0.597  -1.143  0.00  0.00    -0.004 A 
ATOM      5  C5  I4B d   1       0.699  -0.157  -0.834  0.00  0.00     0.002 A 
ATOM      6  C6  I4B d   1       0.883   1.078  -0.195  0.00  0.00     0.003 A 
ENDROOT
BRANCH   1   7
ATOM      7  C1' I4B d   1      -0.049   3.221   0.719  0.00  0.00     0.060 C 
BRANCH   7   8
ATOM      8  C2' I4B d   1       0.032   4.237  -0.402  0.00  0.00    -0.013 C 
ATOM      9  C4' I4B d   1      -1.317   4.846  -0.683  0.00  0.00     0.013 C 
ATOM     10  C3' I4B d   1       1.028   5.286  -0.006  0.00  0.00     0.013 C 
ENDBRANCH   7   8
ENDBRANCH   1   7
TORSDOF 2
ENDMDL
