MODEL 1
REMARK minimizedAffinity 17.2192326
REMARK minimizedRMSD -1
REMARK  2 active torsions:
REMARK  status: ('A' for Active; 'I' for Inactive)
REMARK    1  A    between atoms: C2'_3  and  C1'_4 
REMARK    2  A    between atoms: C1'_4  and  C1_5 
ROOT
ATOM      1  C1  I4B d   1      -1.202   2.922   0.329  0.00  0.00    -0.075 A 
ATOM      2  C2  I4B d   1       0.142   2.771   0.562  0.00  0.00     0.003 A 
ATOM      3  C3  I4B d   1       1.028   3.856   0.353  0.00  0.00     0.002 A 
ATOM      4  C4  I4B d   1       0.537   5.050  -0.135  0.00  0.00    -0.004 A 
ATOM      5  C5  I4B d   1      -0.829   5.208  -0.348  0.00  0.00     0.002 A 
ATOM      6  C6  I4B d   1      -1.706   4.142  -0.103  0.00  0.00     0.003 A 
ENDROOT
BRANCH   1   7
ATOM      7  C1' I4B d   1      -2.104   1.746   0.529  0.00  0.00     0.060 C 
BRANCH   7   8
ATOM      8  C2' I4B d   1      -2.649   1.340  -0.826  0.00  0.00    -0.013 C 
ATOM      9  C4' I4B d   1      -1.788   0.284  -1.466  0.00  0.00     0.013 C 
ATOM     10  C3' I4B d   1      -4.053   0.851  -0.632  0.00  0.00     0.013 C 
ENDBRANCH   7   8
ENDBRANCH   1   7
TORSDOF 2
ENDMDL
