MODEL 1
REMARK minimizedAffinity -4.72225237
REMARK minimizedRMSD -1
REMARK  0 active torsions:
REMARK  status: ('A' for Active; 'I' for Inactive)
ROOT
ATOM      1  C   UNL d   1       1.899   1.170  -3.204  0.00  0.00     0.077 C 
ATOM      2  C1  UNL d   1       1.434   0.283  -2.087  0.00  0.00    -0.074 A 
ATOM      3  C2  UNL d   1       2.051  -0.947  -1.841  0.00  0.00    -0.005 A 
ATOM      4  C3  UNL d   1       1.614  -1.756  -0.792  0.00  0.00     0.006 A 
ATOM      5  C4  UNL d   1       0.556  -1.344   0.019  0.00  0.00    -0.005 A 
ATOM      6  C5  UNL d   1      -0.073  -0.117  -0.212  0.00  0.00    -0.074 A 
ATOM      7  C6  UNL d   1      -1.205   0.346   0.657  0.00  0.00     0.077 C 
ATOM      8  C7  UNL d   1       0.377   0.694  -1.263  0.00  0.00    -0.001 A 
ENDROOT
TORSDOF 0
ENDMDL
