MODEL 1
REMARK minimizedAffinity -3.55315614
REMARK minimizedRMSD -1
REMARK  0 active torsions:
REMARK  status: ('A' for Active; 'I' for Inactive)
ROOT
ATOM      1  C   UNL d   1      -1.090   0.126   0.433  0.00  0.00     0.077 C 
ATOM      2  C1  UNL d   1       0.047  -0.131  -0.510  0.00  0.00    -0.074 A 
ATOM      3  C2  UNL d   1       0.783  -1.319  -0.442  0.00  0.00    -0.005 A 
ATOM      4  C3  UNL d   1       1.832  -1.549  -1.333  0.00  0.00     0.006 A 
ATOM      5  C4  UNL d   1       2.155  -0.595  -2.299  0.00  0.00    -0.005 A 
ATOM      6  C5  UNL d   1       1.430   0.598  -2.383  0.00  0.00    -0.074 A 
ATOM      7  C6  UNL d   1       1.758   1.629  -3.421  0.00  0.00     0.077 C 
ATOM      8  C7  UNL d   1       0.373   0.818  -1.489  0.00  0.00    -0.001 A 
ENDROOT
TORSDOF 0
ENDMDL
