MODEL 1
REMARK minimizedAffinity -2.92097664
REMARK minimizedRMSD -1
REMARK  0 active torsions:
REMARK  status: ('A' for Active; 'I' for Inactive)
ROOT
ATOM      1  C   UNL d   1      -4.743  -1.761   3.075  0.00  0.00     0.077 C 
ATOM      2  C1  UNL d   1      -3.593  -0.799   3.051  0.00  0.00    -0.074 A 
ATOM      3  C2  UNL d   1      -3.086  -0.254   4.236  0.00  0.00    -0.005 A 
ATOM      4  C3  UNL d   1      -2.010   0.632   4.199  0.00  0.00     0.006 A 
ATOM      5  C4  UNL d   1      -1.429   0.982   2.979  0.00  0.00    -0.005 A 
ATOM      6  C5  UNL d   1      -1.921   0.446   1.784  0.00  0.00    -0.074 A 
ATOM      7  C6  UNL d   1      -1.303   0.804   0.466  0.00  0.00     0.077 C 
ATOM      8  C7  UNL d   1      -2.999  -0.449   1.831  0.00  0.00    -0.001 A 
ENDROOT
TORSDOF 0
ENDMDL
