MODEL 1
REMARK minimizedAffinity -0.492230684
REMARK minimizedRMSD -1
REMARK  0 active torsions:
REMARK  status: ('A' for Active; 'I' for Inactive)
ROOT
ATOM      1  C   UNL d   1      -1.161   2.100   2.245  0.00  0.00     0.077 C 
ATOM      2  C1  UNL d   1      -1.025   0.832   1.455  0.00  0.00    -0.074 A 
ATOM      3  C2  UNL d   1      -2.064  -0.104   1.414  0.00  0.00    -0.005 A 
ATOM      4  C3  UNL d   1      -1.927  -1.274   0.668  0.00  0.00     0.006 A 
ATOM      5  C4  UNL d   1      -0.752  -1.520  -0.044  0.00  0.00    -0.005 A 
ATOM      6  C5  UNL d   1       0.296  -0.596  -0.016  0.00  0.00    -0.074 A 
ATOM      7  C6  UNL d   1       1.562  -0.840  -0.783  0.00  0.00     0.077 C 
ATOM      8  C7  UNL d   1       0.149   0.581   0.731  0.00  0.00    -0.001 A 
ENDROOT
TORSDOF 0
ENDMDL
