MODEL 1
REMARK minimizedAffinity -2.32873964
REMARK minimizedRMSD -1
REMARK  0 active torsions:
REMARK  status: ('A' for Active; 'I' for Inactive)
ROOT
ATOM      1  C   UNL d   1      -1.390   0.315   0.835  0.00  0.00     0.077 C 
ATOM      2  C1  UNL d   1      -0.290  -0.091  -0.100  0.00  0.00    -0.074 A 
ATOM      3  C2  UNL d   1       0.392  -1.299   0.073  0.00  0.00    -0.005 A 
ATOM      4  C3  UNL d   1       1.406  -1.668  -0.811  0.00  0.00     0.006 A 
ATOM      5  C4  UNL d   1       1.748  -0.833  -1.876  0.00  0.00    -0.005 A 
ATOM      6  C5  UNL d   1       1.076   0.379  -2.066  0.00  0.00    -0.074 A 
ATOM      7  C6  UNL d   1       1.423   1.283  -3.211  0.00  0.00     0.077 C 
ATOM      8  C7  UNL d   1       0.053   0.739  -1.177  0.00  0.00    -0.001 A 
ENDROOT
TORSDOF 0
ENDMDL
