MODEL 1
REMARK minimizedAffinity -5.22461367
REMARK minimizedRMSD -1
REMARK  0 active torsions:
REMARK  status: ('A' for Active; 'I' for Inactive)
ROOT
ATOM      1  C   UNL d   1       1.628  -2.722  -0.072  0.00  0.00     0.077 C 
ATOM      2  C1  UNL d   1       1.689  -1.252  -0.367  0.00  0.00    -0.074 A 
ATOM      3  C2  UNL d   1       2.883  -0.651  -0.776  0.00  0.00    -0.005 A 
ATOM      4  C3  UNL d   1       2.922   0.715  -1.055  0.00  0.00     0.006 A 
ATOM      5  C4  UNL d   1       1.770   1.492  -0.929  0.00  0.00    -0.005 A 
ATOM      6  C5  UNL d   1       0.567   0.907  -0.522  0.00  0.00    -0.074 A 
ATOM      7  C6  UNL d   1      -0.684   1.726  -0.391  0.00  0.00     0.077 C 
ATOM      8  C7  UNL d   1       0.533  -0.467  -0.250  0.00  0.00    -0.001 A 
ENDROOT
TORSDOF 0
ENDMDL
