MODEL 1
REMARK minimizedAffinity -4.41276455
REMARK minimizedRMSD -1
REMARK  0 active torsions:
REMARK  status: ('A' for Active; 'I' for Inactive)
ROOT
ATOM      1  C   UNL d   1      -1.148   0.416   0.422  0.00  0.00     0.077 C 
ATOM      2  C1  UNL d   1       0.099   0.048  -0.326  0.00  0.00    -0.074 A 
ATOM      3  C2  UNL d   1       0.600  -1.257  -0.290  0.00  0.00    -0.005 A 
ATOM      4  C3  UNL d   1       1.756  -1.587  -0.998  0.00  0.00     0.006 A 
ATOM      5  C4  UNL d   1       2.422  -0.616  -1.747  0.00  0.00    -0.005 A 
ATOM      6  C5  UNL d   1       1.935   0.694  -1.795  0.00  0.00    -0.074 A 
ATOM      7  C6  UNL d   1       2.633   1.748  -2.604  0.00  0.00     0.077 C 
ATOM      8  C7  UNL d   1       0.770   1.016  -1.087  0.00  0.00    -0.001 A 
ENDROOT
TORSDOF 0
ENDMDL
