MODEL 1
REMARK minimizedAffinity -5.55384207
REMARK minimizedRMSD -1
REMARK  0 active torsions:
REMARK  status: ('A' for Active; 'I' for Inactive)
ROOT
ATOM      1  C   UNL d   1      -1.596   0.386   0.806  0.00  0.00     0.077 C 
ATOM      2  C1  UNL d   1      -0.349  -0.082   0.117  0.00  0.00    -0.074 A 
ATOM      3  C2  UNL d   1       0.112  -1.393   0.278  0.00  0.00    -0.005 A 
ATOM      4  C3  UNL d   1       1.268  -1.817  -0.377  0.00  0.00     0.006 A 
ATOM      5  C4  UNL d   1       1.975  -0.936  -1.197  0.00  0.00    -0.005 A 
ATOM      6  C5  UNL d   1       1.528   0.378  -1.370  0.00  0.00    -0.074 A 
ATOM      7  C6  UNL d   1       2.270   1.335  -2.256  0.00  0.00     0.077 C 
ATOM      8  C7  UNL d   1       0.362   0.795  -0.714  0.00  0.00    -0.001 A 
ENDROOT
TORSDOF 0
ENDMDL
