MODEL 1
REMARK minimizedAffinity -4.46818876
REMARK minimizedRMSD -1
REMARK  0 active torsions:
REMARK  status: ('A' for Active; 'I' for Inactive)
ROOT
ATOM      1  C   UNL d   1       1.434   1.917  -1.108  0.00  0.00     0.077 C 
ATOM      2  C1  UNL d   1       0.597   0.840  -0.485  0.00  0.00    -0.074 A 
ATOM      3  C2  UNL d   1       0.845  -0.510  -0.756  0.00  0.00    -0.005 A 
ATOM      4  C3  UNL d   1       0.065  -1.501  -0.161  0.00  0.00     0.006 A 
ATOM      5  C4  UNL d   1      -0.970  -1.154   0.708  0.00  0.00    -0.005 A 
ATOM      6  C5  UNL d   1      -1.232   0.190   0.992  0.00  0.00    -0.074 A 
ATOM      7  C6  UNL d   1      -2.334   0.580   1.932  0.00  0.00     0.077 C 
ATOM      8  C7  UNL d   1      -0.439   1.180   0.396  0.00  0.00    -0.001 A 
ENDROOT
TORSDOF 0
ENDMDL
