MODEL 1
REMARK minimizedAffinity -4.80881214
REMARK minimizedRMSD -1
REMARK  0 active torsions:
REMARK  status: ('A' for Active; 'I' for Inactive)
ROOT
ATOM      1  C   UNL d   1       3.306  -0.279  -1.568  0.00  0.00     0.077 C 
ATOM      2  C1  UNL d   1       1.920   0.132  -1.167  0.00  0.00    -0.074 A 
ATOM      3  C2  UNL d   1       1.558   1.481  -1.112  0.00  0.00    -0.005 A 
ATOM      4  C3  UNL d   1       0.263   1.848  -0.746  0.00  0.00     0.006 A 
ATOM      5  C4  UNL d   1      -0.682   0.870  -0.431  0.00  0.00    -0.005 A 
ATOM      6  C5  UNL d   1      -0.338  -0.485  -0.482  0.00  0.00    -0.074 A 
ATOM      7  C6  UNL d   1      -1.344  -1.549  -0.156  0.00  0.00     0.077 C 
ATOM      8  C7  UNL d   1       0.964  -0.845  -0.857  0.00  0.00    -0.001 A 
ENDROOT
TORSDOF 0
ENDMDL
