MODEL 1
REMARK minimizedAffinity -4.41208935
REMARK minimizedRMSD -1
REMARK  0 active torsions:
REMARK  status: ('A' for Active; 'I' for Inactive)
ROOT
ATOM      1  C   UNL d   1       3.431  -0.386  -1.008  0.00  0.00     0.077 C 
ATOM      2  C1  UNL d   1       1.983  -0.537  -0.647  0.00  0.00    -0.074 A 
ATOM      3  C2  UNL d   1       1.427  -1.799  -0.418  0.00  0.00    -0.005 A 
ATOM      4  C3  UNL d   1       0.081  -1.923  -0.074  0.00  0.00     0.006 A 
ATOM      5  C4  UNL d   1      -0.721  -0.787   0.044  0.00  0.00    -0.005 A 
ATOM      6  C5  UNL d   1      -0.183   0.483  -0.181  0.00  0.00    -0.074 A 
ATOM      7  C6  UNL d   1      -1.029   1.715  -0.049  0.00  0.00     0.077 C 
ATOM      8  C7  UNL d   1       1.173   0.600  -0.519  0.00  0.00    -0.001 A 
ENDROOT
TORSDOF 0
ENDMDL
