MODEL 1
REMARK minimizedAffinity -1.30926621
REMARK minimizedRMSD -1
REMARK  0 active torsions:
REMARK  status: ('A' for Active; 'I' for Inactive)
ROOT
ATOM      1  C   UNL d   1      -1.863  -0.061   1.380  0.00  0.00     0.077 C 
ATOM      2  C1  UNL d   1      -0.958   0.522   0.336  0.00  0.00    -0.074 A 
ATOM      3  C2  UNL d   1      -1.415   1.512  -0.540  0.00  0.00    -0.005 A 
ATOM      4  C3  UNL d   1      -0.559   2.051  -1.500  0.00  0.00     0.006 A 
ATOM      5  C4  UNL d   1       0.761   1.608  -1.593  0.00  0.00    -0.005 A 
ATOM      6  C5  UNL d   1       1.236   0.620  -0.725  0.00  0.00    -0.074 A 
ATOM      7  C6  UNL d   1       2.655   0.140  -0.805  0.00  0.00     0.077 C 
ATOM      8  C7  UNL d   1       0.372   0.088   0.241  0.00  0.00    -0.001 A 
ENDROOT
TORSDOF 0
ENDMDL
