MODEL 1
REMARK minimizedAffinity -5.73228645
REMARK minimizedRMSD -1
REMARK  0 active torsions:
REMARK  status: ('A' for Active; 'I' for Inactive)
ROOT
ATOM      1  C   UNL d   1       2.388   1.228  -2.802  0.00  0.00     0.077 C 
ATOM      2  C1  UNL d   1       1.773   0.302  -1.795  0.00  0.00    -0.074 A 
ATOM      3  C2  UNL d   1       2.400  -0.899  -1.447  0.00  0.00    -0.005 A 
ATOM      4  C3  UNL d   1       1.821  -1.746  -0.502  0.00  0.00     0.006 A 
ATOM      5  C4  UNL d   1       0.612  -1.401   0.103  0.00  0.00    -0.005 A 
ATOM      6  C5  UNL d   1      -0.029  -0.204  -0.232  0.00  0.00    -0.074 A 
ATOM      7  C6  UNL d   1      -1.324   0.186   0.416  0.00  0.00     0.077 C 
ATOM      8  C7  UNL d   1       0.563   0.645  -1.177  0.00  0.00    -0.001 A 
ENDROOT
TORSDOF 0
ENDMDL
