MODEL 1
REMARK minimizedAffinity -3.48341227
REMARK minimizedRMSD -1
REMARK  0 active torsions:
REMARK  status: ('A' for Active; 'I' for Inactive)
ROOT
ATOM      1  C   UNL d   1       3.212  -0.288   1.682  0.00  0.00     0.077 C 
ATOM      2  C1  UNL d   1       2.364  -0.495   0.462  0.00  0.00    -0.074 A 
ATOM      3  C2  UNL d   1       2.936  -0.536  -0.813  0.00  0.00    -0.005 A 
ATOM      4  C3  UNL d   1       2.136  -0.740  -1.937  0.00  0.00     0.006 A 
ATOM      5  C4  UNL d   1       0.757  -0.904  -1.798  0.00  0.00    -0.005 A 
ATOM      6  C5  UNL d   1       0.167  -0.866  -0.531  0.00  0.00    -0.074 A 
ATOM      7  C6  UNL d   1      -1.312  -1.051  -0.362  0.00  0.00     0.077 C 
ATOM      8  C7  UNL d   1       0.979  -0.669   0.595  0.00  0.00    -0.001 A 
ENDROOT
TORSDOF 0
ENDMDL
