MODEL 1
REMARK minimizedAffinity -5.57742929
REMARK minimizedRMSD -1
REMARK  0 active torsions:
REMARK  status: ('A' for Active; 'I' for Inactive)
ROOT
ATOM      1  C   UNL d   1       2.876   0.291  -1.902  0.00  0.00     0.077 C 
ATOM      2  C1  UNL d   1       1.552   0.047  -1.240  0.00  0.00    -0.074 A 
ATOM      3  C2  UNL d   1       0.680   1.106  -0.965  0.00  0.00    -0.005 A 
ATOM      4  C3  UNL d   1      -0.552   0.863  -0.358  0.00  0.00     0.006 A 
ATOM      5  C4  UNL d   1      -0.925  -0.438  -0.021  0.00  0.00    -0.005 A 
ATOM      6  C5  UNL d   1      -0.067  -1.510  -0.290  0.00  0.00    -0.074 A 
ATOM      7  C6  UNL d   1      -0.457  -2.916   0.056  0.00  0.00     0.077 C 
ATOM      8  C7  UNL d   1       1.166  -1.258  -0.906  0.00  0.00    -0.001 A 
ENDROOT
TORSDOF 0
ENDMDL
