MODEL 1
REMARK minimizedAffinity -4.70070124
REMARK minimizedRMSD -1
REMARK  0 active torsions:
REMARK  status: ('A' for Active; 'I' for Inactive)
ROOT
ATOM      1  C   UNL d   1      -0.927  -2.806   0.049  0.00  0.00     0.077 C 
ATOM      2  C1  UNL d   1      -0.221  -1.506  -0.200  0.00  0.00    -0.074 A 
ATOM      3  C2  UNL d   1      -0.925  -0.297  -0.214  0.00  0.00    -0.005 A 
ATOM      4  C3  UNL d   1      -0.254   0.905  -0.438  0.00  0.00     0.006 A 
ATOM      5  C4  UNL d   1       1.126   0.911  -0.649  0.00  0.00    -0.005 A 
ATOM      6  C5  UNL d   1       1.846  -0.288  -0.637  0.00  0.00    -0.074 A 
ATOM      7  C6  UNL d   1       3.330  -0.298  -0.852  0.00  0.00     0.077 C 
ATOM      8  C7  UNL d   1       1.166  -1.491  -0.405  0.00  0.00    -0.001 A 
ENDROOT
TORSDOF 0
ENDMDL
