MODEL 1
REMARK minimizedAffinity 6.04346323
REMARK minimizedRMSD -1
REMARK  0 active torsions:
REMARK  status: ('A' for Active; 'I' for Inactive)
ROOT
ATOM      1  C1  DEN d   1       2.627  -0.930   1.425  0.00  0.00     0.130 A 
ATOM      2  C2  DEN d   1       2.412  -2.375   1.392  0.00  0.00    -0.031 A 
ATOM      3  C3  DEN d   1       2.078  -2.755   0.005  0.00  0.00     0.027 A 
ATOM      4  C4  DEN d   1       1.877  -1.257  -2.084  0.00  0.00     0.027 A 
ATOM      5  C5  DEN d   1       1.958   0.037  -2.550  0.00  0.00    -0.003 A 
ATOM      6  C6  DEN d   1       2.233   1.095  -1.724  0.00  0.00     0.001 A 
ATOM      7  C7  DEN d   1       2.480   0.872  -0.395  0.00  0.00     0.017 A 
ATOM      8  C8  DEN d   1       2.393  -0.429   0.083  0.00  0.00    -0.094 A 
ATOM      9  C9  DEN d   1       2.126  -1.486  -0.770  0.00  0.00    -0.072 A 
ENDROOT
TORSDOF 0
ENDMDL
