MODEL 1
REMARK minimizedAffinity 5.14666986
REMARK minimizedRMSD -1
REMARK  0 active torsions:
REMARK  status: ('A' for Active; 'I' for Inactive)
ROOT
ATOM      1  C1  DEN d   1       3.113  -0.906   0.115  0.00  0.00     0.130 A 
ATOM      2  C2  DEN d   1       2.669  -1.865  -0.894  0.00  0.00    -0.031 A 
ATOM      3  C3  DEN d   1       2.264  -1.108  -2.096  0.00  0.00     0.027 A 
ATOM      4  C4  DEN d   1       2.286   1.441  -2.492  0.00  0.00     0.027 A 
ATOM      5  C5  DEN d   1       2.570   2.663  -1.923  0.00  0.00    -0.003 A 
ATOM      6  C6  DEN d   1       3.018   2.782  -0.635  0.00  0.00     0.001 A 
ATOM      7  C7  DEN d   1       3.239   1.656   0.114  0.00  0.00     0.017 A 
ATOM      8  C8  DEN d   1       2.949   0.421  -0.450  0.00  0.00    -0.094 A 
ATOM      9  C9  DEN d   1       2.508   0.321  -1.759  0.00  0.00    -0.072 A 
ENDROOT
TORSDOF 0
ENDMDL
