MODEL 1
REMARK minimizedAffinity -0.208446473
REMARK minimizedRMSD -1
REMARK  0 active torsions:
REMARK  status: ('A' for Active; 'I' for Inactive)
ROOT
ATOM      1  C1  DEN d   1      -1.263  -0.916   2.030  0.00  0.00     0.130 A 
ATOM      2  C2  DEN d   1      -0.322  -1.127   3.127  0.00  0.00    -0.031 A 
ATOM      3  C3  DEN d   1       1.036  -1.208   2.553  0.00  0.00     0.027 A 
ATOM      4  C4  DEN d   1       1.770  -1.024   0.087  0.00  0.00     0.027 A 
ATOM      5  C5  DEN d   1       1.328  -0.856  -1.206  0.00  0.00    -0.003 A 
ATOM      6  C6  DEN d   1      -0.002  -0.731  -1.512  0.00  0.00     0.001 A 
ATOM      7  C7  DEN d   1      -0.932  -0.727  -0.507  0.00  0.00     0.017 A 
ATOM      8  C8  DEN d   1      -0.494  -0.904   0.799  0.00  0.00    -0.094 A 
ATOM      9  C9  DEN d   1       0.855  -1.016   1.089  0.00  0.00    -0.072 A 
ENDROOT
TORSDOF 0
ENDMDL
