MODEL 1
REMARK minimizedAffinity 6.07591963
REMARK minimizedRMSD -1
REMARK  0 active torsions:
REMARK  status: ('A' for Active; 'I' for Inactive)
ROOT
ATOM      1  C1  DEN d   1      -4.279   4.612  -5.837  0.00  0.00     0.130 A 
ATOM      2  C2  DEN d   1      -4.570   5.807  -5.050  0.00  0.00    -0.031 A 
ATOM      3  C3  DEN d   1      -4.055   5.591  -3.683  0.00  0.00     0.027 A 
ATOM      4  C4  DEN d   1      -2.838   3.533  -2.715  0.00  0.00     0.027 A 
ATOM      5  C5  DEN d   1      -2.375   2.267  -2.997  0.00  0.00    -0.003 A 
ATOM      6  C6  DEN d   1      -2.542   1.685  -4.226  0.00  0.00     0.001 A 
ATOM      7  C7  DEN d   1      -3.150   2.388  -5.232  0.00  0.00     0.017 A 
ATOM      8  C8  DEN d   1      -3.627   3.662  -4.953  0.00  0.00    -0.094 A 
ATOM      9  C9  DEN d   1      -3.437   4.238  -3.708  0.00  0.00    -0.072 A 
ENDROOT
TORSDOF 0
ENDMDL
