MODEL 1
REMARK minimizedAffinity 0.551802695
REMARK minimizedRMSD -1
REMARK  0 active torsions:
REMARK  status: ('A' for Active; 'I' for Inactive)
ROOT
ATOM      1  C1  DEN d   1       0.934  -1.027  -0.825  0.00  0.00     0.130 A 
ATOM      2  C2  DEN d   1       2.210  -1.561  -1.294  0.00  0.00    -0.031 A 
ATOM      3  C3  DEN d   1       2.988  -1.989  -0.114  0.00  0.00     0.027 A 
ATOM      4  C4  DEN d   1       2.342  -1.880   2.381  0.00  0.00     0.027 A 
ATOM      5  C5  DEN d   1       1.364  -1.496   3.272  0.00  0.00    -0.003 A 
ATOM      6  C6  DEN d   1       0.199  -0.902   2.865  0.00  0.00     0.001 A 
ATOM      7  C7  DEN d   1      -0.038  -0.716   1.529  0.00  0.00     0.017 A 
ATOM      8  C8  DEN d   1       0.946  -1.094   0.625  0.00  0.00    -0.094 A 
ATOM      9  C9  DEN d   1       2.112  -1.704   1.055  0.00  0.00    -0.072 A 
ENDROOT
TORSDOF 0
ENDMDL
