MODEL 1
REMARK minimizedAffinity 3.95804262
REMARK minimizedRMSD -1
REMARK  0 active torsions:
REMARK  status: ('A' for Active; 'I' for Inactive)
ROOT
ATOM      1  C1  DEN d   1       2.941  -1.485   2.144  0.00  0.00     0.130 A 
ATOM      2  C2  DEN d   1       3.121  -2.282   0.934  0.00  0.00    -0.031 A 
ATOM      3  C3  DEN d   1       1.798  -2.455   0.300  0.00  0.00     0.027 A 
ATOM      4  C4  DEN d   1      -0.498  -1.567   1.069  0.00  0.00     0.027 A 
ATOM      5  C5  DEN d   1      -1.155  -0.849   2.044  0.00  0.00    -0.003 A 
ATOM      6  C6  DEN d   1      -0.503  -0.326   3.130  0.00  0.00     0.001 A 
ATOM      7  C7  DEN d   1       0.854  -0.475   3.243  0.00  0.00     0.017 A 
ATOM      8  C8  DEN d   1       1.522  -1.204   2.268  0.00  0.00    -0.094 A 
ATOM      9  C9  DEN d   1       0.847  -1.714   1.172  0.00  0.00    -0.072 A 
ENDROOT
TORSDOF 0
ENDMDL
