MODEL 1
REMARK minimizedAffinity 8.65343952
REMARK minimizedRMSD -1
REMARK  0 active torsions:
REMARK  status: ('A' for Active; 'I' for Inactive)
ROOT
ATOM      1  C1  DEN d   1       3.460  -0.621   0.496  0.00  0.00     0.130 A 
ATOM      2  C2  DEN d   1       3.346  -1.707  -0.474  0.00  0.00    -0.031 A 
ATOM      3  C3  DEN d   1       2.680  -1.175  -1.679  0.00  0.00     0.027 A 
ATOM      4  C4  DEN d   1       1.823   1.214  -2.139  0.00  0.00     0.027 A 
ATOM      5  C5  DEN d   1       1.686   2.478  -1.610  0.00  0.00    -0.003 A 
ATOM      6  C6  DEN d   1       2.096   2.787  -0.341  0.00  0.00     0.001 A 
ATOM      7  C7  DEN d   1       2.705   1.830   0.428  0.00  0.00     0.017 A 
ATOM      8  C8  DEN d   1       2.840   0.551  -0.096  0.00  0.00    -0.094 A 
ATOM      9  C9  DEN d   1       2.430   0.262  -1.386  0.00  0.00    -0.072 A 
ENDROOT
TORSDOF 0
ENDMDL
