MODEL 1
REMARK minimizedAffinity 7.312572
REMARK minimizedRMSD -1
REMARK  0 active torsions:
REMARK  status: ('A' for Active; 'I' for Inactive)
ROOT
ATOM      1  C1  DEN d   1      -1.026  -2.338   1.778  0.00  0.00     0.130 A 
ATOM      2  C2  DEN d   1      -1.939  -1.426   2.462  0.00  0.00    -0.031 A 
ATOM      3  C3  DEN d   1      -1.129  -0.468   3.240  0.00  0.00     0.027 A 
ATOM      4  C4  DEN d   1       1.437  -0.304   3.446  0.00  0.00     0.027 A 
ATOM      5  C5  DEN d   1       2.632  -0.867   3.058  0.00  0.00    -0.003 A 
ATOM      6  C6  DEN d   1       2.691  -1.971   2.250  0.00  0.00     0.001 A 
ATOM      7  C7  DEN d   1       1.533  -2.521   1.767  0.00  0.00     0.017 A 
ATOM      8  C8  DEN d   1       0.324  -1.963   2.160  0.00  0.00    -0.094 A 
ATOM      9  C9  DEN d   1       0.286  -0.839   2.968  0.00  0.00    -0.072 A 
ENDROOT
TORSDOF 0
ENDMDL
