MODEL 1
REMARK minimizedAffinity -1.47455943
REMARK minimizedRMSD -1
REMARK  0 active torsions:
REMARK  status: ('A' for Active; 'I' for Inactive)
ROOT
ATOM      1  C1  DEN d   1       2.861   1.171   1.500  0.00  0.00     0.130 A 
ATOM      2  C2  DEN d   1       2.387   1.285   2.876  0.00  0.00    -0.031 A 
ATOM      3  C3  DEN d   1       2.139  -0.078   3.388  0.00  0.00     0.027 A 
ATOM      4  C4  DEN d   1       2.446  -2.342   2.190  0.00  0.00     0.027 A 
ATOM      5  C5  DEN d   1       2.816  -2.945   1.009  0.00  0.00    -0.003 A 
ATOM      6  C6  DEN d   1       3.191  -2.224  -0.094  0.00  0.00     0.001 A 
ATOM      7  C7  DEN d   1       3.248  -0.857  -0.023  0.00  0.00     0.017 A 
ATOM      8  C8  DEN d   1       2.869  -0.241   1.162  0.00  0.00    -0.094 A 
ATOM      9  C9  DEN d   1       2.505  -0.988   2.269  0.00  0.00    -0.072 A 
ENDROOT
TORSDOF 0
ENDMDL
