MODEL 1
REMARK minimizedAffinity 0.303644091
REMARK minimizedRMSD -1
REMARK  0 active torsions:
REMARK  status: ('A' for Active; 'I' for Inactive)
ROOT
ATOM      1  C1  DEN d   1       2.677  -1.491  -1.799  0.00  0.00     0.130 A 
ATOM      2  C2  DEN d   1       2.714  -1.893  -0.395  0.00  0.00    -0.031 A 
ATOM      3  C3  DEN d   1       2.621  -0.673   0.431  0.00  0.00     0.027 A 
ATOM      4  C4  DEN d   1       2.418   1.786  -0.322  0.00  0.00     0.027 A 
ATOM      5  C5  DEN d   1       2.358   2.624  -1.413  0.00  0.00    -0.003 A 
ATOM      6  C6  DEN d   1       2.434   2.157  -2.698  0.00  0.00     0.001 A 
ATOM      7  C7  DEN d   1       2.528   0.809  -2.926  0.00  0.00     0.017 A 
ATOM      8  C8  DEN d   1       2.597  -0.042  -1.831  0.00  0.00    -0.094 A 
ATOM      9  C9  DEN d   1       2.506   0.449  -0.539  0.00  0.00    -0.072 A 
ENDROOT
TORSDOF 0
ENDMDL
