MODEL 1
REMARK minimizedAffinity 14.5062151
REMARK minimizedRMSD -1
REMARK  3 active torsions:
REMARK  status: ('A' for Active; 'I' for Inactive)
REMARK    1  A    between atoms: C3'_2  and  C2'_3 
REMARK    2  A    between atoms: C2'_3  and  C1'_4 
REMARK    3  A    between atoms: C1'_4  and  C1_5 
ROOT
ATOM      1  C1  N4B d   1      -0.946  -1.041   0.049  0.00  0.00    -0.075 A 
ATOM      2  C2  N4B d   1      -1.671   0.132  -0.255  0.00  0.00     0.002 A 
ATOM      3  C3  N4B d   1      -2.519   0.154  -1.336  0.00  0.00     0.002 A 
ATOM      4  C4  N4B d   1      -2.642  -0.973  -2.134  0.00  0.00    -0.004 A 
ATOM      5  C5  N4B d   1      -1.958  -2.110  -1.818  0.00  0.00     0.002 A 
ATOM      6  C6  N4B d   1      -1.106  -2.148  -0.733  0.00  0.00     0.002 A 
ENDROOT
BRANCH   1   7
ATOM      7  C1' N4B d   1       0.057  -1.087   1.169  0.00  0.00     0.057 C 
BRANCH   7   8
ATOM      8  C2' N4B d   1      -0.492  -1.954   2.298  0.00  0.00     0.009 C 
BRANCH   8   9
ATOM      9  C3' N4B d   1      -1.397  -1.167   3.230  0.00  0.00     0.004 C 
ATOM     10  C4' N4B d   1      -2.128  -2.041   4.205  0.00  0.00     0.003 C 
ENDBRANCH   8   9
ENDBRANCH   7   8
ENDBRANCH   1   7
TORSDOF 3
ENDMDL
