MODEL 1
REMARK minimizedAffinity 5.06504154
REMARK minimizedRMSD -1
REMARK  3 active torsions:
REMARK  status: ('A' for Active; 'I' for Inactive)
REMARK    1  A    between atoms: C3'_2  and  C2'_3 
REMARK    2  A    between atoms: C2'_3  and  C1'_4 
REMARK    3  A    between atoms: C1'_4  and  C1_5 
ROOT
ATOM      1  C1  N4B d   1       5.167   3.791   4.305  0.00  0.00    -0.075 A 
ATOM      2  C2  N4B d   1       6.000   4.931   4.261  0.00  0.00     0.002 A 
ATOM      3  C3  N4B d   1       5.746   6.000   5.085  0.00  0.00     0.002 A 
ATOM      4  C4  N4B d   1       4.658   5.960   5.944  0.00  0.00    -0.004 A 
ATOM      5  C5  N4B d   1       3.874   4.845   5.999  0.00  0.00     0.002 A 
ATOM      6  C6  N4B d   1       4.120   3.762   5.180  0.00  0.00     0.002 A 
ENDROOT
BRANCH   1   7
ATOM      7  C1' N4B d   1       5.355   2.634   3.363  0.00  0.00     0.057 C 
BRANCH   7   8
ATOM      8  C2' N4B d   1       5.587   3.168   1.953  0.00  0.00     0.009 C 
BRANCH   8   9
ATOM      9  C3' N4B d   1       4.386   2.935   1.052  0.00  0.00     0.004 C 
ATOM     10  C4' N4B d   1       4.551   3.550  -0.306  0.00  0.00     0.003 C 
ENDBRANCH   8   9
ENDBRANCH   7   8
ENDBRANCH   1   7
TORSDOF 3
ENDMDL
