MODEL 1
REMARK minimizedAffinity 8.86735821
REMARK minimizedRMSD -1
REMARK  3 active torsions:
REMARK  status: ('A' for Active; 'I' for Inactive)
REMARK    1  A    between atoms: C3'_2  and  C2'_3 
REMARK    2  A    between atoms: C2'_3  and  C1'_4 
REMARK    3  A    between atoms: C1'_4  and  C1_5 
ROOT
ATOM      1  C1  N4B d   1       4.923   4.205   3.912  0.00  0.00    -0.075 A 
ATOM      2  C2  N4B d   1       3.619   4.559   4.322  0.00  0.00     0.002 A 
ATOM      3  C3  N4B d   1       3.440   5.448   5.352  0.00  0.00     0.002 A 
ATOM      4  C4  N4B d   1       4.546   5.980   5.998  0.00  0.00    -0.004 A 
ATOM      5  C5  N4B d   1       5.802   5.653   5.580  0.00  0.00     0.002 A 
ATOM      6  C6  N4B d   1       5.997   4.763   4.543  0.00  0.00     0.002 A 
ENDROOT
BRANCH   1   7
ATOM      7  C1' N4B d   1       5.168   3.171   2.847  0.00  0.00     0.057 C 
BRANCH   7   8
ATOM      8  C2' N4B d   1       4.649   3.695   1.512  0.00  0.00     0.009 C 
BRANCH   8   9
ATOM      9  C3' N4B d   1       4.129   2.576   0.626  0.00  0.00     0.004 C 
ATOM     10  C4' N4B d   1       4.082   2.957  -0.824  0.00  0.00     0.003 C 
ENDBRANCH   8   9
ENDBRANCH   7   8
ENDBRANCH   1   7
TORSDOF 3
ENDMDL
