MODEL 1
REMARK minimizedAffinity 4.78095341
REMARK minimizedRMSD -1
REMARK  3 active torsions:
REMARK  status: ('A' for Active; 'I' for Inactive)
REMARK    1  A    between atoms: C3'_2  and  C2'_3 
REMARK    2  A    between atoms: C2'_3  and  C1'_4 
REMARK    3  A    between atoms: C1'_4  and  C1_5 
ROOT
ATOM      1  C1  N4B d   1      -3.501   4.342  -4.719  0.00  0.00    -0.075 A 
ATOM      2  C2  N4B d   1      -4.288   3.363  -5.365  0.00  0.00     0.002 A 
ATOM      3  C3  N4B d   1      -5.450   3.727  -6.000  0.00  0.00     0.002 A 
ATOM      4  C4  N4B d   1      -5.853   5.053  -5.987  0.00  0.00    -0.004 A 
ATOM      5  C5  N4B d   1      -5.074   5.997  -5.383  0.00  0.00     0.002 A 
ATOM      6  C6  N4B d   1      -3.902   5.647  -4.744  0.00  0.00     0.002 A 
ENDROOT
BRANCH   1   7
ATOM      7  C1' N4B d   1      -2.267   3.980  -3.938  0.00  0.00     0.057 C 
BRANCH   7   8
ATOM      8  C2' N4B d   1      -1.897   2.529  -4.229  0.00  0.00     0.009 C 
BRANCH   8   9
ATOM      9  C3' N4B d   1      -1.301   1.840  -3.015  0.00  0.00     0.004 C 
ATOM     10  C4' N4B d   1      -2.278   0.939  -2.319  0.00  0.00     0.003 C 
ENDBRANCH   8   9
ENDBRANCH   7   8
ENDBRANCH   1   7
TORSDOF 3
ENDMDL
