MODEL 1
REMARK minimizedAffinity -2.83384776
REMARK minimizedRMSD -1
REMARK  3 active torsions:
REMARK  status: ('A' for Active; 'I' for Inactive)
REMARK    1  A    between atoms: C3'_2  and  C2'_3 
REMARK    2  A    between atoms: C2'_3  and  C1'_4 
REMARK    3  A    between atoms: C1'_4  and  C1_5 
ROOT
ATOM      1  C1  N4B d   1      -1.290   0.279  -0.689  0.00  0.00    -0.075 A 
ATOM      2  C2  N4B d   1      -1.851  -0.697  -1.543  0.00  0.00     0.002 A 
ATOM      3  C3  N4B d   1      -3.077  -1.242  -1.250  0.00  0.00     0.002 A 
ATOM      4  C4  N4B d   1      -3.748  -0.844  -0.103  0.00  0.00    -0.004 A 
ATOM      5  C5  N4B d   1      -3.211   0.117   0.702  0.00  0.00     0.002 A 
ATOM      6  C6  N4B d   1      -1.982   0.677   0.418  0.00  0.00     0.002 A 
ENDROOT
BRANCH   1   7
ATOM      7  C1' N4B d   1       0.086   0.841  -0.922  0.00  0.00     0.057 C 
BRANCH   7   8
ATOM      8  C2' N4B d   1       0.968   0.522   0.281  0.00  0.00     0.009 C 
BRANCH   8   9
ATOM      9  C3' N4B d   1       1.203  -0.971   0.434  0.00  0.00     0.004 C 
ATOM     10  C4' N4B d   1       0.384  -1.579   1.533  0.00  0.00     0.003 C 
ENDBRANCH   8   9
ENDBRANCH   7   8
ENDBRANCH   1   7
TORSDOF 3
ENDMDL
