MODEL 1
REMARK minimizedAffinity -0.72510004
REMARK minimizedRMSD -1
REMARK  3 active torsions:
REMARK  status: ('A' for Active; 'I' for Inactive)
REMARK    1  A    between atoms: C3'_2  and  C2'_3 
REMARK    2  A    between atoms: C2'_3  and  C1'_4 
REMARK    3  A    between atoms: C1'_4  and  C1_5 
ROOT
ATOM      1  C1  N4B d   1       0.343  -0.266  -0.371  0.00  0.00    -0.075 A 
ATOM      2  C2  N4B d   1      -0.270   0.268  -1.525  0.00  0.00     0.002 A 
ATOM      3  C3  N4B d   1      -1.572  -0.051  -1.821  0.00  0.00     0.002 A 
ATOM      4  C4  N4B d   1      -2.272  -0.915  -0.992  0.00  0.00    -0.004 A 
ATOM      5  C5  N4B d   1      -1.681  -1.406   0.135  0.00  0.00     0.002 A 
ATOM      6  C6  N4B d   1      -0.374  -1.090   0.447  0.00  0.00     0.002 A 
ENDROOT
BRANCH   1   7
ATOM      7  C1' N4B d   1       1.791  -0.014  -0.052  0.00  0.00     0.057 C 
BRANCH   7   8
ATOM      8  C2' N4B d   1       1.889   0.736   1.273  0.00  0.00     0.009 C 
BRANCH   8   9
ATOM      9  C3' N4B d   1       2.210   2.207   1.071  0.00  0.00     0.004 C 
ATOM     10  C4' N4B d   1       2.273   2.971   2.361  0.00  0.00     0.003 C 
ENDBRANCH   8   9
ENDBRANCH   7   8
ENDBRANCH   1   7
TORSDOF 3
ENDMDL
