MODEL 1
REMARK minimizedAffinity 3.60031629
REMARK minimizedRMSD -1
REMARK  3 active torsions:
REMARK  status: ('A' for Active; 'I' for Inactive)
REMARK    1  A    between atoms: C3'_2  and  C2'_3 
REMARK    2  A    between atoms: C2'_3  and  C1'_4 
REMARK    3  A    between atoms: C1'_4  and  C1_5 
ROOT
ATOM      1  C1  N4B d   1       5.872   0.417  -1.613  0.00  0.00    -0.075 A 
ATOM      2  C2  N4B d   1       5.945   0.004  -0.265  0.00  0.00     0.002 A 
ATOM      3  C3  N4B d   1       5.998   0.941   0.738  0.00  0.00     0.002 A 
ATOM      4  C4  N4B d   1       5.998   2.290   0.417  0.00  0.00    -0.004 A 
ATOM      5  C5  N4B d   1       5.902   2.681  -0.887  0.00  0.00     0.002 A 
ATOM      6  C6  N4B d   1       5.844   1.750  -1.905  0.00  0.00     0.002 A 
ENDROOT
BRANCH   1   7
ATOM      7  C1' N4B d   1       5.900  -0.570  -2.748  0.00  0.00     0.057 C 
BRANCH   7   8
ATOM      8  C2' N4B d   1       4.546  -1.268  -2.838  0.00  0.00     0.009 C 
BRANCH   8   9
ATOM      9  C3' N4B d   1       3.633  -0.888  -1.684  0.00  0.00     0.004 C 
ATOM     10  C4' N4B d   1       2.717   0.250  -2.019  0.00  0.00     0.003 C 
ENDBRANCH   8   9
ENDBRANCH   7   8
ENDBRANCH   1   7
TORSDOF 3
ENDMDL
