MODEL 1
REMARK minimizedAffinity -3.56566858
REMARK minimizedRMSD -1
REMARK  3 active torsions:
REMARK  status: ('A' for Active; 'I' for Inactive)
REMARK    1  A    between atoms: C3'_2  and  C2'_3 
REMARK    2  A    between atoms: C2'_3  and  C1'_4 
REMARK    3  A    between atoms: C1'_4  and  C1_5 
ROOT
ATOM      1  C1  N4B d   1      -2.825  -1.837   0.238  0.00  0.00    -0.075 A 
ATOM      2  C2  N4B d   1      -1.848  -1.083   0.924  0.00  0.00     0.002 A 
ATOM      3  C3  N4B d   1      -0.993  -0.268   0.224  0.00  0.00     0.002 A 
ATOM      4  C4  N4B d   1      -1.084  -0.206  -1.159  0.00  0.00    -0.004 A 
ATOM      5  C5  N4B d   1      -2.047  -0.918  -1.812  0.00  0.00     0.002 A 
ATOM      6  C6  N4B d   1      -2.915  -1.738  -1.120  0.00  0.00     0.002 A 
ENDROOT
BRANCH   1   7
ATOM      7  C1' N4B d   1      -3.726  -2.807   0.953  0.00  0.00     0.057 C 
BRANCH   7   8
ATOM      8  C2' N4B d   1      -2.889  -3.665   1.898  0.00  0.00     0.009 C 
BRANCH   8   9
ATOM      9  C3' N4B d   1      -2.065  -4.698   1.148  0.00  0.00     0.004 C 
ATOM     10  C4' N4B d   1      -1.954  -5.999   1.886  0.00  0.00     0.003 C 
ENDBRANCH   8   9
ENDBRANCH   7   8
ENDBRANCH   1   7
TORSDOF 3
ENDMDL
