MODEL 1
REMARK minimizedAffinity 1.67123532
REMARK minimizedRMSD -1
REMARK  3 active torsions:
REMARK  status: ('A' for Active; 'I' for Inactive)
REMARK    1  A    between atoms: C3'_2  and  C2'_3 
REMARK    2  A    between atoms: C2'_3  and  C1'_4 
REMARK    3  A    between atoms: C1'_4  and  C1_5 
ROOT
ATOM      1  C1  N4B d   1      -0.605  -0.447   0.261  0.00  0.00    -0.075 A 
ATOM      2  C2  N4B d   1       0.678  -0.701   0.795  0.00  0.00     0.002 A 
ATOM      3  C3  N4B d   1       1.796  -0.488   0.027  0.00  0.00     0.002 A 
ATOM      4  C4  N4B d   1       1.656  -0.042  -1.279  0.00  0.00    -0.004 A 
ATOM      5  C5  N4B d   1       0.415   0.226  -1.779  0.00  0.00     0.002 A 
ATOM      6  C6  N4B d   1      -0.717   0.020  -1.016  0.00  0.00     0.002 A 
ENDROOT
BRANCH   1   7
ATOM      7  C1' N4B d   1      -1.860  -0.746   1.034  0.00  0.00     0.057 C 
BRANCH   7   8
ATOM      8  C2' N4B d   1      -2.942  -1.221   0.068  0.00  0.00     0.009 C 
BRANCH   8   9
ATOM      9  C3' N4B d   1      -4.327  -0.770   0.500  0.00  0.00     0.004 C 
ATOM     10  C4' N4B d   1      -5.270  -1.916   0.714  0.00  0.00     0.003 C 
ENDBRANCH   8   9
ENDBRANCH   7   8
ENDBRANCH   1   7
TORSDOF 3
ENDMDL
