MODEL 1
REMARK minimizedAffinity -0.520093799
REMARK minimizedRMSD -1
REMARK  0 active torsions:
REMARK  status: ('A' for Active; 'I' for Inactive)
ROOT
ATOM      1  C   UNL d   1       3.470  -5.982  -5.999  0.00  0.00     0.023 A 
ATOM      2  C1  UNL d   1       4.674  -5.993  -5.294  0.00  0.00     0.003 A 
ATOM      3  C2  UNL d   1       4.667  -5.998  -3.898  0.00  0.00     0.048 A 
ATOM      4  C3  UNL d   1       3.452  -5.992  -3.212  0.00  0.00     0.023 A 
ATOM      5  C4  UNL d   1       2.245  -5.982  -3.913  0.00  0.00     0.048 A 
ATOM      6  C5  UNL d   1       2.257  -5.976  -5.310  0.00  0.00     0.003 A 
ATOM      7  I   UNL d   1       3.439  -6.000  -1.134  0.00  0.00    -0.146 I 
ENDROOT
TORSDOF 0
ENDMDL
