MODEL 1
REMARK minimizedAffinity 8.07668972
REMARK minimizedRMSD -1
REMARK  0 active torsions:
REMARK  status: ('A' for Active; 'I' for Inactive)
ROOT
ATOM      1  C   UNL d   1      -4.962   4.420   1.843  0.00  0.00     0.023 A 
ATOM      2  C1  UNL d   1      -3.611   4.223   2.128  0.00  0.00     0.003 A 
ATOM      3  C2  UNL d   1      -2.849   3.355   1.344  0.00  0.00     0.048 A 
ATOM      4  C3  UNL d   1      -3.444   2.688   0.274  0.00  0.00     0.023 A 
ATOM      5  C4  UNL d   1      -4.796   2.882  -0.017  0.00  0.00     0.048 A 
ATOM      6  C5  UNL d   1      -5.554   3.750   0.772  0.00  0.00     0.003 A 
ATOM      7  I   UNL d   1      -2.312   1.395  -0.896  0.00  0.00    -0.146 I 
ENDROOT
TORSDOF 0
ENDMDL
