MODEL 1
REMARK minimizedAffinity -0.918904066
REMARK minimizedRMSD -1
REMARK  0 active torsions:
REMARK  status: ('A' for Active; 'I' for Inactive)
ROOT
ATOM      1  C   UNL d   1       6.000  -3.871  -4.887  0.00  0.00     0.023 A 
ATOM      2  C1  UNL d   1       5.702  -3.110  -3.757  0.00  0.00     0.003 A 
ATOM      3  C2  UNL d   1       5.146  -3.719  -2.630  0.00  0.00     0.048 A 
ATOM      4  C3  UNL d   1       4.891  -5.090  -2.640  0.00  0.00     0.023 A 
ATOM      5  C4  UNL d   1       5.188  -5.856  -3.768  0.00  0.00     0.048 A 
ATOM      6  C5  UNL d   1       5.743  -5.243  -4.893  0.00  0.00     0.003 A 
ATOM      7  I   UNL d   1       4.063  -5.999  -0.964  0.00  0.00    -0.146 I 
ENDROOT
TORSDOF 0
ENDMDL
