MODEL 1
REMARK minimizedAffinity 1.75391507
REMARK minimizedRMSD -1
REMARK  0 active torsions:
REMARK  status: ('A' for Active; 'I' for Inactive)
ROOT
ATOM      1  C   UNL d   1       1.178  -5.968  -4.301  0.00  0.00     0.023 A 
ATOM      2  C1  UNL d   1       1.566  -5.951  -5.641  0.00  0.00     0.003 A 
ATOM      3  C2  UNL d   1       2.922  -5.951  -5.977  0.00  0.00     0.048 A 
ATOM      4  C3  UNL d   1       3.884  -5.971  -4.967  0.00  0.00     0.023 A 
ATOM      5  C4  UNL d   1       3.500  -5.989  -3.625  0.00  0.00     0.048 A 
ATOM      6  C5  UNL d   1       2.144  -5.988  -3.295  0.00  0.00     0.003 A 
ATOM      7  I   UNL d   1       5.902  -5.972  -5.464  0.00  0.00    -0.146 I 
ENDROOT
TORSDOF 0
ENDMDL
