MODEL 1
REMARK minimizedAffinity 8.19000053
REMARK minimizedRMSD -1
REMARK  0 active torsions:
REMARK  status: ('A' for Active; 'I' for Inactive)
ROOT
ATOM      1  C   UNL d   1      -5.405   3.861   1.510  0.00  0.00     0.023 A 
ATOM      2  C1  UNL d   1      -4.121   3.375   1.755  0.00  0.00     0.003 A 
ATOM      3  C2  UNL d   1      -3.429   2.691   0.753  0.00  0.00     0.048 A 
ATOM      4  C3  UNL d   1      -4.027   2.497  -0.491  0.00  0.00     0.023 A 
ATOM      5  C4  UNL d   1      -5.312   2.983  -0.741  0.00  0.00     0.048 A 
ATOM      6  C5  UNL d   1      -6.000   3.666   0.264  0.00  0.00     0.003 A 
ATOM      7  I   UNL d   1      -3.000   1.479  -1.984  0.00  0.00    -0.146 I 
ENDROOT
TORSDOF 0
ENDMDL
