MODEL 1
REMARK minimizedAffinity 2.1663115
REMARK minimizedRMSD -1
REMARK  0 active torsions:
REMARK  status: ('A' for Active; 'I' for Inactive)
ROOT
ATOM      1  C   UNL d   1       3.548  -5.871  -1.536  0.00  0.00     0.023 A 
ATOM      2  C1  UNL d   1       2.717  -5.962  -2.654  0.00  0.00     0.003 A 
ATOM      3  C2  UNL d   1       3.270  -5.999  -3.935  0.00  0.00     0.048 A 
ATOM      4  C3  UNL d   1       4.655  -5.945  -4.092  0.00  0.00     0.023 A 
ATOM      5  C4  UNL d   1       5.490  -5.855  -2.977  0.00  0.00     0.048 A 
ATOM      6  C5  UNL d   1       4.932  -5.817  -1.698  0.00  0.00     0.003 A 
ATOM      7  I   UNL d   1       5.481  -6.000  -5.999  0.00  0.00    -0.146 I 
ENDROOT
TORSDOF 0
ENDMDL
