MODEL 1
REMARK minimizedAffinity 10.7446795
REMARK minimizedRMSD -1
REMARK  0 active torsions:
REMARK  status: ('A' for Active; 'I' for Inactive)
ROOT
ATOM      1  C   UNL d   1      -5.945   1.366   0.703  0.00  0.00     0.023 A 
ATOM      2  C1  UNL d   1      -5.984   1.595  -0.673  0.00  0.00     0.003 A 
ATOM      3  C2  UNL d   1      -6.000   2.903  -1.164  0.00  0.00     0.048 A 
ATOM      4  C3  UNL d   1      -5.976   3.976  -0.274  0.00  0.00     0.023 A 
ATOM      5  C4  UNL d   1      -5.936   3.751   1.103  0.00  0.00     0.048 A 
ATOM      6  C5  UNL d   1      -5.921   2.443   1.589  0.00  0.00     0.003 A 
ATOM      7  I   UNL d   1      -5.999   5.922  -1.003  0.00  0.00    -0.146 I 
ENDROOT
TORSDOF 0
ENDMDL
