MODEL 1
REMARK minimizedAffinity 6.8338871
REMARK minimizedRMSD -1
REMARK  0 active torsions:
REMARK  status: ('A' for Active; 'I' for Inactive)
ROOT
ATOM      1  C   UNL d   1       1.176  -3.283   3.379  0.00  0.00     0.023 A 
ATOM      2  C1  UNL d   1       1.781  -2.075   3.034  0.00  0.00     0.003 A 
ATOM      3  C2  UNL d   1       3.147  -1.888   3.255  0.00  0.00     0.048 A 
ATOM      4  C3  UNL d   1       3.902  -2.915   3.822  0.00  0.00     0.023 A 
ATOM      5  C4  UNL d   1       3.300  -4.125   4.169  0.00  0.00     0.048 A 
ATOM      6  C5  UNL d   1       1.934  -4.307   3.947  0.00  0.00     0.003 A 
ATOM      7  I   UNL d   1       5.935  -2.640   4.153  0.00  0.00    -0.146 I 
ENDROOT
TORSDOF 0
ENDMDL
