MODEL 1
REMARK minimizedAffinity 0.385037124
REMARK minimizedRMSD -1
REMARK  0 active torsions:
REMARK  status: ('A' for Active; 'I' for Inactive)
ROOT
ATOM      1  C   UNL d   1       5.461   0.370  -5.521  0.00  0.00     0.023 A 
ATOM      2  C1  UNL d   1       5.998  -0.760  -4.904  0.00  0.00     0.003 A 
ATOM      3  C2  UNL d   1       5.532  -1.161  -3.651  0.00  0.00     0.048 A 
ATOM      4  C3  UNL d   1       4.527  -0.428  -3.020  0.00  0.00     0.023 A 
ATOM      5  C4  UNL d   1       3.986   0.703  -3.633  0.00  0.00     0.048 A 
ATOM      6  C5  UNL d   1       4.456   1.101  -4.886  0.00  0.00     0.003 A 
ATOM      7  I   UNL d   1       3.831  -1.023  -1.154  0.00  0.00    -0.146 I 
ENDROOT
TORSDOF 0
ENDMDL
