MODEL 1
REMARK minimizedAffinity 9.39591408
REMARK minimizedRMSD -1
REMARK  0 active torsions:
REMARK  status: ('A' for Active; 'I' for Inactive)
ROOT
ATOM      1  C   UNL d   1      -2.523   1.315  -2.459  0.00  0.00     0.124 A 
ATOM      2  C1  UNL d   1      -2.527  -0.073  -2.455  0.00  0.00     0.062 A 
ATOM      3  C2  UNL d   1      -1.492  -0.774  -1.842  0.00  0.00     0.162 A 
ATOM      4  C3  UNL d   1      -0.445  -0.088  -1.227  0.00  0.00    -0.034 A 
ATOM      5  C4  UNL d   1      -0.448   1.308  -1.236  0.00  0.00     0.162 A 
ATOM      6  C5  UNL d   1      -1.484   2.004  -1.850  0.00  0.00     0.062 A 
ATOM      7  F   UNL d   1      -1.479   3.345  -1.853  0.00  0.00    -0.097 F 
ATOM      8  F1  UNL d   1       0.544   2.000  -0.654  0.00  0.00    -0.096 F 
ATOM      9  I   UNL d   1       1.104  -1.132  -0.310  0.00  0.00    -0.060 I 
ATOM     10  F2  UNL d   1      -1.521  -2.115  -1.853  0.00  0.00    -0.096 F 
ATOM     11  F3  UNL d   1      -3.529  -0.741  -3.044  0.00  0.00    -0.097 F 
ATOM     12  F4  UNL d   1      -3.519   1.987  -3.050  0.00  0.00    -0.092 F 
ENDROOT
TORSDOF 0
ENDMDL
