MODEL 1
REMARK minimizedAffinity 19.4854393
REMARK minimizedRMSD -1
REMARK  0 active torsions:
REMARK  status: ('A' for Active; 'I' for Inactive)
ROOT
ATOM      1  C   UNL d   1       1.520  -0.454   2.572  0.00  0.00     0.124 A 
ATOM      2  C1  UNL d   1       0.425   0.313   2.945  0.00  0.00     0.062 A 
ATOM      3  C2  UNL d   1      -0.362   0.928   1.976  0.00  0.00     0.162 A 
ATOM      4  C3  UNL d   1      -0.058   0.777   0.623  0.00  0.00    -0.034 A 
ATOM      5  C4  UNL d   1       1.046   0.005   0.255  0.00  0.00     0.162 A 
ATOM      6  C5  UNL d   1       1.829  -0.607   1.228  0.00  0.00     0.062 A 
ATOM      7  F   UNL d   1       2.887  -1.347   0.866  0.00  0.00    -0.097 F 
ATOM      8  F1  UNL d   1       1.367  -0.160  -1.036  0.00  0.00    -0.096 F 
ATOM      9  I   UNL d   1      -1.232   1.695  -0.830  0.00  0.00    -0.060 I 
ATOM     10  F2  UNL d   1      -1.414   1.663   2.365  0.00  0.00    -0.096 F 
ATOM     11  F3  UNL d   1       0.124   0.463   4.243  0.00  0.00    -0.097 F 
ATOM     12  F4  UNL d   1       2.276  -1.044   3.507  0.00  0.00    -0.092 F 
ENDROOT
TORSDOF 0
ENDMDL
