MODEL 1
REMARK minimizedAffinity 9.09664631
REMARK minimizedRMSD -1
REMARK  0 active torsions:
REMARK  status: ('A' for Active; 'I' for Inactive)
ROOT
ATOM      1  C   UNL d   1       0.478   1.089   1.510  0.00  0.00     0.124 A 
ATOM      2  C1  UNL d   1       0.085   1.315   0.198  0.00  0.00     0.062 A 
ATOM      3  C2  UNL d   1      -0.440   0.276  -0.565  0.00  0.00     0.162 A 
ATOM      4  C3  UNL d   1      -0.576  -1.000  -0.017  0.00  0.00    -0.034 A 
ATOM      5  C4  UNL d   1      -0.178  -1.220   1.303  0.00  0.00     0.162 A 
ATOM      6  C5  UNL d   1       0.346  -0.178   2.061  0.00  0.00     0.062 A 
ATOM      7  F   UNL d   1       0.725  -0.398   3.328  0.00  0.00    -0.097 F 
ATOM      8  F1  UNL d   1      -0.295  -2.434   1.861  0.00  0.00    -0.096 F 
ATOM      9  I   UNL d   1      -1.361  -2.556  -1.154  0.00  0.00    -0.060 I 
ATOM     10  F2  UNL d   1      -0.812   0.523  -1.830  0.00  0.00    -0.096 F 
ATOM     11  F3  UNL d   1       0.212   2.538  -0.337  0.00  0.00    -0.097 F 
ATOM     12  F4  UNL d   1       0.983   2.091   2.241  0.00  0.00    -0.092 F 
ENDROOT
TORSDOF 0
ENDMDL
