MODEL 1
REMARK minimizedAffinity 16.0365314
REMARK minimizedRMSD -1
REMARK  0 active torsions:
REMARK  status: ('A' for Active; 'I' for Inactive)
ROOT
ATOM      1  C   UNL d   1      -0.551   1.495  -0.175  0.00  0.00     0.124 A 
ATOM      2  C1  UNL d   1       0.344   0.592  -0.733  0.00  0.00     0.062 A 
ATOM      3  C2  UNL d   1       1.371   0.057   0.039  0.00  0.00     0.162 A 
ATOM      4  C3  UNL d   1       1.509   0.422   1.378  0.00  0.00    -0.034 A 
ATOM      5  C4  UNL d   1       0.605   1.331   1.932  0.00  0.00     0.162 A 
ATOM      6  C5  UNL d   1      -0.419   1.863   1.156  0.00  0.00     0.062 A 
ATOM      7  F   UNL d   1      -1.283   2.735   1.697  0.00  0.00    -0.097 F 
ATOM      8  F1  UNL d   1       0.708   1.704   3.216  0.00  0.00    -0.096 F 
ATOM      9  I   UNL d   1       3.043  -0.376   2.536  0.00  0.00    -0.060 I 
ATOM     10  F2  UNL d   1       2.221  -0.813  -0.526  0.00  0.00    -0.096 F 
ATOM     11  F3  UNL d   1       0.220   0.235  -2.019  0.00  0.00    -0.097 F 
ATOM     12  F4  UNL d   1      -1.537   2.009  -0.921  0.00  0.00    -0.092 F 
ENDROOT
TORSDOF 0
ENDMDL
