MODEL 1
REMARK minimizedAffinity -0.0430032425
REMARK minimizedRMSD -1
REMARK  0 active torsions:
REMARK  status: ('A' for Active; 'I' for Inactive)
ROOT
ATOM      1  C   UNL d   1       1.058   0.869   2.332  0.00  0.00     0.124 A 
ATOM      2  C1  UNL d   1       0.342   1.878   1.703  0.00  0.00     0.062 A 
ATOM      3  C2  UNL d   1      -0.081   1.719   0.386  0.00  0.00     0.162 A 
ATOM      4  C3  UNL d   1       0.212   0.547  -0.311  0.00  0.00    -0.034 A 
ATOM      5  C4  UNL d   1       0.934  -0.463   0.329  0.00  0.00     0.162 A 
ATOM      6  C5  UNL d   1       1.353  -0.300   1.645  0.00  0.00     0.062 A 
ATOM      7  F   UNL d   1       2.045  -1.275   2.251  0.00  0.00    -0.097 F 
ATOM      8  F1  UNL d   1       1.232  -1.603  -0.312  0.00  0.00    -0.096 F 
ATOM      9  I   UNL d   1      -0.418   0.306  -2.280  0.00  0.00    -0.060 I 
ATOM     10  F2  UNL d   1      -0.771   2.710  -0.197  0.00  0.00    -0.096 F 
ATOM     11  F3  UNL d   1       0.056   3.008   2.364  0.00  0.00    -0.097 F 
ATOM     12  F4  UNL d   1       1.464   1.025   3.599  0.00  0.00    -0.092 F 
ENDROOT
TORSDOF 0
ENDMDL
