MODEL 1
REMARK minimizedAffinity 6.2801218
REMARK minimizedRMSD -1
REMARK  0 active torsions:
REMARK  status: ('A' for Active; 'I' for Inactive)
ROOT
ATOM      1  C   UNL d   1      -0.608   1.584  -0.197  0.00  0.00     0.124 A 
ATOM      2  C1  UNL d   1      -0.568   1.765   1.178  0.00  0.00     0.062 A 
ATOM      3  C2  UNL d   1       0.363   1.075   1.948  0.00  0.00     0.162 A 
ATOM      4  C3  UNL d   1       1.262   0.196   1.345  0.00  0.00    -0.034 A 
ATOM      5  C4  UNL d   1       1.215   0.018  -0.039  0.00  0.00     0.162 A 
ATOM      6  C5  UNL d   1       0.283   0.711  -0.804  0.00  0.00     0.062 A 
ATOM      7  F   UNL d   1       0.246   0.534  -2.133  0.00  0.00    -0.097 F 
ATOM      8  F1  UNL d   1       2.066  -0.819  -0.652  0.00  0.00    -0.096 F 
ATOM      9  I   UNL d   1       2.656  -0.839   2.493  0.00  0.00    -0.060 I 
ATOM     10  F2  UNL d   1       0.379   1.269   3.275  0.00  0.00    -0.096 F 
ATOM     11  F3  UNL d   1      -1.429   2.608   1.767  0.00  0.00    -0.097 F 
ATOM     12  F4  UNL d   1      -1.506   2.249  -0.936  0.00  0.00    -0.092 F 
ENDROOT
TORSDOF 0
ENDMDL
