MODEL 1
REMARK minimizedAffinity 17.3585815
REMARK minimizedRMSD -1
REMARK  0 active torsions:
REMARK  status: ('A' for Active; 'I' for Inactive)
ROOT
ATOM      1  C   UNL d   1      -0.351   0.957  -0.224  0.00  0.00     0.124 A 
ATOM      2  C1  UNL d   1      -0.326   1.095   1.157  0.00  0.00     0.062 A 
ATOM      3  C2  UNL d   1       0.756   0.613   1.889  0.00  0.00     0.162 A 
ATOM      4  C3  UNL d   1       1.822  -0.011   1.241  0.00  0.00    -0.034 A 
ATOM      5  C4  UNL d   1       1.789  -0.147  -0.148  0.00  0.00     0.162 A 
ATOM      6  C5  UNL d   1       0.706   0.337  -0.875  0.00  0.00     0.062 A 
ATOM      7  F   UNL d   1       0.683   0.203  -2.209  0.00  0.00    -0.097 F 
ATOM      8  F1  UNL d   1       2.797  -0.741  -0.803  0.00  0.00    -0.096 F 
ATOM      9  I   UNL d   1       3.441  -0.734   2.332  0.00  0.00    -0.060 I 
ATOM     10  F2  UNL d   1       0.753   0.759   3.222  0.00  0.00    -0.096 F 
ATOM     11  F3  UNL d   1      -1.346   1.693   1.789  0.00  0.00    -0.097 F 
ATOM     12  F4  UNL d   1      -1.393   1.421  -0.925  0.00  0.00    -0.092 F 
ENDROOT
TORSDOF 0
ENDMDL
