MODEL 1
REMARK minimizedAffinity 11.0841541
REMARK minimizedRMSD -1
REMARK  0 active torsions:
REMARK  status: ('A' for Active; 'I' for Inactive)
ROOT
ATOM      1  C   UNL d   1       1.814  -0.637   2.724  0.00  0.00     0.124 A 
ATOM      2  C1  UNL d   1       0.772   0.247   2.968  0.00  0.00     0.062 A 
ATOM      3  C2  UNL d   1       0.105   0.853   1.908  0.00  0.00     0.162 A 
ATOM      4  C3  UNL d   1       0.476   0.576   0.592  0.00  0.00    -0.034 A 
ATOM      5  C4  UNL d   1       1.525  -0.314   0.354  0.00  0.00     0.162 A 
ATOM      6  C5  UNL d   1       2.190  -0.916   1.417  0.00  0.00     0.062 A 
ATOM      7  F   UNL d   1       3.196  -1.770   1.179  0.00  0.00    -0.097 F 
ATOM      8  F1  UNL d   1       1.908  -0.603  -0.899  0.00  0.00    -0.096 F 
ATOM      9  I   UNL d   1      -0.520   1.479  -0.997  0.00  0.00    -0.060 I 
ATOM     10  F2  UNL d   1      -0.898   1.703   2.173  0.00  0.00    -0.096 F 
ATOM     11  F3  UNL d   1       0.408   0.520   4.229  0.00  0.00    -0.097 F 
ATOM     12  F4  UNL d   1       2.456  -1.217   3.746  0.00  0.00    -0.092 F 
ENDROOT
TORSDOF 0
ENDMDL
