MODEL 1
REMARK minimizedAffinity -2.77205443
REMARK minimizedRMSD -1
REMARK  2 active torsions:
REMARK  status: ('A' for Active; 'I' for Inactive)
REMARK    1  A    between atoms: C2'_3  and  C1'_4 
REMARK    2  A    between atoms: C1'_4  and  C1_5 
ROOT
ATOM      1  C1  I4B d   1      -0.210  -0.539   0.021  0.00  0.00    -0.075 A 
ATOM      2  C2  I4B d   1      -1.321  -0.123   0.711  0.00  0.00     0.003 A 
ATOM      3  C3  I4B d   1      -1.219   0.916   1.667  0.00  0.00     0.002 A 
ATOM      4  C4  I4B d   1       0.015   1.472   1.937  0.00  0.00    -0.004 A 
ATOM      5  C5  I4B d   1       1.137   1.064   1.220  0.00  0.00     0.002 A 
ATOM      6  C6  I4B d   1       1.022   0.061   0.247  0.00  0.00     0.003 A 
ENDROOT
BRANCH   1   7
ATOM      7  C1' I4B d   1      -0.348  -1.661  -0.959  0.00  0.00     0.060 C 
BRANCH   7   8
ATOM      8  C2' I4B d   1      -1.656  -1.474  -1.701  0.00  0.00    -0.013 C 
ATOM      9  C4' I4B d   1      -1.417  -1.135  -3.149  0.00  0.00     0.013 C 
ATOM     10  C3' I4B d   1      -2.450  -2.739  -1.566  0.00  0.00     0.013 C 
ENDBRANCH   7   8
ENDBRANCH   1   7
TORSDOF 2
ENDMDL
