MODEL 1
REMARK minimizedAffinity -4.53227282
REMARK minimizedRMSD -1
REMARK  2 active torsions:
REMARK  status: ('A' for Active; 'I' for Inactive)
REMARK    1  A    between atoms: C2'_3  and  C1'_4 
REMARK    2  A    between atoms: C1'_4  and  C1_5 
ROOT
ATOM      1  C1  I4B d   1       0.044  -0.387  -0.184  0.00  0.00    -0.075 A 
ATOM      2  C2  I4B d   1      -1.034   0.315   0.293  0.00  0.00     0.003 A 
ATOM      3  C3  I4B d   1      -0.853   1.324   1.269  0.00  0.00     0.002 A 
ATOM      4  C4  I4B d   1       0.409   1.563   1.774  0.00  0.00    -0.004 A 
ATOM      5  C5  I4B d   1       1.505   0.867   1.272  0.00  0.00     0.002 A 
ATOM      6  C6  I4B d   1       1.324  -0.106   0.278  0.00  0.00     0.003 A 
ENDROOT
BRANCH   1   7
ATOM      7  C1' I4B d   1      -0.187  -1.469  -1.191  0.00  0.00     0.060 C 
BRANCH   7   8
ATOM      8  C2' I4B d   1      -1.641  -1.410  -1.613  0.00  0.00    -0.013 C 
ATOM      9  C4' I4B d   1      -1.770  -1.265  -3.106  0.00  0.00     0.013 C 
ATOM     10  C3' I4B d   1      -2.315  -2.660  -1.129  0.00  0.00     0.013 C 
ENDBRANCH   7   8
ENDBRANCH   1   7
TORSDOF 2
ENDMDL
