MODEL 1
REMARK minimizedAffinity -3.18729591
REMARK minimizedRMSD -1
REMARK  2 active torsions:
REMARK  status: ('A' for Active; 'I' for Inactive)
REMARK    1  A    between atoms: C2'_3  and  C1'_4 
REMARK    2  A    between atoms: C1'_4  and  C1_5 
ROOT
ATOM      1  C1  I4B d   1      -0.016  -0.199   0.157  0.00  0.00    -0.075 A 
ATOM      2  C2  I4B d   1      -0.470   0.702   1.088  0.00  0.00     0.003 A 
ATOM      3  C3  I4B d   1       0.424   1.625   1.681  0.00  0.00     0.002 A 
ATOM      4  C4  I4B d   1       1.764   1.580   1.354  0.00  0.00    -0.004 A 
ATOM      5  C5  I4B d   1       2.218   0.682   0.392  0.00  0.00     0.002 A 
ATOM      6  C6  I4B d   1       1.321  -0.206  -0.219  0.00  0.00     0.003 A 
ENDROOT
BRANCH   1   7
ATOM      7  C1' I4B d   1      -0.982  -1.182  -0.425  0.00  0.00     0.060 C 
BRANCH   7   8
ATOM      8  C2' I4B d   1      -1.568  -0.572  -1.682  0.00  0.00    -0.013 C 
ATOM      9  C4' I4B d   1      -2.085  -1.636  -2.615  0.00  0.00     0.013 C 
ATOM     10  C3' I4B d   1      -2.663   0.368  -1.274  0.00  0.00     0.013 C 
ENDBRANCH   7   8
ENDBRANCH   1   7
TORSDOF 2
ENDMDL
