MODEL 1
REMARK minimizedAffinity -4.11460733
REMARK minimizedRMSD -1
REMARK  2 active torsions:
REMARK  status: ('A' for Active; 'I' for Inactive)
REMARK    1  A    between atoms: C2'_3  and  C1'_4 
REMARK    2  A    between atoms: C1'_4  and  C1_5 
ROOT
ATOM      1  C1  I4B d   1      -0.375  -0.863  -0.094  0.00  0.00    -0.075 A 
ATOM      2  C2  I4B d   1       0.910  -0.712  -0.551  0.00  0.00     0.003 A 
ATOM      3  C3  I4B d   1       1.799   0.175   0.102  0.00  0.00     0.002 A 
ATOM      4  C4  I4B d   1       1.350   0.924   1.170  0.00  0.00    -0.004 A 
ATOM      5  C5  I4B d   1       0.054   0.753   1.647  0.00  0.00     0.002 A 
ATOM      6  C6  I4B d   1      -0.811  -0.155   1.019  0.00  0.00     0.003 A 
ENDROOT
BRANCH   1   7
ATOM      7  C1' I4B d   1      -1.298  -1.784  -0.827  0.00  0.00     0.060 C 
BRANCH   7   8
ATOM      8  C2' I4B d   1      -1.830  -1.045  -2.038  0.00  0.00    -0.013 C 
ATOM      9  C4' I4B d   1      -1.132  -1.487  -3.297  0.00  0.00     0.013 C 
ATOM     10  C3' I4B d   1      -3.307  -1.295  -2.121  0.00  0.00     0.013 C 
ENDBRANCH   7   8
ENDBRANCH   1   7
TORSDOF 2
ENDMDL
