MODEL 1
REMARK minimizedAffinity -2.17558885
REMARK minimizedRMSD -1
REMARK  2 active torsions:
REMARK  status: ('A' for Active; 'I' for Inactive)
REMARK    1  A    between atoms: C2'_3  and  C1'_4 
REMARK    2  A    between atoms: C1'_4  and  C1_5 
ROOT
ATOM      1  C1  I4B d   1      -0.825   0.548  -0.143  0.00  0.00    -0.075 A 
ATOM      2  C2  I4B d   1       0.444   0.053   0.030  0.00  0.00     0.003 A 
ATOM      3  C3  I4B d   1       1.257   0.530   1.087  0.00  0.00     0.002 A 
ATOM      4  C4  I4B d   1       0.784   1.532   1.909  0.00  0.00    -0.004 A 
ATOM      5  C5  I4B d   1      -0.511   2.016   1.747  0.00  0.00     0.002 A 
ATOM      6  C6  I4B d   1      -1.325   1.512   0.722  0.00  0.00     0.003 A 
ENDROOT
BRANCH   1   7
ATOM      7  C1' I4B d   1      -1.644   0.045  -1.288  0.00  0.00     0.060 C 
BRANCH   7   8
ATOM      8  C2' I4B d   1      -1.319  -1.421  -1.487  0.00  0.00    -0.013 C 
ATOM      9  C4' I4B d   1      -2.536  -2.283  -1.277  0.00  0.00     0.013 C 
ATOM     10  C3' I4B d   1      -0.768  -1.590  -2.872  0.00  0.00     0.013 C 
ENDBRANCH   7   8
ENDBRANCH   1   7
TORSDOF 2
ENDMDL
