MODEL 1
REMARK minimizedAffinity -2.11370707
REMARK minimizedRMSD -1
REMARK  2 active torsions:
REMARK  status: ('A' for Active; 'I' for Inactive)
REMARK    1  A    between atoms: C2'_3  and  C1'_4 
REMARK    2  A    between atoms: C1'_4  and  C1_5 
ROOT
ATOM      1  C1  I4B d   1      -0.952  -0.710  -0.613  0.00  0.00    -0.075 A 
ATOM      2  C2  I4B d   1      -2.055  -1.527  -0.637  0.00  0.00     0.003 A 
ATOM      3  C3  I4B d   1      -2.707  -1.808  -1.861  0.00  0.00     0.002 A 
ATOM      4  C4  I4B d   1      -2.257  -1.216  -3.023  0.00  0.00    -0.004 A 
ATOM      5  C5  I4B d   1      -1.124  -0.407  -3.001  0.00  0.00     0.002 A 
ATOM      6  C6  I4B d   1      -0.460  -0.162  -1.791  0.00  0.00     0.003 A 
ENDROOT
BRANCH   1   7
ATOM      7  C1' I4B d   1      -0.307  -0.407   0.702  0.00  0.00     0.060 C 
BRANCH   7   8
ATOM      8  C2' I4B d   1      -0.424   1.083   0.947  0.00  0.00    -0.013 C 
ATOM      9  C4' I4B d   1      -1.764   1.436   1.536  0.00  0.00     0.013 C 
ATOM     10  C3' I4B d   1       0.694   1.491   1.860  0.00  0.00     0.013 C 
ENDBRANCH   7   8
ENDBRANCH   1   7
TORSDOF 2
ENDMDL
