MODEL 1
REMARK minimizedAffinity -1.7798903
REMARK minimizedRMSD -1
REMARK  2 active torsions:
REMARK  status: ('A' for Active; 'I' for Inactive)
REMARK    1  A    between atoms: C2'_3  and  C1'_4 
REMARK    2  A    between atoms: C1'_4  and  C1_5 
ROOT
ATOM      1  C1  I4B d   1       0.068  -0.331   0.114  0.00  0.00    -0.075 A 
ATOM      2  C2  I4B d   1      -1.033   0.278   0.663  0.00  0.00     0.003 A 
ATOM      3  C3  I4B d   1      -0.874   1.336   1.591  0.00  0.00     0.002 A 
ATOM      4  C4  I4B d   1       0.395   1.716   1.977  0.00  0.00    -0.004 A 
ATOM      5  C5  I4B d   1       1.510   1.113   1.402  0.00  0.00     0.002 A 
ATOM      6  C6  I4B d   1       1.346   0.092   0.455  0.00  0.00     0.003 A 
ENDROOT
BRANCH   1   7
ATOM      7  C1' I4B d   1      -0.137  -1.466  -0.838  0.00  0.00     0.060 C 
BRANCH   7   8
ATOM      8  C2' I4B d   1      -1.254  -1.084  -1.787  0.00  0.00    -0.013 C 
ATOM      9  C4' I4B d   1      -0.739  -0.906  -3.191  0.00  0.00     0.013 C 
ATOM     10  C3' I4B d   1      -2.301  -2.157  -1.726  0.00  0.00     0.013 C 
ENDBRANCH   7   8
ENDBRANCH   1   7
TORSDOF 2
ENDMDL
