MODEL 1
REMARK minimizedAffinity -4.51499271
REMARK minimizedRMSD -1
REMARK  2 active torsions:
REMARK  status: ('A' for Active; 'I' for Inactive)
REMARK    1  A    between atoms: C2'_3  and  C1'_4 
REMARK    2  A    between atoms: C1'_4  and  C1_5 
ROOT
ATOM      1  C1  I4B d   1      -0.385  -0.444   0.264  0.00  0.00    -0.075 A 
ATOM      2  C2  I4B d   1       0.772   0.294   0.231  0.00  0.00     0.003 A 
ATOM      3  C3  I4B d   1       0.939   1.396   1.104  0.00  0.00     0.002 A 
ATOM      4  C4  I4B d   1      -0.089   1.753   1.953  0.00  0.00    -0.004 A 
ATOM      5  C5  I4B d   1      -1.252   0.990   2.001  0.00  0.00     0.002 A 
ATOM      6  C6  I4B d   1      -1.396  -0.123   1.160  0.00  0.00     0.003 A 
ENDROOT
BRANCH   1   7
ATOM      7  C1' I4B d   1      -0.542  -1.582  -0.695  0.00  0.00     0.060 C 
BRANCH   7   8
ATOM      8  C2' I4B d   1      -1.779  -1.321  -1.530  0.00  0.00    -0.013 C 
ATOM      9  C4' I4B d   1      -1.463  -1.365  -3.002  0.00  0.00     0.013 C 
ATOM     10  C3' I4B d   1      -2.808  -2.349  -1.166  0.00  0.00     0.013 C 
ENDBRANCH   7   8
ENDBRANCH   1   7
TORSDOF 2
ENDMDL
