MODEL 1
REMARK minimizedAffinity -0.755461633
REMARK minimizedRMSD -1
REMARK  2 active torsions:
REMARK  status: ('A' for Active; 'I' for Inactive)
REMARK    1  A    between atoms: C2'_3  and  C1'_4 
REMARK    2  A    between atoms: C1'_4  and  C1_5 
ROOT
ATOM      1  C1  I4B d   1       4.369   0.829  -4.481  0.00  0.00    -0.075 A 
ATOM      2  C2  I4B d   1       3.194   1.102  -3.824  0.00  0.00     0.003 A 
ATOM      3  C3  I4B d   1       1.994   0.462  -4.216  0.00  0.00     0.002 A 
ATOM      4  C4  I4B d   1       2.003  -0.400  -5.294  0.00  0.00    -0.004 A 
ATOM      5  C5  I4B d   1       3.198  -0.693  -5.944  0.00  0.00     0.002 A 
ATOM      6  C6  I4B d   1       4.391  -0.084  -5.527  0.00  0.00     0.003 A 
ENDROOT
BRANCH   1   7
ATOM      7  C1' I4B d   1       5.612   1.547  -4.062  0.00  0.00     0.060 C 
BRANCH   7   8
ATOM      8  C2' I4B d   1       5.211   2.919  -3.559  0.00  0.00    -0.013 C 
ATOM      9  C4' I4B d   1       5.987   3.295  -2.324  0.00  0.00     0.013 C 
ATOM     10  C3' I4B d   1       5.444   3.904  -4.666  0.00  0.00     0.013 C 
ENDBRANCH   7   8
ENDBRANCH   1   7
TORSDOF 2
ENDMDL
