MODEL 1
REMARK minimizedAffinity -3.43929553
REMARK minimizedRMSD -1
REMARK  2 active torsions:
REMARK  status: ('A' for Active; 'I' for Inactive)
REMARK    1  A    between atoms: C2'_3  and  C1'_4 
REMARK    2  A    between atoms: C1'_4  and  C1_5 
ROOT
ATOM      1  C1  I4B d   1       0.247  -0.967  -0.269  0.00  0.00    -0.075 A 
ATOM      2  C2  I4B d   1      -0.666  -0.343   0.544  0.00  0.00     0.003 A 
ATOM      3  C3  I4B d   1      -0.270   0.750   1.353  0.00  0.00     0.002 A 
ATOM      4  C4  I4B d   1       1.051   1.149   1.356  0.00  0.00    -0.004 A 
ATOM      5  C5  I4B d   1       1.970   0.530   0.513  0.00  0.00     0.002 A 
ATOM      6  C6  I4B d   1       1.563  -0.527  -0.314  0.00  0.00     0.003 A 
ENDROOT
BRANCH   1   7
ATOM      7  C1' I4B d   1      -0.199  -2.139  -1.085  0.00  0.00     0.060 C 
BRANCH   7   8
ATOM      8  C2' I4B d   1      -1.573  -1.825  -1.641  0.00  0.00    -0.013 C 
ATOM      9  C4' I4B d   1      -1.554  -1.776  -3.146  0.00  0.00     0.013 C 
ATOM     10  C3' I4B d   1      -2.523  -2.875  -1.146  0.00  0.00     0.013 C 
ENDBRANCH   7   8
ENDBRANCH   1   7
TORSDOF 2
ENDMDL
