MODEL 1
REMARK minimizedAffinity -1.52869296
REMARK minimizedRMSD -1
REMARK  2 active torsions:
REMARK  status: ('A' for Active; 'I' for Inactive)
REMARK    1  A    between atoms: C2'_3  and  C1'_4 
REMARK    2  A    between atoms: C1'_4  and  C1_5 
ROOT
ATOM      1  C1  I4B d   1      -0.918  -1.608  -1.178  0.00  0.00    -0.075 A 
ATOM      2  C2  I4B d   1      -2.284  -1.675  -1.060  0.00  0.00     0.003 A 
ATOM      3  C3  I4B d   1      -3.095  -1.804  -2.214  0.00  0.00     0.002 A 
ATOM      4  C4  I4B d   1      -2.505  -1.810  -3.461  0.00  0.00    -0.004 A 
ATOM      5  C5  I4B d   1      -1.118  -1.765  -3.578  0.00  0.00     0.002 A 
ATOM      6  C6  I4B d   1      -0.319  -1.676  -2.429  0.00  0.00     0.003 A 
ENDROOT
BRANCH   1   7
ATOM      7  C1' I4B d   1      -0.095  -1.440   0.059  0.00  0.00     0.060 C 
BRANCH   7   8
ATOM      8  C2' I4B d   1      -0.816  -0.468   0.971  0.00  0.00    -0.013 C 
ATOM      9  C4' I4B d   1      -0.911  -1.006   2.375  0.00  0.00     0.013 C 
ATOM     10  C3' I4B d   1      -0.073   0.834   0.939  0.00  0.00     0.013 C 
ENDBRANCH   7   8
ENDBRANCH   1   7
TORSDOF 2
ENDMDL
