MODEL 1
REMARK minimizedAffinity 4.11871767
REMARK minimizedRMSD -1
REMARK  2 active torsions:
REMARK  status: ('A' for Active; 'I' for Inactive)
REMARK    1  A    between atoms: C2'_3  and  C1'_4 
REMARK    2  A    between atoms: C1'_4  and  C1_5 
ROOT
ATOM      1  C1  I4B d   1      -1.165  -1.907  -1.877  0.00  0.00    -0.075 A 
ATOM      2  C2  I4B d   1      -1.192  -0.839  -2.738  0.00  0.00     0.003 A 
ATOM      3  C3  I4B d   1      -0.091   0.050  -2.806  0.00  0.00     0.002 A 
ATOM      4  C4  I4B d   1       0.986  -0.137  -1.963  0.00  0.00    -0.004 A 
ATOM      5  C5  I4B d   1       1.021  -1.234  -1.107  0.00  0.00     0.002 A 
ATOM      6  C6  I4B d   1      -0.056  -2.132  -1.072  0.00  0.00     0.003 A 
ENDROOT
BRANCH   1   7
ATOM      7  C1' I4B d   1      -2.359  -2.806  -1.808  0.00  0.00     0.060 C 
BRANCH   7   8
ATOM      8  C2' I4B d   1      -3.466  -2.059  -1.093  0.00  0.00    -0.013 C 
ATOM      9  C4' I4B d   1      -4.611  -2.976  -0.753  0.00  0.00     0.013 C 
ATOM     10  C3' I4B d   1      -2.883  -1.440   0.142  0.00  0.00     0.013 C 
ENDBRANCH   7   8
ENDBRANCH   1   7
TORSDOF 2
ENDMDL
