MODEL 1
REMARK minimizedAffinity 11.195611
REMARK minimizedRMSD -1
REMARK  2 active torsions:
REMARK  status: ('A' for Active; 'I' for Inactive)
REMARK    1  A    between atoms: C1_2  and  C2_3 
REMARK    2  A    between atoms: C2_3  and  C3_4 
ROOT
ATOM      1  C3  UNL d   1       3.164   0.712  -2.445  0.00  0.00    -0.075 A 
ATOM      2  C4  UNL d   1       3.899   0.794  -1.253  0.00  0.00     0.002 A 
ATOM      3  C5  UNL d   1       3.257   1.056  -0.042  0.00  0.00     0.002 A 
ATOM      4  C6  UNL d   1       1.878   1.250  -0.009  0.00  0.00    -0.004 A 
ATOM      5  C7  UNL d   1       1.141   1.188  -1.190  0.00  0.00     0.002 A 
ATOM      6  C8  UNL d   1       1.780   0.921  -2.402  0.00  0.00     0.002 A 
ENDROOT
BRANCH   1   7
ATOM      7  C2  UNL d   1       3.849   0.400  -3.754  0.00  0.00     0.056 C 
BRANCH   7   8
ATOM      8  C1  UNL d   1       5.379   0.434  -3.682  0.00  0.00     0.007 C 
ATOM      9  C   UNL d   1       5.995   1.555  -4.509  0.00  0.00     0.009 C 
ENDBRANCH   7   8
ENDBRANCH   1   7
TORSDOF 2
ENDMDL
