MODEL 1
REMARK minimizedAffinity 9.53485012
REMARK minimizedRMSD -1
REMARK  2 active torsions:
REMARK  status: ('A' for Active; 'I' for Inactive)
REMARK    1  A    between atoms: C1_2  and  C2_3 
REMARK    2  A    between atoms: C2_3  and  C3_4 
ROOT
ATOM      1  C3  UNL d   1      -1.170  -0.640   3.115  0.00  0.00    -0.075 A 
ATOM      2  C4  UNL d   1      -1.630   0.203   4.138  0.00  0.00     0.002 A 
ATOM      3  C5  UNL d   1      -2.853   0.864   4.015  0.00  0.00     0.002 A 
ATOM      4  C6  UNL d   1      -3.624   0.700   2.866  0.00  0.00    -0.004 A 
ATOM      5  C7  UNL d   1      -3.169  -0.121   1.837  0.00  0.00     0.002 A 
ATOM      6  C8  UNL d   1      -1.949  -0.788   1.959  0.00  0.00     0.002 A 
ENDROOT
BRANCH   1   7
ATOM      7  C2  UNL d   1       0.138  -1.381   3.255  0.00  0.00     0.056 C 
BRANCH   7   8
ATOM      8  C1  UNL d   1       0.771  -1.785   1.919  0.00  0.00     0.007 C 
ATOM      9  C   UNL d   1       1.510  -3.115   1.983  0.00  0.00     0.009 C 
ENDBRANCH   7   8
ENDBRANCH   1   7
TORSDOF 2
ENDMDL
