MODEL 1
REMARK minimizedAffinity 10.7654877
REMARK minimizedRMSD -1
REMARK  2 active torsions:
REMARK  status: ('A' for Active; 'I' for Inactive)
REMARK    1  A    between atoms: C1_2  and  C2_3 
REMARK    2  A    between atoms: C2_3  and  C3_4 
ROOT
ATOM      1  C3  UNL d   1      -4.135  -1.128  -3.535  0.00  0.00    -0.075 A 
ATOM      2  C4  UNL d   1      -4.124   0.111  -2.878  0.00  0.00     0.002 A 
ATOM      3  C5  UNL d   1      -3.685   0.210  -1.558  0.00  0.00     0.002 A 
ATOM      4  C6  UNL d   1      -3.262  -0.928  -0.874  0.00  0.00    -0.004 A 
ATOM      5  C7  UNL d   1      -3.284  -2.167  -1.511  0.00  0.00     0.002 A 
ATOM      6  C8  UNL d   1      -3.719  -2.268  -2.834  0.00  0.00     0.002 A 
ENDROOT
BRANCH   1   7
ATOM      7  C2  UNL d   1      -4.581  -1.237  -4.973  0.00  0.00     0.056 C 
BRANCH   7   8
ATOM      8  C1  UNL d   1      -3.509  -0.833  -5.991  0.00  0.00     0.007 C 
ATOM      9  C   UNL d   1      -3.207   0.659  -5.985  0.00  0.00     0.009 C 
ENDBRANCH   7   8
ENDBRANCH   1   7
TORSDOF 2
ENDMDL
