MODEL 1
REMARK minimizedAffinity 13.1338196
REMARK minimizedRMSD -1
REMARK  2 active torsions:
REMARK  status: ('A' for Active; 'I' for Inactive)
REMARK    1  A    between atoms: C1_2  and  C2_3 
REMARK    2  A    between atoms: C2_3  and  C3_4 
ROOT
ATOM      1  C3  UNL d   1       1.015  -0.881   0.684  0.00  0.00    -0.075 A 
ATOM      2  C4  UNL d   1       1.844   0.231   0.894  0.00  0.00     0.002 A 
ATOM      3  C5  UNL d   1       2.079   1.144  -0.134  0.00  0.00     0.002 A 
ATOM      4  C6  UNL d   1       1.499   0.953  -1.386  0.00  0.00    -0.004 A 
ATOM      5  C7  UNL d   1       0.687  -0.157  -1.611  0.00  0.00     0.002 A 
ATOM      6  C8  UNL d   1       0.446  -1.070  -0.583  0.00  0.00     0.002 A 
ENDROOT
BRANCH   1   7
ATOM      7  C2  UNL d   1       0.733  -1.857   1.801  0.00  0.00     0.056 C 
BRANCH   7   8
ATOM      8  C1  UNL d   1       1.591  -3.125   1.752  0.00  0.00     0.007 C 
ATOM      9  C   UNL d   1       2.947  -2.959   2.425  0.00  0.00     0.009 C 
ENDBRANCH   7   8
ENDBRANCH   1   7
TORSDOF 2
ENDMDL
