MODEL 1
REMARK minimizedAffinity 0.391922981
REMARK minimizedRMSD -1
REMARK  0 active torsions:
REMARK  status: ('A' for Active; 'I' for Inactive)
ROOT
ATOM      1  C   UNL d   1       2.107  -0.602   0.876  0.00  0.00     0.124 A 
ATOM      2  C1  UNL d   1       1.462  -1.536   0.077  0.00  0.00     0.062 A 
ATOM      3  C2  UNL d   1       0.282  -1.198  -0.580  0.00  0.00     0.162 A 
ATOM      4  C3  UNL d   1      -0.260   0.079  -0.441  0.00  0.00    -0.034 A 
ATOM      5  C4  UNL d   1       0.394   1.012   0.365  0.00  0.00     0.162 A 
ATOM      6  C5  UNL d   1       1.573   0.670   1.019  0.00  0.00     0.062 A 
ATOM      7  F   UNL d   1       2.195   1.574   1.791  0.00  0.00    -0.097 F 
ATOM      8  F1  UNL d   1      -0.100   2.250   0.520  0.00  0.00    -0.096 F 
ATOM      9  I   UNL d   1      -2.024   0.588  -1.422  0.00  0.00    -0.060 I 
ATOM     10  F2  UNL d   1      -0.320  -2.120  -1.346  0.00  0.00    -0.096 F 
ATOM     11  F3  UNL d   1       1.975  -2.766  -0.063  0.00  0.00    -0.097 F 
ATOM     12  F4  UNL d   1       3.241  -0.930   1.508  0.00  0.00    -0.092 F 
ENDROOT
TORSDOF 0
ENDMDL
