MODEL 1
REMARK minimizedAffinity -1.34899271
REMARK minimizedRMSD -1
REMARK  0 active torsions:
REMARK  status: ('A' for Active; 'I' for Inactive)
ROOT
ATOM      1  C   UNL d   1       1.250  -1.404  -0.097  0.00  0.00     0.124 A 
ATOM      2  C1  UNL d   1       0.255  -0.972  -0.963  0.00  0.00     0.062 A 
ATOM      3  C2  UNL d   1      -0.815  -0.223  -0.482  0.00  0.00     0.162 A 
ATOM      4  C3  UNL d   1      -0.895   0.100   0.873  0.00  0.00    -0.034 A 
ATOM      5  C4  UNL d   1       0.109  -0.338   1.738  0.00  0.00     0.162 A 
ATOM      6  C5  UNL d   1       1.176  -1.086   1.252  0.00  0.00     0.062 A 
ATOM      7  F   UNL d   1       2.137  -1.503   2.091  0.00  0.00    -0.097 F 
ATOM      8  F1  UNL d   1       0.063  -0.045   3.046  0.00  0.00    -0.096 F 
ATOM      9  I   UNL d   1      -2.494   1.220   1.595  0.00  0.00    -0.060 I 
ATOM     10  F2  UNL d   1      -1.762   0.181  -1.342  0.00  0.00    -0.096 F 
ATOM     11  F3  UNL d   1       0.324  -1.278  -2.266  0.00  0.00    -0.097 F 
ATOM     12  F4  UNL d   1       2.278  -2.125  -0.562  0.00  0.00    -0.092 F 
ENDROOT
TORSDOF 0
ENDMDL
