MODEL 1
REMARK minimizedAffinity 2.71995878
REMARK minimizedRMSD -1
REMARK  0 active torsions:
REMARK  status: ('A' for Active; 'I' for Inactive)
ROOT
ATOM      1  C   UNL d   1       2.121  -1.035   0.387  0.00  0.00     0.124 A 
ATOM      2  C1  UNL d   1       1.530   0.064   0.996  0.00  0.00     0.062 A 
ATOM      3  C2  UNL d   1       0.173   0.315   0.821  0.00  0.00     0.162 A 
ATOM      4  C3  UNL d   1      -0.605  -0.534   0.033  0.00  0.00    -0.034 A 
ATOM      5  C4  UNL d   1      -0.003  -1.636  -0.577  0.00  0.00     0.162 A 
ATOM      6  C5  UNL d   1       1.354  -1.883  -0.399  0.00  0.00     0.062 A 
ATOM      7  F   UNL d   1       1.924  -2.945  -0.988  0.00  0.00    -0.097 F 
ATOM      8  F1  UNL d   1      -0.721  -2.474  -1.341  0.00  0.00    -0.096 F 
ATOM      9  I   UNL d   1      -2.635  -0.162  -0.231  0.00  0.00    -0.060 I 
ATOM     10  F2  UNL d   1      -0.372   1.384   1.422  0.00  0.00    -0.096 F 
ATOM     11  F3  UNL d   1       2.269   0.886   1.755  0.00  0.00    -0.097 F 
ATOM     12  F4  UNL d   1       3.428  -1.273   0.556  0.00  0.00    -0.092 F 
ENDROOT
TORSDOF 0
ENDMDL
