MODEL 1
REMARK minimizedAffinity -0.10243012
REMARK minimizedRMSD -1
REMARK  0 active torsions:
REMARK  status: ('A' for Active; 'I' for Inactive)
ROOT
ATOM      1  C   UNL d   1       2.314  -0.292  -0.494  0.00  0.00     0.124 A 
ATOM      2  C1  UNL d   1       1.511  -1.420  -0.400  0.00  0.00     0.062 A 
ATOM      3  C2  UNL d   1       0.130  -1.289  -0.291  0.00  0.00     0.162 A 
ATOM      4  C3  UNL d   1      -0.458  -0.024  -0.278  0.00  0.00    -0.034 A 
ATOM      5  C4  UNL d   1       0.356   1.106  -0.372  0.00  0.00     0.162 A 
ATOM      6  C5  UNL d   1       1.736   0.970  -0.480  0.00  0.00     0.062 A 
ATOM      7  F   UNL d   1       2.511   2.061  -0.571  0.00  0.00    -0.097 F 
ATOM      8  F1  UNL d   1      -0.176   2.337  -0.362  0.00  0.00    -0.096 F 
ATOM      9  I   UNL d   1      -2.523   0.176  -0.117  0.00  0.00    -0.060 I 
ATOM     10  F2  UNL d   1      -0.622  -2.396  -0.202  0.00  0.00    -0.096 F 
ATOM     11  F3  UNL d   1       2.067  -2.640  -0.412  0.00  0.00    -0.097 F 
ATOM     12  F4  UNL d   1       3.643  -0.421  -0.597  0.00  0.00    -0.092 F 
ENDROOT
TORSDOF 0
ENDMDL
