MODEL 1
REMARK minimizedAffinity -3.25163054
REMARK minimizedRMSD -1
REMARK  0 active torsions:
REMARK  status: ('A' for Active; 'I' for Inactive)
ROOT
ATOM      1  C   UNL d   1       3.271  -0.266   0.052  0.00  0.00     0.124 A 
ATOM      2  C1  UNL d   1       2.378  -1.329   0.073  0.00  0.00     0.062 A 
ATOM      3  C2  UNL d   1       1.011  -1.097  -0.046  0.00  0.00     0.162 A 
ATOM      4  C3  UNL d   1       0.528   0.204  -0.189  0.00  0.00    -0.034 A 
ATOM      5  C4  UNL d   1       1.431   1.267  -0.207  0.00  0.00     0.162 A 
ATOM      6  C5  UNL d   1       2.797   1.030  -0.088  0.00  0.00     0.062 A 
ATOM      7  F   UNL d   1       3.658   2.058  -0.108  0.00  0.00    -0.097 F 
ATOM      8  F1  UNL d   1       1.001   2.530  -0.343  0.00  0.00    -0.096 F 
ATOM      9  I   UNL d   1      -1.516   0.555  -0.367  0.00  0.00    -0.060 I 
ATOM     10  F2  UNL d   1       0.171  -2.143  -0.023  0.00  0.00    -0.096 F 
ATOM     11  F3  UNL d   1       2.833  -2.583   0.209  0.00  0.00    -0.097 F 
ATOM     12  F4  UNL d   1       4.586  -0.492   0.168  0.00  0.00    -0.092 F 
ENDROOT
TORSDOF 0
ENDMDL
