MODEL 1
REMARK minimizedAffinity -3.28015995
REMARK minimizedRMSD -1
REMARK  0 active torsions:
REMARK  status: ('A' for Active; 'I' for Inactive)
ROOT
ATOM      1  C   UNL d   1       3.246  -0.284   0.211  0.00  0.00     0.124 A 
ATOM      2  C1  UNL d   1       2.948   1.070   0.278  0.00  0.00     0.062 A 
ATOM      3  C2  UNL d   1       1.630   1.504   0.162  0.00  0.00     0.162 A 
ATOM      4  C3  UNL d   1       0.600   0.582  -0.021  0.00  0.00    -0.034 A 
ATOM      5  C4  UNL d   1       0.907  -0.778  -0.088  0.00  0.00     0.162 A 
ATOM      6  C5  UNL d   1       2.225  -1.207   0.028  0.00  0.00     0.062 A 
ATOM      7  F   UNL d   1       2.511  -2.515  -0.038  0.00  0.00    -0.097 F 
ATOM      8  F1  UNL d   1      -0.060  -1.691  -0.264  0.00  0.00    -0.096 F 
ATOM      9  I   UNL d   1      -1.372   1.226  -0.194  0.00  0.00    -0.060 I 
ATOM     10  F2  UNL d   1       1.372   2.818   0.231  0.00  0.00    -0.096 F 
ATOM     11  F3  UNL d   1       3.932   1.963   0.454  0.00  0.00    -0.097 F 
ATOM     12  F4  UNL d   1       4.514  -0.698   0.322  0.00  0.00    -0.092 F 
ENDROOT
TORSDOF 0
ENDMDL
