MODEL 1
REMARK minimizedAffinity -3.64680219
REMARK minimizedRMSD -1
REMARK  0 active torsions:
REMARK  status: ('A' for Active; 'I' for Inactive)
ROOT
ATOM      1  C   UNL d   1      -0.822  -0.519  -0.766  0.00  0.00     0.124 A 
ATOM      2  C1  UNL d   1      -0.198   0.418   0.046  0.00  0.00     0.062 A 
ATOM      3  C2  UNL d   1       1.052   0.148   0.594  0.00  0.00     0.162 A 
ATOM      4  C3  UNL d   1       1.688  -1.066   0.332  0.00  0.00    -0.034 A 
ATOM      5  C4  UNL d   1       1.053  -2.004  -0.485  0.00  0.00     0.162 A 
ATOM      6  C5  UNL d   1      -0.196  -1.728  -1.030  0.00  0.00     0.062 A 
ATOM      7  F   UNL d   1      -0.798  -2.635  -1.814  0.00  0.00    -0.097 F 
ATOM      8  F1  UNL d   1       1.636  -3.181  -0.758  0.00  0.00    -0.096 F 
ATOM      9  I   UNL d   1       3.557  -1.475   1.149  0.00  0.00    -0.060 I 
ATOM     10  F2  UNL d   1       1.632   1.071   1.375  0.00  0.00    -0.096 F 
ATOM     11  F3  UNL d   1      -0.801   1.588   0.304  0.00  0.00    -0.097 F 
ATOM     12  F4  UNL d   1      -2.026  -0.256  -1.291  0.00  0.00    -0.092 F 
ENDROOT
TORSDOF 0
ENDMDL
