MODEL 1
REMARK minimizedAffinity -0.868081689
REMARK minimizedRMSD -1
REMARK  0 active torsions:
REMARK  status: ('A' for Active; 'I' for Inactive)
ROOT
ATOM      1  C   UNL d   1       2.397  -1.038   0.090  0.00  0.00     0.124 A 
ATOM      2  C1  UNL d   1       1.501  -1.539  -0.844  0.00  0.00     0.062 A 
ATOM      3  C2  UNL d   1       0.212  -1.022  -0.926  0.00  0.00     0.162 A 
ATOM      4  C3  UNL d   1      -0.190   0.005  -0.072  0.00  0.00    -0.034 A 
ATOM      5  C4  UNL d   1       0.716   0.504   0.866  0.00  0.00     0.162 A 
ATOM      6  C5  UNL d   1       2.004  -0.017   0.944  0.00  0.00     0.062 A 
ATOM      7  F   UNL d   1       2.868   0.469   1.847  0.00  0.00    -0.097 F 
ATOM      8  F1  UNL d   1       0.363   1.491   1.703  0.00  0.00    -0.096 F 
ATOM      9  I   UNL d   1      -2.117   0.782  -0.191  0.00  0.00    -0.060 I 
ATOM     10  F2  UNL d   1      -0.633  -1.526  -1.838  0.00  0.00    -0.096 F 
ATOM     11  F3  UNL d   1       1.878  -2.526  -1.669  0.00  0.00    -0.097 F 
ATOM     12  F4  UNL d   1       3.637  -1.538   0.167  0.00  0.00    -0.092 F 
ENDROOT
TORSDOF 0
ENDMDL
