MODEL 1
REMARK minimizedAffinity -1.11974347
REMARK minimizedRMSD -1
REMARK  1 active torsions:
REMARK  status: ('A' for Active; 'I' for Inactive)
REMARK    1  A    between atoms: C3_4  and  O_7 
ROOT
ATOM      1  C   UNL d   1      -1.208  -0.058  -1.140  0.00  0.00    -0.033 A 
ATOM      2  C1  UNL d   1      -0.547  -0.796  -0.156  0.00  0.00     0.039 A 
ATOM      3  C2  UNL d   1       0.598  -0.281   0.454  0.00  0.00    -0.080 A 
ATOM      4  C3  UNL d   1       1.070   0.972   0.073  0.00  0.00     0.150 A 
ATOM      5  C4  UNL d   1       0.414   1.715  -0.903  0.00  0.00    -0.007 A 
ATOM      6  C5  UNL d   1      -0.728   1.198  -1.513  0.00  0.00     0.039 A 
ENDROOT
BRANCH   4   7
ATOM      7  O   UNL d   1       2.186   1.515   0.637  0.00  0.00    -0.526 OA
ATOM      8  H5  UNL d   1       2.550   0.877   1.275  0.00  0.00     0.418 HD
ENDBRANCH   4   7
TORSDOF 1
ENDMDL
