MODEL 1
REMARK minimizedAffinity -4.3763938
REMARK minimizedRMSD -1
REMARK  1 active torsions:
REMARK  status: ('A' for Active; 'I' for Inactive)
REMARK    1  A    between atoms: C3_4  and  O_7 
ROOT
ATOM      1  C   UNL d   1      -1.459   0.069  -1.357  0.00  0.00    -0.033 A 
ATOM      2  C1  UNL d   1      -0.292   0.579  -0.785  0.00  0.00     0.039 A 
ATOM      3  C2  UNL d   1       0.474  -0.217   0.068  0.00  0.00    -0.080 A 
ATOM      4  C3  UNL d   1       0.064  -1.519   0.340  0.00  0.00     0.150 A 
ATOM      5  C4  UNL d   1      -1.096  -2.035  -0.230  0.00  0.00    -0.007 A 
ATOM      6  C5  UNL d   1      -1.860  -1.238  -1.081  0.00  0.00     0.039 A 
ENDROOT
BRANCH   4   7
ATOM      7  O   UNL d   1       0.776  -2.332   1.170  0.00  0.00    -0.526 OA
ATOM      8  H5  UNL d   1       1.536  -1.833   1.512  0.00  0.00     0.418 HD
ENDBRANCH   4   7
TORSDOF 1
ENDMDL
