MODEL 1
REMARK minimizedAffinity -3.0513308
REMARK minimizedRMSD -1
REMARK  1 active torsions:
REMARK  status: ('A' for Active; 'I' for Inactive)
REMARK    1  A    between atoms: C3_4  and  O_7 
ROOT
ATOM      1  C   UNL d   1       0.340  -0.418  -0.699  0.00  0.00    -0.033 A 
ATOM      2  C1  UNL d   1      -0.553  -0.058  -1.711  0.00  0.00     0.039 A 
ATOM      3  C2  UNL d   1      -1.921  -0.282  -1.548  0.00  0.00    -0.080 A 
ATOM      4  C3  UNL d   1      -2.383  -0.864  -0.371  0.00  0.00     0.150 A 
ATOM      5  C4  UNL d   1      -1.500  -1.220   0.643  0.00  0.00    -0.007 A 
ATOM      6  C5  UNL d   1      -0.133  -0.997   0.478  0.00  0.00     0.039 A 
ENDROOT
BRANCH   4   7
ATOM      7  O   UNL d   1      -3.710  -1.106  -0.168  0.00  0.00    -0.526 OA
ATOM      8  H5  UNL d   1      -4.197  -0.834  -0.964  0.00  0.00     0.418 HD
ENDBRANCH   4   7
TORSDOF 1
ENDMDL
