MODEL 1
REMARK minimizedAffinity -2.53804779
REMARK minimizedRMSD -1
REMARK  1 active torsions:
REMARK  status: ('A' for Active; 'I' for Inactive)
REMARK    1  A    between atoms: C3_4  and  O_7 
ROOT
ATOM      1  C   UNL d   1      -2.539  -1.113  -0.885  0.00  0.00    -0.033 A 
ATOM      2  C1  UNL d   1      -2.243   0.101  -1.507  0.00  0.00     0.039 A 
ATOM      3  C2  UNL d   1      -1.045   0.760  -1.221  0.00  0.00    -0.080 A 
ATOM      4  C3  UNL d   1      -0.153   0.193  -0.314  0.00  0.00     0.150 A 
ATOM      5  C4  UNL d   1      -0.440  -1.019   0.306  0.00  0.00    -0.007 A 
ATOM      6  C5  UNL d   1      -1.637  -1.674   0.020  0.00  0.00     0.039 A 
ENDROOT
BRANCH   4   7
ATOM      7  O   UNL d   1       1.026   0.801   0.000  0.00  0.00    -0.526 OA
ATOM      8  H5  UNL d   1       1.076   1.643  -0.482  0.00  0.00     0.418 HD
ENDBRANCH   4   7
TORSDOF 1
ENDMDL
