MODEL 1
REMARK minimizedAffinity -2.20497203
REMARK minimizedRMSD -1
REMARK  1 active torsions:
REMARK  status: ('A' for Active; 'I' for Inactive)
REMARK    1  A    between atoms: C3_4  and  O_7 
ROOT
ATOM      1  C   UNL d   1      -2.275  -0.766  -1.345  0.00  0.00    -0.033 A 
ATOM      2  C1  UNL d   1      -1.578  -1.459  -0.353  0.00  0.00     0.039 A 
ATOM      3  C2  UNL d   1      -0.509  -0.851   0.307  0.00  0.00    -0.080 A 
ATOM      4  C3  UNL d   1      -0.147   0.449  -0.033  0.00  0.00     0.150 A 
ATOM      5  C4  UNL d   1      -0.839   1.148  -1.017  0.00  0.00    -0.007 A 
ATOM      6  C5  UNL d   1      -1.906   0.538  -1.676  0.00  0.00     0.039 A 
ENDROOT
BRANCH   4   7
ATOM      7  O   UNL d   1       0.893   1.083   0.580  0.00  0.00    -0.526 OA
ATOM      8  H5  UNL d   1       1.295   0.469   1.217  0.00  0.00     0.418 HD
ENDBRANCH   4   7
TORSDOF 1
ENDMDL
