MODEL 1
REMARK minimizedAffinity -2.59775043
REMARK minimizedRMSD -1
REMARK  1 active torsions:
REMARK  status: ('A' for Active; 'I' for Inactive)
REMARK    1  A    between atoms: C3_4  and  O_7 
ROOT
ATOM      1  C   UNL d   1      -0.112   1.417  -0.628  0.00  0.00    -0.033 A 
ATOM      2  C1  UNL d   1      -1.421   1.609  -1.073  0.00  0.00     0.039 A 
ATOM      3  C2  UNL d   1      -2.060   0.616  -1.818  0.00  0.00    -0.080 A 
ATOM      4  C3  UNL d   1      -1.380  -0.563  -2.110  0.00  0.00     0.150 A 
ATOM      5  C4  UNL d   1      -0.077  -0.763  -1.666  0.00  0.00    -0.007 A 
ATOM      6  C5  UNL d   1       0.560   0.230  -0.923  0.00  0.00     0.039 A 
ENDROOT
BRANCH   4   7
ATOM      7  O   UNL d   1      -1.960  -1.559  -2.838  0.00  0.00    -0.526 OA
ATOM      8  H5  UNL d   1      -2.850  -1.270  -3.100  0.00  0.00     0.418 HD
ENDBRANCH   4   7
TORSDOF 1
ENDMDL
