MODEL 1
REMARK minimizedAffinity -3.23400879
REMARK minimizedRMSD -1
REMARK  1 active torsions:
REMARK  status: ('A' for Active; 'I' for Inactive)
REMARK    1  A    between atoms: C3_4  and  O_7 
ROOT
ATOM      1  C   UNL d   1       1.200   0.899  -0.183  0.00  0.00    -0.033 A 
ATOM      2  C1  UNL d   1       0.628   1.444  -1.334  0.00  0.00     0.039 A 
ATOM      3  C2  UNL d   1      -0.529   0.879  -1.875  0.00  0.00    -0.080 A 
ATOM      4  C3  UNL d   1      -1.102  -0.228  -1.256  0.00  0.00     0.150 A 
ATOM      5  C4  UNL d   1      -0.539  -0.774  -0.107  0.00  0.00    -0.007 A 
ATOM      6  C5  UNL d   1       0.616  -0.209   0.432  0.00  0.00     0.039 A 
ENDROOT
BRANCH   4   7
ATOM      7  O   UNL d   1      -2.228  -0.817  -1.750  0.00  0.00    -0.526 OA
ATOM      8  H5  UNL d   1      -2.488  -0.352  -2.562  0.00  0.00     0.418 HD
ENDBRANCH   4   7
TORSDOF 1
ENDMDL
