MODEL 1
REMARK minimizedAffinity -2.43372798
REMARK minimizedRMSD -1
REMARK  1 active torsions:
REMARK  status: ('A' for Active; 'I' for Inactive)
REMARK    1  A    between atoms: C3_4  and  O_7 
ROOT
ATOM      1  C   UNL d   1      -2.112  -1.267  -0.982  0.00  0.00    -0.033 A 
ATOM      2  C1  UNL d   1      -1.968   0.074  -1.345  0.00  0.00     0.039 A 
ATOM      3  C2  UNL d   1      -0.814   0.775  -0.991  0.00  0.00    -0.080 A 
ATOM      4  C3  UNL d   1       0.188   0.125  -0.275  0.00  0.00     0.150 A 
ATOM      5  C4  UNL d   1       0.053  -1.211   0.087  0.00  0.00    -0.007 A 
ATOM      6  C5  UNL d   1      -1.101  -1.909  -0.267  0.00  0.00     0.039 A 
ENDROOT
BRANCH   4   7
ATOM      7  O   UNL d   1       1.330   0.770   0.097  0.00  0.00    -0.526 OA
ATOM      8  H5  UNL d   1       1.271   1.694  -0.197  0.00  0.00     0.418 HD
ENDBRANCH   4   7
TORSDOF 1
ENDMDL
