MODEL 1
REMARK minimizedAffinity -1.70427203
REMARK minimizedRMSD -1
REMARK  1 active torsions:
REMARK  status: ('A' for Active; 'I' for Inactive)
REMARK    1  A    between atoms: C3_4  and  O_7 
ROOT
ATOM      1  C   UNL d   1      -1.170   0.211  -1.309  0.00  0.00    -0.033 A 
ATOM      2  C1  UNL d   1      -2.140  -0.788  -1.216  0.00  0.00     0.039 A 
ATOM      3  C2  UNL d   1      -2.007  -1.807  -0.270  0.00  0.00    -0.080 A 
ATOM      4  C3  UNL d   1      -0.901  -1.814   0.575  0.00  0.00     0.150 A 
ATOM      5  C4  UNL d   1       0.068  -0.820   0.490  0.00  0.00    -0.007 A 
ATOM      6  C5  UNL d   1      -0.066   0.196  -0.456  0.00  0.00     0.039 A 
ENDROOT
BRANCH   4   7
ATOM      7  O   UNL d   1      -0.725  -2.791   1.510  0.00  0.00    -0.526 OA
ATOM      8  H5  UNL d   1      -1.457  -3.425   1.434  0.00  0.00     0.418 HD
ENDBRANCH   4   7
TORSDOF 1
ENDMDL
