MODEL 1
REMARK minimizedAffinity -1.49492049
REMARK minimizedRMSD -1
REMARK  1 active torsions:
REMARK  status: ('A' for Active; 'I' for Inactive)
REMARK    1  A    between atoms: C3_4  and  O_7 
ROOT
ATOM      1  C   UNL d   1      -2.180  -0.096  -1.196  0.00  0.00    -0.033 A 
ATOM      2  C1  UNL d   1      -1.515  -1.079  -0.459  0.00  0.00     0.039 A 
ATOM      3  C2  UNL d   1      -0.227  -0.841   0.022  0.00  0.00    -0.080 A 
ATOM      4  C3  UNL d   1       0.385   0.382  -0.238  0.00  0.00     0.150 A 
ATOM      5  C4  UNL d   1      -0.272   1.367  -0.967  0.00  0.00    -0.007 A 
ATOM      6  C5  UNL d   1      -1.558   1.128  -1.448  0.00  0.00     0.039 A 
ENDROOT
BRANCH   4   7
ATOM      7  O   UNL d   1       1.644   0.658   0.208  0.00  0.00    -0.526 OA
ATOM      8  H5  UNL d   1       1.985  -0.125   0.671  0.00  0.00     0.418 HD
ENDBRANCH   4   7
TORSDOF 1
ENDMDL
