MODEL 1
REMARK minimizedAffinity -1.18634927
REMARK minimizedRMSD -1
REMARK  1 active torsions:
REMARK  status: ('A' for Active; 'I' for Inactive)
REMARK    1  A    between atoms: C3_4  and  O_7 
ROOT
ATOM      1  C   UNL d   1       1.024   0.074   0.361  0.00  0.00    -0.033 A 
ATOM      2  C1  UNL d   1       0.109  -0.835   0.896  0.00  0.00     0.039 A 
ATOM      3  C2  UNL d   1      -1.133  -1.020   0.287  0.00  0.00    -0.080 A 
ATOM      4  C3  UNL d   1      -1.448  -0.290  -0.856  0.00  0.00     0.150 A 
ATOM      5  C4  UNL d   1      -0.541   0.615  -1.397  0.00  0.00    -0.007 A 
ATOM      6  C5  UNL d   1       0.699   0.798  -0.786  0.00  0.00     0.039 A 
ENDROOT
BRANCH   4   7
ATOM      7  O   UNL d   1      -2.650  -0.432  -1.483  0.00  0.00    -0.526 OA
ATOM      8  H5  UNL d   1      -3.186  -1.069  -0.982  0.00  0.00     0.418 HD
ENDBRANCH   4   7
TORSDOF 1
ENDMDL
