MODEL 1
REMARK minimizedAffinity -2.42899919
REMARK minimizedRMSD -1
REMARK  1 active torsions:
REMARK  status: ('A' for Active; 'I' for Inactive)
REMARK    1  A    between atoms: C3_4  and  O_7 
ROOT
ATOM      1  C   UNL d   1       1.529   0.822   0.748  0.00  0.00    -0.033 A 
ATOM      2  C1  UNL d   1       0.324   1.495   0.957  0.00  0.00     0.039 A 
ATOM      3  C2  UNL d   1      -0.793   1.190   0.177  0.00  0.00    -0.080 A 
ATOM      4  C3  UNL d   1      -0.692   0.210  -0.806  0.00  0.00     0.150 A 
ATOM      5  C4  UNL d   1       0.504  -0.467  -1.018  0.00  0.00    -0.007 A 
ATOM      6  C5  UNL d   1       1.619  -0.160  -0.239  0.00  0.00     0.039 A 
ENDROOT
BRANCH   4   7
ATOM      7  O   UNL d   1      -1.754  -0.120  -1.596  0.00  0.00    -0.526 OA
ATOM      8  H5  UNL d   1      -2.504   0.449  -1.356  0.00  0.00     0.418 HD
ENDBRANCH   4   7
TORSDOF 1
ENDMDL
