MODEL 1
REMARK minimizedAffinity -3.38677192
REMARK minimizedRMSD -1
REMARK  1 active torsions:
REMARK  status: ('A' for Active; 'I' for Inactive)
REMARK    1  A    between atoms: C3_4  and  O_7 
ROOT
ATOM      1  C   UNL d   1      -0.678   0.100  -1.347  0.00  0.00    -0.033 A 
ATOM      2  C1  UNL d   1       0.650  -0.331  -1.388  0.00  0.00     0.039 A 
ATOM      3  C2  UNL d   1       1.592   0.222  -0.519  0.00  0.00    -0.080 A 
ATOM      4  C3  UNL d   1       1.194   1.203   0.386  0.00  0.00     0.150 A 
ATOM      5  C4  UNL d   1      -0.128   1.634   0.435  0.00  0.00    -0.007 A 
ATOM      6  C5  UNL d   1      -1.067   1.081  -0.435  0.00  0.00     0.039 A 
ENDROOT
BRANCH   4   7
ATOM      7  O   UNL d   1       2.078   1.776   1.251  0.00  0.00    -0.526 OA
ATOM      8  H5  UNL d   1       2.959   1.401   1.084  0.00  0.00     0.418 HD
ENDBRANCH   4   7
TORSDOF 1
ENDMDL
