MODEL 1
REMARK minimizedAffinity -2.34348106
REMARK minimizedRMSD -1
REMARK  1 active torsions:
REMARK  status: ('A' for Active; 'I' for Inactive)
REMARK    1  A    between atoms: C3_4  and  O_7 
ROOT
ATOM      1  C   UNL d   1      -1.238  -0.129  -1.233  0.00  0.00    -0.033 A 
ATOM      2  C1  UNL d   1      -2.206  -1.135  -1.225  0.00  0.00     0.039 A 
ATOM      3  C2  UNL d   1      -2.197  -2.106  -0.222  0.00  0.00    -0.080 A 
ATOM      4  C3  UNL d   1      -1.217  -2.059   0.766  0.00  0.00     0.150 A 
ATOM      5  C4  UNL d   1      -0.252  -1.057   0.766  0.00  0.00    -0.007 A 
ATOM      6  C5  UNL d   1      -0.262  -0.089  -0.237  0.00  0.00     0.039 A 
ENDROOT
BRANCH   4   7
ATOM      7  O   UNL d   1      -1.166  -2.988   1.763  0.00  0.00    -0.526 OA
ATOM      8  H5  UNL d   1      -1.877  -3.634   1.619  0.00  0.00     0.418 HD
ENDBRANCH   4   7
TORSDOF 1
ENDMDL
