MODEL 1
REMARK minimizedAffinity -3.991292
REMARK minimizedRMSD -1
REMARK  1 active torsions:
REMARK  status: ('A' for Active; 'I' for Inactive)
REMARK    1  A    between atoms: C3_4  and  O_7 
ROOT
ATOM      1  C   UNL d   1      -1.109   0.738  -0.977  0.00  0.00    -0.033 A 
ATOM      2  C1  UNL d   1      -0.178  -0.271  -0.726  0.00  0.00     0.039 A 
ATOM      3  C2  UNL d   1       0.965   0.002   0.029  0.00  0.00    -0.080 A 
ATOM      4  C3  UNL d   1       1.163   1.287   0.527  0.00  0.00     0.150 A 
ATOM      5  C4  UNL d   1       0.237   2.297   0.283  0.00  0.00    -0.007 A 
ATOM      6  C5  UNL d   1      -0.902   2.022  -0.471  0.00  0.00     0.039 A 
ENDROOT
BRANCH   4   7
ATOM      7  O   UNL d   1       2.265   1.604   1.264  0.00  0.00    -0.526 OA
ATOM      8  H5  UNL d   1       2.830   0.815   1.327  0.00  0.00     0.418 HD
ENDBRANCH   4   7
TORSDOF 1
ENDMDL
