MODEL 1
REMARK minimizedAffinity -2.23908234
REMARK minimizedRMSD -1
REMARK  1 active torsions:
REMARK  status: ('A' for Active; 'I' for Inactive)
REMARK    1  A    between atoms: C3_4  and  O_7 
ROOT
ATOM      1  C   UNL d   1      -0.373  -0.047  -0.910  0.00  0.00    -0.033 A 
ATOM      2  C1  UNL d   1       0.969  -0.429  -0.887  0.00  0.00     0.039 A 
ATOM      3  C2  UNL d   1       1.900   0.328  -0.174  0.00  0.00    -0.080 A 
ATOM      4  C3  UNL d   1       1.476   1.464   0.512  0.00  0.00     0.150 A 
ATOM      5  C4  UNL d   1       0.140   1.848   0.496  0.00  0.00    -0.007 A 
ATOM      6  C5  UNL d   1      -0.789   1.091  -0.217  0.00  0.00     0.039 A 
ENDROOT
BRANCH   4   7
ATOM      7  O   UNL d   1       2.349   2.237   1.217  0.00  0.00    -0.526 OA
ATOM      8  H5  UNL d   1       3.241   1.867   1.115  0.00  0.00     0.418 HD
ENDBRANCH   4   7
TORSDOF 1
ENDMDL
