MODEL 1
REMARK minimizedAffinity -0.495298862
REMARK minimizedRMSD -1
REMARK  1 active torsions:
REMARK  status: ('A' for Active; 'I' for Inactive)
REMARK    1  A    between atoms: C3_4  and  O_7 
ROOT
ATOM      1  C   UNL d   1      -2.358  -2.920   0.271  0.00  0.00    -0.033 A 
ATOM      2  C1  UNL d   1      -2.739  -2.233  -0.884  0.00  0.00     0.039 A 
ATOM      3  C2  UNL d   1      -2.060  -1.075  -1.266  0.00  0.00    -0.080 A 
ATOM      4  C3  UNL d   1      -1.002  -0.615  -0.486  0.00  0.00     0.150 A 
ATOM      5  C4  UNL d   1      -0.615  -1.296   0.664  0.00  0.00    -0.007 A 
ATOM      6  C5  UNL d   1      -1.296  -2.452   1.044  0.00  0.00     0.039 A 
ENDROOT
BRANCH   4   7
ATOM      7  O   UNL d   1      -0.312   0.514  -0.815  0.00  0.00    -0.526 OA
ATOM      8  H5  UNL d   1      -0.709   0.894  -1.616  0.00  0.00     0.418 HD
ENDBRANCH   4   7
TORSDOF 1
ENDMDL
