MODEL 1
REMARK minimizedAffinity -1.11154878
REMARK minimizedRMSD -1
REMARK  0 active torsions:
REMARK  status: ('A' for Active; 'I' for Inactive)
ROOT
ATOM      1  C1  DEN d   1      -3.569   5.998   4.636  0.00  0.00     0.130 A 
ATOM      2  C2  DEN d   1      -4.776   5.980   5.458  0.00  0.00    -0.031 A 
ATOM      3  C3  DEN d   1      -5.943   5.921   4.555  0.00  0.00     0.027 A 
ATOM      4  C4  DEN d   1      -5.998   5.851   1.977  0.00  0.00     0.027 A 
ATOM      5  C5  DEN d   1      -5.225   5.859   0.837  0.00  0.00    -0.003 A 
ATOM      6  C6  DEN d   1      -3.859   5.947   0.882  0.00  0.00     0.001 A 
ATOM      7  C7  DEN d   1      -3.221   5.986   2.094  0.00  0.00     0.017 A 
ATOM      8  C8  DEN d   1      -3.994   5.986   3.247  0.00  0.00    -0.094 A 
ATOM      9  C9  DEN d   1      -5.373   5.884   3.181  0.00  0.00    -0.072 A 
ENDROOT
TORSDOF 0
ENDMDL
