MODEL 1
REMARK minimizedAffinity 0.677894235
REMARK minimizedRMSD -1
REMARK  0 active torsions:
REMARK  status: ('A' for Active; 'I' for Inactive)
ROOT
ATOM      1  C1  DEN d   1      -5.998   4.834   2.344  0.00  0.00     0.130 A 
ATOM      2  C2  DEN d   1      -5.002   5.200   1.341  0.00  0.00    -0.031 A 
ATOM      3  C3  DEN d   1      -3.814   5.723   2.047  0.00  0.00     0.027 A 
ATOM      4  C4  DEN d   1      -3.423   5.995   4.582  0.00  0.00     0.027 A 
ATOM      5  C5  DEN d   1      -3.986   5.831   5.828  0.00  0.00    -0.003 A 
ATOM      6  C6  DEN d   1      -5.260   5.360   5.998  0.00  0.00     0.001 A 
ATOM      7  C7  DEN d   1      -5.999   4.992   4.905  0.00  0.00     0.017 A 
ATOM      8  C8  DEN d   1      -5.442   5.161   3.644  0.00  0.00    -0.094 A 
ATOM      9  C9  DEN d   1      -4.147   5.628   3.494  0.00  0.00    -0.072 A 
ENDROOT
TORSDOF 0
ENDMDL
