MODEL 1
REMARK minimizedAffinity -2.29942226
REMARK minimizedRMSD -1
REMARK  0 active torsions:
REMARK  status: ('A' for Active; 'I' for Inactive)
ROOT
ATOM      1  C1  DEN d   1      -2.510   6.000   2.796  0.00  0.00     0.130 A 
ATOM      2  C2  DEN d   1      -3.166   5.957   1.493  0.00  0.00    -0.031 A 
ATOM      3  C3  DEN d   1      -4.625   5.935   1.716  0.00  0.00     0.027 A 
ATOM      4  C4  DEN d   1      -5.926   5.966   3.944  0.00  0.00     0.027 A 
ATOM      5  C5  DEN d   1      -5.802   5.989   5.315  0.00  0.00    -0.003 A 
ATOM      6  C6  DEN d   1      -4.583   5.983   5.939  0.00  0.00     0.001 A 
ATOM      7  C7  DEN d   1      -3.437   5.999   5.189  0.00  0.00     0.017 A 
ATOM      8  C8  DEN d   1      -3.553   5.968   3.805  0.00  0.00    -0.094 A 
ATOM      9  C9  DEN d   1      -4.795   5.987   3.194  0.00  0.00    -0.072 A 
ENDROOT
TORSDOF 0
ENDMDL
