MODEL 1
REMARK minimizedAffinity -2.00462031
REMARK minimizedRMSD -1
REMARK  0 active torsions:
REMARK  status: ('A' for Active; 'I' for Inactive)
ROOT
ATOM      1  C1  DEN d   1      -3.583   5.967   4.936  0.00  0.00     0.130 A 
ATOM      2  C2  DEN d   1      -4.795   5.987   5.751  0.00  0.00    -0.031 A 
ATOM      3  C3  DEN d   1      -5.957   5.991   4.840  0.00  0.00     0.027 A 
ATOM      4  C4  DEN d   1      -5.998   5.964   2.261  0.00  0.00     0.027 A 
ATOM      5  C5  DEN d   1      -5.217   5.958   1.126  0.00  0.00    -0.003 A 
ATOM      6  C6  DEN d   1      -3.849   5.988   1.181  0.00  0.00     0.001 A 
ATOM      7  C7  DEN d   1      -3.218   5.980   2.397  0.00  0.00     0.017 A 
ATOM      8  C8  DEN d   1      -3.998   5.995   3.545  0.00  0.00    -0.094 A 
ATOM      9  C9  DEN d   1      -5.380   5.952   3.469  0.00  0.00    -0.072 A 
ENDROOT
TORSDOF 0
ENDMDL
