MODEL 1
REMARK minimizedAffinity 0.792693317
REMARK minimizedRMSD -1
REMARK  0 active torsions:
REMARK  status: ('A' for Active; 'I' for Inactive)
ROOT
ATOM      1  C1  DEN d   1      -3.606   5.932   5.121  0.00  0.00     0.130 A 
ATOM      2  C2  DEN d   1      -4.824   5.882   5.925  0.00  0.00    -0.031 A 
ATOM      3  C3  DEN d   1      -5.977   5.834   5.004  0.00  0.00     0.027 A 
ATOM      4  C4  DEN d   1      -5.995   5.825   2.425  0.00  0.00     0.027 A 
ATOM      5  C5  DEN d   1      -5.206   5.868   1.297  0.00  0.00    -0.003 A 
ATOM      6  C6  DEN d   1      -3.841   5.968   1.364  0.00  0.00     0.001 A 
ATOM      7  C7  DEN d   1      -3.221   5.984   2.585  0.00  0.00     0.017 A 
ATOM      8  C8  DEN d   1      -4.010   5.949   3.727  0.00  0.00    -0.094 A 
ATOM      9  C9  DEN d   1      -5.387   5.835   3.638  0.00  0.00    -0.072 A 
ENDROOT
TORSDOF 0
ENDMDL
