MODEL 1
REMARK minimizedAffinity 0.298377186
REMARK minimizedRMSD -1
REMARK  0 active torsions:
REMARK  status: ('A' for Active; 'I' for Inactive)
ROOT
ATOM      1  C1  DEN d   1      -3.773   5.975   5.679  0.00  0.00     0.130 A 
ATOM      2  C2  DEN d   1      -2.313   5.998   5.660  0.00  0.00    -0.031 A 
ATOM      3  C3  DEN d   1      -1.874   6.000   4.251  0.00  0.00     0.027 A 
ATOM      4  C4  DEN d   1      -3.306   5.975   2.105  0.00  0.00     0.027 A 
ATOM      5  C5  DEN d   1      -4.593   5.943   1.615  0.00  0.00    -0.003 A 
ATOM      6  C6  DEN d   1      -5.687   5.885   2.437  0.00  0.00     0.001 A 
ATOM      7  C7  DEN d   1      -5.515   5.903   3.796  0.00  0.00     0.017 A 
ATOM      8  C8  DEN d   1      -4.221   5.929   4.298  0.00  0.00    -0.094 A 
ATOM      9  C9  DEN d   1      -3.129   5.999   3.451  0.00  0.00    -0.072 A 
ENDROOT
TORSDOF 0
ENDMDL
