MODEL 1
REMARK minimizedAffinity -1.64323664
REMARK minimizedRMSD -1
REMARK  0 active torsions:
REMARK  status: ('A' for Active; 'I' for Inactive)
ROOT
ATOM      1  C   UNL d   1      -2.148  -6.000  -5.811  0.00  0.00     0.172 C 
ATOM      2  N   UNL d   1      -3.208  -5.019  -5.850  0.00  0.00    -0.070 N 
ATOM      3  C1  UNL d   1      -4.542  -5.291  -5.999  0.00  0.00    -0.004 A 
ATOM      4  C2  UNL d   1      -5.221  -4.092  -5.986  0.00  0.00    -0.047 A 
ATOM      5  C3  UNL d   1      -4.261  -3.064  -5.825  0.00  0.00    -0.047 A 
ATOM      6  C4  UNL d   1      -3.024  -3.666  -5.743  0.00  0.00    -0.004 A 
ENDROOT
TORSDOF 0
ENDMDL
