MODEL 1
REMARK minimizedAffinity -0.658839643
REMARK minimizedRMSD -1
REMARK  0 active torsions:
REMARK  status: ('A' for Active; 'I' for Inactive)
ROOT
ATOM      1  C   UNL d   1      -4.274  -0.047  -5.763  0.00  0.00     0.172 C 
ATOM      2  N   UNL d   1      -4.700  -1.424  -5.851  0.00  0.00    -0.070 N 
ATOM      3  C1  UNL d   1      -5.999  -1.857  -5.890  0.00  0.00    -0.004 A 
ATOM      4  C2  UNL d   1      -5.983  -3.232  -5.974  0.00  0.00    -0.047 A 
ATOM      5  C3  UNL d   1      -4.628  -3.640  -5.984  0.00  0.00    -0.047 A 
ATOM      6  C4  UNL d   1      -3.855  -2.501  -5.907  0.00  0.00    -0.004 A 
ENDROOT
TORSDOF 0
ENDMDL
