MODEL 1
REMARK minimizedAffinity -1.54594731
REMARK minimizedRMSD -1
REMARK  0 active torsions:
REMARK  status: ('A' for Active; 'I' for Inactive)
ROOT
ATOM      1  C   UNL d   1      -4.976   0.101  -6.000  0.00  0.00     0.172 C 
ATOM      2  N   UNL d   1      -4.372   1.412  -5.997  0.00  0.00    -0.070 N 
ATOM      3  C1  UNL d   1      -3.027   1.671  -5.991  0.00  0.00    -0.004 A 
ATOM      4  C2  UNL d   1      -2.860   3.039  -5.991  0.00  0.00    -0.047 A 
ATOM      5  C3  UNL d   1      -4.150   3.623  -5.995  0.00  0.00    -0.047 A 
ATOM      6  C4  UNL d   1      -5.067   2.593  -5.999  0.00  0.00    -0.004 A 
ENDROOT
TORSDOF 0
ENDMDL
