MODEL 1
REMARK minimizedAffinity -2.12606716
REMARK minimizedRMSD -1
REMARK  0 active torsions:
REMARK  status: ('A' for Active; 'I' for Inactive)
ROOT
ATOM      1  C   UNL d   1      -3.449   3.761  -5.995  0.00  0.00     0.172 C 
ATOM      2  N   UNL d   1      -3.748   2.348  -5.997  0.00  0.00    -0.070 N 
ATOM      3  C1  UNL d   1      -2.825   1.336  -5.997  0.00  0.00    -0.004 A 
ATOM      4  C2  UNL d   1      -3.510   0.140  -5.998  0.00  0.00    -0.047 A 
ATOM      5  C3  UNL d   1      -4.892   0.443  -5.999  0.00  0.00    -0.047 A 
ATOM      6  C4  UNL d   1      -5.011   1.817  -5.998  0.00  0.00    -0.004 A 
ENDROOT
TORSDOF 0
ENDMDL
