MODEL 1
REMARK minimizedAffinity -2.87340021
REMARK minimizedRMSD -1
REMARK  0 active torsions:
REMARK  status: ('A' for Active; 'I' for Inactive)
ROOT
ATOM      1  C   UNL d   1      -3.150   2.824  -5.979  0.00  0.00     0.172 C 
ATOM      2  N   UNL d   1      -3.723   1.508  -5.825  0.00  0.00    -0.070 N 
ATOM      3  C1  UNL d   1      -5.043   1.186  -6.000  0.00  0.00    -0.004 A 
ATOM      4  C2  UNL d   1      -5.183  -0.164  -5.762  0.00  0.00    -0.047 A 
ATOM      5  C3  UNL d   1      -3.903  -0.671  -5.432  0.00  0.00    -0.047 A 
ATOM      6  C4  UNL d   1      -3.018   0.385  -5.479  0.00  0.00    -0.004 A 
ENDROOT
TORSDOF 0
ENDMDL
