MODEL 1
REMARK minimizedAffinity -2.40733218
REMARK minimizedRMSD -1
REMARK  0 active torsions:
REMARK  status: ('A' for Active; 'I' for Inactive)
ROOT
ATOM      1  C   UNL d   1      -2.310   4.875  -5.979  0.00  0.00     0.172 C 
ATOM      2  N   UNL d   1      -3.100   3.666  -5.985  0.00  0.00    -0.070 N 
ATOM      3  C1  UNL d   1      -4.468   3.606  -5.979  0.00  0.00    -0.004 A 
ATOM      4  C2  UNL d   1      -4.833   2.277  -5.989  0.00  0.00    -0.047 A 
ATOM      5  C3  UNL d   1      -3.642   1.512  -6.000  0.00  0.00    -0.047 A 
ATOM      6  C4  UNL d   1      -2.585   2.396  -5.997  0.00  0.00    -0.004 A 
ENDROOT
TORSDOF 0
ENDMDL
