MODEL 1
REMARK minimizedAffinity -1.8820641
REMARK minimizedRMSD -1
REMARK  0 active torsions:
REMARK  status: ('A' for Active; 'I' for Inactive)
ROOT
ATOM      1  C   UNL d   1      -5.878   4.497  -5.976  0.00  0.00     0.172 C 
ATOM      2  N   UNL d   1      -5.298   3.174  -5.965  0.00  0.00    -0.070 N 
ATOM      3  C1  UNL d   1      -5.996   1.996  -5.965  0.00  0.00    -0.004 A 
ATOM      4  C2  UNL d   1      -5.083   0.964  -5.953  0.00  0.00    -0.047 A 
ATOM      5  C3  UNL d   1      -3.791   1.542  -5.945  0.00  0.00    -0.047 A 
ATOM      6  C4  UNL d   1      -3.954   2.911  -5.952  0.00  0.00    -0.004 A 
ENDROOT
TORSDOF 0
ENDMDL
