MODEL 1
REMARK minimizedAffinity -2.03394914
REMARK minimizedRMSD -1
REMARK  0 active torsions:
REMARK  status: ('A' for Active; 'I' for Inactive)
ROOT
ATOM      1  C   UNL d   1      -4.771  -0.408  -5.990  0.00  0.00     0.172 C 
ATOM      2  N   UNL d   1      -4.569   1.022  -5.993  0.00  0.00    -0.070 N 
ATOM      3  C1  UNL d   1      -5.560   1.967  -5.990  0.00  0.00    -0.004 A 
ATOM      4  C2  UNL d   1      -4.959   3.208  -5.993  0.00  0.00    -0.047 A 
ATOM      5  C3  UNL d   1      -3.559   3.000  -6.000  0.00  0.00    -0.047 A 
ATOM      6  C4  UNL d   1      -3.346   1.638  -5.999  0.00  0.00    -0.004 A 
ENDROOT
TORSDOF 0
ENDMDL
