MODEL 1
REMARK minimizedAffinity -2.05368114
REMARK minimizedRMSD -1
REMARK  0 active torsions:
REMARK  status: ('A' for Active; 'I' for Inactive)
ROOT
ATOM      1  C   UNL d   1      -4.677   0.839  -5.944  0.00  0.00     0.172 C 
ATOM      2  N   UNL d   1      -4.550   2.277  -5.967  0.00  0.00    -0.070 N 
ATOM      3  C1  UNL d   1      -5.588   3.170  -5.981  0.00  0.00    -0.004 A 
ATOM      4  C2  UNL d   1      -5.053   4.440  -6.000  0.00  0.00    -0.047 A 
ATOM      5  C3  UNL d   1      -3.644   4.305  -5.998  0.00  0.00    -0.047 A 
ATOM      6  C4  UNL d   1      -3.360   2.956  -5.978  0.00  0.00    -0.004 A 
ENDROOT
TORSDOF 0
ENDMDL
