MODEL 1
REMARK minimizedAffinity -2.45672512
REMARK minimizedRMSD -1
REMARK  0 active torsions:
REMARK  status: ('A' for Active; 'I' for Inactive)
ROOT
ATOM      1  C   UNL d   1      -4.864   1.775  -5.989  0.00  0.00     0.172 C 
ATOM      2  N   UNL d   1      -4.072   2.982  -5.991  0.00  0.00    -0.070 N 
ATOM      3  C1  UNL d   1      -4.564   4.260  -6.000  0.00  0.00    -0.004 A 
ATOM      4  C2  UNL d   1      -3.492   5.125  -5.999  0.00  0.00    -0.047 A 
ATOM      5  C3  UNL d   1      -2.314   4.341  -5.991  0.00  0.00    -0.047 A 
ATOM      6  C4  UNL d   1      -2.702   3.018  -5.987  0.00  0.00    -0.004 A 
ENDROOT
TORSDOF 0
ENDMDL
