MODEL 1
REMARK minimizedAffinity -2.13498783
REMARK minimizedRMSD -1
REMARK  0 active torsions:
REMARK  status: ('A' for Active; 'I' for Inactive)
ROOT
ATOM      1  C   UNL d   1      -2.830  -5.999  -5.987  0.00  0.00     0.172 C 
ATOM      2  N   UNL d   1      -3.901  -5.030  -5.989  0.00  0.00    -0.070 N 
ATOM      3  C1  UNL d   1      -5.239  -5.319  -5.997  0.00  0.00    -0.004 A 
ATOM      4  C2  UNL d   1      -5.929  -4.126  -5.996  0.00  0.00    -0.047 A 
ATOM      5  C3  UNL d   1      -4.971  -3.084  -5.987  0.00  0.00    -0.047 A 
ATOM      6  C4  UNL d   1      -3.724  -3.672  -5.983  0.00  0.00    -0.004 A 
ENDROOT
TORSDOF 0
ENDMDL
