MODEL 1
REMARK minimizedAffinity 1.97301745
REMARK minimizedRMSD -1
REMARK  0 active torsions:
REMARK  status: ('A' for Active; 'I' for Inactive)
ROOT
ATOM      1  C   UNL d   1      -2.137   4.601  -5.837  0.00  0.00     0.172 C 
ATOM      2  N   UNL d   1      -3.368   3.849  -5.883  0.00  0.00    -0.070 N 
ATOM      3  C1  UNL d   1      -4.625   4.381  -5.988  0.00  0.00    -0.004 A 
ATOM      4  C2  UNL d   1      -5.526   3.338  -6.000  0.00  0.00    -0.047 A 
ATOM      5  C3  UNL d   1      -4.784   2.137  -5.897  0.00  0.00    -0.047 A 
ATOM      6  C4  UNL d   1      -3.451   2.483  -5.826  0.00  0.00    -0.004 A 
ENDROOT
TORSDOF 0
ENDMDL
