MODEL 1
REMARK minimizedAffinity -2.15515924
REMARK minimizedRMSD -1
REMARK  0 active torsions:
REMARK  status: ('A' for Active; 'I' for Inactive)
ROOT
ATOM      1  C   UNL d   1      -2.913  -5.378  -6.000  0.00  0.00     0.172 C 
ATOM      2  N   UNL d   1      -3.941  -4.364  -5.999  0.00  0.00    -0.070 N 
ATOM      3  C1  UNL d   1      -5.290  -4.595  -5.998  0.00  0.00    -0.004 A 
ATOM      4  C2  UNL d   1      -5.928  -3.374  -5.997  0.00  0.00    -0.047 A 
ATOM      5  C3  UNL d   1      -4.927  -2.373  -5.998  0.00  0.00    -0.047 A 
ATOM      6  C4  UNL d   1      -3.706  -3.014  -5.999  0.00  0.00    -0.004 A 
ENDROOT
TORSDOF 0
ENDMDL
