MODEL 1
REMARK minimizedAffinity 8.87672615
REMARK minimizedRMSD -1
REMARK  1 active torsions:
REMARK  status: ('A' for Active; 'I' for Inactive)
REMARK    1  A    between atoms: C1_2  and  C2_3 
ROOT
ATOM      1  C2  UNL d   1      -3.827  -0.641  -2.622  0.00  0.00    -0.081 A 
ATOM      2  C3  UNL d   1      -5.180  -0.544  -2.274  0.00  0.00     0.006 A 
ATOM      3  C4  UNL d   1      -5.890  -1.676  -1.868  0.00  0.00     0.002 A 
ATOM      4  C5  UNL d   1      -5.257  -2.922  -1.794  0.00  0.00    -0.080 A 
ATOM      5  C6  UNL d   1      -6.000  -4.139  -1.330  0.00  0.00     0.076 C 
ATOM      6  C7  UNL d   1      -3.910  -3.022  -2.158  0.00  0.00     0.002 A 
ATOM      7  C8  UNL d   1      -3.200  -1.890  -2.565  0.00  0.00     0.006 A 
ENDROOT
BRANCH   1   8
ATOM      8  C1  UNL d   1      -3.043   0.590  -2.999  0.00  0.00     0.054 C 
ATOM      9  C   UNL d   1      -3.792   1.860  -2.624  0.00  0.00     0.018 C 
ENDBRANCH   1   8
TORSDOF 1
ENDMDL
