MODEL 1
REMARK minimizedAffinity 8.58061218
REMARK minimizedRMSD -1
REMARK  1 active torsions:
REMARK  status: ('A' for Active; 'I' for Inactive)
REMARK    1  A    between atoms: C1_2  and  C2_3 
ROOT
ATOM      1  C2  UNL d   1      -3.145   1.929   0.690  0.00  0.00    -0.081 A 
ATOM      2  C3  UNL d   1      -4.364   2.065   1.365  0.00  0.00     0.006 A 
ATOM      3  C4  UNL d   1      -5.235   3.112   1.051  0.00  0.00     0.002 A 
ATOM      4  C5  UNL d   1      -4.905   4.033   0.051  0.00  0.00    -0.080 A 
ATOM      5  C6  UNL d   1      -5.845   5.142  -0.318  0.00  0.00     0.076 C 
ATOM      6  C7  UNL d   1      -3.680   3.906  -0.612  0.00  0.00     0.002 A 
ATOM      7  C8  UNL d   1      -2.809   2.861  -0.297  0.00  0.00     0.006 A 
ENDROOT
BRANCH   1   8
ATOM      8  C1  UNL d   1      -2.233   0.765   0.982  0.00  0.00     0.054 C 
ATOM      9  C   UNL d   1      -1.619   0.209  -0.295  0.00  0.00     0.018 C 
ENDBRANCH   1   8
TORSDOF 1
ENDMDL
