MODEL 1
REMARK minimizedAffinity 9.35413647
REMARK minimizedRMSD -1
REMARK  1 active torsions:
REMARK  status: ('A' for Active; 'I' for Inactive)
REMARK    1  A    between atoms: C1_2  and  C2_3 
ROOT
ATOM      1  C2  UNL d   1       2.374   0.970   1.832  0.00  0.00    -0.081 A 
ATOM      2  C3  UNL d   1       1.367   1.942   1.804  0.00  0.00     0.006 A 
ATOM      3  C4  UNL d   1       1.413   2.982   0.873  0.00  0.00     0.002 A 
ATOM      4  C5  UNL d   1       2.461   3.063  -0.050  0.00  0.00    -0.080 A 
ATOM      5  C6  UNL d   1       2.506   4.157  -1.075  0.00  0.00     0.076 C 
ATOM      6  C7  UNL d   1       3.476   2.101  -0.011  0.00  0.00     0.002 A 
ATOM      7  C8  UNL d   1       3.431   1.061   0.920  0.00  0.00     0.006 A 
ENDROOT
BRANCH   1   8
ATOM      8  C1  UNL d   1       2.293  -0.189   2.793  0.00  0.00     0.054 C 
ATOM      9  C   UNL d   1       1.798  -1.450   2.098  0.00  0.00     0.018 C 
ENDBRANCH   1   8
TORSDOF 1
ENDMDL
