MODEL 1
REMARK minimizedAffinity 5.80287075
REMARK minimizedRMSD -1
REMARK  1 active torsions:
REMARK  status: ('A' for Active; 'I' for Inactive)
REMARK    1  A    between atoms: C1_2  and  C2_3 
ROOT
ATOM      1  C2  UNL d   1       2.112  -2.181   2.990  0.00  0.00    -0.081 A 
ATOM      2  C3  UNL d   1       1.208  -3.201   3.312  0.00  0.00     0.006 A 
ATOM      3  C4  UNL d   1       1.550  -4.182   4.246  0.00  0.00     0.002 A 
ATOM      4  C5  UNL d   1       2.797  -4.154   4.879  0.00  0.00    -0.080 A 
ATOM      5  C6  UNL d   1       3.166  -5.184   5.906  0.00  0.00     0.076 C 
ATOM      6  C7  UNL d   1       3.707  -3.145   4.545  0.00  0.00     0.002 A 
ATOM      7  C8  UNL d   1       3.366  -2.165   3.611  0.00  0.00     0.006 A 
ENDROOT
BRANCH   1   8
ATOM      8  C1  UNL d   1       1.721  -1.085   2.031  0.00  0.00     0.054 C 
ATOM      9  C   UNL d   1       2.839  -0.065   1.872  0.00  0.00     0.018 C 
ENDBRANCH   1   8
TORSDOF 1
ENDMDL
