MODEL 1
REMARK minimizedAffinity 8.24927425
REMARK minimizedRMSD -1
REMARK  1 active torsions:
REMARK  status: ('A' for Active; 'I' for Inactive)
REMARK    1  A    between atoms: C1_2  and  C2_3 
ROOT
ATOM      1  C2  UNL d   1       2.959  -4.411   4.496  0.00  0.00    -0.081 A 
ATOM      2  C3  UNL d   1       4.026  -3.509   4.398  0.00  0.00     0.006 A 
ATOM      3  C4  UNL d   1       3.894  -2.334   3.654  0.00  0.00     0.002 A 
ATOM      4  C5  UNL d   1       2.692  -2.038   3.002  0.00  0.00    -0.080 A 
ATOM      5  C6  UNL d   1       2.527  -0.766   2.225  0.00  0.00     0.076 C 
ATOM      6  C7  UNL d   1       1.632  -2.948   3.085  0.00  0.00     0.002 A 
ATOM      7  C8  UNL d   1       1.764  -4.123   3.829  0.00  0.00     0.006 A 
ENDROOT
BRANCH   1   8
ATOM      8  C1  UNL d   1       3.076  -5.647   5.351  0.00  0.00     0.054 C 
ATOM      9  C   UNL d   1       1.746  -5.999   6.000  0.00  0.00     0.018 C 
ENDBRANCH   1   8
TORSDOF 1
ENDMDL
