MODEL 1
REMARK minimizedAffinity 10.1449871
REMARK minimizedRMSD -1
REMARK  1 active torsions:
REMARK  status: ('A' for Active; 'I' for Inactive)
REMARK    1  A    between atoms: C1_2  and  C2_3 
ROOT
ATOM      1  C2  UNL d   1       2.437  -0.892   2.692  0.00  0.00    -0.081 A 
ATOM      2  C3  UNL d   1       3.103  -1.543   3.737  0.00  0.00     0.006 A 
ATOM      3  C4  UNL d   1       2.970  -2.923   3.910  0.00  0.00     0.002 A 
ATOM      4  C5  UNL d   1       2.177  -3.675   3.037  0.00  0.00    -0.080 A 
ATOM      5  C6  UNL d   1       2.050  -5.161   3.193  0.00  0.00     0.076 C 
ATOM      6  C7  UNL d   1       1.498  -3.021   2.003  0.00  0.00     0.002 A 
ATOM      7  C8  UNL d   1       1.630  -1.642   1.830  0.00  0.00     0.006 A 
ENDROOT
BRANCH   1   8
ATOM      8  C1  UNL d   1       2.630   0.586   2.464  0.00  0.00     0.054 C 
ATOM      9  C   UNL d   1       3.409   0.851   1.183  0.00  0.00     0.018 C 
ENDBRANCH   1   8
TORSDOF 1
ENDMDL
