MODEL 1
REMARK minimizedAffinity 14.4030142
REMARK minimizedRMSD -1
REMARK  0 active torsions:
REMARK  status: ('A' for Active; 'I' for Inactive)
ROOT
ATOM      1  C   UNL d   1      -0.090   0.243   0.013  0.00  0.00     0.124 A 
ATOM      2  C1  UNL d   1       0.595   0.734  -1.090  0.00  0.00     0.062 A 
ATOM      3  C2  UNL d   1       1.724   1.530  -0.916  0.00  0.00     0.162 A 
ATOM      4  C3  UNL d   1       2.176   1.839   0.367  0.00  0.00    -0.034 A 
ATOM      5  C4  UNL d   1       1.481   1.342   1.471  0.00  0.00     0.162 A 
ATOM      6  C5  UNL d   1       0.354   0.547   1.292  0.00  0.00     0.062 A 
ATOM      7  F   UNL d   1      -0.307   0.074   2.359  0.00  0.00    -0.097 F 
ATOM      8  F1  UNL d   1       1.888   1.620   2.719  0.00  0.00    -0.096 F 
ATOM      9  I   UNL d   1       3.863   3.028   0.632  0.00  0.00    -0.060 I 
ATOM     10  F2  UNL d   1       2.366   1.990  -2.000  0.00  0.00    -0.096 F 
ATOM     11  F3  UNL d   1       0.169   0.442  -2.327  0.00  0.00    -0.097 F 
ATOM     12  F4  UNL d   1      -1.176  -0.522  -0.158  0.00  0.00    -0.092 F 
ENDROOT
TORSDOF 0
ENDMDL
