MODEL 1
REMARK minimizedAffinity 26.4437294
REMARK minimizedRMSD -1
REMARK  0 active torsions:
REMARK  status: ('A' for Active; 'I' for Inactive)
ROOT
ATOM      1  C   UNL d   1       2.162  -2.014   0.632  0.00  0.00     0.124 A 
ATOM      2  C1  UNL d   1       1.537  -1.924   1.868  0.00  0.00     0.062 A 
ATOM      3  C2  UNL d   1       0.997  -3.061   2.463  0.00  0.00     0.162 A 
ATOM      4  C3  UNL d   1       1.082  -4.298   1.824  0.00  0.00    -0.034 A 
ATOM      5  C4  UNL d   1       1.711  -4.380   0.581  0.00  0.00     0.162 A 
ATOM      6  C5  UNL d   1       2.249  -3.241  -0.010  0.00  0.00     0.062 A 
ATOM      7  F   UNL d   1       2.852  -3.329  -1.204  0.00  0.00    -0.097 F 
ATOM      8  F1  UNL d   1       1.810  -5.553  -0.061  0.00  0.00    -0.096 F 
ATOM      9  I   UNL d   1       0.277  -5.999   2.712  0.00  0.00    -0.060 I 
ATOM     10  F2  UNL d   1       0.399  -2.945   3.658  0.00  0.00    -0.096 F 
ATOM     11  F3  UNL d   1       1.451  -0.740   2.490  0.00  0.00    -0.097 F 
ATOM     12  F4  UNL d   1       2.679  -0.918   0.061  0.00  0.00    -0.092 F 
ENDROOT
TORSDOF 0
ENDMDL
