MODEL 1
REMARK minimizedAffinity 11.0317869
REMARK minimizedRMSD -1
REMARK  0 active torsions:
REMARK  status: ('A' for Active; 'I' for Inactive)
ROOT
ATOM      1  C   UNL d   1       1.770   1.206   0.325  0.00  0.00     0.124 A 
ATOM      2  C1  UNL d   1       2.794   2.143   0.303  0.00  0.00     0.062 A 
ATOM      3  C2  UNL d   1       3.942   1.942   1.064  0.00  0.00     0.162 A 
ATOM      4  C3  UNL d   1       4.073   0.799   1.852  0.00  0.00    -0.034 A 
ATOM      5  C4  UNL d   1       3.039  -0.139   1.869  0.00  0.00     0.162 A 
ATOM      6  C5  UNL d   1       1.893   0.067   1.107  0.00  0.00     0.062 A 
ATOM      7  F   UNL d   1       0.905  -0.839   1.129  0.00  0.00    -0.097 F 
ATOM      8  F1  UNL d   1       3.132  -1.249   2.615  0.00  0.00    -0.096 F 
ATOM      9  I   UNL d   1       5.789   0.494   2.990  0.00  0.00    -0.060 I 
ATOM     10  F2  UNL d   1       4.916   2.864   1.024  0.00  0.00    -0.096 F 
ATOM     11  F3  UNL d   1       2.677   3.245  -0.451  0.00  0.00    -0.097 F 
ATOM     12  F4  UNL d   1       0.666   1.403  -0.407  0.00  0.00    -0.092 F 
ENDROOT
TORSDOF 0
ENDMDL
