MODEL 1
REMARK minimizedAffinity 15.9174929
REMARK minimizedRMSD -1
REMARK  0 active torsions:
REMARK  status: ('A' for Active; 'I' for Inactive)
ROOT
ATOM      1  C   UNL d   1       5.015  -4.228   3.646  0.00  0.00     0.124 A 
ATOM      2  C1  UNL d   1       4.877  -3.491   2.478  0.00  0.00     0.062 A 
ATOM      3  C2  UNL d   1       5.115  -2.119   2.484  0.00  0.00     0.162 A 
ATOM      4  C3  UNL d   1       5.495  -1.476   3.662  0.00  0.00    -0.034 A 
ATOM      5  C4  UNL d   1       5.631  -2.224   4.833  0.00  0.00     0.162 A 
ATOM      6  C5  UNL d   1       5.392  -3.594   4.822  0.00  0.00     0.062 A 
ATOM      7  F   UNL d   1       5.526  -4.305   5.951  0.00  0.00    -0.097 F 
ATOM      8  F1  UNL d   1       5.994  -1.637   5.983  0.00  0.00    -0.096 F 
ATOM      9  I   UNL d   1       5.851   0.575   3.675  0.00  0.00    -0.060 I 
ATOM     10  F2  UNL d   1       4.974  -1.432   1.341  0.00  0.00    -0.096 F 
ATOM     11  F3  UNL d   1       4.513  -4.100   1.341  0.00  0.00    -0.097 F 
ATOM     12  F4  UNL d   1       4.785  -5.547   3.638  0.00  0.00    -0.092 F 
ENDROOT
TORSDOF 0
ENDMDL
