MODEL 1
REMARK minimizedAffinity 11.5747509
REMARK minimizedRMSD -1
REMARK  0 active torsions:
REMARK  status: ('A' for Active; 'I' for Inactive)
ROOT
ATOM      1  C   UNL d   1       5.231  -1.185   2.443  0.00  0.00     0.124 A 
ATOM      2  C1  UNL d   1       5.501  -0.757   3.736  0.00  0.00     0.062 A 
ATOM      3  C2  UNL d   1       5.701  -1.686   4.753  0.00  0.00     0.162 A 
ATOM      4  C3  UNL d   1       5.634  -3.053   4.481  0.00  0.00    -0.034 A 
ATOM      5  C4  UNL d   1       5.361  -3.475   3.179  0.00  0.00     0.162 A 
ATOM      6  C5  UNL d   1       5.162  -2.543   2.166  0.00  0.00     0.062 A 
ATOM      7  F   UNL d   1       4.902  -2.958   0.918  0.00  0.00    -0.097 F 
ATOM      8  F1  UNL d   1       5.290  -4.781   2.883  0.00  0.00    -0.096 F 
ATOM      9  I   UNL d   1       5.933  -4.445   6.000  0.00  0.00    -0.060 I 
ATOM     10  F2  UNL d   1       5.960  -1.244   5.993  0.00  0.00    -0.096 F 
ATOM     11  F3  UNL d   1       5.568   0.554   4.006  0.00  0.00    -0.097 F 
ATOM     12  F4  UNL d   1       5.038  -0.289   1.467  0.00  0.00    -0.092 F 
ENDROOT
TORSDOF 0
ENDMDL
