MODEL 1
REMARK minimizedAffinity 17.7593536
REMARK minimizedRMSD -1
REMARK  0 active torsions:
REMARK  status: ('A' for Active; 'I' for Inactive)
ROOT
ATOM      1  C   UNL d   1       0.184   0.142   0.123  0.00  0.00     0.124 A 
ATOM      2  C1  UNL d   1       0.336  -0.823   1.109  0.00  0.00     0.062 A 
ATOM      3  C2  UNL d   1      -0.317  -2.047   0.997  0.00  0.00     0.162 A 
ATOM      4  C3  UNL d   1      -1.129  -2.313  -0.105  0.00  0.00    -0.034 A 
ATOM      5  C4  UNL d   1      -1.279  -1.337  -1.092  0.00  0.00     0.162 A 
ATOM      6  C5  UNL d   1      -0.623  -0.116  -0.976  0.00  0.00     0.062 A 
ATOM      7  F   UNL d   1      -0.772   0.816  -1.929  0.00  0.00    -0.097 F 
ATOM      8  F1  UNL d   1      -2.052  -1.560  -2.165  0.00  0.00    -0.096 F 
ATOM      9  I   UNL d   1      -2.108  -4.142  -0.276  0.00  0.00    -0.060 I 
ATOM     10  F2  UNL d   1      -0.151  -2.961   1.965  0.00  0.00    -0.096 F 
ATOM     11  F3  UNL d   1       1.115  -0.576   2.172  0.00  0.00    -0.097 F 
ATOM     12  F4  UNL d   1       0.813   1.319   0.234  0.00  0.00    -0.092 F 
ENDROOT
TORSDOF 0
ENDMDL
