MODEL 1
REMARK minimizedAffinity 14.2278843
REMARK minimizedRMSD -1
REMARK  0 active torsions:
REMARK  status: ('A' for Active; 'I' for Inactive)
ROOT
ATOM      1  C   UNL d   1      -5.727   0.491   2.148  0.00  0.00     0.124 A 
ATOM      2  C1  UNL d   1      -5.705  -0.009   3.442  0.00  0.00     0.062 A 
ATOM      3  C2  UNL d   1      -5.782   0.858   4.529  0.00  0.00     0.162 A 
ATOM      4  C3  UNL d   1      -5.883   2.234   4.325  0.00  0.00    -0.034 A 
ATOM      5  C4  UNL d   1      -5.903   2.730   3.020  0.00  0.00     0.162 A 
ATOM      6  C5  UNL d   1      -5.826   1.859   1.938  0.00  0.00     0.062 A 
ATOM      7  F   UNL d   1      -5.848   2.344   0.687  0.00  0.00    -0.097 F 
ATOM      8  F1  UNL d   1      -5.999   4.047   2.788  0.00  0.00    -0.096 F 
ATOM      9  I   UNL d   1      -5.998   3.534   5.946  0.00  0.00    -0.060 I 
ATOM     10  F2  UNL d   1      -5.759   0.348   5.769  0.00  0.00    -0.096 F 
ATOM     11  F3  UNL d   1      -5.609  -1.330   3.648  0.00  0.00    -0.097 F 
ATOM     12  F4  UNL d   1      -5.652  -0.345   1.104  0.00  0.00    -0.092 F 
ENDROOT
TORSDOF 0
ENDMDL
