MODEL 1
REMARK minimizedAffinity 6.59687376
REMARK minimizedRMSD -1
REMARK  0 active torsions:
REMARK  status: ('A' for Active; 'I' for Inactive)
ROOT
ATOM      1  C   UNL d   1      -1.950  -5.975  -0.358  0.00  0.00     0.124 A 
ATOM      2  C1  UNL d   1      -0.638  -5.970   0.095  0.00  0.00     0.062 A 
ATOM      3  C2  UNL d   1      -0.369  -5.974   1.461  0.00  0.00     0.162 A 
ATOM      4  C3  UNL d   1      -1.415  -5.985   2.384  0.00  0.00    -0.034 A 
ATOM      5  C4  UNL d   1      -2.732  -5.989   1.920  0.00  0.00     0.162 A 
ATOM      6  C5  UNL d   1      -2.995  -5.984   0.555  0.00  0.00     0.062 A 
ATOM      7  F   UNL d   1      -4.263  -5.989   0.118  0.00  0.00    -0.097 F 
ATOM      8  F1  UNL d   1      -3.761  -5.999   2.780  0.00  0.00    -0.096 F 
ATOM      9  I   UNL d   1      -1.017  -5.992   4.427  0.00  0.00    -0.060 I 
ATOM     10  F2  UNL d   1       0.908  -5.970   1.871  0.00  0.00    -0.096 F 
ATOM     11  F3  UNL d   1       0.374  -5.959  -0.784  0.00  0.00    -0.097 F 
ATOM     12  F4  UNL d   1      -2.205  -5.969  -1.673  0.00  0.00    -0.092 F 
ENDROOT
TORSDOF 0
ENDMDL
