MODEL 1
REMARK minimizedAffinity 14.334403
REMARK minimizedRMSD -1
REMARK  0 active torsions:
REMARK  status: ('A' for Active; 'I' for Inactive)
ROOT
ATOM      1  C   UNL d   1       2.743   0.878  -3.085  0.00  0.00     0.124 A 
ATOM      2  C1  UNL d   1       3.104  -0.461  -3.023  0.00  0.00     0.062 A 
ATOM      3  C2  UNL d   1       3.069  -1.140  -1.808  0.00  0.00     0.162 A 
ATOM      4  C3  UNL d   1       2.671  -0.480  -0.645  0.00  0.00    -0.034 A 
ATOM      5  C4  UNL d   1       2.312   0.867  -0.716  0.00  0.00     0.162 A 
ATOM      6  C5  UNL d   1       2.348   1.540  -1.932  0.00  0.00     0.062 A 
ATOM      7  F   UNL d   1       2.000   2.834  -1.990  0.00  0.00    -0.097 F 
ATOM      8  F1  UNL d   1       1.924   1.531   0.383  0.00  0.00    -0.096 F 
ATOM      9  I   UNL d   1       2.618  -1.491   1.173  0.00  0.00    -0.060 I 
ATOM     10  F2  UNL d   1       3.422  -2.433  -1.777  0.00  0.00    -0.096 F 
ATOM     11  F3  UNL d   1       3.487  -1.104  -4.136  0.00  0.00    -0.097 F 
ATOM     12  F4  UNL d   1       2.779   1.528  -4.256  0.00  0.00    -0.092 F 
ENDROOT
TORSDOF 0
ENDMDL
