MODEL 1
REMARK minimizedAffinity 12.2608528
REMARK minimizedRMSD -1
REMARK  0 active torsions:
REMARK  status: ('A' for Active; 'I' for Inactive)
ROOT
ATOM      1  C   UNL d   1       5.557  -1.615   4.885  0.00  0.00     0.124 A 
ATOM      2  C1  UNL d   1       5.347  -0.871   3.732  0.00  0.00     0.062 A 
ATOM      3  C2  UNL d   1       4.889  -1.490   2.573  0.00  0.00     0.162 A 
ATOM      4  C3  UNL d   1       4.637  -2.862   2.560  0.00  0.00    -0.034 A 
ATOM      5  C4  UNL d   1       4.852  -3.604   3.723  0.00  0.00     0.162 A 
ATOM      6  C5  UNL d   1       5.310  -2.981   4.879  0.00  0.00     0.062 A 
ATOM      7  F   UNL d   1       5.512  -3.701   5.992  0.00  0.00    -0.097 F 
ATOM      8  F1  UNL d   1       4.619  -4.925   3.746  0.00  0.00    -0.096 F 
ATOM      9  I   UNL d   1       3.952  -3.792   0.829  0.00  0.00    -0.060 I 
ATOM     10  F2  UNL d   1       4.695  -0.747   1.474  0.00  0.00    -0.096 F 
ATOM     11  F3  UNL d   1       5.587   0.448   3.735  0.00  0.00    -0.097 F 
ATOM     12  F4  UNL d   1       5.999  -1.017   5.999  0.00  0.00    -0.092 F 
ENDROOT
TORSDOF 0
ENDMDL
