MODEL 1
REMARK minimizedAffinity 15.4118023
REMARK minimizedRMSD -1
REMARK  0 active torsions:
REMARK  status: ('A' for Active; 'I' for Inactive)
ROOT
ATOM      1  C   UNL d   1      -0.149   0.560   1.037  0.00  0.00     0.124 A 
ATOM      2  C1  UNL d   1      -0.665  -0.020  -0.113  0.00  0.00     0.062 A 
ATOM      3  C2  UNL d   1       0.015   0.098  -1.322  0.00  0.00     0.162 A 
ATOM      4  C3  UNL d   1       1.219   0.798  -1.386  0.00  0.00    -0.034 A 
ATOM      5  C4  UNL d   1       1.731   1.380  -0.225  0.00  0.00     0.162 A 
ATOM      6  C5  UNL d   1       1.048   1.259   0.980  0.00  0.00     0.062 A 
ATOM      7  F   UNL d   1       1.548   1.820   2.091  0.00  0.00    -0.097 F 
ATOM      8  F1  UNL d   1       2.887   2.060  -0.252  0.00  0.00    -0.096 F 
ATOM      9  I   UNL d   1       2.239   0.976  -3.192  0.00  0.00    -0.060 I 
ATOM     10  F2  UNL d   1      -0.507  -0.473  -2.418  0.00  0.00    -0.096 F 
ATOM     11  F3  UNL d   1      -1.823  -0.695  -0.061  0.00  0.00    -0.097 F 
ATOM     12  F4  UNL d   1      -0.806   0.446   2.199  0.00  0.00    -0.092 F 
ENDROOT
TORSDOF 0
ENDMDL
