MODEL 1
REMARK minimizedAffinity 6.59375668
REMARK minimizedRMSD -1
REMARK  0 active torsions:
REMARK  status: ('A' for Active; 'I' for Inactive)
ROOT
ATOM      1  C   UNL d   1      -1.834  -0.913   0.971  0.00  0.00     0.124 A 
ATOM      2  C1  UNL d   1      -2.176  -1.948   0.112  0.00  0.00     0.062 A 
ATOM      3  C2  UNL d   1      -2.320  -1.707  -1.251  0.00  0.00     0.162 A 
ATOM      4  C3  UNL d   1      -2.122  -0.425  -1.764  0.00  0.00    -0.034 A 
ATOM      5  C4  UNL d   1      -1.779   0.611  -0.894  0.00  0.00     0.162 A 
ATOM      6  C5  UNL d   1      -1.636   0.365   0.468  0.00  0.00     0.062 A 
ATOM      7  F   UNL d   1      -1.305   1.366   1.297  0.00  0.00    -0.097 F 
ATOM      8  F1  UNL d   1      -1.581   1.856  -1.353  0.00  0.00    -0.096 F 
ATOM      9  I   UNL d   1      -2.338  -0.060  -3.802  0.00  0.00    -0.060 I 
ATOM     10  F2  UNL d   1      -2.652  -2.726  -2.058  0.00  0.00    -0.096 F 
ATOM     11  F3  UNL d   1      -2.368  -3.183   0.596  0.00  0.00    -0.097 F 
ATOM     12  F4  UNL d   1      -1.696  -1.147   2.283  0.00  0.00    -0.092 F 
ENDROOT
TORSDOF 0
ENDMDL
