MODEL 1
REMARK minimizedAffinity 13.7205172
REMARK minimizedRMSD -1
REMARK  0 active torsions:
REMARK  status: ('A' for Active; 'I' for Inactive)
ROOT
ATOM      1  C   UNL d   1      -1.706  -1.070   0.820  0.00  0.00     0.124 A 
ATOM      2  C1  UNL d   1      -1.641   0.246   1.258  0.00  0.00     0.062 A 
ATOM      3  C2  UNL d   1      -2.799   0.909   1.655  0.00  0.00     0.162 A 
ATOM      4  C3  UNL d   1      -4.031   0.258   1.617  0.00  0.00    -0.034 A 
ATOM      5  C4  UNL d   1      -4.089  -1.065   1.175  0.00  0.00     0.162 A 
ATOM      6  C5  UNL d   1      -2.930  -1.724   0.779  0.00  0.00     0.062 A 
ATOM      7  F   UNL d   1      -2.995  -2.995   0.356  0.00  0.00    -0.097 F 
ATOM      8  F1  UNL d   1      -5.258  -1.721   1.126  0.00  0.00    -0.096 F 
ATOM      9  I   UNL d   1      -5.764   1.247   2.210  0.00  0.00    -0.060 I 
ATOM     10  F2  UNL d   1      -2.706   2.180   2.073  0.00  0.00    -0.096 F 
ATOM     11  F3  UNL d   1      -0.461   0.880   1.297  0.00  0.00    -0.097 F 
ATOM     12  F4  UNL d   1      -0.592  -1.706   0.437  0.00  0.00    -0.092 F 
ENDROOT
TORSDOF 0
ENDMDL
