MODEL 1
REMARK minimizedAffinity 17.8936119
REMARK minimizedRMSD -1
REMARK  0 active torsions:
REMARK  status: ('A' for Active; 'I' for Inactive)
ROOT
ATOM      1  C   UNL d   1      -0.288   1.165   1.271  0.00  0.00     0.124 A 
ATOM      2  C1  UNL d   1      -1.665   1.317   1.343  0.00  0.00     0.062 A 
ATOM      3  C2  UNL d   1      -2.225   2.194   2.269  0.00  0.00     0.162 A 
ATOM      4  C3  UNL d   1      -1.407   2.926   3.129  0.00  0.00    -0.034 A 
ATOM      5  C4  UNL d   1      -0.022   2.766   3.051  0.00  0.00     0.162 A 
ATOM      6  C5  UNL d   1       0.532   1.889   2.125  0.00  0.00     0.062 A 
ATOM      7  F   UNL d   1       1.864   1.743   2.056  0.00  0.00    -0.097 F 
ATOM      8  F1  UNL d   1       0.794   3.454   3.863  0.00  0.00    -0.096 F 
ATOM      9  I   UNL d   1      -2.240   4.237   4.514  0.00  0.00    -0.060 I 
ATOM     10  F2  UNL d   1      -3.559   2.321   2.316  0.00  0.00    -0.096 F 
ATOM     11  F3  UNL d   1      -2.460   0.618   0.520  0.00  0.00    -0.097 F 
ATOM     12  F4  UNL d   1       0.248   0.320   0.381  0.00  0.00    -0.092 F 
ENDROOT
TORSDOF 0
ENDMDL
