MODEL 1
REMARK minimizedAffinity 19.2560844
REMARK minimizedRMSD -1
REMARK  0 active torsions:
REMARK  status: ('A' for Active; 'I' for Inactive)
ROOT
ATOM      1  C   UNL d   1       2.780   0.230  -2.049  0.00  0.00     0.124 A 
ATOM      2  C1  UNL d   1       3.098  -1.103  -1.827  0.00  0.00     0.062 A 
ATOM      3  C2  UNL d   1       3.824  -1.817  -2.776  0.00  0.00     0.162 A 
ATOM      4  C3  UNL d   1       4.239  -1.199  -3.955  0.00  0.00    -0.034 A 
ATOM      5  C4  UNL d   1       3.915   0.141  -4.172  0.00  0.00     0.162 A 
ATOM      6  C5  UNL d   1       3.189   0.851  -3.221  0.00  0.00     0.062 A 
ATOM      7  F   UNL d   1       2.883   2.138  -3.438  0.00  0.00    -0.097 F 
ATOM      8  F1  UNL d   1       4.299   0.766  -5.296  0.00  0.00    -0.096 F 
ATOM      9  I   UNL d   1       5.325  -2.264  -5.376  0.00  0.00    -0.060 I 
ATOM     10  F2  UNL d   1       4.117  -3.103  -2.534  0.00  0.00    -0.096 F 
ATOM     11  F3  UNL d   1       2.703  -1.705  -0.696  0.00  0.00    -0.097 F 
ATOM     12  F4  UNL d   1       2.081   0.915  -1.135  0.00  0.00    -0.092 F 
ENDROOT
TORSDOF 0
ENDMDL
