MODEL 1
REMARK minimizedAffinity -5.25416279
REMARK minimizedRMSD -1
REMARK  1 active torsions:
REMARK  status: ('A' for Active; 'I' for Inactive)
REMARK    1  A    between atoms: C1_2  and  C2_3 
ROOT
ATOM      1  C2  UNL d   1       0.446   0.135   0.761  0.00  0.00    -0.077 A 
ATOM      2  C3  UNL d   1      -0.753  -0.581   0.648  0.00  0.00     0.002 A 
ATOM      3  C4  UNL d   1      -1.657  -0.617   1.712  0.00  0.00     0.002 A 
ATOM      4  C5  UNL d   1      -1.372   0.064   2.893  0.00  0.00    -0.004 A 
ATOM      5  C6  UNL d   1      -0.181   0.778   3.016  0.00  0.00     0.002 A 
ATOM      6  C7  UNL d   1       0.724   0.814   1.954  0.00  0.00     0.002 A 
ENDROOT
BRANCH   1   7
ATOM      7  C1  UNL d   1       1.400   0.216  -0.403  0.00  0.00     0.055 C 
ATOM      8  C   UNL d   1       0.653   0.241  -1.729  0.00  0.00     0.019 C 
ENDBRANCH   1   7
TORSDOF 1
ENDMDL
