MODEL 1
REMARK minimizedAffinity -6.20567274
REMARK minimizedRMSD -1
REMARK  1 active torsions:
REMARK  status: ('A' for Active; 'I' for Inactive)
REMARK    1  A    between atoms: C1_2  and  C2_3 
ROOT
ATOM      1  C2  UNL d   1      -0.285  -0.011   1.091  0.00  0.00    -0.077 A 
ATOM      2  C3  UNL d   1      -1.659   0.020   0.810  0.00  0.00     0.002 A 
ATOM      3  C4  UNL d   1      -2.593  -0.086   1.842  0.00  0.00     0.002 A 
ATOM      4  C5  UNL d   1      -2.165  -0.220   3.161  0.00  0.00    -0.004 A 
ATOM      5  C6  UNL d   1      -0.801  -0.254   3.450  0.00  0.00     0.002 A 
ATOM      6  C7  UNL d   1       0.134  -0.149   2.420  0.00  0.00     0.002 A 
ENDROOT
BRANCH   1   7
ATOM      7  C1  UNL d   1       0.724   0.154  -0.015  0.00  0.00     0.055 C 
ATOM      8  C   UNL d   1       0.054   0.560  -1.320  0.00  0.00     0.019 C 
ENDBRANCH   1   7
TORSDOF 1
ENDMDL
