MODEL 1
REMARK minimizedAffinity -5.22561407
REMARK minimizedRMSD -1
REMARK  1 active torsions:
REMARK  status: ('A' for Active; 'I' for Inactive)
REMARK    1  A    between atoms: C1_2  and  C2_3 
ROOT
ATOM      1  C2  UNL d   1      -0.257  -0.336   0.565  0.00  0.00    -0.077 A 
ATOM      2  C3  UNL d   1      -1.612  -0.613   0.798  0.00  0.00     0.002 A 
ATOM      3  C4  UNL d   1      -2.127  -0.574   2.095  0.00  0.00     0.002 A 
ATOM      4  C5  UNL d   1      -1.297  -0.254   3.167  0.00  0.00    -0.004 A 
ATOM      5  C6  UNL d   1       0.051   0.021   2.946  0.00  0.00     0.002 A 
ATOM      6  C7  UNL d   1       0.569  -0.019   1.651  0.00  0.00     0.002 A 
ENDROOT
BRANCH   1   7
ATOM      7  C1  UNL d   1       0.290  -0.329  -0.838  0.00  0.00     0.055 C 
ATOM      8  C   UNL d   1      -0.624   0.434  -1.786  0.00  0.00     0.019 C 
ENDBRANCH   1   7
TORSDOF 1
ENDMDL
