MODEL 1
REMARK minimizedAffinity -5.42111111
REMARK minimizedRMSD -1
REMARK  1 active torsions:
REMARK  status: ('A' for Active; 'I' for Inactive)
REMARK    1  A    between atoms: C1_2  and  C2_3 
ROOT
ATOM      1  C2  UNL d   1      -0.042   0.239   0.114  0.00  0.00    -0.077 A 
ATOM      2  C3  UNL d   1       1.118   0.202   0.900  0.00  0.00     0.002 A 
ATOM      3  C4  UNL d   1       1.047  -0.167   2.245  0.00  0.00     0.002 A 
ATOM      4  C5  UNL d   1      -0.179  -0.505   2.814  0.00  0.00    -0.004 A 
ATOM      5  C6  UNL d   1      -1.339  -0.469   2.040  0.00  0.00     0.002 A 
ATOM      6  C7  UNL d   1      -1.271  -0.099   0.696  0.00  0.00     0.002 A 
ENDROOT
BRANCH   1   7
ATOM      7  C1  UNL d   1       0.038   0.589  -1.349  0.00  0.00     0.055 C 
ATOM      8  C   UNL d   1       0.746  -0.502  -2.141  0.00  0.00     0.019 C 
ENDBRANCH   1   7
TORSDOF 1
ENDMDL
