MODEL 1
REMARK minimizedAffinity -4.1286335
REMARK minimizedRMSD -1
REMARK  1 active torsions:
REMARK  status: ('A' for Active; 'I' for Inactive)
REMARK    1  A    between atoms: C1_2  and  C2_3 
ROOT
ATOM      1  C2  UNL d   1      -0.372   0.075   0.907  0.00  0.00    -0.077 A 
ATOM      2  C3  UNL d   1      -1.749   0.137   0.650  0.00  0.00     0.002 A 
ATOM      3  C4  UNL d   1      -2.669   0.013   1.693  0.00  0.00     0.002 A 
ATOM      4  C5  UNL d   1      -2.222  -0.170   3.000  0.00  0.00    -0.004 A 
ATOM      5  C6  UNL d   1      -0.855  -0.235   3.266  0.00  0.00     0.002 A 
ATOM      6  C7  UNL d   1       0.066  -0.113   2.224  0.00  0.00     0.002 A 
ENDROOT
BRANCH   1   7
ATOM      7  C1  UNL d   1       0.622   0.257  -0.210  0.00  0.00     0.055 C 
ATOM      8  C   UNL d   1      -0.060   0.218  -1.570  0.00  0.00     0.019 C 
ENDBRANCH   1   7
TORSDOF 1
ENDMDL
