MODEL 1
REMARK minimizedAffinity -5.70693254
REMARK minimizedRMSD -1
REMARK  1 active torsions:
REMARK  status: ('A' for Active; 'I' for Inactive)
REMARK    1  A    between atoms: C1_2  and  C2_3 
ROOT
ATOM      1  C2  UNL d   1      -0.066  -0.138   0.759  0.00  0.00    -0.077 A 
ATOM      2  C3  UNL d   1      -1.319   0.122   0.186  0.00  0.00     0.002 A 
ATOM      3  C4  UNL d   1      -2.465   0.162   0.982  0.00  0.00     0.002 A 
ATOM      4  C5  UNL d   1      -2.370  -0.052   2.355  0.00  0.00    -0.004 A 
ATOM      5  C6  UNL d   1      -1.129  -0.313   2.935  0.00  0.00     0.002 A 
ATOM      6  C7  UNL d   1       0.018  -0.355   2.141  0.00  0.00     0.002 A 
ENDROOT
BRANCH   1   7
ATOM      7  C1  UNL d   1       1.178  -0.134  -0.090  0.00  0.00     0.055 C 
ATOM      8  C   UNL d   1       0.850  -0.388  -1.554  0.00  0.00     0.019 C 
ENDBRANCH   1   7
TORSDOF 1
ENDMDL
