MODEL 1
REMARK minimizedAffinity -6.20378494
REMARK minimizedRMSD -1
REMARK  1 active torsions:
REMARK  status: ('A' for Active; 'I' for Inactive)
REMARK    1  A    between atoms: C1_2  and  C2_3 
ROOT
ATOM      1  C2  UNL d   1      -0.606   0.187   0.381  0.00  0.00    -0.077 A 
ATOM      2  C3  UNL d   1       0.494  -0.098   1.202  0.00  0.00     0.002 A 
ATOM      3  C4  UNL d   1       0.307  -0.414   2.549  0.00  0.00     0.002 A 
ATOM      4  C5  UNL d   1      -0.978  -0.453   3.085  0.00  0.00    -0.004 A 
ATOM      5  C6  UNL d   1      -2.079  -0.169   2.277  0.00  0.00     0.002 A 
ATOM      6  C7  UNL d   1      -1.894   0.149   0.931  0.00  0.00     0.002 A 
ENDROOT
BRANCH   1   7
ATOM      7  C1  UNL d   1      -0.410   0.481  -1.084  0.00  0.00     0.055 C 
ATOM      8  C   UNL d   1       0.631  -0.443  -1.699  0.00  0.00     0.019 C 
ENDBRANCH   1   7
TORSDOF 1
ENDMDL
