MODEL 1
REMARK minimizedAffinity -1.99387681
REMARK minimizedRMSD -1
REMARK  1 active torsions:
REMARK  status: ('A' for Active; 'I' for Inactive)
REMARK    1  A    between atoms: C1_2  and  C2_3 
ROOT
ATOM      1  C2  UNL d   1       0.445  -0.545  -1.230  0.00  0.00    -0.077 A 
ATOM      2  C3  UNL d   1       0.310  -1.933  -1.378  0.00  0.00     0.002 A 
ATOM      3  C4  UNL d   1       0.667  -2.554  -2.576  0.00  0.00     0.002 A 
ATOM      4  C5  UNL d   1       1.166  -1.796  -3.633  0.00  0.00    -0.004 A 
ATOM      5  C6  UNL d   1       1.303  -0.415  -3.497  0.00  0.00     0.002 A 
ATOM      6  C7  UNL d   1       0.945   0.207  -2.300  0.00  0.00     0.002 A 
ENDROOT
BRANCH   1   7
ATOM      7  C1  UNL d   1       0.106   0.120   0.078  0.00  0.00     0.055 C 
ATOM      8  C   UNL d   1       1.231  -0.043   1.090  0.00  0.00     0.019 C 
ENDBRANCH   1   7
TORSDOF 1
ENDMDL
