MODEL 1
REMARK minimizedAffinity -6.2471323
REMARK minimizedRMSD -1
REMARK  1 active torsions:
REMARK  status: ('A' for Active; 'I' for Inactive)
REMARK    1  A    between atoms: C1_2  and  C2_3 
ROOT
ATOM      1  C2  UNL d   1      -0.670  -0.415   0.493  0.00  0.00    -0.077 A 
ATOM      2  C3  UNL d   1      -2.027  -0.071   0.431  0.00  0.00     0.002 A 
ATOM      3  C4  UNL d   1      -2.759   0.130   1.603  0.00  0.00     0.002 A 
ATOM      4  C5  UNL d   1      -2.142  -0.007   2.844  0.00  0.00    -0.004 A 
ATOM      5  C6  UNL d   1      -0.793  -0.352   2.917  0.00  0.00     0.002 A 
ATOM      6  C7  UNL d   1      -0.060  -0.554   1.746  0.00  0.00     0.002 A 
ENDROOT
BRANCH   1   7
ATOM      7  C1  UNL d   1       0.133  -0.584  -0.770  0.00  0.00     0.055 C 
ATOM      8  C   UNL d   1       0.002   0.631  -1.676  0.00  0.00     0.019 C 
ENDBRANCH   1   7
TORSDOF 1
ENDMDL
