MODEL 1
REMARK minimizedAffinity -4.0264616
REMARK minimizedRMSD -1
REMARK  1 active torsions:
REMARK  status: ('A' for Active; 'I' for Inactive)
REMARK    1  A    between atoms: C1_2  and  C2_3 
ROOT
ATOM      1  C2  UNL d   1      -1.329  -0.039   0.710  0.00  0.00    -0.077 A 
ATOM      2  C3  UNL d   1      -0.255  -0.921   0.529  0.00  0.00     0.002 A 
ATOM      3  C4  UNL d   1       0.529  -0.852  -0.625  0.00  0.00     0.002 A 
ATOM      4  C5  UNL d   1       0.250   0.100  -1.603  0.00  0.00    -0.004 A 
ATOM      5  C6  UNL d   1      -0.818   0.981  -1.433  0.00  0.00     0.002 A 
ATOM      6  C7  UNL d   1      -1.603   0.912  -0.281  0.00  0.00     0.002 A 
ENDROOT
BRANCH   1   7
ATOM      7  C1  UNL d   1      -2.145  -0.079   1.975  0.00  0.00     0.055 C 
ATOM      8  C   UNL d   1      -1.255  -0.056   3.209  0.00  0.00     0.019 C 
ENDBRANCH   1   7
TORSDOF 1
ENDMDL
