MODEL 1
REMARK minimizedAffinity 15.2181482
REMARK minimizedRMSD -1
REMARK  0 active torsions:
REMARK  status: ('A' for Active; 'I' for Inactive)
ROOT
ATOM      1  C1  DEN d   1       2.413   1.921   1.598  0.00  0.00     0.130 A 
ATOM      2  C2  DEN d   1       1.443   2.745   2.313  0.00  0.00    -0.031 A 
ATOM      3  C3  DEN d   1       0.431   1.848   2.906  0.00  0.00     0.027 A 
ATOM      4  C4  DEN d   1       0.277  -0.724   2.792  0.00  0.00     0.027 A 
ATOM      5  C5  DEN d   1       0.867  -1.863   2.289  0.00  0.00    -0.003 A 
ATOM      6  C6  DEN d   1       1.985  -1.818   1.499  0.00  0.00     0.001 A 
ATOM      7  C7  DEN d   1       2.575  -0.612   1.226  0.00  0.00     0.017 A 
ATOM      8  C8  DEN d   1       1.982   0.541   1.723  0.00  0.00    -0.094 A 
ATOM      9  C9  DEN d   1       0.858   0.474   2.530  0.00  0.00    -0.072 A 
ENDROOT
TORSDOF 0
ENDMDL
