MODEL 1
REMARK minimizedAffinity 9.03927326
REMARK minimizedRMSD -1
REMARK  0 active torsions:
REMARK  status: ('A' for Active; 'I' for Inactive)
ROOT
ATOM      1  C1  DEN d   1      -4.530  -5.148  -4.029  0.00  0.00     0.130 A 
ATOM      2  C2  DEN d   1      -5.193  -5.977  -5.032  0.00  0.00    -0.031 A 
ATOM      3  C3  DEN d   1      -5.882  -5.081  -5.982  0.00  0.00     0.027 A 
ATOM      4  C4  DEN d   1      -5.984  -2.504  -5.999  0.00  0.00     0.027 A 
ATOM      5  C5  DEN d   1      -5.586  -1.360  -5.343  0.00  0.00    -0.003 A 
ATOM      6  C6  DEN d   1      -4.843  -1.399  -4.192  0.00  0.00     0.001 A 
ATOM      7  C7  DEN d   1      -4.436  -2.607  -3.688  0.00  0.00     0.017 A 
ATOM      8  C8  DEN d   1      -4.840  -3.764  -4.341  0.00  0.00    -0.094 A 
ATOM      9  C9  DEN d   1      -5.580  -3.703  -5.509  0.00  0.00    -0.072 A 
ENDROOT
TORSDOF 0
ENDMDL
