MODEL 1
REMARK minimizedAffinity 10.984705
REMARK minimizedRMSD -1
REMARK  0 active torsions:
REMARK  status: ('A' for Active; 'I' for Inactive)
ROOT
ATOM      1  C1  DEN d   1      -3.141   3.200  -0.121  0.00  0.00     0.130 A 
ATOM      2  C2  DEN d   1      -2.280   2.418   0.762  0.00  0.00    -0.031 A 
ATOM      3  C3  DEN d   1      -2.047   1.106   0.127  0.00  0.00     0.027 A 
ATOM      4  C4  DEN d   1      -2.927   0.215  -2.129  0.00  0.00     0.027 A 
ATOM      5  C5  DEN d   1      -3.704   0.512  -3.227  0.00  0.00    -0.003 A 
ATOM      6  C6  DEN d   1      -4.370   1.703  -3.349  0.00  0.00     0.001 A 
ATOM      7  C7  DEN d   1      -4.235   2.659  -2.378  0.00  0.00     0.017 A 
ATOM      8  C8  DEN d   1      -3.459   2.365  -1.265  0.00  0.00    -0.094 A 
ATOM      9  C9  DEN d   1      -2.784   1.160  -1.165  0.00  0.00    -0.072 A 
ENDROOT
TORSDOF 0
ENDMDL
