MODEL 1
REMARK minimizedAffinity 18.5233345
REMARK minimizedRMSD -1
REMARK  0 active torsions:
REMARK  status: ('A' for Active; 'I' for Inactive)
ROOT
ATOM      1  C1  DEN d   1      -4.964   1.206  -5.654  0.00  0.00     0.130 A 
ATOM      2  C2  DEN d   1      -5.377   2.602  -5.774  0.00  0.00    -0.031 A 
ATOM      3  C3  DEN d   1      -5.684   3.105  -4.420  0.00  0.00     0.027 A 
ATOM      4  C4  DEN d   1      -5.557   1.866  -2.161  0.00  0.00     0.027 A 
ATOM      5  C5  DEN d   1      -5.270   0.662  -1.556  0.00  0.00    -0.003 A 
ATOM      6  C6  DEN d   1      -4.896  -0.444  -2.271  0.00  0.00     0.001 A 
ATOM      7  C7  DEN d   1      -4.756  -0.358  -3.631  0.00  0.00     0.017 A 
ATOM      8  C8  DEN d   1      -5.052   0.850  -4.250  0.00  0.00    -0.094 A 
ATOM      9  C9  DEN d   1      -5.416   1.961  -3.508  0.00  0.00    -0.072 A 
ENDROOT
TORSDOF 0
ENDMDL
