MODEL 1
REMARK minimizedAffinity 14.6994028
REMARK minimizedRMSD -1
REMARK  0 active torsions:
REMARK  status: ('A' for Active; 'I' for Inactive)
ROOT
ATOM      1  C1  DEN d   1       1.065  -2.615   3.520  0.00  0.00     0.130 A 
ATOM      2  C2  DEN d   1       0.915  -1.472   4.416  0.00  0.00    -0.031 A 
ATOM      3  C3  DEN d   1       1.209  -0.247   3.647  0.00  0.00     0.027 A 
ATOM      4  C4  DEN d   1       1.874  -0.009   1.166  0.00  0.00     0.027 A 
ATOM      5  C5  DEN d   1       2.139  -0.699   0.004  0.00  0.00    -0.003 A 
ATOM      6  C6  DEN d   1       2.098  -2.067  -0.059  0.00  0.00     0.001 A 
ATOM      7  C7  DEN d   1       1.741  -2.787   1.050  0.00  0.00     0.017 A 
ATOM      8  C8  DEN d   1       1.480  -2.098   2.228  0.00  0.00    -0.094 A 
ATOM      9  C9  DEN d   1       1.514  -0.715   2.268  0.00  0.00    -0.072 A 
ENDROOT
TORSDOF 0
ENDMDL
