MODEL 1
REMARK minimizedAffinity 10.2266026
REMARK minimizedRMSD -1
REMARK  0 active torsions:
REMARK  status: ('A' for Active; 'I' for Inactive)
ROOT
ATOM      1  C1  DEN d   1      -4.807   3.499   2.191  0.00  0.00     0.130 A 
ATOM      2  C2  DEN d   1      -5.778   4.021   1.234  0.00  0.00    -0.031 A 
ATOM      3  C3  DEN d   1      -5.133   4.063  -0.094  0.00  0.00     0.027 A 
ATOM      4  C4  DEN d   1      -2.740   3.369  -0.758  0.00  0.00     0.027 A 
ATOM      5  C5  DEN d   1      -1.542   2.877  -0.287  0.00  0.00    -0.003 A 
ATOM      6  C6  DEN d   1      -1.340   2.592   1.037  0.00  0.00     0.001 A 
ATOM      7  C7  DEN d   1      -2.365   2.755   1.931  0.00  0.00     0.017 A 
ATOM      8  C8  DEN d   1      -3.573   3.257   1.465  0.00  0.00    -0.094 A 
ATOM      9  C9  DEN d   1      -3.762   3.527   0.120  0.00  0.00    -0.072 A 
ENDROOT
TORSDOF 0
ENDMDL
