MODEL 1
REMARK minimizedAffinity -4.95078897
REMARK minimizedRMSD -1
REMARK  0 active torsions:
REMARK  status: ('A' for Active; 'I' for Inactive)
ROOT
ATOM      1  C1  DEN d   1       1.853  -1.013  -0.630  0.00  0.00     0.130 A 
ATOM      2  C2  DEN d   1       1.136  -0.923  -1.899  0.00  0.00    -0.031 A 
ATOM      3  C3  DEN d   1      -0.161  -0.265  -1.644  0.00  0.00     0.027 A 
ATOM      4  C4  DEN d   1      -1.121   0.623   0.580  0.00  0.00     0.027 A 
ATOM      5  C5  DEN d   1      -0.883   0.761   1.929  0.00  0.00    -0.003 A 
ATOM      6  C6  DEN d   1       0.259   0.290   2.521  0.00  0.00     0.001 A 
ATOM      7  C7  DEN d   1       1.228  -0.300   1.754  0.00  0.00     0.017 A 
ATOM      8  C8  DEN d   1       0.992  -0.450   0.393  0.00  0.00    -0.094 A 
ATOM      9  C9  DEN d   1      -0.164   0.043  -0.188  0.00  0.00    -0.072 A 
ENDROOT
TORSDOF 0
ENDMDL
