MODEL 1
REMARK minimizedAffinity -4.35977411
REMARK minimizedRMSD -1
REMARK  0 active torsions:
REMARK  status: ('A' for Active; 'I' for Inactive)
ROOT
ATOM      1  C1  DEN d   1      -0.866   0.104   1.547  0.00  0.00     0.130 A 
ATOM      2  C2  DEN d   1       0.109  -0.349   2.535  0.00  0.00    -0.031 A 
ATOM      3  C3  DEN d   1       1.278  -0.885   1.810  0.00  0.00     0.027 A 
ATOM      4  C4  DEN d   1       1.674  -1.053  -0.733  0.00  0.00     0.027 A 
ATOM      5  C5  DEN d   1       1.125  -0.808  -1.973  0.00  0.00    -0.003 A 
ATOM      6  C6  DEN d   1      -0.128  -0.279  -2.125  0.00  0.00     0.001 A 
ATOM      7  C7  DEN d   1      -0.859   0.066  -1.019  0.00  0.00     0.017 A 
ATOM      8  C8  DEN d   1      -0.316  -0.184   0.235  0.00  0.00    -0.094 A 
ATOM      9  C9  DEN d   1       0.959  -0.709   0.368  0.00  0.00    -0.072 A 
ENDROOT
TORSDOF 0
ENDMDL
