MODEL 1
REMARK minimizedAffinity -2.93457937
REMARK minimizedRMSD -1
REMARK  0 active torsions:
REMARK  status: ('A' for Active; 'I' for Inactive)
ROOT
ATOM      1  C1  DEN d   1       2.051  -0.476   1.852  0.00  0.00     0.130 A 
ATOM      2  C2  DEN d   1       1.283  -0.328   3.085  0.00  0.00    -0.031 A 
ATOM      3  C3  DEN d   1      -0.145  -0.225   2.723  0.00  0.00     0.027 A 
ATOM      4  C4  DEN d   1      -1.236  -0.285   0.386  0.00  0.00     0.027 A 
ATOM      5  C5  DEN d   1      -0.989  -0.383  -0.965  0.00  0.00    -0.003 A 
ATOM      6  C6  DEN d   1       0.280  -0.484  -1.471  0.00  0.00     0.001 A 
ATOM      7  C7  DEN d   1       1.349  -0.535  -0.615  0.00  0.00     0.017 A 
ATOM      8  C8  DEN d   1       1.109  -0.429   0.748  0.00  0.00    -0.094 A 
ATOM      9  C9  DEN d   1      -0.182  -0.339   1.240  0.00  0.00    -0.072 A 
ENDROOT
TORSDOF 0
ENDMDL
