MODEL 1
REMARK minimizedAffinity -2.43662667
REMARK minimizedRMSD -1
REMARK  0 active torsions:
REMARK  status: ('A' for Active; 'I' for Inactive)
ROOT
ATOM      1  C1  DEN d   1       1.591  -0.805   1.219  0.00  0.00     0.130 A 
ATOM      2  C2  DEN d   1       0.869   0.129   2.079  0.00  0.00    -0.031 A 
ATOM      3  C3  DEN d   1      -0.153   0.809   1.259  0.00  0.00     0.027 A 
ATOM      4  C4  DEN d   1      -0.690   0.504  -1.245  0.00  0.00     0.027 A 
ATOM      5  C5  DEN d   1      -0.337  -0.167  -2.395  0.00  0.00    -0.003 A 
ATOM      6  C6  DEN d   1       0.696  -1.065  -2.429  0.00  0.00     0.001 A 
ATOM      7  C7  DEN d   1       1.385  -1.351  -1.279  0.00  0.00     0.017 A 
ATOM      8  C8  DEN d   1       1.040  -0.672  -0.118  0.00  0.00    -0.094 A 
ATOM      9  C9  DEN d   1      -0.016   0.223  -0.102  0.00  0.00    -0.072 A 
ENDROOT
TORSDOF 0
ENDMDL
