MODEL 1
REMARK minimizedAffinity 1.93678403
REMARK minimizedRMSD -1
REMARK  0 active torsions:
REMARK  status: ('A' for Active; 'I' for Inactive)
ROOT
ATOM      1  C1  DEN d   1       1.824  -0.525   1.679  0.00  0.00     0.130 A 
ATOM      2  C2  DEN d   1       1.227  -1.344   2.731  0.00  0.00    -0.031 A 
ATOM      3  C3  DEN d   1      -0.199  -1.539   2.404  0.00  0.00     0.027 A 
ATOM      4  C4  DEN d   1      -1.534  -0.662   0.378  0.00  0.00     0.027 A 
ATOM      5  C5  DEN d   1      -1.460   0.087  -0.776  0.00  0.00    -0.003 A 
ATOM      6  C6  DEN d   1      -0.305   0.707  -1.171  0.00  0.00     0.001 A 
ATOM      7  C7  DEN d   1       0.837   0.552  -0.430  0.00  0.00     0.017 A 
ATOM      8  C8  DEN d   1       0.768  -0.195   0.739  0.00  0.00    -0.094 A 
ATOM      9  C9  DEN d   1      -0.406  -0.824   1.115  0.00  0.00    -0.072 A 
ENDROOT
TORSDOF 0
ENDMDL
