MODEL 1
REMARK minimizedAffinity -3.90608501
REMARK minimizedRMSD -1
REMARK  0 active torsions:
REMARK  status: ('A' for Active; 'I' for Inactive)
ROOT
ATOM      1  C1  DEN d   1      -1.233   1.071  -1.037  0.00  0.00     0.130 A 
ATOM      2  C2  DEN d   1      -0.500   0.691  -2.242  0.00  0.00    -0.031 A 
ATOM      3  C3  DEN d   1       0.536  -0.288  -1.858  0.00  0.00     0.027 A 
ATOM      4  C4  DEN d   1       1.071  -1.252   0.474  0.00  0.00     0.027 A 
ATOM      5  C5  DEN d   1       0.727  -1.221   1.807  0.00  0.00    -0.003 A 
ATOM      6  C6  DEN d   1      -0.263  -0.406   2.287  0.00  0.00     0.001 A 
ATOM      7  C7  DEN d   1      -0.976   0.379   1.420  0.00  0.00     0.017 A 
ATOM      8  C8  DEN d   1      -0.630   0.359   0.075  0.00  0.00    -0.094 A 
ATOM      9  C9  DEN d   1       0.367  -0.480  -0.392  0.00  0.00    -0.072 A 
ENDROOT
TORSDOF 0
ENDMDL
