MODEL 1
REMARK minimizedAffinity -2.57845688
REMARK minimizedRMSD -1
REMARK  0 active torsions:
REMARK  status: ('A' for Active; 'I' for Inactive)
ROOT
ATOM      1  N1  IND d   1      -3.541   4.133  -2.041  0.00  0.00    -0.196 N 
ATOM      2  C2  IND d   1      -3.458   4.575  -3.332  0.00  0.00     0.054 A 
ATOM      3  C3  IND d   1      -3.018   3.585  -4.140  0.00  0.00    -0.031 A 
ATOM      4  C4  IND d   1      -2.473   1.133  -3.575  0.00  0.00     0.051 A 
ATOM      5  C5  IND d   1      -2.364   0.269  -2.522  0.00  0.00    -0.031 A 
ATOM      6  C6  IND d   1      -2.650   0.656  -1.229  0.00  0.00     0.015 A 
ATOM      7  C7  IND d   1      -3.069   1.924  -0.941  0.00  0.00    -0.016 A 
ATOM      8  C8  IND d   1      -3.174   2.806  -2.007  0.00  0.00    -0.047 A 
ATOM      9  C9  IND d   1      -2.844   2.431  -3.316  0.00  0.00    -0.096 A 
ATOM     10  HN1 IND d   1      -3.783   4.605  -1.363  0.00  0.00     0.298 HD
ENDROOT
TORSDOF 0
ENDMDL
