MODEL 1
REMARK minimizedAffinity 8.81849861
REMARK minimizedRMSD -1
REMARK  0 active torsions:
REMARK  status: ('A' for Active; 'I' for Inactive)
ROOT
ATOM      1  N1  IND d   1      -3.697   4.888  -0.845  0.00  0.00    -0.196 N 
ATOM      2  C2  IND d   1      -4.319   3.718  -0.506  0.00  0.00     0.054 A 
ATOM      3  C3  IND d   1      -4.409   2.904  -1.582  0.00  0.00    -0.031 A 
ATOM      4  C4  IND d   1      -3.514   3.247  -3.971  0.00  0.00     0.051 A 
ATOM      5  C5  IND d   1      -2.908   4.174  -4.772  0.00  0.00    -0.031 A 
ATOM      6  C6  IND d   1      -2.524   5.410  -4.294  0.00  0.00     0.015 A 
ATOM      7  C7  IND d   1      -2.722   5.763  -2.989  0.00  0.00    -0.016 A 
ATOM      8  C8  IND d   1      -3.344   4.826  -2.175  0.00  0.00    -0.047 A 
ATOM      9  C9  IND d   1      -3.774   3.587  -2.665  0.00  0.00    -0.096 A 
ATOM     10  HN1 IND d   1      -3.552   5.550  -0.317  0.00  0.00     0.298 HD
ENDROOT
TORSDOF 0
ENDMDL
