MODEL 1
REMARK minimizedAffinity 3.88133311
REMARK minimizedRMSD -1
REMARK  0 active torsions:
REMARK  status: ('A' for Active; 'I' for Inactive)
ROOT
ATOM      1  N1  IND d   1      -2.122   4.442  -4.602  0.00  0.00    -0.196 N 
ATOM      2  C2  IND d   1      -1.980   5.762  -4.279  0.00  0.00     0.054 A 
ATOM      3  C3  IND d   1      -2.295   5.965  -2.980  0.00  0.00    -0.031 A 
ATOM      4  C4  IND d   1      -2.968   4.258  -1.175  0.00  0.00     0.051 A 
ATOM      5  C5  IND d   1      -3.267   2.936  -1.001  0.00  0.00    -0.031 A 
ATOM      6  C6  IND d   1      -3.195   2.029  -2.038  0.00  0.00     0.015 A 
ATOM      7  C7  IND d   1      -2.809   2.411  -3.292  0.00  0.00    -0.016 A 
ATOM      8  C8  IND d   1      -2.512   3.754  -3.474  0.00  0.00    -0.047 A 
ATOM      9  C9  IND d   1      -2.624   4.686  -2.435  0.00  0.00    -0.096 A 
ATOM     10  HN1 IND d   1      -1.989   4.098  -5.380  0.00  0.00     0.298 HD
ENDROOT
TORSDOF 0
ENDMDL
