MODEL 1
REMARK minimizedAffinity 3.44944859
REMARK minimizedRMSD -1
REMARK  0 active torsions:
REMARK  status: ('A' for Active; 'I' for Inactive)
ROOT
ATOM      1  N1  IND d   1       0.722  -2.171  -2.348  0.00  0.00    -0.196 N 
ATOM      2  C2  IND d   1      -0.502  -1.833  -2.853  0.00  0.00     0.054 A 
ATOM      3  C3  IND d   1      -1.363  -1.549  -1.850  0.00  0.00    -0.031 A 
ATOM      4  C4  IND d   1      -0.948  -1.476   0.690  0.00  0.00     0.051 A 
ATOM      5  C5  IND d   1       0.004  -1.743   1.634  0.00  0.00    -0.031 A 
ATOM      6  C6  IND d   1       1.270  -2.172   1.292  0.00  0.00     0.015 A 
ATOM      7  C7  IND d   1       1.636  -2.340  -0.013  0.00  0.00    -0.016 A 
ATOM      8  C8  IND d   1       0.671  -2.077  -0.974  0.00  0.00    -0.047 A 
ATOM      9  C9  IND d   1      -0.629  -1.682  -0.632  0.00  0.00    -0.096 A 
ATOM     10  HN1 IND d   1       1.409  -2.404  -2.810  0.00  0.00     0.298 HD
ENDROOT
TORSDOF 0
ENDMDL
