MODEL 1
REMARK minimizedAffinity -3.45071554
REMARK minimizedRMSD -1
REMARK  0 active torsions:
REMARK  status: ('A' for Active; 'I' for Inactive)
ROOT
ATOM      1  N1  IND d   1      -1.403   2.983  -4.639  0.00  0.00    -0.196 N 
ATOM      2  C2  IND d   1      -1.671   4.210  -5.178  0.00  0.00     0.054 A 
ATOM      3  C3  IND d   1      -2.461   4.926  -4.347  0.00  0.00    -0.031 A 
ATOM      4  C4  IND d   1      -3.348   4.320  -2.007  0.00  0.00     0.051 A 
ATOM      5  C5  IND d   1      -3.399   3.293  -1.107  0.00  0.00    -0.031 A 
ATOM      6  C6  IND d   1      -2.773   2.086  -1.342  0.00  0.00     0.015 A 
ATOM      7  C7  IND d   1      -2.059   1.865  -2.486  0.00  0.00    -0.016 A 
ATOM      8  C8  IND d   1      -2.011   2.904  -3.405  0.00  0.00    -0.047 A 
ATOM      9  C9  IND d   1      -2.680   4.115  -3.191  0.00  0.00    -0.096 A 
ATOM     10  HN1 IND d   1      -0.934   2.364  -5.008  0.00  0.00     0.298 HD
ENDROOT
TORSDOF 0
ENDMDL
