MODEL 1
REMARK minimizedAffinity -2.68732834
REMARK minimizedRMSD -1
REMARK  0 active torsions:
REMARK  status: ('A' for Active; 'I' for Inactive)
ROOT
ATOM      1  N1  IND d   1       0.105   3.750  -5.250  0.00  0.00    -0.196 N 
ATOM      2  C2  IND d   1       0.232   4.896  -5.984  0.00  0.00     0.054 A 
ATOM      3  C3  IND d   1      -0.750   5.769  -5.665  0.00  0.00    -0.031 A 
ATOM      4  C4  IND d   1      -2.608   5.566  -3.895  0.00  0.00     0.051 A 
ATOM      5  C5  IND d   1      -3.152   4.688  -3.000  0.00  0.00    -0.031 A 
ATOM      6  C6  IND d   1      -2.625   3.428  -2.803  0.00  0.00     0.015 A 
ATOM      7  C7  IND d   1      -1.523   3.001  -3.489  0.00  0.00    -0.016 A 
ATOM      8  C8  IND d   1      -0.973   3.888  -4.404  0.00  0.00    -0.047 A 
ATOM      9  C9  IND d   1      -1.529   5.152  -4.639  0.00  0.00    -0.096 A 
ATOM     10  HN1 IND d   1       0.614   3.059  -5.307  0.00  0.00     0.298 HD
ENDROOT
TORSDOF 0
ENDMDL
