MODEL 1
REMARK minimizedAffinity 21.3355217
REMARK minimizedRMSD -1
REMARK  0 active torsions:
REMARK  status: ('A' for Active; 'I' for Inactive)
ROOT
ATOM      1  C   UNL d   1       4.041   3.255   1.120  0.00  0.00     0.124 A 
ATOM      2  C1  UNL d   1       3.021   2.441   0.648  0.00  0.00     0.062 A 
ATOM      3  C2  UNL d   1       2.971   1.099   1.013  0.00  0.00     0.162 A 
ATOM      4  C3  UNL d   1       3.944   0.562   1.856  0.00  0.00    -0.034 A 
ATOM      5  C4  UNL d   1       4.967   1.387   2.326  0.00  0.00     0.162 A 
ATOM      6  C5  UNL d   1       5.013   2.727   1.958  0.00  0.00     0.062 A 
ATOM      7  F   UNL d   1       6.000   3.513   2.415  0.00  0.00    -0.097 F 
ATOM      8  F1  UNL d   1       5.919   0.903   3.138  0.00  0.00    -0.096 F 
ATOM      9  I   UNL d   1       3.872  -1.444   2.405  0.00  0.00    -0.060 I 
ATOM     10  F2  UNL d   1       1.973   0.335   0.542  0.00  0.00    -0.096 F 
ATOM     11  F3  UNL d   1       2.081   2.948  -0.163  0.00  0.00    -0.097 F 
ATOM     12  F4  UNL d   1       4.088   4.546   0.766  0.00  0.00    -0.092 F 
ENDROOT
TORSDOF 0
ENDMDL
