MODEL 1
REMARK minimizedAffinity 31.1782646
REMARK minimizedRMSD -1
REMARK  0 active torsions:
REMARK  status: ('A' for Active; 'I' for Inactive)
ROOT
ATOM      1  C   UNL d   1       3.007   2.219  -1.917  0.00  0.00     0.124 A 
ATOM      2  C1  UNL d   1       2.839   3.467  -2.500  0.00  0.00     0.062 A 
ATOM      3  C2  UNL d   1       3.606   4.548  -2.074  0.00  0.00     0.162 A 
ATOM      4  C3  UNL d   1       4.549   4.385  -1.059  0.00  0.00    -0.034 A 
ATOM      5  C4  UNL d   1       4.711   3.127  -0.477  0.00  0.00     0.162 A 
ATOM      6  C5  UNL d   1       3.943   2.050  -0.906  0.00  0.00     0.062 A 
ATOM      7  F   UNL d   1       4.106   0.845  -0.342  0.00  0.00    -0.097 F 
ATOM      8  F1  UNL d   1       5.609   2.935   0.501  0.00  0.00    -0.096 F 
ATOM      9  I   UNL d   1       5.697   5.999  -0.419  0.00  0.00    -0.060 I 
ATOM     10  F2  UNL d   1       3.422   5.743  -2.655  0.00  0.00    -0.096 F 
ATOM     11  F3  UNL d   1       1.935   3.634  -3.476  0.00  0.00    -0.097 F 
ATOM     12  F4  UNL d   1       2.267   1.181  -2.329  0.00  0.00    -0.092 F 
ENDROOT
TORSDOF 0
ENDMDL
