MODEL 1
REMARK minimizedAffinity 17.4548607
REMARK minimizedRMSD -1
REMARK  0 active torsions:
REMARK  status: ('A' for Active; 'I' for Inactive)
ROOT
ATOM      1  C   UNL d   1      -3.051   0.695   1.627  0.00  0.00     0.124 A 
ATOM      2  C1  UNL d   1      -2.532   1.015   2.874  0.00  0.00     0.062 A 
ATOM      3  C2  UNL d   1      -1.492   0.263   3.413  0.00  0.00     0.162 A 
ATOM      4  C3  UNL d   1      -0.963  -0.816   2.705  0.00  0.00    -0.034 A 
ATOM      5  C4  UNL d   1      -1.491  -1.132   1.452  0.00  0.00     0.162 A 
ATOM      6  C5  UNL d   1      -2.530  -0.378   0.917  0.00  0.00     0.062 A 
ATOM      7  F   UNL d   1      -3.030  -0.688  -0.288  0.00  0.00    -0.097 F 
ATOM      8  F1  UNL d   1      -1.006  -2.164   0.744  0.00  0.00    -0.096 F 
ATOM      9  I   UNL d   1       0.591  -1.943   3.508  0.00  0.00    -0.060 I 
ATOM     10  F2  UNL d   1      -1.011   0.595   4.620  0.00  0.00    -0.096 F 
ATOM     11  F3  UNL d   1      -3.034   2.050   3.562  0.00  0.00    -0.097 F 
ATOM     12  F4  UNL d   1      -4.052   1.419   1.110  0.00  0.00    -0.092 F 
ENDROOT
TORSDOF 0
ENDMDL
