MODEL 1
REMARK minimizedAffinity 10.234005
REMARK minimizedRMSD -1
REMARK  0 active torsions:
REMARK  status: ('A' for Active; 'I' for Inactive)
ROOT
ATOM      1  C   UNL d   1      -0.501  -1.611   2.303  0.00  0.00     0.124 A 
ATOM      2  C1  UNL d   1      -0.235  -1.193   3.600  0.00  0.00     0.062 A 
ATOM      3  C2  UNL d   1      -1.079  -0.283   4.229  0.00  0.00     0.162 A 
ATOM      4  C3  UNL d   1      -2.199   0.215   3.562  0.00  0.00    -0.034 A 
ATOM      5  C4  UNL d   1      -2.459  -0.209   2.258  0.00  0.00     0.162 A 
ATOM      6  C5  UNL d   1      -1.612  -1.119   1.634  0.00  0.00     0.062 A 
ATOM      7  F   UNL d   1      -1.871  -1.522   0.381  0.00  0.00    -0.097 F 
ATOM      8  F1  UNL d   1      -3.527   0.249   1.588  0.00  0.00    -0.096 F 
ATOM      9  I   UNL d   1      -3.464   1.576   4.499  0.00  0.00    -0.060 I 
ATOM     10  F2  UNL d   1      -0.798   0.104   5.482  0.00  0.00    -0.096 F 
ATOM     11  F3  UNL d   1       0.839  -1.666   4.248  0.00  0.00    -0.097 F 
ATOM     12  F4  UNL d   1       0.314  -2.486   1.700  0.00  0.00    -0.092 F 
ENDROOT
TORSDOF 0
ENDMDL
