MODEL 1
REMARK minimizedAffinity 29.7172832
REMARK minimizedRMSD -1
REMARK  0 active torsions:
REMARK  status: ('A' for Active; 'I' for Inactive)
ROOT
ATOM      1  C   UNL d   1      -0.881  -0.563   3.907  0.00  0.00     0.124 A 
ATOM      2  C1  UNL d   1      -1.825  -0.211   2.953  0.00  0.00     0.062 A 
ATOM      3  C2  UNL d   1      -1.921  -0.931   1.765  0.00  0.00     0.162 A 
ATOM      4  C3  UNL d   1      -1.071  -2.010   1.525  0.00  0.00    -0.034 A 
ATOM      5  C4  UNL d   1      -0.122  -2.357   2.489  0.00  0.00     0.162 A 
ATOM      6  C5  UNL d   1      -0.030  -1.635   3.675  0.00  0.00     0.062 A 
ATOM      7  F   UNL d   1       0.883  -1.976   4.596  0.00  0.00    -0.097 F 
ATOM      8  F1  UNL d   1       0.711  -3.389   2.291  0.00  0.00    -0.096 F 
ATOM      9  I   UNL d   1      -1.211  -3.087  -0.250  0.00  0.00    -0.060 I 
ATOM     10  F2  UNL d   1      -2.843  -0.568   0.861  0.00  0.00    -0.096 F 
ATOM     11  F3  UNL d   1      -2.647   0.824   3.175  0.00  0.00    -0.097 F 
ATOM     12  F4  UNL d   1      -0.790   0.131   5.049  0.00  0.00    -0.092 F 
ENDROOT
TORSDOF 0
ENDMDL
