MODEL 1
REMARK minimizedAffinity 17.6566963
REMARK minimizedRMSD -1
REMARK  0 active torsions:
REMARK  status: ('A' for Active; 'I' for Inactive)
ROOT
ATOM      1  C   UNL d   1      -2.319   0.439   3.744  0.00  0.00     0.124 A 
ATOM      2  C1  UNL d   1      -3.555   1.058   3.882  0.00  0.00     0.062 A 
ATOM      3  C2  UNL d   1      -4.457   1.062   2.822  0.00  0.00     0.162 A 
ATOM      4  C3  UNL d   1      -4.128   0.445   1.615  0.00  0.00    -0.034 A 
ATOM      5  C4  UNL d   1      -2.883  -0.174   1.484  0.00  0.00     0.162 A 
ATOM      6  C5  UNL d   1      -1.985  -0.176   2.546  0.00  0.00     0.062 A 
ATOM      7  F   UNL d   1      -0.792  -0.773   2.411  0.00  0.00    -0.097 F 
ATOM      8  F1  UNL d   1      -2.535  -0.776   0.337  0.00  0.00    -0.096 F 
ATOM      9  I   UNL d   1      -5.474   0.450   0.028  0.00  0.00    -0.060 I 
ATOM     10  F2  UNL d   1      -5.643   1.667   2.983  0.00  0.00    -0.096 F 
ATOM     11  F3  UNL d   1      -3.880   1.653   5.038  0.00  0.00    -0.097 F 
ATOM     12  F4  UNL d   1      -1.453   0.437   4.765  0.00  0.00    -0.092 F 
ENDROOT
TORSDOF 0
ENDMDL
