MODEL 1
REMARK minimizedAffinity 23.8626556
REMARK minimizedRMSD -1
REMARK  0 active torsions:
REMARK  status: ('A' for Active; 'I' for Inactive)
ROOT
ATOM      1  C   UNL d   1      -3.293  -2.698   2.451  0.00  0.00     0.124 A 
ATOM      2  C1  UNL d   1      -3.387  -2.294   3.776  0.00  0.00     0.062 A 
ATOM      3  C2  UNL d   1      -3.952  -3.138   4.727  0.00  0.00     0.162 A 
ATOM      4  C3  UNL d   1      -4.426  -4.397   4.358  0.00  0.00    -0.034 A 
ATOM      5  C4  UNL d   1      -4.329  -4.796   3.024  0.00  0.00     0.162 A 
ATOM      6  C5  UNL d   1      -3.764  -3.949   2.077  0.00  0.00     0.062 A 
ATOM      7  F   UNL d   1      -3.674  -4.341   0.798  0.00  0.00    -0.097 F 
ATOM      8  F1  UNL d   1      -4.775  -6.000   2.634  0.00  0.00    -0.096 F 
ATOM      9  I   UNL d   1      -5.271  -5.663   5.777  0.00  0.00    -0.060 I 
ATOM     10  F2  UNL d   1      -4.030  -2.722   6.000  0.00  0.00    -0.096 F 
ATOM     11  F3  UNL d   1      -2.934  -1.086   4.140  0.00  0.00    -0.097 F 
ATOM     12  F4  UNL d   1      -2.750  -1.883   1.538  0.00  0.00    -0.092 F 
ENDROOT
TORSDOF 0
ENDMDL
