MODEL 1
REMARK minimizedAffinity 24.0829773
REMARK minimizedRMSD -1
REMARK  0 active torsions:
REMARK  status: ('A' for Active; 'I' for Inactive)
ROOT
ATOM      1  C   UNL d   1       1.715   1.855  -1.439  0.00  0.00     0.124 A 
ATOM      2  C1  UNL d   1       2.572   2.513  -2.310  0.00  0.00     0.062 A 
ATOM      3  C2  UNL d   1       3.777   3.034  -1.847  0.00  0.00     0.162 A 
ATOM      4  C3  UNL d   1       4.132   2.899  -0.505  0.00  0.00    -0.034 A 
ATOM      5  C4  UNL d   1       3.265   2.237   0.366  0.00  0.00     0.162 A 
ATOM      6  C5  UNL d   1       2.062   1.718  -0.102  0.00  0.00     0.062 A 
ATOM      7  F   UNL d   1       1.236   1.082   0.741  0.00  0.00    -0.097 F 
ATOM      8  F1  UNL d   1       3.575   2.090   1.663  0.00  0.00    -0.096 F 
ATOM      9  I   UNL d   1       5.932   3.678   0.192  0.00  0.00    -0.060 I 
ATOM     10  F2  UNL d   1       4.586   3.665  -2.711  0.00  0.00    -0.096 F 
ATOM     11  F3  UNL d   1       2.239   2.647  -3.602  0.00  0.00    -0.097 F 
ATOM     12  F4  UNL d   1       0.557   1.354  -1.887  0.00  0.00    -0.092 F 
ENDROOT
TORSDOF 0
ENDMDL
