MODEL 1
REMARK minimizedAffinity 11.6982183
REMARK minimizedRMSD -1
REMARK  0 active torsions:
REMARK  status: ('A' for Active; 'I' for Inactive)
ROOT
ATOM      1  C   UNL d   1      -1.723  -0.012   3.363  0.00  0.00     0.124 A 
ATOM      2  C1  UNL d   1      -1.557  -0.828   2.253  0.00  0.00     0.062 A 
ATOM      3  C2  UNL d   1      -2.473  -0.780   1.206  0.00  0.00     0.162 A 
ATOM      4  C3  UNL d   1      -3.564   0.087   1.264  0.00  0.00    -0.034 A 
ATOM      5  C4  UNL d   1      -3.725   0.904   2.385  0.00  0.00     0.162 A 
ATOM      6  C5  UNL d   1      -2.807   0.853   3.428  0.00  0.00     0.062 A 
ATOM      7  F   UNL d   1      -2.969   1.642   4.500  0.00  0.00    -0.097 F 
ATOM      8  F1  UNL d   1      -4.763   1.749   2.473  0.00  0.00    -0.096 F 
ATOM      9  I   UNL d   1      -4.936   0.161  -0.299  0.00  0.00    -0.060 I 
ATOM     10  F2  UNL d   1      -2.288  -1.580   0.145  0.00  0.00    -0.096 F 
ATOM     11  F3  UNL d   1      -0.511  -1.664   2.188  0.00  0.00    -0.097 F 
ATOM     12  F4  UNL d   1      -0.841  -0.060   4.369  0.00  0.00    -0.092 F 
ENDROOT
TORSDOF 0
ENDMDL
