MODEL 1
REMARK minimizedAffinity 24.9111958
REMARK minimizedRMSD -1
REMARK  0 active torsions:
REMARK  status: ('A' for Active; 'I' for Inactive)
ROOT
ATOM      1  C   UNL d   1      -2.901   0.483   2.198  0.00  0.00     0.124 A 
ATOM      2  C1  UNL d   1      -2.313  -0.344   1.251  0.00  0.00     0.062 A 
ATOM      3  C2  UNL d   1      -1.103  -0.975   1.528  0.00  0.00     0.162 A 
ATOM      4  C3  UNL d   1      -0.473  -0.781   2.757  0.00  0.00    -0.034 A 
ATOM      5  C4  UNL d   1      -1.070   0.053   3.704  0.00  0.00     0.162 A 
ATOM      6  C5  UNL d   1      -2.279   0.681   3.423  0.00  0.00     0.062 A 
ATOM      7  F   UNL d   1      -2.846   1.481   4.338  0.00  0.00    -0.097 F 
ATOM      8  F1  UNL d   1      -0.492   0.262   4.896  0.00  0.00    -0.096 F 
ATOM      9  I   UNL d   1       1.335  -1.723   3.174  0.00  0.00    -0.060 I 
ATOM     10  F2  UNL d   1      -0.558  -1.770   0.595  0.00  0.00    -0.096 F 
ATOM     11  F3  UNL d   1      -2.911  -0.537   0.067  0.00  0.00    -0.097 F 
ATOM     12  F4  UNL d   1      -4.064   1.090   1.929  0.00  0.00    -0.092 F 
ENDROOT
TORSDOF 0
ENDMDL
