MODEL 1
REMARK minimizedAffinity 28.3498421
REMARK minimizedRMSD -1
REMARK  0 active torsions:
REMARK  status: ('A' for Active; 'I' for Inactive)
ROOT
ATOM      1  C   UNL d   1      -0.224  -0.288   4.749  0.00  0.00     0.124 A 
ATOM      2  C1  UNL d   1      -1.322   0.239   4.083  0.00  0.00     0.062 A 
ATOM      3  C2  UNL d   1      -1.612  -0.165   2.783  0.00  0.00     0.162 A 
ATOM      4  C3  UNL d   1      -0.802  -1.101   2.140  0.00  0.00    -0.034 A 
ATOM      5  C4  UNL d   1       0.301  -1.625   2.815  0.00  0.00     0.162 A 
ATOM      6  C5  UNL d   1       0.586  -1.219   4.115  0.00  0.00     0.062 A 
ATOM      7  F   UNL d   1       1.648  -1.729   4.756  0.00  0.00    -0.097 F 
ATOM      8  F1  UNL d   1       1.100  -2.527   2.226  0.00  0.00    -0.096 F 
ATOM      9  I   UNL d   1      -1.232  -1.706   0.195  0.00  0.00    -0.060 I 
ATOM     10  F2  UNL d   1      -2.680   0.361   2.164  0.00  0.00    -0.096 F 
ATOM     11  F3  UNL d   1      -2.106   1.139   4.694  0.00  0.00    -0.097 F 
ATOM     12  F4  UNL d   1       0.053   0.102   6.000  0.00  0.00    -0.092 F 
ENDROOT
TORSDOF 0
ENDMDL
