MODEL 1
REMARK minimizedAffinity 26.2532291
REMARK minimizedRMSD -1
REMARK  0 active torsions:
REMARK  status: ('A' for Active; 'I' for Inactive)
ROOT
ATOM      1  C   UNL d   1       2.578   2.429  -3.213  0.00  0.00     0.124 A 
ATOM      2  C1  UNL d   1       3.706   3.101  -3.663  0.00  0.00     0.062 A 
ATOM      3  C2  UNL d   1       4.684   3.510  -2.761  0.00  0.00     0.162 A 
ATOM      4  C3  UNL d   1       4.539   3.247  -1.399  0.00  0.00    -0.034 A 
ATOM      5  C4  UNL d   1       3.402   2.572  -0.954  0.00  0.00     0.162 A 
ATOM      6  C5  UNL d   1       2.427   2.165  -1.859  0.00  0.00     0.062 A 
ATOM      7  F   UNL d   1       1.338   1.516  -1.422  0.00  0.00    -0.097 F 
ATOM      8  F1  UNL d   1       3.231   2.303   0.349  0.00  0.00    -0.096 F 
ATOM      9  I   UNL d   1       5.999   3.857  -0.047  0.00  0.00    -0.060 I 
ATOM     10  F2  UNL d   1       5.764   4.157  -3.225  0.00  0.00    -0.096 F 
ATOM     11  F3  UNL d   1       3.854   3.358  -4.971  0.00  0.00    -0.097 F 
ATOM     12  F4  UNL d   1       1.638   2.037  -4.083  0.00  0.00    -0.092 F 
ENDROOT
TORSDOF 0
ENDMDL
