MODEL 1
REMARK minimizedAffinity 36.1199493
REMARK minimizedRMSD -1
REMARK  0 active torsions:
REMARK  status: ('A' for Active; 'I' for Inactive)
ROOT
ATOM      1  C   UNL d   1       2.526   2.359  -2.644  0.00  0.00     0.124 A 
ATOM      2  C1  UNL d   1       1.292   2.747  -2.139  0.00  0.00     0.062 A 
ATOM      3  C2  UNL d   1       0.465   3.586  -2.880  0.00  0.00     0.162 A 
ATOM      4  C3  UNL d   1       0.869   4.043  -4.135  0.00  0.00    -0.034 A 
ATOM      5  C4  UNL d   1       2.111   3.649  -4.635  0.00  0.00     0.162 A 
ATOM      6  C5  UNL d   1       2.934   2.810  -3.891  0.00  0.00     0.062 A 
ATOM      7  F   UNL d   1       4.126   2.437  -4.380  0.00  0.00    -0.097 F 
ATOM      8  F1  UNL d   1       2.530   4.070  -5.838  0.00  0.00    -0.096 F 
ATOM      9  I   UNL d   1      -0.364   5.298  -5.246  0.00  0.00    -0.060 I 
ATOM     10  F2  UNL d   1      -0.721   3.945  -2.368  0.00  0.00    -0.096 F 
ATOM     11  F3  UNL d   1       0.896   2.313  -0.934  0.00  0.00    -0.097 F 
ATOM     12  F4  UNL d   1       3.320   1.552  -1.928  0.00  0.00    -0.092 F 
ENDROOT
TORSDOF 0
ENDMDL
