MODEL 1
REMARK minimizedAffinity 22.4539375
REMARK minimizedRMSD -1
REMARK  0 active torsions:
REMARK  status: ('A' for Active; 'I' for Inactive)
ROOT
ATOM      1  C   UNL d   1      -1.413  -1.232   2.166  0.00  0.00     0.124 A 
ATOM      2  C1  UNL d   1      -1.813  -0.013   1.636  0.00  0.00     0.062 A 
ATOM      3  C2  UNL d   1      -0.863   0.894   1.175  0.00  0.00     0.162 A 
ATOM      4  C3  UNL d   1       0.495   0.586   1.241  0.00  0.00    -0.034 A 
ATOM      5  C4  UNL d   1       0.889  -0.641   1.777  0.00  0.00     0.162 A 
ATOM      6  C5  UNL d   1      -0.063  -1.545   2.236  0.00  0.00     0.062 A 
ATOM      7  F   UNL d   1       0.324  -2.722   2.748  0.00  0.00    -0.097 F 
ATOM      8  F1  UNL d   1       2.187  -0.970   1.856  0.00  0.00    -0.096 F 
ATOM      9  I   UNL d   1       1.918   1.940   0.553  0.00  0.00    -0.060 I 
ATOM     10  F2  UNL d   1      -1.278   2.065   0.667  0.00  0.00    -0.096 F 
ATOM     11  F3  UNL d   1      -3.117   0.292   1.568  0.00  0.00    -0.097 F 
ATOM     12  F4  UNL d   1      -2.329  -2.103   2.610  0.00  0.00    -0.092 F 
ENDROOT
TORSDOF 0
ENDMDL
