MODEL 1
REMARK minimizedAffinity -4.16506243
REMARK minimizedRMSD -1
REMARK  0 active torsions:
REMARK  status: ('A' for Active; 'I' for Inactive)
ROOT
ATOM      1  C   UNL d   1      -0.744   0.386   0.098  0.00  0.00     0.172 C 
ATOM      2  N   UNL d   1       0.414  -0.474   0.042  0.00  0.00    -0.070 N 
ATOM      3  C1  UNL d   1       1.565  -0.312   0.766  0.00  0.00    -0.004 A 
ATOM      4  C2  UNL d   1       2.424  -1.336   0.428  0.00  0.00    -0.047 A 
ATOM      5  C3  UNL d   1       1.767  -2.140  -0.533  0.00  0.00    -0.047 A 
ATOM      6  C4  UNL d   1       0.524  -1.584  -0.754  0.00  0.00    -0.004 A 
ENDROOT
TORSDOF 0
ENDMDL
