MODEL 1
REMARK minimizedAffinity -2.98392415
REMARK minimizedRMSD -1
REMARK  0 active torsions:
REMARK  status: ('A' for Active; 'I' for Inactive)
ROOT
ATOM      1  C   UNL d   1      -1.082   1.562  -1.009  0.00  0.00     0.172 C 
ATOM      2  N   UNL d   1      -0.421   0.341  -0.609  0.00  0.00    -0.070 N 
ATOM      3  C1  UNL d   1      -0.575  -0.882  -1.205  0.00  0.00    -0.004 A 
ATOM      4  C2  UNL d   1       0.223  -1.782  -0.532  0.00  0.00    -0.047 A 
ATOM      5  C3  UNL d   1       0.878  -1.076   0.504  0.00  0.00    -0.047 A 
ATOM      6  C4  UNL d   1       0.462   0.237   0.433  0.00  0.00    -0.004 A 
ENDROOT
TORSDOF 0
ENDMDL
