MODEL 1
REMARK minimizedAffinity -2.06088901
REMARK minimizedRMSD -1
REMARK  0 active torsions:
REMARK  status: ('A' for Active; 'I' for Inactive)
ROOT
ATOM      1  C   UNL d   1      -0.634   0.198  -0.250  0.00  0.00     0.172 C 
ATOM      2  N   UNL d   1       0.193  -0.985  -0.282  0.00  0.00    -0.070 N 
ATOM      3  C1  UNL d   1       1.491  -1.040  -0.714  0.00  0.00    -0.004 A 
ATOM      4  C2  UNL d   1       1.923  -2.342  -0.585  0.00  0.00    -0.047 A 
ATOM      5  C3  UNL d   1       0.848  -3.096  -0.058  0.00  0.00    -0.047 A 
ATOM      6  C4  UNL d   1      -0.211  -2.231   0.120  0.00  0.00    -0.004 A 
ENDROOT
TORSDOF 0
ENDMDL
