MODEL 1
REMARK minimizedAffinity -1.79361355
REMARK minimizedRMSD -1
REMARK  0 active torsions:
REMARK  status: ('A' for Active; 'I' for Inactive)
ROOT
ATOM      1  C   UNL d   1       2.614   0.186   0.660  0.00  0.00     0.172 C 
ATOM      2  N   UNL d   1       1.360  -0.336   0.169  0.00  0.00    -0.070 N 
ATOM      3  C1  UNL d   1       0.116   0.035   0.604  0.00  0.00    -0.004 A 
ATOM      4  C2  UNL d   1      -0.815  -0.688  -0.111  0.00  0.00    -0.047 A 
ATOM      5  C3  UNL d   1      -0.105  -1.523  -1.006  0.00  0.00    -0.047 A 
ATOM      6  C4  UNL d   1       1.239  -1.285  -0.811  0.00  0.00    -0.004 A 
ENDROOT
TORSDOF 0
ENDMDL
