MODEL 1
REMARK minimizedAffinity -3.17907166
REMARK minimizedRMSD -1
REMARK  0 active torsions:
REMARK  status: ('A' for Active; 'I' for Inactive)
ROOT
ATOM      1  C   UNL d   1       2.492  -0.991   0.675  0.00  0.00     0.172 C 
ATOM      2  N   UNL d   1       1.385  -0.135   0.320  0.00  0.00    -0.070 N 
ATOM      3  C1  UNL d   1       1.431   1.230   0.219  0.00  0.00    -0.004 A 
ATOM      4  C2  UNL d   1       0.176   1.670  -0.140  0.00  0.00    -0.047 A 
ATOM      5  C3  UNL d   1      -0.654   0.530  -0.259  0.00  0.00    -0.047 A 
ATOM      6  C4  UNL d   1       0.120  -0.574   0.032  0.00  0.00    -0.004 A 
ENDROOT
TORSDOF 0
ENDMDL
