MODEL 1
REMARK minimizedAffinity -1.45792007
REMARK minimizedRMSD -1
REMARK  0 active torsions:
REMARK  status: ('A' for Active; 'I' for Inactive)
ROOT
ATOM      1  C   UNL d   1      -0.579  -0.088  -1.573  0.00  0.00     0.172 C 
ATOM      2  N   UNL d   1       0.311  -1.177  -1.242  0.00  0.00    -0.070 N 
ATOM      3  C1  UNL d   1       1.647  -1.060  -0.965  0.00  0.00    -0.004 A 
ATOM      4  C2  UNL d   1       2.135  -2.321  -0.700  0.00  0.00    -0.047 A 
ATOM      5  C3  UNL d   1       1.055  -3.228  -0.823  0.00  0.00    -0.047 A 
ATOM      6  C4  UNL d   1      -0.062  -2.492  -1.159  0.00  0.00    -0.004 A 
ENDROOT
TORSDOF 0
ENDMDL
