MODEL 1
REMARK minimizedAffinity 12.6585798
REMARK minimizedRMSD -1
REMARK  1 active torsions:
REMARK  status: ('A' for Active; 'I' for Inactive)
REMARK    1  A    between atoms: C1_2  and  C2_3 
ROOT
ATOM      1  C2  UNL d   1      -3.869   1.834  -1.097  0.00  0.00    -0.081 A 
ATOM      2  C3  UNL d   1      -3.348   1.758   0.200  0.00  0.00     0.006 A 
ATOM      3  C4  UNL d   1      -4.002   2.383   1.264  0.00  0.00     0.002 A 
ATOM      4  C5  UNL d   1      -5.191   3.088   1.051  0.00  0.00    -0.080 A 
ATOM      5  C6  UNL d   1      -5.919   3.738   2.190  0.00  0.00     0.076 C 
ATOM      6  C7  UNL d   1      -5.703   3.179  -0.248  0.00  0.00     0.002 A 
ATOM      7  C8  UNL d   1      -5.049   2.555  -1.312  0.00  0.00     0.006 A 
ENDROOT
BRANCH   1   8
ATOM      8  C1  UNL d   1      -3.201   1.107  -2.236  0.00  0.00     0.054 C 
ATOM      9  C   UNL d   1      -4.100   1.057  -3.463  0.00  0.00     0.018 C 
ENDBRANCH   1   8
TORSDOF 1
ENDMDL
