MODEL 1
REMARK minimizedAffinity 16.1289082
REMARK minimizedRMSD -1
REMARK  1 active torsions:
REMARK  status: ('A' for Active; 'I' for Inactive)
REMARK    1  A    between atoms: C1_2  and  C2_3 
ROOT
ATOM      1  C2  UNL d   1       0.176   3.771  -0.349  0.00  0.00    -0.081 A 
ATOM      2  C3  UNL d   1      -0.686   3.204  -1.296  0.00  0.00     0.006 A 
ATOM      3  C4  UNL d   1      -1.654   2.276  -0.906  0.00  0.00     0.002 A 
ATOM      4  C5  UNL d   1      -1.783   1.906   0.437  0.00  0.00    -0.080 A 
ATOM      5  C6  UNL d   1      -2.839   0.934   0.873  0.00  0.00     0.076 C 
ATOM      6  C7  UNL d   1      -0.911   2.459   1.380  0.00  0.00     0.002 A 
ATOM      7  C8  UNL d   1       0.058   3.386   0.991  0.00  0.00     0.006 A 
ENDROOT
BRANCH   1   8
ATOM      8  C1  UNL d   1       1.178   4.820  -0.756  0.00  0.00     0.054 C 
ATOM      9  C   UNL d   1       2.541   4.204  -1.039  0.00  0.00     0.018 C 
ENDBRANCH   1   8
TORSDOF 1
ENDMDL
