MODEL 1
REMARK minimizedAffinity 0.274639785
REMARK minimizedRMSD -1
REMARK  1 active torsions:
REMARK  status: ('A' for Active; 'I' for Inactive)
REMARK    1  A    between atoms: C1_2  and  C2_3 
ROOT
ATOM      1  C2  UNL d   1      -4.433   1.554  -1.531  0.00  0.00    -0.081 A 
ATOM      2  C3  UNL d   1      -3.532   1.890  -0.514  0.00  0.00     0.006 A 
ATOM      3  C4  UNL d   1      -3.860   1.666   0.825  0.00  0.00     0.002 A 
ATOM      4  C5  UNL d   1      -5.090   1.096   1.169  0.00  0.00    -0.080 A 
ATOM      5  C6  UNL d   1      -5.443   0.823   2.601  0.00  0.00     0.076 C 
ATOM      6  C7  UNL d   1      -5.998   0.776   0.154  0.00  0.00     0.002 A 
ATOM      7  C8  UNL d   1      -5.671   1.000  -1.186  0.00  0.00     0.006 A 
ENDROOT
BRANCH   1   8
ATOM      8  C1  UNL d   1      -4.056   1.734  -2.980  0.00  0.00     0.054 C 
ATOM      9  C   UNL d   1      -4.005   0.398  -3.708  0.00  0.00     0.018 C 
ENDBRANCH   1   8
TORSDOF 1
ENDMDL
