MODEL 1
REMARK minimizedAffinity 10.8872328
REMARK minimizedRMSD -1
REMARK  1 active torsions:
REMARK  status: ('A' for Active; 'I' for Inactive)
REMARK    1  A    between atoms: C1_2  and  C2_3 
ROOT
ATOM      1  C2  UNL d   1       4.408  -3.071   2.287  0.00  0.00    -0.081 A 
ATOM      2  C3  UNL d   1       3.381  -3.780   2.922  0.00  0.00     0.006 A 
ATOM      3  C4  UNL d   1       2.056  -3.350   2.822  0.00  0.00     0.002 A 
ATOM      4  C5  UNL d   1       1.734  -2.209   2.080  0.00  0.00    -0.080 A 
ATOM      5  C6  UNL d   1       0.312  -1.753   1.939  0.00  0.00     0.076 C 
ATOM      6  C7  UNL d   1       2.762  -1.490   1.459  0.00  0.00     0.002 A 
ATOM      7  C8  UNL d   1       4.087  -1.920   1.560  0.00  0.00     0.006 A 
ENDROOT
BRANCH   1   8
ATOM      8  C1  UNL d   1       5.829  -3.569   2.339  0.00  0.00     0.054 C 
ATOM      9  C   UNL d   1       5.998  -4.848   1.531  0.00  0.00     0.018 C 
ENDBRANCH   1   8
TORSDOF 1
ENDMDL
