MODEL 1
REMARK minimizedAffinity 16.8078938
REMARK minimizedRMSD -1
REMARK  1 active torsions:
REMARK  status: ('A' for Active; 'I' for Inactive)
REMARK    1  A    between atoms: C1_2  and  C2_3 
ROOT
ATOM      1  C2  UNL d   1       3.578  -3.036   3.724  0.00  0.00    -0.081 A 
ATOM      2  C3  UNL d   1       3.530  -2.299   2.534  0.00  0.00     0.006 A 
ATOM      3  C4  UNL d   1       2.307  -1.860   2.022  0.00  0.00     0.002 A 
ATOM      4  C5  UNL d   1       1.113  -2.142   2.695  0.00  0.00    -0.080 A 
ATOM      5  C6  UNL d   1      -0.204  -1.651   2.172  0.00  0.00     0.076 C 
ATOM      6  C7  UNL d   1       1.160  -2.893   3.875  0.00  0.00     0.002 A 
ATOM      7  C8  UNL d   1       2.382  -3.333   4.386  0.00  0.00     0.006 A 
ENDROOT
BRANCH   1   8
ATOM      8  C1  UNL d   1       4.901  -3.455   4.312  0.00  0.00     0.054 C 
ATOM      9  C   UNL d   1       6.000  -3.457   3.259  0.00  0.00     0.018 C 
ENDBRANCH   1   8
TORSDOF 1
ENDMDL
