MODEL 1
REMARK minimizedAffinity 12.7530365
REMARK minimizedRMSD -1
REMARK  1 active torsions:
REMARK  status: ('A' for Active; 'I' for Inactive)
REMARK    1  A    between atoms: C1_2  and  C2_3 
ROOT
ATOM      1  C2  UNL d   1      -5.352  -3.592  -5.312  0.00  0.00    -0.081 A 
ATOM      2  C3  UNL d   1      -4.181  -3.020  -5.826  0.00  0.00     0.006 A 
ATOM      3  C4  UNL d   1      -3.554  -1.968  -5.155  0.00  0.00     0.002 A 
ATOM      4  C5  UNL d   1      -4.081  -1.476  -3.956  0.00  0.00    -0.080 A 
ATOM      5  C6  UNL d   1      -3.400  -0.367  -3.210  0.00  0.00     0.076 C 
ATOM      6  C7  UNL d   1      -5.259  -2.036  -3.452  0.00  0.00     0.002 A 
ATOM      7  C8  UNL d   1      -5.888  -3.087  -4.123  0.00  0.00     0.006 A 
ENDROOT
BRANCH   1   8
ATOM      8  C1  UNL d   1      -5.995  -4.769  -6.000  0.00  0.00     0.054 C 
ATOM      9  C   UNL d   1      -5.094  -5.995  -5.958  0.00  0.00     0.018 C 
ENDBRANCH   1   8
TORSDOF 1
ENDMDL
