MODEL 1
REMARK minimizedAffinity 10.0141363
REMARK minimizedRMSD -1
REMARK  1 active torsions:
REMARK  status: ('A' for Active; 'I' for Inactive)
REMARK    1  A    between atoms: C1_2  and  C2_3 
ROOT
ATOM      1  C2  UNL d   1       2.922  -2.764   2.857  0.00  0.00    -0.081 A 
ATOM      2  C3  UNL d   1       4.202  -2.247   2.622  0.00  0.00     0.006 A 
ATOM      3  C4  UNL d   1       5.204  -3.056   2.081  0.00  0.00     0.002 A 
ATOM      4  C5  UNL d   1       4.942  -4.391   1.759  0.00  0.00    -0.080 A 
ATOM      5  C6  UNL d   1       6.000  -5.262   1.149  0.00  0.00     0.076 C 
ATOM      6  C7  UNL d   1       3.668  -4.913   2.010  0.00  0.00     0.002 A 
ATOM      7  C8  UNL d   1       2.666  -4.105   2.551  0.00  0.00     0.006 A 
ENDROOT
BRANCH   1   8
ATOM      8  C1  UNL d   1       1.821  -1.877   3.380  0.00  0.00     0.054 C 
ATOM      9  C   UNL d   1       1.148  -1.108   2.253  0.00  0.00     0.018 C 
ENDBRANCH   1   8
TORSDOF 1
ENDMDL
