MODEL 1
REMARK minimizedAffinity 9.32724571
REMARK minimizedRMSD -1
REMARK  0 active torsions:
REMARK  status: ('A' for Active; 'I' for Inactive)
ROOT
ATOM      1  C   UNL d   1       2.480   3.543   2.993  0.00  0.00     0.172 C 
ATOM      2  N   UNL d   1       3.406   4.425   2.322  0.00  0.00    -0.070 N 
ATOM      3  C1  UNL d   1       4.195   5.366   2.929  0.00  0.00    -0.004 A 
ATOM      4  C2  UNL d   1       4.932   5.994   1.949  0.00  0.00    -0.047 A 
ATOM      5  C3  UNL d   1       4.573   5.412   0.710  0.00  0.00    -0.047 A 
ATOM      6  C4  UNL d   1       3.627   4.443   0.971  0.00  0.00    -0.004 A 
ENDROOT
TORSDOF 0
ENDMDL
