MODEL 1
REMARK minimizedAffinity 6.33059263
REMARK minimizedRMSD -1
REMARK  0 active torsions:
REMARK  status: ('A' for Active; 'I' for Inactive)
ROOT
ATOM      1  C   UNL d   1       0.169  -0.689   3.766  0.00  0.00     0.172 C 
ATOM      2  N   UNL d   1       0.008  -1.994   4.365  0.00  0.00    -0.070 N 
ATOM      3  C1  UNL d   1      -0.695  -3.038   3.826  0.00  0.00    -0.004 A 
ATOM      4  C2  UNL d   1      -0.608  -4.101   4.699  0.00  0.00    -0.047 A 
ATOM      5  C3  UNL d   1       0.173  -3.680   5.802  0.00  0.00    -0.047 A 
ATOM      6  C4  UNL d   1       0.541  -2.372   5.569  0.00  0.00    -0.004 A 
ENDROOT
TORSDOF 0
ENDMDL
