MODEL 1
REMARK minimizedAffinity 5.54178667
REMARK minimizedRMSD -1
REMARK  0 active torsions:
REMARK  status: ('A' for Active; 'I' for Inactive)
ROOT
ATOM      1  C   UNL d   1       2.354   2.714   2.809  0.00  0.00     0.172 C 
ATOM      2  N   UNL d   1       2.550   1.905   1.629  0.00  0.00    -0.070 N 
ATOM      3  C1  UNL d   1       2.310   2.302   0.341  0.00  0.00    -0.004 A 
ATOM      4  C2  UNL d   1       2.620   1.247  -0.491  0.00  0.00    -0.047 A 
ATOM      5  C3  UNL d   1       3.060   0.179   0.327  0.00  0.00    -0.047 A 
ATOM      6  C4  UNL d   1       3.007   0.614   1.634  0.00  0.00    -0.004 A 
ENDROOT
TORSDOF 0
ENDMDL
