MODEL 1
REMARK minimizedAffinity 3.1692965
REMARK minimizedRMSD -1
REMARK  0 active torsions:
REMARK  status: ('A' for Active; 'I' for Inactive)
ROOT
ATOM      1  C   UNL d   1       5.767   1.805   4.720  0.00  0.00     0.172 C 
ATOM      2  N   UNL d   1       5.245   3.150   4.651  0.00  0.00    -0.070 N 
ATOM      3  C1  UNL d   1       4.777   3.769   3.523  0.00  0.00    -0.004 A 
ATOM      4  C2  UNL d   1       4.370   5.038   3.875  0.00  0.00    -0.047 A 
ATOM      5  C3  UNL d   1       4.603   5.187   5.262  0.00  0.00    -0.047 A 
ATOM      6  C4  UNL d   1       5.145   4.004   5.718  0.00  0.00    -0.004 A 
ENDROOT
TORSDOF 0
ENDMDL
