MODEL 1
REMARK minimizedAffinity 0.652202249
REMARK minimizedRMSD -1
REMARK  0 active torsions:
REMARK  status: ('A' for Active; 'I' for Inactive)
ROOT
ATOM      1  C   UNL d   1      -5.985   2.396   4.531  0.00  0.00     0.172 C 
ATOM      2  N   UNL d   1      -5.841   3.810   4.785  0.00  0.00    -0.070 N 
ATOM      3  C1  UNL d   1      -5.996   4.423   6.000  0.00  0.00    -0.004 A 
ATOM      4  C2  UNL d   1      -5.775   5.772   5.824  0.00  0.00    -0.047 A 
ATOM      5  C3  UNL d   1      -5.477   5.977   4.456  0.00  0.00    -0.047 A 
ATOM      6  C4  UNL d   1      -5.524   4.746   3.836  0.00  0.00    -0.004 A 
ENDROOT
TORSDOF 0
ENDMDL
