MODEL 1
REMARK minimizedAffinity -2.12241721
REMARK minimizedRMSD -1
REMARK  0 active torsions:
REMARK  status: ('A' for Active; 'I' for Inactive)
ROOT
ATOM      1  C   UNL d   1       2.230  -1.656   0.113  0.00  0.00     0.172 C 
ATOM      2  N   UNL d   1       3.111  -0.527  -0.072  0.00  0.00    -0.070 N 
ATOM      3  C1  UNL d   1       4.245  -0.272   0.652  0.00  0.00    -0.004 A 
ATOM      4  C2  UNL d   1       4.800   0.894   0.171  0.00  0.00    -0.047 A 
ATOM      5  C3  UNL d   1       3.971   1.356  -0.878  0.00  0.00    -0.047 A 
ATOM      6  C4  UNL d   1       2.933   0.458  -1.007  0.00  0.00    -0.004 A 
ENDROOT
TORSDOF 0
ENDMDL
