MODEL 1
REMARK minimizedAffinity 0.127018422
REMARK minimizedRMSD -1
REMARK  0 active torsions:
REMARK  status: ('A' for Active; 'I' for Inactive)
ROOT
ATOM      1  C   UNL d   1      -6.000   4.585   2.678  0.00  0.00     0.172 C 
ATOM      2  N   UNL d   1      -5.363   5.156   3.841  0.00  0.00    -0.070 N 
ATOM      3  C1  UNL d   1      -5.984   5.452   5.026  0.00  0.00    -0.004 A 
ATOM      4  C2  UNL d   1      -5.037   5.978   5.878  0.00  0.00    -0.047 A 
ATOM      5  C3  UNL d   1      -3.805   6.000   5.181  0.00  0.00    -0.047 A 
ATOM      6  C4  UNL d   1      -4.036   5.486   3.923  0.00  0.00    -0.004 A 
ENDROOT
TORSDOF 0
ENDMDL
