MODEL 1
REMARK minimizedAffinity -0.804458857
REMARK minimizedRMSD -1
REMARK  0 active torsions:
REMARK  status: ('A' for Active; 'I' for Inactive)
ROOT
ATOM      1  C   UNL d   1      -2.540   5.938   4.351  0.00  0.00     0.172 C 
ATOM      2  N   UNL d   1      -3.909   5.644   4.704  0.00  0.00    -0.070 N 
ATOM      3  C1  UNL d   1      -4.810   4.974   3.919  0.00  0.00    -0.004 A 
ATOM      4  C2  UNL d   1      -5.999   4.899   4.611  0.00  0.00    -0.047 A 
ATOM      5  C3  UNL d   1      -5.808   5.548   5.854  0.00  0.00    -0.047 A 
ATOM      6  C4  UNL d   1      -4.505   5.999   5.885  0.00  0.00    -0.004 A 
ENDROOT
TORSDOF 0
ENDMDL
