MODEL 1
REMARK minimizedAffinity 10.3254204
REMARK minimizedRMSD -1
REMARK  0 active torsions:
REMARK  status: ('A' for Active; 'I' for Inactive)
ROOT
ATOM      1  C   UNL d   1      -6.000  -0.554  -4.943  0.00  0.00     0.172 C 
ATOM      2  N   UNL d   1      -5.406   0.721  -5.270  0.00  0.00    -0.070 N 
ATOM      3  C1  UNL d   1      -6.000   1.944  -5.107  0.00  0.00    -0.004 A 
ATOM      4  C2  UNL d   1      -5.110   2.906  -5.535  0.00  0.00    -0.047 A 
ATOM      5  C3  UNL d   1      -3.941   2.237  -5.971  0.00  0.00    -0.047 A 
ATOM      6  C4  UNL d   1      -4.152   0.886  -5.796  0.00  0.00    -0.004 A 
ENDROOT
TORSDOF 0
ENDMDL
