MODEL 1
REMARK minimizedAffinity 4.41357231
REMARK minimizedRMSD -1
REMARK  0 active torsions:
REMARK  status: ('A' for Active; 'I' for Inactive)
ROOT
ATOM      1  C   UNL d   1      -3.768   0.063  -1.603  0.00  0.00     0.172 C 
ATOM      2  N   UNL d   1      -3.783   0.537  -2.967  0.00  0.00    -0.070 N 
ATOM      3  C1  UNL d   1      -2.678   0.817  -3.727  0.00  0.00    -0.004 A 
ATOM      4  C2  UNL d   1      -3.114   1.240  -4.964  0.00  0.00    -0.047 A 
ATOM      5  C3  UNL d   1      -4.529   1.214  -4.947  0.00  0.00    -0.047 A 
ATOM      6  C4  UNL d   1      -4.916   0.775  -3.698  0.00  0.00    -0.004 A 
ENDROOT
TORSDOF 0
ENDMDL
