MODEL 1
REMARK minimizedAffinity -2.30023146
REMARK minimizedRMSD -1
REMARK  1 active torsions:
REMARK  status: ('A' for Active; 'I' for Inactive)
REMARK    1  A    between atoms: C3_4  and  O_7 
ROOT
ATOM      1  C   UNL d   1      -0.902  -0.500   0.436  0.00  0.00    -0.033 A 
ATOM      2  C1  UNL d   1      -1.603  -1.350   1.293  0.00  0.00     0.039 A 
ATOM      3  C2  UNL d   1      -1.115  -2.630   1.564  0.00  0.00    -0.080 A 
ATOM      4  C3  UNL d   1       0.074  -3.047   0.973  0.00  0.00     0.150 A 
ATOM      5  C4  UNL d   1       0.781  -2.204   0.121  0.00  0.00    -0.007 A 
ATOM      6  C5  UNL d   1       0.291  -0.926  -0.149  0.00  0.00     0.039 A 
ENDROOT
BRANCH   4   7
ATOM      7  O   UNL d   1       0.588  -4.288   1.203  0.00  0.00    -0.526 OA
ATOM      8  H5  UNL d   1      -0.021  -4.770   1.788  0.00  0.00     0.418 HD
ENDBRANCH   4   7
TORSDOF 1
ENDMDL
