MODEL 1
REMARK minimizedAffinity -1.90487623
REMARK minimizedRMSD -1
REMARK  1 active torsions:
REMARK  status: ('A' for Active; 'I' for Inactive)
REMARK    1  A    between atoms: C3_4  and  O_7 
ROOT
ATOM      1  C   UNL d   1      -0.884  -2.412  -0.522  0.00  0.00    -0.033 A 
ATOM      2  C1  UNL d   1      -1.142  -1.799   0.705  0.00  0.00     0.039 A 
ATOM      3  C2  UNL d   1      -0.795  -0.461   0.906  0.00  0.00    -0.080 A 
ATOM      4  C3  UNL d   1      -0.193   0.251  -0.127  0.00  0.00     0.150 A 
ATOM      5  C4  UNL d   1       0.063  -0.352  -1.354  0.00  0.00    -0.007 A 
ATOM      6  C5  UNL d   1      -0.283  -1.688  -1.553  0.00  0.00     0.039 A 
ENDROOT
BRANCH   4   7
ATOM      7  O   UNL d   1       0.168   1.557   0.023  0.00  0.00    -0.526 OA
ATOM      8  H5  UNL d   1      -0.044   1.832   0.931  0.00  0.00     0.418 HD
ENDBRANCH   4   7
TORSDOF 1
ENDMDL
