MODEL 1
REMARK minimizedAffinity -1.81029713
REMARK minimizedRMSD -1
REMARK  1 active torsions:
REMARK  status: ('A' for Active; 'I' for Inactive)
REMARK    1  A    between atoms: C3_4  and  O_7 
ROOT
ATOM      1  C   UNL d   1      -0.402   0.378  -0.554  0.00  0.00    -0.033 A 
ATOM      2  C1  UNL d   1      -0.375   1.672  -1.079  0.00  0.00     0.039 A 
ATOM      3  C2  UNL d   1       0.454   2.641  -0.512  0.00  0.00    -0.080 A 
ATOM      4  C3  UNL d   1       1.252   2.304   0.578  0.00  0.00     0.150 A 
ATOM      5  C4  UNL d   1       1.234   1.017   1.104  0.00  0.00    -0.007 A 
ATOM      6  C5  UNL d   1       0.404   0.050   0.537  0.00  0.00     0.039 A 
ENDROOT
BRANCH   4   7
ATOM      7  O   UNL d   1       2.074   3.217   1.169  0.00  0.00    -0.526 OA
ATOM      8  H5  UNL d   1       1.961   4.071   0.718  0.00  0.00     0.418 HD
ENDBRANCH   4   7
TORSDOF 1
ENDMDL
