MODEL 1
REMARK minimizedAffinity -4.38714838
REMARK minimizedRMSD -1
REMARK  1 active torsions:
REMARK  status: ('A' for Active; 'I' for Inactive)
REMARK    1  A    between atoms: C3_4  and  O_7 
ROOT
ATOM      1  C   UNL d   1       0.096   0.430  -0.743  0.00  0.00    -0.033 A 
ATOM      2  C1  UNL d   1      -0.602   0.912   0.366  0.00  0.00     0.039 A 
ATOM      3  C2  UNL d   1      -1.110   0.022   1.314  0.00  0.00    -0.080 A 
ATOM      4  C3  UNL d   1      -0.912  -1.345   1.143  0.00  0.00     0.150 A 
ATOM      5  C4  UNL d   1      -0.214  -1.832   0.043  0.00  0.00    -0.007 A 
ATOM      6  C5  UNL d   1       0.291  -0.942  -0.904  0.00  0.00     0.039 A 
ENDROOT
BRANCH   4   7
ATOM      7  O   UNL d   1      -1.393  -2.253   2.040  0.00  0.00    -0.526 OA
ATOM      8  H5  UNL d   1      -1.878  -1.774   2.732  0.00  0.00     0.418 HD
ENDBRANCH   4   7
TORSDOF 1
ENDMDL
