MODEL 1
REMARK minimizedAffinity -1.94526565
REMARK minimizedRMSD -1
REMARK  1 active torsions:
REMARK  status: ('A' for Active; 'I' for Inactive)
REMARK    1  A    between atoms: C3_4  and  O_7 
ROOT
ATOM      1  C   UNL d   1       0.086   1.421   0.767  0.00  0.00    -0.033 A 
ATOM      2  C1  UNL d   1      -0.862   1.087   1.735  0.00  0.00     0.039 A 
ATOM      3  C2  UNL d   1      -1.319  -0.228   1.843  0.00  0.00    -0.080 A 
ATOM      4  C3  UNL d   1      -0.819  -1.198   0.978  0.00  0.00     0.150 A 
ATOM      5  C4  UNL d   1       0.129  -0.873   0.014  0.00  0.00    -0.007 A 
ATOM      6  C5  UNL d   1       0.583   0.441  -0.093  0.00  0.00     0.039 A 
ENDROOT
BRANCH   4   7
ATOM      7  O   UNL d   1      -1.239  -2.494   1.042  0.00  0.00    -0.526 OA
ATOM      8  H5  UNL d   1      -1.915  -2.564   1.736  0.00  0.00     0.418 HD
ENDBRANCH   4   7
TORSDOF 1
ENDMDL
