MODEL 1
REMARK minimizedAffinity -1.9103297
REMARK minimizedRMSD -1
REMARK  1 active torsions:
REMARK  status: ('A' for Active; 'I' for Inactive)
REMARK    1  A    between atoms: C3_4  and  O_7 
ROOT
ATOM      1  C   UNL d   1      -0.673   0.938   0.922  0.00  0.00    -0.033 A 
ATOM      2  C1  UNL d   1      -1.413   0.216   1.860  0.00  0.00     0.039 A 
ATOM      3  C2  UNL d   1      -1.563  -1.165   1.721  0.00  0.00    -0.080 A 
ATOM      4  C3  UNL d   1      -0.968  -1.811   0.640  0.00  0.00     0.150 A 
ATOM      5  C4  UNL d   1      -0.227  -1.099  -0.296  0.00  0.00    -0.007 A 
ATOM      6  C5  UNL d   1      -0.079   0.281  -0.156  0.00  0.00     0.039 A 
ENDROOT
BRANCH   4   7
ATOM      7  O   UNL d   1      -1.091  -3.157   0.460  0.00  0.00    -0.526 OA
ATOM      8  H5  UNL d   1      -1.654  -3.512   1.167  0.00  0.00     0.418 HD
ENDBRANCH   4   7
TORSDOF 1
ENDMDL
