MODEL 1
REMARK minimizedAffinity -0.708914995
REMARK minimizedRMSD -1
REMARK  1 active torsions:
REMARK  status: ('A' for Active; 'I' for Inactive)
REMARK    1  A    between atoms: C3_4  and  O_7 
ROOT
ATOM      1  C   UNL d   1      -1.032  -0.504   0.659  0.00  0.00    -0.033 A 
ATOM      2  C1  UNL d   1      -0.833   0.739   0.055  0.00  0.00     0.039 A 
ATOM      3  C2  UNL d   1      -0.286   0.815  -1.228  0.00  0.00    -0.080 A 
ATOM      4  C3  UNL d   1       0.056  -0.359  -1.894  0.00  0.00     0.150 A 
ATOM      5  C4  UNL d   1      -0.142  -1.600  -1.300  0.00  0.00    -0.007 A 
ATOM      6  C5  UNL d   1      -0.687  -1.673  -0.019  0.00  0.00     0.039 A 
ENDROOT
BRANCH   4   7
ATOM      7  O   UNL d   1       0.597  -0.335  -3.145  0.00  0.00    -0.526 OA
ATOM      8  H5  UNL d   1       0.703   0.591  -3.418  0.00  0.00     0.418 HD
ENDBRANCH   4   7
TORSDOF 1
ENDMDL
