MODEL 1
REMARK minimizedAffinity -5.39516973
REMARK minimizedRMSD -1
REMARK  1 active torsions:
REMARK  status: ('A' for Active; 'I' for Inactive)
REMARK    1  A    between atoms: C3_4  and  O_7 
ROOT
ATOM      1  C   UNL d   1      -0.411  -0.066  -0.156  0.00  0.00    -0.033 A 
ATOM      2  C1  UNL d   1       0.723  -0.635  -0.740  0.00  0.00     0.039 A 
ATOM      3  C2  UNL d   1       1.106  -1.935  -0.404  0.00  0.00    -0.080 A 
ATOM      4  C3  UNL d   1       0.348  -2.655   0.515  0.00  0.00     0.150 A 
ATOM      5  C4  UNL d   1      -0.785  -2.096   1.097  0.00  0.00    -0.007 A 
ATOM      6  C5  UNL d   1      -1.166  -0.797   0.762  0.00  0.00     0.039 A 
ENDROOT
BRANCH   4   7
ATOM      7  O   UNL d   1       0.685  -3.925   0.877  0.00  0.00    -0.526 OA
ATOM      8  H5  UNL d   1       1.505  -4.169   0.417  0.00  0.00     0.418 HD
ENDBRANCH   4   7
TORSDOF 1
ENDMDL
