MODEL 1
REMARK minimizedAffinity -4.04251194
REMARK minimizedRMSD -1
REMARK  1 active torsions:
REMARK  status: ('A' for Active; 'I' for Inactive)
REMARK    1  A    between atoms: C3_4  and  O_7 
ROOT
ATOM      1  C   UNL d   1      -1.039  -0.514   0.959  0.00  0.00    -0.033 A 
ATOM      2  C1  UNL d   1      -0.459   0.001  -0.202  0.00  0.00     0.039 A 
ATOM      3  C2  UNL d   1       0.175  -0.853  -1.106  0.00  0.00    -0.080 A 
ATOM      4  C3  UNL d   1       0.221  -2.219  -0.839  0.00  0.00     0.150 A 
ATOM      5  C4  UNL d   1      -0.359  -2.739   0.313  0.00  0.00    -0.007 A 
ATOM      6  C5  UNL d   1      -0.990  -1.885   1.216  0.00  0.00     0.039 A 
ENDROOT
BRANCH   4   7
ATOM      7  O   UNL d   1       0.832  -3.091  -1.690  0.00  0.00    -0.526 OA
ATOM      8  H5  UNL d   1       1.212  -2.586  -2.428  0.00  0.00     0.418 HD
ENDBRANCH   4   7
TORSDOF 1
ENDMDL
