MODEL 1
REMARK minimizedAffinity -4.43804598
REMARK minimizedRMSD -1
REMARK  1 active torsions:
REMARK  status: ('A' for Active; 'I' for Inactive)
REMARK    1  A    between atoms: C3_4  and  O_7 
ROOT
ATOM      1  C   UNL d   1       1.144   2.971   0.327  0.00  0.00    -0.033 A 
ATOM      2  C1  UNL d   1      -0.005   2.178   0.323  0.00  0.00     0.039 A 
ATOM      3  C2  UNL d   1      -0.135   1.138  -0.600  0.00  0.00    -0.080 A 
ATOM      4  C3  UNL d   1       0.891   0.902  -1.511  0.00  0.00     0.150 A 
ATOM      5  C4  UNL d   1       2.040   1.685  -1.510  0.00  0.00    -0.007 A 
ATOM      6  C5  UNL d   1       2.167   2.723  -0.588  0.00  0.00     0.039 A 
ENDROOT
BRANCH   4   7
ATOM      7  O   UNL d   1       0.808  -0.098  -2.434  0.00  0.00    -0.526 OA
ATOM      8  H5  UNL d   1      -0.054  -0.537  -2.335  0.00  0.00     0.418 HD
ENDBRANCH   4   7
TORSDOF 1
ENDMDL
