MODEL 1
REMARK minimizedAffinity -4.53088236
REMARK minimizedRMSD -1
REMARK  1 active torsions:
REMARK  status: ('A' for Active; 'I' for Inactive)
REMARK    1  A    between atoms: C3_4  and  O_7 
ROOT
ATOM      1  C   UNL d   1      -0.926  -2.711   0.603  0.00  0.00    -0.033 A 
ATOM      2  C1  UNL d   1      -1.005  -1.821   1.677  0.00  0.00     0.039 A 
ATOM      3  C2  UNL d   1      -0.706  -0.470   1.490  0.00  0.00    -0.080 A 
ATOM      4  C3  UNL d   1      -0.331  -0.022   0.226  0.00  0.00     0.150 A 
ATOM      5  C4  UNL d   1      -0.254  -0.902  -0.849  0.00  0.00    -0.007 A 
ATOM      6  C5  UNL d   1      -0.552  -2.251  -0.660  0.00  0.00     0.039 A 
ENDROOT
BRANCH   4   7
ATOM      7  O   UNL d   1      -0.025   1.286  -0.004  0.00  0.00    -0.526 OA
ATOM      8  H5  UNL d   1      -0.094   1.771   0.835  0.00  0.00     0.418 HD
ENDBRANCH   4   7
TORSDOF 1
ENDMDL
