MODEL 1
REMARK minimizedAffinity -3.49261594
REMARK minimizedRMSD -1
REMARK  1 active torsions:
REMARK  status: ('A' for Active; 'I' for Inactive)
REMARK    1  A    between atoms: C3_4  and  O_7 
ROOT
ATOM      1  C   UNL d   1      -0.021   0.663  -0.685  0.00  0.00    -0.033 A 
ATOM      2  C1  UNL d   1       0.390  -0.295  -1.614  0.00  0.00     0.039 A 
ATOM      3  C2  UNL d   1       0.327  -1.653  -1.294  0.00  0.00    -0.080 A 
ATOM      4  C3  UNL d   1      -0.148  -2.039  -0.044  0.00  0.00     0.150 A 
ATOM      5  C4  UNL d   1      -0.563  -1.090   0.885  0.00  0.00    -0.007 A 
ATOM      6  C5  UNL d   1      -0.499   0.265   0.564  0.00  0.00     0.039 A 
ENDROOT
BRANCH   4   7
ATOM      7  O   UNL d   1      -0.223  -3.351   0.316  0.00  0.00    -0.526 OA
ATOM      8  H5  UNL d   1       0.123  -3.891  -0.414  0.00  0.00     0.418 HD
ENDBRANCH   4   7
TORSDOF 1
ENDMDL
