MODEL 1
REMARK minimizedAffinity -4.432827
REMARK minimizedRMSD -1
REMARK  1 active torsions:
REMARK  status: ('A' for Active; 'I' for Inactive)
REMARK    1  A    between atoms: C3_4  and  O_7 
ROOT
ATOM      1  C   UNL d   1       0.960   1.640   0.383  0.00  0.00    -0.033 A 
ATOM      2  C1  UNL d   1      -0.163   0.843   0.152  0.00  0.00     0.039 A 
ATOM      3  C2  UNL d   1      -0.375   0.281  -1.109  0.00  0.00    -0.080 A 
ATOM      4  C3  UNL d   1       0.542   0.523  -2.128  0.00  0.00     0.150 A 
ATOM      5  C4  UNL d   1       1.665   1.313  -1.903  0.00  0.00    -0.007 A 
ATOM      6  C5  UNL d   1       1.875   1.874  -0.644  0.00  0.00     0.039 A 
ENDROOT
BRANCH   4   7
ATOM      7  O   UNL d   1       0.375   0.000  -3.376  0.00  0.00    -0.526 OA
ATOM      8  H5  UNL d   1      -0.458  -0.500  -3.391  0.00  0.00     0.418 HD
ENDBRANCH   4   7
TORSDOF 1
ENDMDL
