MODEL 1
REMARK minimizedAffinity 0.0584320277
REMARK minimizedRMSD -1
REMARK  1 active torsions:
REMARK  status: ('A' for Active; 'I' for Inactive)
REMARK    1  A    between atoms: C3_4  and  O_7 
ROOT
ATOM      1  C   UNL d   1      -0.262  -0.285   0.483  0.00  0.00    -0.033 A 
ATOM      2  C1  UNL d   1      -0.659   0.338   1.668  0.00  0.00     0.039 A 
ATOM      3  C2  UNL d   1      -0.136   1.585   2.013  0.00  0.00    -0.080 A 
ATOM      4  C3  UNL d   1       0.781   2.200   1.165  0.00  0.00     0.150 A 
ATOM      5  C4  UNL d   1       1.179   1.587  -0.019  0.00  0.00    -0.007 A 
ATOM      6  C5  UNL d   1       0.656   0.341  -0.362  0.00  0.00     0.039 A 
ENDROOT
BRANCH   4   7
ATOM      7  O   UNL d   1       1.323   3.415   1.461  0.00  0.00    -0.526 OA
ATOM      8  H5  UNL d   1       0.978   3.704   2.323  0.00  0.00     0.418 HD
ENDBRANCH   4   7
TORSDOF 1
ENDMDL
