MODEL 1
REMARK minimizedAffinity -3.42799449
REMARK minimizedRMSD -1
REMARK  1 active torsions:
REMARK  status: ('A' for Active; 'I' for Inactive)
REMARK    1  A    between atoms: C3_4  and  O_7 
ROOT
ATOM      1  C   UNL d   1      -0.660  -2.401   0.001  0.00  0.00    -0.033 A 
ATOM      2  C1  UNL d   1      -1.134  -1.593   1.037  0.00  0.00     0.039 A 
ATOM      3  C2  UNL d   1      -0.971  -0.208   0.974  0.00  0.00    -0.080 A 
ATOM      4  C3  UNL d   1      -0.334   0.356  -0.128  0.00  0.00     0.150 A 
ATOM      5  C4  UNL d   1       0.137  -0.443  -1.165  0.00  0.00    -0.007 A 
ATOM      6  C5  UNL d   1      -0.026  -1.826  -1.100  0.00  0.00     0.039 A 
ENDROOT
BRANCH   4   7
ATOM      7  O   UNL d   1      -0.148   1.703  -0.231  0.00  0.00    -0.526 OA
ATOM      8  H5  UNL d   1      -0.499   2.124   0.571  0.00  0.00     0.418 HD
ENDBRANCH   4   7
TORSDOF 1
ENDMDL
