MODEL 1
REMARK minimizedAffinity -2.94464135
REMARK minimizedRMSD -1
REMARK  0 active torsions:
REMARK  status: ('A' for Active; 'I' for Inactive)
ROOT
ATOM      1  C   UNL d   1       0.090  -0.420  -0.218  0.00  0.00     0.078 C 
ATOM      2  C1  UNL d   1       0.723  -0.193  -1.559  0.00  0.00    -0.077 A 
ATOM      3  C2  UNL d   1       2.014   0.338  -1.666  0.00  0.00    -0.001 A 
ATOM      4  C3  UNL d   1       2.587   0.552  -2.921  0.00  0.00     0.003 A 
ATOM      5  C4  UNL d   1       1.876   0.240  -4.078  0.00  0.00    -0.005 A 
ATOM      6  C5  UNL d   1       0.589  -0.287  -3.981  0.00  0.00     0.003 A 
ATOM      7  C6  UNL d   1       0.015  -0.502  -2.727  0.00  0.00    -0.001 A 
ENDROOT
TORSDOF 0
ENDMDL
