MODEL 1
REMARK minimizedAffinity -3.89321041
REMARK minimizedRMSD -1
REMARK  0 active torsions:
REMARK  status: ('A' for Active; 'I' for Inactive)
ROOT
ATOM      1  C   UNL d   1      -0.727   1.538   3.048  0.00  0.00     0.078 C 
ATOM      2  C1  UNL d   1      -0.440   0.877   1.733  0.00  0.00    -0.077 A 
ATOM      3  C2  UNL d   1      -1.479   0.504   0.872  0.00  0.00    -0.001 A 
ATOM      4  C3  UNL d   1      -1.197  -0.120  -0.345  0.00  0.00     0.003 A 
ATOM      5  C4  UNL d   1       0.123  -0.376  -0.711  0.00  0.00    -0.005 A 
ATOM      6  C5  UNL d   1       1.163  -0.011   0.141  0.00  0.00     0.003 A 
ATOM      7  C6  UNL d   1       0.883   0.613   1.358  0.00  0.00    -0.001 A 
ENDROOT
TORSDOF 0
ENDMDL
