MODEL 1
REMARK minimizedAffinity -4.82062531
REMARK minimizedRMSD -1
REMARK  0 active torsions:
REMARK  status: ('A' for Active; 'I' for Inactive)
ROOT
ATOM      1  C   UNL d   1      -0.852   1.590   2.683  0.00  0.00     0.078 C 
ATOM      2  C1  UNL d   1      -0.533   0.782   1.461  0.00  0.00    -0.077 A 
ATOM      3  C2  UNL d   1       0.792   0.481   1.121  0.00  0.00    -0.001 A 
ATOM      4  C3  UNL d   1       1.075  -0.265  -0.024  0.00  0.00     0.003 A 
ATOM      5  C4  UNL d   1       0.039  -0.714  -0.841  0.00  0.00    -0.005 A 
ATOM      6  C5  UNL d   1      -1.282  -0.417  -0.512  0.00  0.00     0.003 A 
ATOM      7  C6  UNL d   1      -1.567   0.328   0.633  0.00  0.00    -0.001 A 
ENDROOT
TORSDOF 0
ENDMDL
