MODEL 1
REMARK minimizedAffinity -5.25493097
REMARK minimizedRMSD -1
REMARK  0 active torsions:
REMARK  status: ('A' for Active; 'I' for Inactive)
ROOT
ATOM      1  C   UNL d   1      -1.085   1.612   2.984  0.00  0.00     0.078 C 
ATOM      2  C1  UNL d   1      -0.743   0.854   1.736  0.00  0.00    -0.077 A 
ATOM      3  C2  UNL d   1      -1.739   0.231   0.974  0.00  0.00    -0.001 A 
ATOM      4  C3  UNL d   1      -1.405  -0.480  -0.179  0.00  0.00     0.003 A 
ATOM      5  C4  UNL d   1      -0.074  -0.576  -0.581  0.00  0.00    -0.005 A 
ATOM      6  C5  UNL d   1       0.925   0.038   0.172  0.00  0.00     0.003 A 
ATOM      7  C6  UNL d   1       0.592   0.750   1.326  0.00  0.00    -0.001 A 
ENDROOT
TORSDOF 0
ENDMDL
