MODEL 1
REMARK minimizedAffinity -4.28840733
REMARK minimizedRMSD -1
REMARK  0 active torsions:
REMARK  status: ('A' for Active; 'I' for Inactive)
ROOT
ATOM      1  C   UNL d   1       0.713  -0.487  -1.538  0.00  0.00     0.078 C 
ATOM      2  C1  UNL d   1       0.092  -0.008  -0.259  0.00  0.00    -0.077 A 
ATOM      3  C2  UNL d   1       0.886   0.421   0.812  0.00  0.00    -0.001 A 
ATOM      4  C3  UNL d   1       0.295   0.855   1.999  0.00  0.00     0.003 A 
ATOM      5  C4  UNL d   1      -1.093   0.863   2.128  0.00  0.00    -0.005 A 
ATOM      6  C5  UNL d   1      -1.891   0.436   1.068  0.00  0.00     0.003 A 
ATOM      7  C6  UNL d   1      -1.301   0.002  -0.120  0.00  0.00    -0.001 A 
ENDROOT
TORSDOF 0
ENDMDL
