MODEL 1
REMARK minimizedAffinity -5.32505608
REMARK minimizedRMSD -1
REMARK  0 active torsions:
REMARK  status: ('A' for Active; 'I' for Inactive)
ROOT
ATOM      1  C   UNL d   1      -0.630   1.307   2.514  0.00  0.00     0.078 C 
ATOM      2  C1  UNL d   1      -0.093   0.300   1.542  0.00  0.00    -0.077 A 
ATOM      3  C2  UNL d   1      -0.823  -0.064   0.404  0.00  0.00    -0.001 A 
ATOM      4  C3  UNL d   1      -0.315  -1.010  -0.488  0.00  0.00     0.003 A 
ATOM      5  C4  UNL d   1       0.925  -1.601  -0.250  0.00  0.00    -0.005 A 
ATOM      6  C5  UNL d   1       1.658  -1.246   0.881  0.00  0.00     0.003 A 
ATOM      7  C6  UNL d   1       1.151  -0.300   1.773  0.00  0.00    -0.001 A 
ENDROOT
TORSDOF 0
ENDMDL
