MODEL 1
REMARK minimizedAffinity -4.88434362
REMARK minimizedRMSD -1
REMARK  0 active torsions:
REMARK  status: ('A' for Active; 'I' for Inactive)
ROOT
ATOM      1  C   UNL d   1      -3.040  -0.964  -0.873  0.00  0.00     0.078 C 
ATOM      2  C1  UNL d   1      -1.924  -0.451  -0.012  0.00  0.00    -0.077 A 
ATOM      3  C2  UNL d   1      -0.596  -0.492  -0.452  0.00  0.00    -0.001 A 
ATOM      4  C3  UNL d   1       0.433  -0.020   0.364  0.00  0.00     0.003 A 
ATOM      5  C4  UNL d   1       0.145   0.496   1.626  0.00  0.00    -0.005 A 
ATOM      6  C5  UNL d   1      -1.174   0.539   2.073  0.00  0.00     0.003 A 
ATOM      7  C6  UNL d   1      -2.205   0.068   1.259  0.00  0.00    -0.001 A 
ENDROOT
TORSDOF 0
ENDMDL
