MODEL 1
REMARK minimizedAffinity -0.375046402
REMARK minimizedRMSD -1
REMARK  0 active torsions:
REMARK  status: ('A' for Active; 'I' for Inactive)
ROOT
ATOM      1  C   UNL d   1       0.411  -0.088  -2.265  0.00  0.00     0.078 C 
ATOM      2  C1  UNL d   1       0.009  -0.199  -0.825  0.00  0.00    -0.077 A 
ATOM      3  C2  UNL d   1      -1.259   0.211  -0.396  0.00  0.00    -0.001 A 
ATOM      4  C3  UNL d   1      -1.616   0.111   0.950  0.00  0.00     0.003 A 
ATOM      5  C4  UNL d   1      -0.709  -0.398   1.878  0.00  0.00    -0.005 A 
ATOM      6  C5  UNL d   1       0.556  -0.807   1.461  0.00  0.00     0.003 A 
ATOM      7  C6  UNL d   1       0.914  -0.707   0.116  0.00  0.00    -0.001 A 
ENDROOT
TORSDOF 0
ENDMDL
