MODEL 1
REMARK minimizedAffinity 4.15216541
REMARK minimizedRMSD -1
REMARK  3 active torsions:
REMARK  status: ('A' for Active; 'I' for Inactive)
REMARK    1  A    between atoms: C3'_2  and  C2'_3 
REMARK    2  A    between atoms: C2'_3  and  C1'_4 
REMARK    3  A    between atoms: C1'_4  and  C1_5 
ROOT
ATOM      1  C1  N4B d   1       2.975  -3.306  -1.307  0.00  0.00    -0.075 A 
ATOM      2  C2  N4B d   1       2.725  -3.739  -2.628  0.00  0.00     0.002 A 
ATOM      3  C3  N4B d   1       3.438  -4.789  -3.152  0.00  0.00     0.002 A 
ATOM      4  C4  N4B d   1       4.414  -5.407  -2.385  0.00  0.00    -0.004 A 
ATOM      5  C5  N4B d   1       4.631  -4.999  -1.101  0.00  0.00     0.002 A 
ATOM      6  C6  N4B d   1       3.920  -3.947  -0.560  0.00  0.00     0.002 A 
ENDROOT
BRANCH   1   7
ATOM      7  C1' N4B d   1       2.281  -2.107  -0.720  0.00  0.00     0.057 C 
BRANCH   7   8
ATOM      8  C2' N4B d   1       2.147  -1.031  -1.793  0.00  0.00     0.009 C 
BRANCH   8   9
ATOM      9  C3' N4B d   1       2.683   0.311  -1.322  0.00  0.00     0.004 C 
ATOM     10  C4' N4B d   1       2.344   1.432  -2.258  0.00  0.00     0.003 C 
ENDBRANCH   8   9
ENDBRANCH   7   8
ENDBRANCH   1   7
TORSDOF 3
ENDMDL
