MODEL 1
REMARK minimizedAffinity 3.00634074
REMARK minimizedRMSD -1
REMARK  3 active torsions:
REMARK  status: ('A' for Active; 'I' for Inactive)
REMARK    1  A    between atoms: C3'_2  and  C2'_3 
REMARK    2  A    between atoms: C2'_3  and  C1'_4 
REMARK    3  A    between atoms: C1'_4  and  C1_5 
ROOT
ATOM      1  C1  N4B d   1       3.341  -4.652  -1.931  0.00  0.00    -0.075 A 
ATOM      2  C2  N4B d   1       4.426  -4.615  -2.835  0.00  0.00     0.002 A 
ATOM      3  C3  N4B d   1       4.246  -4.121  -4.103  0.00  0.00     0.002 A 
ATOM      4  C4  N4B d   1       2.992  -3.677  -4.495  0.00  0.00    -0.004 A 
ATOM      5  C5  N4B d   1       1.956  -3.692  -3.608  0.00  0.00     0.002 A 
ATOM      6  C6  N4B d   1       2.123  -4.182  -2.329  0.00  0.00     0.002 A 
ENDROOT
BRANCH   1   7
ATOM      7  C1' N4B d   1       3.468  -5.262  -0.562  0.00  0.00     0.057 C 
BRANCH   7   8
ATOM      8  C2' N4B d   1       4.049  -4.226   0.396  0.00  0.00     0.009 C 
BRANCH   8   9
ATOM      9  C3' N4B d   1       5.496  -3.900   0.071  0.00  0.00     0.004 C 
ATOM     10  C4' N4B d   1       5.996  -2.688   0.799  0.00  0.00     0.003 C 
ENDBRANCH   8   9
ENDBRANCH   7   8
ENDBRANCH   1   7
TORSDOF 3
ENDMDL
