MODEL 1
REMARK minimizedAffinity -3.20035148
REMARK minimizedRMSD -1
REMARK  3 active torsions:
REMARK  status: ('A' for Active; 'I' for Inactive)
REMARK    1  A    between atoms: C3'_2  and  C2'_3 
REMARK    2  A    between atoms: C2'_3  and  C1'_4 
REMARK    3  A    between atoms: C1'_4  and  C1_5 
ROOT
ATOM      1  C1  N4B d   1       3.470  -3.893  -1.429  0.00  0.00    -0.075 A 
ATOM      2  C2  N4B d   1       2.539  -4.351  -2.387  0.00  0.00     0.002 A 
ATOM      3  C3  N4B d   1       2.980  -4.913  -3.560  0.00  0.00     0.002 A 
ATOM      4  C4  N4B d   1       4.342  -5.011  -3.804  0.00  0.00    -0.004 A 
ATOM      5  C5  N4B d   1       5.235  -4.590  -2.862  0.00  0.00     0.002 A 
ATOM      6  C6  N4B d   1       4.806  -4.027  -1.677  0.00  0.00     0.002 A 
ENDROOT
BRANCH   1   7
ATOM      7  C1' N4B d   1       3.036  -3.193  -0.171  0.00  0.00     0.057 C 
BRANCH   7   8
ATOM      8  C2' N4B d   1       3.048  -1.686  -0.406  0.00  0.00     0.009 C 
BRANCH   8   9
ATOM      9  C3' N4B d   1       2.618  -1.328  -1.818  0.00  0.00     0.004 C 
ATOM     10  C4' N4B d   1       2.348   0.138  -1.989  0.00  0.00     0.003 C 
ENDBRANCH   8   9
ENDBRANCH   7   8
ENDBRANCH   1   7
TORSDOF 3
ENDMDL
