MODEL 1
REMARK minimizedAffinity 0.204585388
REMARK minimizedRMSD -1
REMARK  3 active torsions:
REMARK  status: ('A' for Active; 'I' for Inactive)
REMARK    1  A    between atoms: C3'_2  and  C2'_3 
REMARK    2  A    between atoms: C2'_3  and  C1'_4 
REMARK    3  A    between atoms: C1'_4  and  C1_5 
ROOT
ATOM      1  C1  N4B d   1       2.811  -3.021  -1.705  0.00  0.00    -0.075 A 
ATOM      2  C2  N4B d   1       2.562  -2.792  -3.076  0.00  0.00     0.002 A 
ATOM      3  C3  N4B d   1       3.184  -3.565  -4.025  0.00  0.00     0.002 A 
ATOM      4  C4  N4B d   1       4.070  -4.556  -3.630  0.00  0.00    -0.004 A 
ATOM      5  C5  N4B d   1       4.285  -4.788  -2.303  0.00  0.00     0.002 A 
ATOM      6  C6  N4B d   1       3.664  -4.021  -1.338  0.00  0.00     0.002 A 
ENDROOT
BRANCH   1   7
ATOM      7  C1' N4B d   1       2.221  -2.146  -0.633  0.00  0.00     0.057 C 
BRANCH   7   8
ATOM      8  C2' N4B d   1       2.193  -0.701  -1.125  0.00  0.00     0.009 C 
BRANCH   8   9
ATOM      9  C3' N4B d   1       3.290   0.136  -0.490  0.00  0.00     0.004 C 
ATOM     10  C4' N4B d   1       3.417   1.495  -1.112  0.00  0.00     0.003 C 
ENDBRANCH   8   9
ENDBRANCH   7   8
ENDBRANCH   1   7
TORSDOF 3
ENDMDL
