MODEL 1
REMARK minimizedAffinity 6.01884985
REMARK minimizedRMSD -1
REMARK  3 active torsions:
REMARK  status: ('A' for Active; 'I' for Inactive)
REMARK    1  A    between atoms: C3'_2  and  C2'_3 
REMARK    2  A    between atoms: C2'_3  and  C1'_4 
REMARK    3  A    between atoms: C1'_4  and  C1_5 
ROOT
ATOM      1  C1  N4B d   1       3.190  -3.741  -2.112  0.00  0.00    -0.075 A 
ATOM      2  C2  N4B d   1       2.463  -3.216  -3.204  0.00  0.00     0.002 A 
ATOM      3  C3  N4B d   1       2.981  -3.293  -4.474  0.00  0.00     0.002 A 
ATOM      4  C4  N4B d   1       4.225  -3.872  -4.673  0.00  0.00    -0.004 A 
ATOM      5  C5  N4B d   1       4.909  -4.399  -3.617  0.00  0.00     0.002 A 
ATOM      6  C6  N4B d   1       4.399  -4.332  -2.336  0.00  0.00     0.002 A 
ENDROOT
BRANCH   1   7
ATOM      7  C1' N4B d   1       2.704  -3.603  -0.695  0.00  0.00     0.057 C 
BRANCH   7   8
ATOM      8  C2' N4B d   1       3.844  -3.944   0.260  0.00  0.00     0.009 C 
BRANCH   8   9
ATOM      9  C3' N4B d   1       4.553  -2.700   0.766  0.00  0.00     0.004 C 
ATOM     10  C4' N4B d   1       6.000  -2.656   0.373  0.00  0.00     0.003 C 
ENDBRANCH   8   9
ENDBRANCH   7   8
ENDBRANCH   1   7
TORSDOF 3
ENDMDL
