MODEL 1
REMARK minimizedAffinity 1.78499913
REMARK minimizedRMSD -1
REMARK  3 active torsions:
REMARK  status: ('A' for Active; 'I' for Inactive)
REMARK    1  A    between atoms: C3'_2  and  C2'_3 
REMARK    2  A    between atoms: C2'_3  and  C1'_4 
REMARK    3  A    between atoms: C1'_4  and  C1_5 
ROOT
ATOM      1  C1  N4B d   1       2.712  -2.080  -1.650  0.00  0.00    -0.075 A 
ATOM      2  C2  N4B d   1       2.982  -3.064  -0.674  0.00  0.00     0.002 A 
ATOM      3  C3  N4B d   1       3.426  -4.306  -1.056  0.00  0.00     0.002 A 
ATOM      4  C4  N4B d   1       3.590  -4.592  -2.403  0.00  0.00    -0.004 A 
ATOM      5  C5  N4B d   1       3.351  -3.628  -3.338  0.00  0.00     0.002 A 
ATOM      6  C6  N4B d   1       2.908  -2.374  -2.969  0.00  0.00     0.002 A 
ENDROOT
BRANCH   1   7
ATOM      7  C1' N4B d   1       2.143  -0.736  -1.287  0.00  0.00     0.057 C 
BRANCH   7   8
ATOM      8  C2' N4B d   1       2.780   0.333  -2.170  0.00  0.00     0.009 C 
BRANCH   8   9
ATOM      9  C3' N4B d   1       1.753   1.323  -2.693  0.00  0.00     0.004 C 
ATOM     10  C4' N4B d   1       1.658   2.561  -1.852  0.00  0.00     0.003 C 
ENDBRANCH   8   9
ENDBRANCH   7   8
ENDBRANCH   1   7
TORSDOF 3
ENDMDL
