MODEL 1
REMARK minimizedAffinity -0.374616116
REMARK minimizedRMSD -1
REMARK  3 active torsions:
REMARK  status: ('A' for Active; 'I' for Inactive)
REMARK    1  A    between atoms: C3'_2  and  C2'_3 
REMARK    2  A    between atoms: C2'_3  and  C1'_4 
REMARK    3  A    between atoms: C1'_4  and  C1_5 
ROOT
ATOM      1  C1  N4B d   1       3.128  -3.746  -2.747  0.00  0.00    -0.075 A 
ATOM      2  C2  N4B d   1       4.257  -4.082  -3.526  0.00  0.00     0.002 A 
ATOM      3  C3  N4B d   1       5.368  -4.623  -2.926  0.00  0.00     0.002 A 
ATOM      4  C4  N4B d   1       5.381  -4.818  -1.553  0.00  0.00    -0.004 A 
ATOM      5  C5  N4B d   1       4.276  -4.514  -0.812  0.00  0.00     0.002 A 
ATOM      6  C6  N4B d   1       3.151  -3.973  -1.402  0.00  0.00     0.002 A 
ENDROOT
BRANCH   1   7
ATOM      7  C1' N4B d   1       1.923  -3.073  -3.345  0.00  0.00     0.057 C 
BRANCH   7   8
ATOM      8  C2' N4B d   1       2.212  -1.584  -3.512  0.00  0.00     0.009 C 
BRANCH   8   9
ATOM      9  C3' N4B d   1       2.248  -0.859  -2.178  0.00  0.00     0.004 C 
ATOM     10  C4' N4B d   1       2.244   0.633  -2.327  0.00  0.00     0.003 C 
ENDBRANCH   8   9
ENDBRANCH   7   8
ENDBRANCH   1   7
TORSDOF 3
ENDMDL
