MODEL 1
REMARK minimizedAffinity -1.18715549
REMARK minimizedRMSD -1
REMARK  3 active torsions:
REMARK  status: ('A' for Active; 'I' for Inactive)
REMARK    1  A    between atoms: C3'_2  and  C2'_3 
REMARK    2  A    between atoms: C2'_3  and  C1'_4 
REMARK    3  A    between atoms: C1'_4  and  C1_5 
ROOT
ATOM      1  C1  N4B d   1      -1.947   1.234   4.935  0.00  0.00    -0.075 A 
ATOM      2  C2  N4B d   1      -3.050   0.627   4.295  0.00  0.00     0.002 A 
ATOM      3  C3  N4B d   1      -3.794   1.338   3.386  0.00  0.00     0.002 A 
ATOM      4  C4  N4B d   1      -3.467   2.659   3.116  0.00  0.00    -0.004 A 
ATOM      5  C5  N4B d   1      -2.385   3.230   3.719  0.00  0.00     0.002 A 
ATOM      6  C6  N4B d   1      -1.626   2.525   4.632  0.00  0.00     0.002 A 
ENDROOT
BRANCH   1   7
ATOM      7  C1' N4B d   1      -1.156   0.523   5.999  0.00  0.00     0.057 C 
BRANCH   7   8
ATOM      8  C2' N4B d   1      -0.129  -0.389   5.335  0.00  0.00     0.009 C 
BRANCH   8   9
ATOM      9  C3' N4B d   1      -0.597  -1.833   5.289  0.00  0.00     0.004 C 
ATOM     10  C4' N4B d   1      -0.961  -2.282   3.905  0.00  0.00     0.003 C 
ENDBRANCH   8   9
ENDBRANCH   7   8
ENDBRANCH   1   7
TORSDOF 3
ENDMDL
