MODEL 1
REMARK minimizedAffinity 0.722399116
REMARK minimizedRMSD -1
REMARK  3 active torsions:
REMARK  status: ('A' for Active; 'I' for Inactive)
REMARK    1  A    between atoms: C3'_2  and  C2'_3 
REMARK    2  A    between atoms: C2'_3  and  C1'_4 
REMARK    3  A    between atoms: C1'_4  and  C1_5 
ROOT
ATOM      1  C1  N4B d   1      -0.072   1.539   2.757  0.00  0.00    -0.075 A 
ATOM      2  C2  N4B d   1      -0.027   0.685   3.882  0.00  0.00     0.002 A 
ATOM      3  C3  N4B d   1      -1.142   0.527   4.668  0.00  0.00     0.002 A 
ATOM      4  C4  N4B d   1      -2.301   1.223   4.363  0.00  0.00    -0.004 A 
ATOM      5  C5  N4B d   1      -2.344   2.026   3.260  0.00  0.00     0.002 A 
ATOM      6  C6  N4B d   1      -1.233   2.191   2.458  0.00  0.00     0.002 A 
ENDROOT
BRANCH   1   7
ATOM      7  C1' N4B d   1       1.146   1.810   1.917  0.00  0.00     0.057 C 
BRANCH   7   8
ATOM      8  C2' N4B d   1       0.740   2.632   0.698  0.00  0.00     0.009 C 
BRANCH   8   9
ATOM      9  C3' N4B d   1       1.866   2.736  -0.318  0.00  0.00     0.004 C 
ATOM     10  C4' N4B d   1       1.455   2.287  -1.688  0.00  0.00     0.003 C 
ENDBRANCH   8   9
ENDBRANCH   7   8
ENDBRANCH   1   7
TORSDOF 3
ENDMDL
