MODEL 1
REMARK minimizedAffinity 1.4427681
REMARK minimizedRMSD -1
REMARK  3 active torsions:
REMARK  status: ('A' for Active; 'I' for Inactive)
REMARK    1  A    between atoms: C3'_2  and  C2'_3 
REMARK    2  A    between atoms: C2'_3  and  C1'_4 
REMARK    3  A    between atoms: C1'_4  and  C1_5 
ROOT
ATOM      1  C1  N4B d   1      -2.198   0.034   3.481  0.00  0.00    -0.075 A 
ATOM      2  C2  N4B d   1      -2.131   1.428   3.262  0.00  0.00     0.002 A 
ATOM      3  C3  N4B d   1      -3.173   2.077   2.646  0.00  0.00     0.002 A 
ATOM      4  C4  N4B d   1      -4.279   1.354   2.225  0.00  0.00    -0.004 A 
ATOM      5  C5  N4B d   1      -4.347   0.013   2.463  0.00  0.00     0.002 A 
ATOM      6  C6  N4B d   1      -3.309  -0.652   3.085  0.00  0.00     0.002 A 
ENDROOT
BRANCH   1   7
ATOM      7  C1' N4B d   1      -1.048  -0.733   4.073  0.00  0.00     0.057 C 
BRANCH   7   8
ATOM      8  C2' N4B d   1      -1.083  -2.168   3.555  0.00  0.00     0.009 C 
BRANCH   8   9
ATOM      9  C3' N4B d   1      -1.615  -3.136   4.598  0.00  0.00     0.004 C 
ATOM     10  C4' N4B d   1      -2.673  -4.050   4.056  0.00  0.00     0.003 C 
ENDBRANCH   8   9
ENDBRANCH   7   8
ENDBRANCH   1   7
TORSDOF 3
ENDMDL
