MODEL 1
REMARK minimizedAffinity 9.44765854
REMARK minimizedRMSD -1
REMARK  0 active torsions:
REMARK  status: ('A' for Active; 'I' for Inactive)
ROOT
ATOM      1  C   UNL d   1      -3.142  -1.416   1.109  0.00  0.00     0.077 C 
ATOM      2  C1  UNL d   1      -1.759  -1.219   0.562  0.00  0.00    -0.074 A 
ATOM      3  C2  UNL d   1      -1.488  -1.421  -0.795  0.00  0.00    -0.005 A 
ATOM      4  C3  UNL d   1      -0.200  -1.224  -1.292  0.00  0.00     0.006 A 
ATOM      5  C4  UNL d   1       0.829  -0.825  -0.438  0.00  0.00    -0.005 A 
ATOM      6  C5  UNL d   1       0.577  -0.618   0.922  0.00  0.00    -0.074 A 
ATOM      7  C6  UNL d   1       1.669  -0.179   1.852  0.00  0.00     0.077 C 
ATOM      8  C7  UNL d   1      -0.722  -0.811   1.412  0.00  0.00    -0.001 A 
ENDROOT
TORSDOF 0
ENDMDL
