MODEL 1
REMARK minimizedAffinity 1.67299616
REMARK minimizedRMSD -1
REMARK  0 active torsions:
REMARK  status: ('A' for Active; 'I' for Inactive)
ROOT
ATOM      1  C   UNL d   1       2.172  -5.245   4.499  0.00  0.00     0.077 C 
ATOM      2  C1  UNL d   1       0.809  -4.892   5.016  0.00  0.00    -0.074 A 
ATOM      3  C2  UNL d   1      -0.140  -5.886   5.278  0.00  0.00    -0.005 A 
ATOM      4  C3  UNL d   1      -1.400  -5.543   5.768  0.00  0.00     0.006 A 
ATOM      5  C4  UNL d   1      -1.724  -4.206   6.000  0.00  0.00    -0.005 A 
ATOM      6  C5  UNL d   1      -0.788  -3.199   5.745  0.00  0.00    -0.074 A 
ATOM      7  C6  UNL d   1      -1.117  -1.757   5.998  0.00  0.00     0.077 C 
ATOM      8  C7  UNL d   1       0.479  -3.551   5.260  0.00  0.00    -0.001 A 
ENDROOT
TORSDOF 0
ENDMDL
