MODEL 1
REMARK minimizedAffinity 7.66350746
REMARK minimizedRMSD -1
REMARK  0 active torsions:
REMARK  status: ('A' for Active; 'I' for Inactive)
ROOT
ATOM      1  C   UNL d   1       2.974  -3.267  -1.596  0.00  0.00     0.077 C 
ATOM      2  C1  UNL d   1       1.681  -2.529  -1.415  0.00  0.00    -0.074 A 
ATOM      3  C2  UNL d   1       0.472  -3.077  -1.854  0.00  0.00    -0.005 A 
ATOM      4  C3  UNL d   1      -0.723  -2.383  -1.670  0.00  0.00     0.006 A 
ATOM      5  C4  UNL d   1      -0.722  -1.134  -1.046  0.00  0.00    -0.005 A 
ATOM      6  C5  UNL d   1       0.477  -0.570  -0.600  0.00  0.00    -0.074 A 
ATOM      7  C6  UNL d   1       0.495   0.766   0.081  0.00  0.00     0.077 C 
ATOM      8  C7  UNL d   1       1.674  -1.277  -0.782  0.00  0.00    -0.001 A 
ENDROOT
TORSDOF 0
ENDMDL
