MODEL 1
REMARK minimizedAffinity 10.7587223
REMARK minimizedRMSD -1
REMARK  0 active torsions:
REMARK  status: ('A' for Active; 'I' for Inactive)
ROOT
ATOM      1  C   UNL d   1      -6.000  -0.387  -3.108  0.00  0.00     0.077 C 
ATOM      2  C1  UNL d   1      -5.111  -0.398  -1.900  0.00  0.00    -0.074 A 
ATOM      3  C2  UNL d   1      -5.652  -0.398  -0.610  0.00  0.00    -0.005 A 
ATOM      4  C3  UNL d   1      -4.813  -0.419   0.504  0.00  0.00     0.006 A 
ATOM      5  C4  UNL d   1      -3.427  -0.439   0.339  0.00  0.00    -0.005 A 
ATOM      6  C5  UNL d   1      -2.869  -0.441  -0.943  0.00  0.00    -0.074 A 
ATOM      7  C6  UNL d   1      -1.382  -0.472  -1.137  0.00  0.00     0.077 C 
ATOM      8  C7  UNL d   1      -3.718  -0.427  -2.057  0.00  0.00    -0.001 A 
ENDROOT
TORSDOF 0
ENDMDL
