MODEL 1
REMARK minimizedAffinity 3.69846511
REMARK minimizedRMSD -1
REMARK  0 active torsions:
REMARK  status: ('A' for Active; 'I' for Inactive)
ROOT
ATOM      1  C   UNL d   1      -4.096  -0.704   0.682  0.00  0.00     0.077 C 
ATOM      2  C1  UNL d   1      -2.608  -0.614   0.514  0.00  0.00    -0.074 A 
ATOM      3  C2  UNL d   1      -2.020  -0.722  -0.751  0.00  0.00    -0.005 A 
ATOM      4  C3  UNL d   1      -0.636  -0.626  -0.893  0.00  0.00     0.006 A 
ATOM      5  C4  UNL d   1       0.173  -0.422   0.226  0.00  0.00    -0.005 A 
ATOM      6  C5  UNL d   1      -0.398  -0.310   1.498  0.00  0.00    -0.074 A 
ATOM      7  C6  UNL d   1       0.456  -0.079   2.709  0.00  0.00     0.077 C 
ATOM      8  C7  UNL d   1      -1.790  -0.400   1.632  0.00  0.00    -0.001 A 
ENDROOT
TORSDOF 0
ENDMDL
