MODEL 1
REMARK minimizedAffinity 16.0314445
REMARK minimizedRMSD -1
REMARK  0 active torsions:
REMARK  status: ('A' for Active; 'I' for Inactive)
ROOT
ATOM      1  C   UNL d   1      -2.588  -5.999   5.978  0.00  0.00     0.077 C 
ATOM      2  C1  UNL d   1      -1.267  -5.307   5.813  0.00  0.00    -0.074 A 
ATOM      3  C2  UNL d   1      -0.066  -5.999   5.997  0.00  0.00    -0.005 A 
ATOM      4  C3  UNL d   1       1.155  -5.344   5.831  0.00  0.00     0.006 A 
ATOM      5  C4  UNL d   1       1.186  -3.994   5.479  0.00  0.00    -0.005 A 
ATOM      6  C5  UNL d   1      -0.006  -3.287   5.290  0.00  0.00    -0.074 A 
ATOM      7  C6  UNL d   1       0.010  -1.838   4.903  0.00  0.00     0.077 C 
ATOM      8  C7  UNL d   1      -1.228  -3.953   5.452  0.00  0.00    -0.001 A 
ENDROOT
TORSDOF 0
ENDMDL
