MODEL 1
REMARK minimizedAffinity 7.95004511
REMARK minimizedRMSD -1
REMARK  0 active torsions:
REMARK  status: ('A' for Active; 'I' for Inactive)
ROOT
ATOM      1  C   UNL d   1       3.123  -3.076  -2.188  0.00  0.00     0.077 C 
ATOM      2  C1  UNL d   1       1.908  -2.372  -1.662  0.00  0.00    -0.074 A 
ATOM      3  C2  UNL d   1       0.643  -2.617  -2.206  0.00  0.00    -0.005 A 
ATOM      4  C3  UNL d   1      -0.479  -1.962  -1.699  0.00  0.00     0.006 A 
ATOM      5  C4  UNL d   1      -0.349  -1.057  -0.645  0.00  0.00    -0.005 A 
ATOM      6  C5  UNL d   1       0.908  -0.800  -0.087  0.00  0.00    -0.074 A 
ATOM      7  C6  UNL d   1       1.064   0.162   1.053  0.00  0.00     0.077 C 
ATOM      8  C7  UNL d   1       2.030  -1.468  -0.597  0.00  0.00    -0.001 A 
ENDROOT
TORSDOF 0
ENDMDL
