MODEL 1
REMARK minimizedAffinity 4.21673775
REMARK minimizedRMSD -1
REMARK  0 active torsions:
REMARK  status: ('A' for Active; 'I' for Inactive)
ROOT
ATOM      1  C   UNL d   1      -1.077  -2.831  -2.234  0.00  0.00     0.077 C 
ATOM      2  C1  UNL d   1      -0.626  -1.564  -1.570  0.00  0.00    -0.074 A 
ATOM      3  C2  UNL d   1      -1.200  -0.333  -1.904  0.00  0.00    -0.005 A 
ATOM      4  C3  UNL d   1      -0.777   0.835  -1.271  0.00  0.00     0.006 A 
ATOM      5  C4  UNL d   1       0.223   0.785  -0.299  0.00  0.00    -0.005 A 
ATOM      6  C5  UNL d   1       0.808  -0.436   0.049  0.00  0.00    -0.074 A 
ATOM      7  C6  UNL d   1       1.877  -0.509   1.099  0.00  0.00     0.077 C 
ATOM      8  C7  UNL d   1       0.372  -1.607  -0.586  0.00  0.00    -0.001 A 
ENDROOT
TORSDOF 0
ENDMDL
