MODEL 1
REMARK minimizedAffinity 12.2278605
REMARK minimizedRMSD -1
REMARK  0 active torsions:
REMARK  status: ('A' for Active; 'I' for Inactive)
ROOT
ATOM      1  C   UNL d   1       2.444  -3.198  -1.834  0.00  0.00     0.077 C 
ATOM      2  C1  UNL d   1       1.225  -2.470  -1.349  0.00  0.00    -0.074 A 
ATOM      3  C2  UNL d   1      -0.040  -3.063  -1.416  0.00  0.00    -0.005 A 
ATOM      4  C3  UNL d   1      -1.163  -2.377  -0.952  0.00  0.00     0.006 A 
ATOM      5  C4  UNL d   1      -1.032  -1.095  -0.418  0.00  0.00    -0.005 A 
ATOM      6  C5  UNL d   1       0.225  -0.487  -0.343  0.00  0.00    -0.074 A 
ATOM      7  C6  UNL d   1       0.384   0.887   0.237  0.00  0.00     0.077 C 
ATOM      8  C7  UNL d   1       1.349  -1.185  -0.804  0.00  0.00    -0.001 A 
ENDROOT
TORSDOF 0
ENDMDL
