MODEL 1
REMARK minimizedAffinity -1.86151004
REMARK minimizedRMSD -1
REMARK  0 active torsions:
REMARK  status: ('A' for Active; 'I' for Inactive)
ROOT
ATOM      1  C   UNL d   1      -1.707   0.594   0.454  0.00  0.00     0.124 A 
ATOM      2  C1  UNL d   1      -1.557   1.165   1.710  0.00  0.00     0.062 A 
ATOM      3  C2  UNL d   1      -0.480   0.808   2.516  0.00  0.00     0.162 A 
ATOM      4  C3  UNL d   1       0.455  -0.125   2.069  0.00  0.00    -0.034 A 
ATOM      5  C4  UNL d   1       0.296  -0.696   0.805  0.00  0.00     0.162 A 
ATOM      6  C5  UNL d   1      -0.781  -0.335   0.003  0.00  0.00     0.062 A 
ATOM      7  F   UNL d   1      -0.925  -0.888  -1.211  0.00  0.00    -0.097 F 
ATOM      8  F1  UNL d   1       1.177  -1.596   0.344  0.00  0.00    -0.096 F 
ATOM      9  I   UNL d   1       2.066  -0.662   3.272  0.00  0.00    -0.060 I 
ATOM     10  F2  UNL d   1      -0.359   1.376   3.726  0.00  0.00    -0.096 F 
ATOM     11  F3  UNL d   1      -2.451   2.063   2.148  0.00  0.00    -0.097 F 
ATOM     12  F4  UNL d   1      -2.745   0.939  -0.320  0.00  0.00    -0.092 F 
ENDROOT
TORSDOF 0
ENDMDL
