MODEL 1
REMARK minimizedAffinity -3.37197328
REMARK minimizedRMSD -1
REMARK  0 active torsions:
REMARK  status: ('A' for Active; 'I' for Inactive)
ROOT
ATOM      1  C   UNL d   1      -0.085  -0.003   2.909  0.00  0.00     0.124 A 
ATOM      2  C1  UNL d   1      -1.136   0.191   2.023  0.00  0.00     0.062 A 
ATOM      3  C2  UNL d   1      -0.929   0.063   0.653  0.00  0.00     0.162 A 
ATOM      4  C3  UNL d   1       0.335  -0.262   0.159  0.00  0.00    -0.034 A 
ATOM      5  C4  UNL d   1       1.387  -0.454   1.057  0.00  0.00     0.162 A 
ATOM      6  C5  UNL d   1       1.175  -0.325   2.425  0.00  0.00     0.062 A 
ATOM      7  F   UNL d   1       2.191  -0.512   3.280  0.00  0.00    -0.097 F 
ATOM      8  F1  UNL d   1       2.615  -0.767   0.616  0.00  0.00    -0.096 F 
ATOM      9  I   UNL d   1       0.648  -0.454  -1.889  0.00  0.00    -0.060 I 
ATOM     10  F2  UNL d   1      -1.963   0.255  -0.180  0.00  0.00    -0.096 F 
ATOM     11  F3  UNL d   1      -2.354   0.503   2.489  0.00  0.00    -0.097 F 
ATOM     12  F4  UNL d   1      -0.287   0.122   4.227  0.00  0.00    -0.092 F 
ENDROOT
TORSDOF 0
ENDMDL
