MODEL 1
REMARK minimizedAffinity -3.4852314
REMARK minimizedRMSD -1
REMARK  0 active torsions:
REMARK  status: ('A' for Active; 'I' for Inactive)
ROOT
ATOM      1  C   UNL d   1       0.137   0.245   2.732  0.00  0.00     0.124 A 
ATOM      2  C1  UNL d   1      -0.877   0.748   1.928  0.00  0.00     0.062 A 
ATOM      3  C2  UNL d   1      -0.860   0.520   0.555  0.00  0.00     0.162 A 
ATOM      4  C3  UNL d   1       0.174  -0.215  -0.023  0.00  0.00    -0.034 A 
ATOM      5  C4  UNL d   1       1.191  -0.717   0.791  0.00  0.00     0.162 A 
ATOM      6  C5  UNL d   1       1.169  -0.487   2.163  0.00  0.00     0.062 A 
ATOM      7  F   UNL d   1       2.149  -0.974   2.938  0.00  0.00    -0.097 F 
ATOM      8  F1  UNL d   1       2.200  -1.429   0.268  0.00  0.00    -0.096 F 
ATOM      9  I   UNL d   1       0.203  -0.558  -2.076  0.00  0.00    -0.060 I 
ATOM     10  F2  UNL d   1      -1.853   1.019  -0.197  0.00  0.00    -0.096 F 
ATOM     11  F3  UNL d   1      -1.875   1.456   2.476  0.00  0.00    -0.097 F 
ATOM     12  F4  UNL d   1       0.118   0.466   4.053  0.00  0.00    -0.092 F 
ENDROOT
TORSDOF 0
ENDMDL
