MODEL 1
REMARK minimizedAffinity -2.39986706
REMARK minimizedRMSD -1
REMARK  0 active torsions:
REMARK  status: ('A' for Active; 'I' for Inactive)
ROOT
ATOM      1  C   UNL d   1      -0.526  -0.244   2.483  0.00  0.00     0.124 A 
ATOM      2  C1  UNL d   1      -1.485   0.155   1.562  0.00  0.00     0.062 A 
ATOM      3  C2  UNL d   1      -1.213   0.097   0.198  0.00  0.00     0.162 A 
ATOM      4  C3  UNL d   1       0.024  -0.363  -0.254  0.00  0.00    -0.034 A 
ATOM      5  C4  UNL d   1       0.984  -0.761   0.678  0.00  0.00     0.162 A 
ATOM      6  C5  UNL d   1       0.707  -0.702   2.040  0.00  0.00     0.062 A 
ATOM      7  F   UNL d   1       1.635  -1.088   2.928  0.00  0.00    -0.097 F 
ATOM      8  F1  UNL d   1       2.183  -1.208   0.278  0.00  0.00    -0.096 F 
ATOM      9  I   UNL d   1       0.435  -0.450  -2.292  0.00  0.00    -0.060 I 
ATOM     10  F2  UNL d   1      -2.158   0.489  -0.669  0.00  0.00    -0.096 F 
ATOM     11  F3  UNL d   1      -2.677   0.598   1.987  0.00  0.00    -0.097 F 
ATOM     12  F4  UNL d   1      -0.790  -0.187   3.794  0.00  0.00    -0.092 F 
ENDROOT
TORSDOF 0
ENDMDL
