MODEL 1
REMARK minimizedAffinity -4.14852667
REMARK minimizedRMSD -1
REMARK  0 active torsions:
REMARK  status: ('A' for Active; 'I' for Inactive)
ROOT
ATOM      1  C   UNL d   1       0.231   0.579   3.107  0.00  0.00     0.124 A 
ATOM      2  C1  UNL d   1      -0.705   1.058   2.201  0.00  0.00     0.062 A 
ATOM      3  C2  UNL d   1      -0.599   0.739   0.850  0.00  0.00     0.162 A 
ATOM      4  C3  UNL d   1       0.447  -0.065   0.397  0.00  0.00    -0.034 A 
ATOM      5  C4  UNL d   1       1.385  -0.543   1.314  0.00  0.00     0.162 A 
ATOM      6  C5  UNL d   1       1.275  -0.221   2.663  0.00  0.00     0.062 A 
ATOM      7  F   UNL d   1       2.180  -0.684   3.537  0.00  0.00    -0.097 F 
ATOM      8  F1  UNL d   1       2.403  -1.318   0.913  0.00  0.00    -0.096 F 
ATOM      9  I   UNL d   1       0.609  -0.545  -1.621  0.00  0.00    -0.060 I 
ATOM     10  F2  UNL d   1      -1.517   1.216  -0.003  0.00  0.00    -0.096 F 
ATOM     11  F3  UNL d   1      -1.714   1.832   2.627  0.00  0.00    -0.097 F 
ATOM     12  F4  UNL d   1       0.127   0.889   4.406  0.00  0.00    -0.092 F 
ENDROOT
TORSDOF 0
ENDMDL
