MODEL 1
REMARK minimizedAffinity -2.10972953
REMARK minimizedRMSD -1
REMARK  0 active torsions:
REMARK  status: ('A' for Active; 'I' for Inactive)
ROOT
ATOM      1  N1  IND d   1      -0.812  -1.128   1.785  0.00  0.00    -0.196 N 
ATOM      2  C2  IND d   1      -1.007  -2.447   1.485  0.00  0.00     0.054 A 
ATOM      3  C3  IND d   1      -0.809  -2.664   0.166  0.00  0.00    -0.031 A 
ATOM      4  C4  IND d   1      -0.059  -1.020  -1.667  0.00  0.00     0.051 A 
ATOM      5  C5  IND d   1       0.207   0.303  -1.885  0.00  0.00    -0.031 A 
ATOM      6  C6  IND d   1       0.149   1.235  -0.868  0.00  0.00     0.015 A 
ATOM      7  C7  IND d   1      -0.168   0.875   0.411  0.00  0.00    -0.016 A 
ATOM      8  C8  IND d   1      -0.446  -0.466   0.633  0.00  0.00    -0.047 A 
ATOM      9  C9  IND d   1      -0.431  -1.409  -0.402  0.00  0.00    -0.096 A 
ATOM     10  HN1 IND d   1      -0.903  -0.771   2.562  0.00  0.00     0.298 HD
ENDROOT
TORSDOF 0
ENDMDL
