MODEL 1
REMARK minimizedAffinity -4.21660948
REMARK minimizedRMSD -1
REMARK  0 active torsions:
REMARK  status: ('A' for Active; 'I' for Inactive)
ROOT
ATOM      1  N1  IND d   1       0.460   0.266  -1.176  0.00  0.00    -0.196 N 
ATOM      2  C2  IND d   1      -0.126   1.372  -0.626  0.00  0.00     0.054 A 
ATOM      3  C3  IND d   1      -0.779   1.041   0.510  0.00  0.00    -0.031 A 
ATOM      4  C4  IND d   1      -0.934  -1.234   1.705  0.00  0.00     0.051 A 
ATOM      5  C5  IND d   1      -0.592  -2.550   1.565  0.00  0.00    -0.031 A 
ATOM      6  C6  IND d   1       0.135  -3.003   0.484  0.00  0.00     0.015 A 
ATOM      7  C7  IND d   1       0.559  -2.151  -0.497  0.00  0.00    -0.016 A 
ATOM      8  C8  IND d   1       0.208  -0.815  -0.362  0.00  0.00    -0.047 A 
ATOM      9  C9  IND d   1      -0.567  -0.357   0.712  0.00  0.00    -0.096 A 
ATOM     10  HN1 IND d   1       0.910   0.249  -1.909  0.00  0.00     0.298 HD
ENDROOT
TORSDOF 0
ENDMDL
