MODEL 1
REMARK minimizedAffinity -2.30576921
REMARK minimizedRMSD -1
REMARK  0 active torsions:
REMARK  status: ('A' for Active; 'I' for Inactive)
ROOT
ATOM      1  N1  IND d   1       0.135  -0.145  -0.605  0.00  0.00    -0.196 N 
ATOM      2  C2  IND d   1       1.419   0.019  -1.045  0.00  0.00     0.054 A 
ATOM      3  C3  IND d   1       2.027  -1.181  -1.176  0.00  0.00    -0.031 A 
ATOM      4  C4  IND d   1       1.074  -3.546  -0.822  0.00  0.00     0.051 A 
ATOM      5  C5  IND d   1      -0.041  -4.204  -0.385  0.00  0.00    -0.031 A 
ATOM      6  C6  IND d   1      -1.179  -3.528   0.006  0.00  0.00     0.015 A 
ATOM      7  C7  IND d   1      -1.248  -2.164  -0.036  0.00  0.00    -0.016 A 
ATOM      8  C8  IND d   1      -0.115  -1.493  -0.472  0.00  0.00    -0.047 A 
ATOM      9  C9  IND d   1       1.058  -2.171  -0.830  0.00  0.00    -0.096 A 
ATOM     10  HN1 IND d   1      -0.423   0.488  -0.439  0.00  0.00     0.298 HD
ENDROOT
TORSDOF 0
ENDMDL
