MODEL 1
REMARK minimizedAffinity -2.64596367
REMARK minimizedRMSD -1
REMARK  0 active torsions:
REMARK  status: ('A' for Active; 'I' for Inactive)
ROOT
ATOM      1  N1  IND d   1      -1.663   0.210   0.405  0.00  0.00    -0.196 N 
ATOM      2  C2  IND d   1      -2.183  -0.167   1.612  0.00  0.00     0.054 A 
ATOM      3  C3  IND d   1      -1.644  -1.341   2.009  0.00  0.00    -0.031 A 
ATOM      4  C4  IND d   1       0.181  -2.768   0.885  0.00  0.00     0.051 A 
ATOM      5  C5  IND d   1       0.936  -2.851  -0.251  0.00  0.00    -0.031 A 
ATOM      6  C6  IND d   1       0.863  -1.897  -1.246  0.00  0.00     0.015 A 
ATOM      7  C7  IND d   1       0.038  -0.814  -1.135  0.00  0.00    -0.016 A 
ATOM      8  C8  IND d   1      -0.735  -0.730   0.014  0.00  0.00    -0.047 A 
ATOM      9  C9  IND d   1      -0.697  -1.717   1.007  0.00  0.00    -0.096 A 
ATOM     10  HN1 IND d   1      -1.880   0.916  -0.036  0.00  0.00     0.298 HD
ENDROOT
TORSDOF 0
ENDMDL
