MODEL 1
REMARK minimizedAffinity -0.808523953
REMARK minimizedRMSD -1
REMARK  0 active torsions:
REMARK  status: ('A' for Active; 'I' for Inactive)
ROOT
ATOM      1  N1  IND d   1      -0.447   1.450  -1.244  0.00  0.00    -0.196 N 
ATOM      2  C2  IND d   1      -0.580   1.682   0.096  0.00  0.00     0.054 A 
ATOM      3  C3  IND d   1      -0.151   0.613   0.804  0.00  0.00    -0.031 A 
ATOM      4  C4  IND d   1       0.903  -1.583  -0.030  0.00  0.00     0.051 A 
ATOM      5  C5  IND d   1       1.197  -2.271  -1.174  0.00  0.00    -0.031 A 
ATOM      6  C6  IND d   1       0.956  -1.741  -2.425  0.00  0.00     0.015 A 
ATOM      7  C7  IND d   1       0.420  -0.494  -2.580  0.00  0.00    -0.016 A 
ATOM      8  C8  IND d   1       0.113   0.204  -1.420  0.00  0.00    -0.047 A 
ATOM      9  C9  IND d   1       0.316  -0.345  -0.148  0.00  0.00    -0.096 A 
ATOM     10  HN1 IND d   1      -0.675   1.992  -1.872  0.00  0.00     0.298 HD
ENDROOT
TORSDOF 0
ENDMDL
