MODEL 1
REMARK minimizedAffinity -3.76612473
REMARK minimizedRMSD -1
REMARK  0 active torsions:
REMARK  status: ('A' for Active; 'I' for Inactive)
ROOT
ATOM      1  N1  IND d   1      -0.152   1.324  -0.577  0.00  0.00    -0.196 N 
ATOM      2  C2  IND d   1       0.213   0.555  -1.647  0.00  0.00     0.054 A 
ATOM      3  C3  IND d   1      -0.000  -0.753  -1.381  0.00  0.00    -0.031 A 
ATOM      4  C4  IND d   1      -1.035  -1.850   0.705  0.00  0.00     0.051 A 
ATOM      5  C5  IND d   1      -1.490  -1.560   1.961  0.00  0.00    -0.031 A 
ATOM      6  C6  IND d   1      -1.525  -0.268   2.444  0.00  0.00     0.015 A 
ATOM      7  C7  IND d   1      -1.115   0.789   1.681  0.00  0.00    -0.016 A 
ATOM      8  C8  IND d   1      -0.647   0.498   0.408  0.00  0.00    -0.047 A 
ATOM      9  C9  IND d   1      -0.569  -0.816  -0.072  0.00  0.00    -0.096 A 
ATOM     10  HN1 IND d   1      -0.083   2.180  -0.527  0.00  0.00     0.298 HD
ENDROOT
TORSDOF 0
ENDMDL
