MODEL 1
REMARK minimizedAffinity -2.88551998
REMARK minimizedRMSD -1
REMARK  0 active torsions:
REMARK  status: ('A' for Active; 'I' for Inactive)
ROOT
ATOM      1  N1  IND d   1      -0.636  -2.458   1.116  0.00  0.00    -0.196 N 
ATOM      2  C2  IND d   1       0.210  -3.315   0.468  0.00  0.00     0.054 A 
ATOM      3  C3  IND d   1       0.913  -2.655  -0.479  0.00  0.00    -0.031 A 
ATOM      4  C4  IND d   1       0.912  -0.149  -1.068  0.00  0.00     0.051 A 
ATOM      5  C5  IND d   1       0.279   1.026  -0.774  0.00  0.00    -0.031 A 
ATOM      6  C6  IND d   1      -0.710   1.102   0.186  0.00  0.00     0.015 A 
ATOM      7  C7  IND d   1      -1.096   0.003   0.899  0.00  0.00    -0.016 A 
ATOM      8  C8  IND d   1      -0.460  -1.194   0.598  0.00  0.00    -0.047 A 
ATOM      9  C9  IND d   1       0.514  -1.285  -0.404  0.00  0.00    -0.096 A 
ATOM     10  HN1 IND d   1      -1.186  -2.673   1.741  0.00  0.00     0.298 HD
ENDROOT
TORSDOF 0
ENDMDL
