MODEL 1
REMARK minimizedAffinity -2.14358664
REMARK minimizedRMSD -1
REMARK  0 active torsions:
REMARK  status: ('A' for Active; 'I' for Inactive)
ROOT
ATOM      1  N1  IND d   1       1.071   0.552  -0.653  0.00  0.00    -0.196 N 
ATOM      2  C2  IND d   1       0.639   1.669   0.007  0.00  0.00     0.054 A 
ATOM      3  C3  IND d   1      -0.187   1.327   1.021  0.00  0.00    -0.031 A 
ATOM      4  C4  IND d   1      -0.888  -1.011   1.841  0.00  0.00     0.051 A 
ATOM      5  C5  IND d   1      -0.779  -2.338   1.533  0.00  0.00    -0.031 A 
ATOM      6  C6  IND d   1      -0.030  -2.779   0.461  0.00  0.00     0.015 A 
ATOM      7  C7  IND d   1       0.650  -1.905  -0.340  0.00  0.00    -0.016 A 
ATOM      8  C8  IND d   1       0.535  -0.556  -0.035  0.00  0.00    -0.047 A 
ATOM      9  C9  IND d   1      -0.258  -0.100   1.026  0.00  0.00    -0.096 A 
ATOM     10  HN1 IND d   1       1.590   0.544  -1.338  0.00  0.00     0.298 HD
ENDROOT
TORSDOF 0
ENDMDL
