MODEL 1
REMARK minimizedAffinity -0.424870253
REMARK minimizedRMSD -1
REMARK  0 active torsions:
REMARK  status: ('A' for Active; 'I' for Inactive)
ROOT
ATOM      1  N1  IND d   1      -0.357   0.884   1.178  0.00  0.00    -0.196 N 
ATOM      2  C2  IND d   1       0.707   1.449   0.532  0.00  0.00     0.054 A 
ATOM      3  C3  IND d   1       1.410   0.505  -0.132  0.00  0.00    -0.031 A 
ATOM      4  C4  IND d   1       0.937  -2.014  -0.381  0.00  0.00     0.051 A 
ATOM      5  C5  IND d   1       0.100  -3.001   0.057  0.00  0.00    -0.031 A 
ATOM      6  C6  IND d   1      -0.956  -2.738   0.906  0.00  0.00     0.015 A 
ATOM      7  C7  IND d   1      -1.221  -1.470   1.342  0.00  0.00    -0.016 A 
ATOM      8  C8  IND d   1      -0.368  -0.466   0.904  0.00  0.00    -0.047 A 
ATOM      9  C9  IND d   1       0.730  -0.734   0.077  0.00  0.00    -0.096 A 
ATOM     10  HN1 IND d   1      -0.924   1.301   1.672  0.00  0.00     0.298 HD
ENDROOT
TORSDOF 0
ENDMDL
