MODEL 1
REMARK minimizedAffinity -4.56904697
REMARK minimizedRMSD -1
REMARK  0 active torsions:
REMARK  status: ('A' for Active; 'I' for Inactive)
ROOT
ATOM      1  N1  IND d   1      -0.590   0.591  -1.659  0.00  0.00    -0.196 N 
ATOM      2  C2  IND d   1       0.057   0.094  -2.755  0.00  0.00     0.054 A 
ATOM      3  C3  IND d   1       0.657  -1.081  -2.455  0.00  0.00    -0.031 A 
ATOM      4  C4  IND d   1       0.619  -2.420  -0.257  0.00  0.00     0.051 A 
ATOM      5  C5  IND d   1       0.189  -2.353   1.039  0.00  0.00    -0.031 A 
ATOM      6  C6  IND d   1      -0.540  -1.280   1.510  0.00  0.00     0.015 A 
ATOM      7  C7  IND d   1      -0.877  -0.236   0.697  0.00  0.00    -0.016 A 
ATOM      8  C8  IND d   1      -0.436  -0.297  -0.618  0.00  0.00    -0.047 A 
ATOM      9  C9  IND d   1       0.341  -1.363  -1.090  0.00  0.00    -0.096 A 
ATOM     10  HN1 IND d   1      -1.021   1.334  -1.625  0.00  0.00     0.298 HD
ENDROOT
TORSDOF 0
ENDMDL
