MODEL 1
REMARK minimizedAffinity -5.56855059
REMARK minimizedRMSD -1
REMARK  0 active torsions:
REMARK  status: ('A' for Active; 'I' for Inactive)
ROOT
ATOM      1  N1  IND d   1       0.387  -0.057  -1.882  0.00  0.00    -0.196 N 
ATOM      2  C2  IND d   1       0.232   1.200  -1.369  0.00  0.00     0.054 A 
ATOM      3  C3  IND d   1      -0.167   1.136  -0.079  0.00  0.00    -0.031 A 
ATOM      4  C4  IND d   1      -0.529  -0.925   1.420  0.00  0.00     0.051 A 
ATOM      5  C5  IND d   1      -0.546  -2.292   1.387  0.00  0.00    -0.031 A 
ATOM      6  C6  IND d   1      -0.244  -2.997   0.240  0.00  0.00     0.015 A 
ATOM      7  C7  IND d   1       0.099  -2.360  -0.918  0.00  0.00    -0.016 A 
ATOM      8  C8  IND d   1       0.110  -0.972  -0.891  0.00  0.00    -0.047 A 
ATOM      9  C9  IND d   1      -0.237  -0.250   0.258  0.00  0.00    -0.096 A 
ATOM     10  HN1 IND d   1       0.618  -0.245  -2.689  0.00  0.00     0.298 HD
ENDROOT
TORSDOF 0
ENDMDL
