MODEL 1
REMARK minimizedAffinity -2.76136851
REMARK minimizedRMSD -1
REMARK  0 active torsions:
REMARK  status: ('A' for Active; 'I' for Inactive)
ROOT
ATOM      1  N1  IND d   1      -0.580   0.819   1.064  0.00  0.00    -0.196 N 
ATOM      2  C2  IND d   1       0.232   1.598   0.288  0.00  0.00     0.054 A 
ATOM      3  C3  IND d   1       0.854   0.844  -0.646  0.00  0.00    -0.031 A 
ATOM      4  C4  IND d   1       0.610  -1.669  -1.148  0.00  0.00     0.051 A 
ATOM      5  C5  IND d   1       0.011  -2.807  -0.683  0.00  0.00    -0.031 A 
ATOM      6  C6  IND d   1      -0.834  -2.794   0.407  0.00  0.00     0.015 A 
ATOM      7  C7  IND d   1      -1.122  -1.635   1.071  0.00  0.00    -0.016 A 
ATOM      8  C8  IND d   1      -0.511  -0.479   0.606  0.00  0.00    -0.047 A 
ATOM      9  C9  IND d   1       0.381  -0.493  -0.474  0.00  0.00    -0.096 A 
ATOM     10  HN1 IND d   1      -1.054   1.093   1.727  0.00  0.00     0.298 HD
ENDROOT
TORSDOF 0
ENDMDL
