MODEL 1
REMARK minimizedAffinity -0.409328908
REMARK minimizedRMSD -1
REMARK  0 active torsions:
REMARK  status: ('A' for Active; 'I' for Inactive)
ROOT
ATOM      1  N1  IND d   1      -1.299  -2.681   0.892  0.00  0.00    -0.196 N 
ATOM      2  C2  IND d   1      -0.394  -3.567   0.378  0.00  0.00     0.054 A 
ATOM      3  C3  IND d   1       0.609  -2.908  -0.243  0.00  0.00    -0.031 A 
ATOM      4  C4  IND d   1       1.021  -0.375  -0.449  0.00  0.00     0.051 A 
ATOM      5  C5  IND d   1       0.450   0.835  -0.170  0.00  0.00    -0.031 A 
ATOM      6  C6  IND d   1      -0.757   0.937   0.493  0.00  0.00     0.015 A 
ATOM      7  C7  IND d   1      -1.434  -0.172   0.913  0.00  0.00    -0.016 A 
ATOM      8  C8  IND d   1      -0.861  -1.403   0.626  0.00  0.00    -0.047 A 
ATOM      9  C9  IND d   1       0.342  -1.514  -0.084  0.00  0.00    -0.096 A 
ATOM     10  HN1 IND d   1      -2.021  -2.888   1.312  0.00  0.00     0.298 HD
ENDROOT
TORSDOF 0
ENDMDL
