MODEL 1
REMARK minimizedAffinity -3.22195435
REMARK minimizedRMSD -1
REMARK  0 active torsions:
REMARK  status: ('A' for Active; 'I' for Inactive)
ROOT
ATOM      1  N1  IND d   1       0.822  -2.775  -0.701  0.00  0.00    -0.196 N 
ATOM      2  C2  IND d   1       0.394  -3.261   0.502  0.00  0.00     0.054 A 
ATOM      3  C3  IND d   1      -0.324  -2.323   1.161  0.00  0.00    -0.031 A 
ATOM      4  C4  IND d   1      -1.005   0.042   0.407  0.00  0.00     0.051 A 
ATOM      5  C5  IND d   1      -0.819   0.947  -0.601  0.00  0.00    -0.031 A 
ATOM      6  C6  IND d   1      -0.064   0.650  -1.717  0.00  0.00     0.015 A 
ATOM      7  C7  IND d   1       0.527  -0.572  -1.873  0.00  0.00    -0.016 A 
ATOM      8  C8  IND d   1       0.346  -1.490  -0.849  0.00  0.00    -0.047 A 
ATOM      9  C9  IND d   1      -0.383  -1.180   0.306  0.00  0.00    -0.096 A 
ATOM     10  HN1 IND d   1       1.307  -3.199  -1.270  0.00  0.00     0.298 HD
ENDROOT
TORSDOF 0
ENDMDL
