MODEL 1
REMARK minimizedAffinity -2.74911237
REMARK minimizedRMSD -1
REMARK  0 active torsions:
REMARK  status: ('A' for Active; 'I' for Inactive)
ROOT
ATOM      1  N1  IND d   1      -1.151   0.259   0.706  0.00  0.00    -0.196 N 
ATOM      2  C2  IND d   1      -0.275   1.188   0.216  0.00  0.00     0.054 A 
ATOM      3  C3  IND d   1       0.850   0.585  -0.229  0.00  0.00    -0.031 A 
ATOM      4  C4  IND d   1       1.426  -1.922  -0.344  0.00  0.00     0.051 A 
ATOM      5  C5  IND d   1       0.956  -3.153   0.019  0.00  0.00    -0.031 A 
ATOM      6  C6  IND d   1      -0.266  -3.313   0.639  0.00  0.00     0.015 A 
ATOM      7  C7  IND d   1      -1.072  -2.244   0.911  0.00  0.00    -0.016 A 
ATOM      8  C8  IND d   1      -0.595  -0.992   0.550  0.00  0.00    -0.047 A 
ATOM      9  C9  IND d   1       0.663  -0.819  -0.041  0.00  0.00    -0.096 A 
ATOM     10  HN1 IND d   1      -1.919   0.428   1.052  0.00  0.00     0.298 HD
ENDROOT
TORSDOF 0
ENDMDL
