MODEL 1
REMARK minimizedAffinity -3.46359515
REMARK minimizedRMSD -1
REMARK  0 active torsions:
REMARK  status: ('A' for Active; 'I' for Inactive)
ROOT
ATOM      1  N1  IND d   1      -0.845   1.011   0.338  0.00  0.00    -0.196 N 
ATOM      2  C2  IND d   1       0.110   1.693  -0.363  0.00  0.00     0.054 A 
ATOM      3  C3  IND d   1       1.039   0.837  -0.847  0.00  0.00    -0.031 A 
ATOM      4  C4  IND d   1       1.133  -1.731  -0.696  0.00  0.00     0.051 A 
ATOM      5  C5  IND d   1       0.501  -2.800  -0.126  0.00  0.00    -0.031 A 
ATOM      6  C6  IND d   1      -0.636  -2.651   0.641  0.00  0.00     0.015 A 
ATOM      7  C7  IND d   1      -1.193  -1.423   0.859  0.00  0.00    -0.016 A 
ATOM      8  C8  IND d   1      -0.550  -0.334   0.287  0.00  0.00    -0.047 A 
ATOM      9  C9  IND d   1       0.628  -0.474  -0.457  0.00  0.00    -0.096 A 
ATOM     10  HN1 IND d   1      -1.517   1.363   0.743  0.00  0.00     0.298 HD
ENDROOT
TORSDOF 0
ENDMDL
