MODEL 1
REMARK minimizedAffinity 8.67570591
REMARK minimizedRMSD -1
REMARK  3 active torsions:
REMARK  status: ('A' for Active; 'I' for Inactive)
REMARK    1  A    between atoms: C3'_2  and  C2'_3 
REMARK    2  A    between atoms: C2'_3  and  C1'_4 
REMARK    3  A    between atoms: C1'_4  and  C1_5 
ROOT
ATOM      1  C1  N4B d   1      -3.163   5.824  -4.984  0.00  0.00    -0.075 A 
ATOM      2  C2  N4B d   1      -3.627   5.715  -3.655  0.00  0.00     0.002 A 
ATOM      3  C3  N4B d   1      -4.975   5.755  -3.394  0.00  0.00     0.002 A 
ATOM      4  C4  N4B d   1      -5.872   5.921  -4.438  0.00  0.00    -0.004 A 
ATOM      5  C5  N4B d   1      -5.416   6.000  -5.722  0.00  0.00     0.002 A 
ATOM      6  C6  N4B d   1      -4.065   5.957  -6.000  0.00  0.00     0.002 A 
ENDROOT
BRANCH   1   7
ATOM      7  C1' N4B d   1      -1.695   5.872  -5.311  0.00  0.00     0.057 C 
BRANCH   7   8
ATOM      8  C2' N4B d   1      -0.898   5.361  -4.114  0.00  0.00     0.009 C 
BRANCH   8   9
ATOM      9  C3' N4B d   1      -0.176   4.061  -4.425  0.00  0.00     0.004 C 
ATOM     10  C4' N4B d   1       0.745   3.631  -3.324  0.00  0.00     0.003 C 
ENDBRANCH   8   9
ENDBRANCH   7   8
ENDBRANCH   1   7
TORSDOF 3
ENDMDL
