MODEL 1
REMARK minimizedAffinity 10.6536293
REMARK minimizedRMSD -1
REMARK  3 active torsions:
REMARK  status: ('A' for Active; 'I' for Inactive)
REMARK    1  A    between atoms: C3'_2  and  C2'_3 
REMARK    2  A    between atoms: C2'_3  and  C1'_4 
REMARK    3  A    between atoms: C1'_4  and  C1_5 
ROOT
ATOM      1  C1  N4B d   1       3.402   3.385  -3.183  0.00  0.00    -0.075 A 
ATOM      2  C2  N4B d   1       2.088   3.871  -3.357  0.00  0.00     0.002 A 
ATOM      3  C3  N4B d   1       1.062   3.365  -2.597  0.00  0.00     0.002 A 
ATOM      4  C4  N4B d   1       1.322   2.364  -1.673  0.00  0.00    -0.004 A 
ATOM      5  C5  N4B d   1       2.599   1.918  -1.492  0.00  0.00     0.002 A 
ATOM      6  C6  N4B d   1       3.640   2.420  -2.247  0.00  0.00     0.002 A 
ENDROOT
BRANCH   1   7
ATOM      7  C1' N4B d   1       4.541   3.846  -4.050  0.00  0.00     0.057 C 
BRANCH   7   8
ATOM      8  C2' N4B d   1       5.740   4.181  -3.167  0.00  0.00     0.009 C 
BRANCH   8   9
ATOM      9  C3' N4B d   1       5.850   5.672  -2.900  0.00  0.00     0.004 C 
ATOM     10  C4' N4B d   1       5.869   6.000  -1.437  0.00  0.00     0.003 C 
ENDBRANCH   8   9
ENDBRANCH   7   8
ENDBRANCH   1   7
TORSDOF 3
ENDMDL
