MODEL 1
REMARK minimizedAffinity 14.9483051
REMARK minimizedRMSD -1
REMARK  3 active torsions:
REMARK  status: ('A' for Active; 'I' for Inactive)
REMARK    1  A    between atoms: C3'_2  and  C2'_3 
REMARK    2  A    between atoms: C2'_3  and  C1'_4 
REMARK    3  A    between atoms: C1'_4  and  C1_5 
ROOT
ATOM      1  C1  N4B d   1      -3.019  -1.728   2.387  0.00  0.00    -0.075 A 
ATOM      2  C2  N4B d   1      -3.492  -2.306   3.586  0.00  0.00     0.002 A 
ATOM      3  C3  N4B d   1      -4.838  -2.323   3.855  0.00  0.00     0.002 A 
ATOM      4  C4  N4B d   1      -5.725  -1.755   2.953  0.00  0.00    -0.004 A 
ATOM      5  C5  N4B d   1      -5.263  -1.222   1.786  0.00  0.00     0.002 A 
ATOM      6  C6  N4B d   1      -3.912  -1.201   1.500  0.00  0.00     0.002 A 
ENDROOT
BRANCH   1   7
ATOM      7  C1' N4B d   1      -1.549  -1.608   2.089  0.00  0.00     0.057 C 
BRANCH   7   8
ATOM      8  C2' N4B d   1      -0.958  -0.480   2.929  0.00  0.00     0.009 C 
BRANCH   8   9
ATOM      9  C3' N4B d   1      -2.021   0.243   3.738  0.00  0.00     0.004 C 
ATOM     10  C4' N4B d   1      -1.690   0.315   5.199  0.00  0.00     0.003 C 
ENDBRANCH   8   9
ENDBRANCH   7   8
ENDBRANCH   1   7
TORSDOF 3
ENDMDL
