MODEL 1
REMARK minimizedAffinity 9.0571537
REMARK minimizedRMSD -1
REMARK  3 active torsions:
REMARK  status: ('A' for Active; 'I' for Inactive)
REMARK    1  A    between atoms: C3'_2  and  C2'_3 
REMARK    2  A    between atoms: C2'_3  and  C1'_4 
REMARK    3  A    between atoms: C1'_4  and  C1_5 
ROOT
ATOM      1  C1  N4B d   1      -0.141   4.046  -2.723  0.00  0.00    -0.075 A 
ATOM      2  C2  N4B d   1      -0.785   4.368  -3.938  0.00  0.00     0.002 A 
ATOM      3  C3  N4B d   1      -2.000   5.008  -3.923  0.00  0.00     0.002 A 
ATOM      4  C4  N4B d   1      -2.596   5.318  -2.710  0.00  0.00    -0.004 A 
ATOM      5  C5  N4B d   1      -1.956   5.028  -1.541  0.00  0.00     0.002 A 
ATOM      6  C6  N4B d   1      -0.733   4.388  -1.541  0.00  0.00     0.002 A 
ENDROOT
BRANCH   1   7
ATOM      7  C1' N4B d   1       1.147   3.270  -2.687  0.00  0.00     0.057 C 
BRANCH   7   8
ATOM      8  C2' N4B d   1       2.085   3.807  -3.764  0.00  0.00     0.009 C 
BRANCH   8   9
ATOM      9  C3' N4B d   1       3.504   3.295  -3.589  0.00  0.00     0.004 C 
ATOM     10  C4' N4B d   1       4.304   3.356  -4.856  0.00  0.00     0.003 C 
ENDBRANCH   8   9
ENDBRANCH   7   8
ENDBRANCH   1   7
TORSDOF 3
ENDMDL
