MODEL 1
REMARK minimizedAffinity 15.9879684
REMARK minimizedRMSD -1
REMARK  3 active torsions:
REMARK  status: ('A' for Active; 'I' for Inactive)
REMARK    1  A    between atoms: C3'_2  and  C2'_3 
REMARK    2  A    between atoms: C2'_3  and  C1'_4 
REMARK    3  A    between atoms: C1'_4  and  C1_5 
ROOT
ATOM      1  C1  N4B d   1       4.830   5.047  -0.344  0.00  0.00    -0.075 A 
ATOM      2  C2  N4B d   1       4.190   5.640   0.767  0.00  0.00     0.002 A 
ATOM      3  C3  N4B d   1       4.470   5.198   2.037  0.00  0.00     0.002 A 
ATOM      4  C4  N4B d   1       5.367   4.157   2.219  0.00  0.00    -0.004 A 
ATOM      5  C5  N4B d   1       6.000   3.606   1.143  0.00  0.00     0.002 A 
ATOM      6  C6  N4B d   1       5.732   4.043  -0.139  0.00  0.00     0.002 A 
ENDROOT
BRANCH   1   7
ATOM      7  C1' N4B d   1       4.493   5.437  -1.757  0.00  0.00     0.057 C 
BRANCH   7   8
ATOM      8  C2' N4B d   1       5.148   4.451  -2.719  0.00  0.00     0.009 C 
BRANCH   8   9
ATOM      9  C3' N4B d   1       4.127   3.552  -3.394  0.00  0.00     0.004 C 
ATOM     10  C4' N4B d   1       4.481   3.235  -4.816  0.00  0.00     0.003 C 
ENDBRANCH   8   9
ENDBRANCH   7   8
ENDBRANCH   1   7
TORSDOF 3
ENDMDL
