MODEL 1
REMARK minimizedAffinity 13.036602
REMARK minimizedRMSD -1
REMARK  3 active torsions:
REMARK  status: ('A' for Active; 'I' for Inactive)
REMARK    1  A    between atoms: C3'_2  and  C2'_3 
REMARK    2  A    between atoms: C2'_3  and  C1'_4 
REMARK    3  A    between atoms: C1'_4  and  C1_5 
ROOT
ATOM      1  C1  N4B d   1       4.812   4.208  -0.686  0.00  0.00    -0.075 A 
ATOM      2  C2  N4B d   1       6.000   3.937   0.027  0.00  0.00     0.002 A 
ATOM      3  C3  N4B d   1       5.975   3.086   1.105  0.00  0.00     0.002 A 
ATOM      4  C4  N4B d   1       4.775   2.513   1.498  0.00  0.00    -0.004 A 
ATOM      5  C5  N4B d   1       3.636   2.760   0.789  0.00  0.00     0.002 A 
ATOM      6  C6  N4B d   1       3.648   3.610  -0.299  0.00  0.00     0.002 A 
ENDROOT
BRANCH   1   7
ATOM      7  C1' N4B d   1       4.773   5.198  -1.818  0.00  0.00     0.057 C 
BRANCH   7   8
ATOM      8  C2' N4B d   1       5.998   4.993  -2.704  0.00  0.00     0.009 C 
BRANCH   8   9
ATOM      9  C3' N4B d   1       5.614   4.631  -4.129  0.00  0.00     0.004 C 
ATOM     10  C4' N4B d   1       4.329   3.862  -4.206  0.00  0.00     0.003 C 
ENDBRANCH   8   9
ENDBRANCH   7   8
ENDBRANCH   1   7
TORSDOF 3
ENDMDL
