MODEL 1
REMARK minimizedAffinity 11.8474121
REMARK minimizedRMSD -1
REMARK  3 active torsions:
REMARK  status: ('A' for Active; 'I' for Inactive)
REMARK    1  A    between atoms: C3'_2  and  C2'_3 
REMARK    2  A    between atoms: C2'_3  and  C1'_4 
REMARK    3  A    between atoms: C1'_4  and  C1_5 
ROOT
ATOM      1  C1  N4B d   1      -5.866   1.060  -2.069  0.00  0.00    -0.075 A 
ATOM      2  C2  N4B d   1      -5.924   1.445  -3.426  0.00  0.00     0.002 A 
ATOM      3  C3  N4B d   1      -5.999   0.488  -4.409  0.00  0.00     0.002 A 
ATOM      4  C4  N4B d   1      -5.999  -0.854  -4.060  0.00  0.00    -0.004 A 
ATOM      5  C5  N4B d   1      -5.969  -1.217  -2.746  0.00  0.00     0.002 A 
ATOM      6  C6  N4B d   1      -5.897  -0.266  -1.747  0.00  0.00     0.002 A 
ENDROOT
BRANCH   1   7
ATOM      7  C1' N4B d   1      -5.697   2.067  -0.964  0.00  0.00     0.057 C 
BRANCH   7   8
ATOM      8  C2' N4B d   1      -5.380   3.429  -1.573  0.00  0.00     0.009 C 
BRANCH   8   9
ATOM      9  C3' N4B d   1      -4.886   4.417  -0.529  0.00  0.00     0.004 C 
ATOM     10  C4' N4B d   1      -5.927   5.426  -0.146  0.00  0.00     0.003 C 
ENDBRANCH   8   9
ENDBRANCH   7   8
ENDBRANCH   1   7
TORSDOF 3
ENDMDL
