MODEL 1
REMARK minimizedAffinity 10.4758186
REMARK minimizedRMSD -1
REMARK  3 active torsions:
REMARK  status: ('A' for Active; 'I' for Inactive)
REMARK    1  A    between atoms: C3'_2  and  C2'_3 
REMARK    2  A    between atoms: C2'_3  and  C1'_4 
REMARK    3  A    between atoms: C1'_4  and  C1_5 
ROOT
ATOM      1  C1  N4B d   1      -3.387   0.722   3.411  0.00  0.00    -0.075 A 
ATOM      2  C2  N4B d   1      -4.435   0.484   2.494  0.00  0.00     0.002 A 
ATOM      3  C3  N4B d   1      -4.295  -0.480   1.526  0.00  0.00     0.002 A 
ATOM      4  C4  N4B d   1      -3.114  -1.203   1.444  0.00  0.00    -0.004 A 
ATOM      5  C5  N4B d   1      -2.117  -0.985   2.349  0.00  0.00     0.002 A 
ATOM      6  C6  N4B d   1      -2.246  -0.022   3.330  0.00  0.00     0.002 A 
ENDROOT
BRANCH   1   7
ATOM      7  C1' N4B d   1      -3.460   1.824   4.433  0.00  0.00     0.057 C 
BRANCH   7   8
ATOM      8  C2' N4B d   1      -4.923   2.172   4.690  0.00  0.00     0.009 C 
BRANCH   8   9
ATOM      9  C3' N4B d   1      -5.108   2.919   6.000  0.00  0.00     0.004 C 
ATOM     10  C4' N4B d   1      -5.289   4.395   5.806  0.00  0.00     0.003 C 
ENDBRANCH   8   9
ENDBRANCH   7   8
ENDBRANCH   1   7
TORSDOF 3
ENDMDL
