MODEL 1
REMARK minimizedAffinity -2.52567625
REMARK minimizedRMSD -1
REMARK  0 active torsions:
REMARK  status: ('A' for Active; 'I' for Inactive)
ROOT
ATOM      1  C   UNL d   1      -1.759   0.081  -0.056  0.00  0.00     0.078 C 
ATOM      2  C1  UNL d   1      -0.302   0.174   0.287  0.00  0.00    -0.077 A 
ATOM      3  C2  UNL d   1       0.466   1.272  -0.118  0.00  0.00    -0.001 A 
ATOM      4  C3  UNL d   1       1.824   1.340   0.200  0.00  0.00     0.003 A 
ATOM      5  C4  UNL d   1       2.425   0.312   0.923  0.00  0.00    -0.005 A 
ATOM      6  C5  UNL d   1       1.669  -0.787   1.328  0.00  0.00     0.003 A 
ATOM      7  C6  UNL d   1       0.312  -0.856   1.011  0.00  0.00    -0.001 A 
ENDROOT
TORSDOF 0
ENDMDL
