MODEL 1
REMARK minimizedAffinity -5.3276763
REMARK minimizedRMSD -1
REMARK  0 active torsions:
REMARK  status: ('A' for Active; 'I' for Inactive)
ROOT
ATOM      1  C   UNL d   1      -1.084   0.116  -0.019  0.00  0.00     0.078 C 
ATOM      2  C1  UNL d   1       0.136  -0.472   0.625  0.00  0.00    -0.077 A 
ATOM      3  C2  UNL d   1       0.074  -1.696   1.302  0.00  0.00    -0.001 A 
ATOM      4  C3  UNL d   1       1.215  -2.227   1.906  0.00  0.00     0.003 A 
ATOM      5  C4  UNL d   1       2.426  -1.540   1.840  0.00  0.00    -0.005 A 
ATOM      6  C5  UNL d   1       2.496  -0.320   1.170  0.00  0.00     0.003 A 
ATOM      7  C6  UNL d   1       1.356   0.212   0.566  0.00  0.00    -0.001 A 
ENDROOT
TORSDOF 0
ENDMDL
