MODEL 1
REMARK minimizedAffinity 11.7199898
REMARK minimizedRMSD -1
REMARK  0 active torsions:
REMARK  status: ('A' for Active; 'I' for Inactive)
ROOT
ATOM      1  C   UNL d   1      -5.999   5.960  -1.129  0.00  0.00     0.078 C 
ATOM      2  C1  UNL d   1      -5.409   4.612  -1.417  0.00  0.00    -0.077 A 
ATOM      3  C2  UNL d   1      -4.277   4.479  -2.230  0.00  0.00    -0.001 A 
ATOM      4  C3  UNL d   1      -3.744   3.217  -2.498  0.00  0.00     0.003 A 
ATOM      5  C4  UNL d   1      -4.337   2.078  -1.957  0.00  0.00    -0.005 A 
ATOM      6  C5  UNL d   1      -5.465   2.200  -1.148  0.00  0.00     0.003 A 
ATOM      7  C6  UNL d   1      -6.000   3.462  -0.879  0.00  0.00    -0.001 A 
ENDROOT
TORSDOF 0
ENDMDL
