MODEL 1
REMARK minimizedAffinity -5.6174345
REMARK minimizedRMSD -1
REMARK  0 active torsions:
REMARK  status: ('A' for Active; 'I' for Inactive)
ROOT
ATOM      1  C   UNL d   1       3.010  -0.709   0.052  0.00  0.00     0.078 C 
ATOM      2  C1  UNL d   1       1.530  -0.758   0.289  0.00  0.00    -0.077 A 
ATOM      3  C2  UNL d   1       0.764   0.414   0.308  0.00  0.00    -0.001 A 
ATOM      4  C3  UNL d   1      -0.612   0.354   0.539  0.00  0.00     0.003 A 
ATOM      5  C4  UNL d   1      -1.232  -0.876   0.753  0.00  0.00    -0.005 A 
ATOM      6  C5  UNL d   1      -0.477  -2.047   0.738  0.00  0.00     0.003 A 
ATOM      7  C6  UNL d   1       0.898  -1.988   0.507  0.00  0.00    -0.001 A 
ENDROOT
TORSDOF 0
ENDMDL
