MODEL 1
REMARK minimizedAffinity -4.01639986
REMARK minimizedRMSD -1
REMARK  1 active torsions:
REMARK  status: ('A' for Active; 'I' for Inactive)
REMARK    1  A    between atoms: C3_4  and  O_7 
ROOT
ATOM      1  C   UNL d   1      -2.279   2.880  -2.403  0.00  0.00    -0.033 A 
ATOM      2  C1  UNL d   1      -1.645   4.115  -2.548  0.00  0.00     0.039 A 
ATOM      3  C2  UNL d   1      -1.782   4.837  -3.735  0.00  0.00    -0.080 A 
ATOM      4  C3  UNL d   1      -2.556   4.314  -4.768  0.00  0.00     0.150 A 
ATOM      5  C4  UNL d   1      -3.194   3.086  -4.628  0.00  0.00    -0.007 A 
ATOM      6  C5  UNL d   1      -3.055   2.366  -3.443  0.00  0.00     0.039 A 
ENDROOT
BRANCH   4   7
ATOM      7  O   UNL d   1      -2.715   4.980  -5.947  0.00  0.00    -0.526 OA
ATOM      8  H5  UNL d   1      -2.194   5.800  -5.910  0.00  0.00     0.418 HD
ENDBRANCH   4   7
TORSDOF 1
ENDMDL
