MODEL 1
REMARK minimizedAffinity -4.40263081
REMARK minimizedRMSD -1
REMARK  1 active torsions:
REMARK  status: ('A' for Active; 'I' for Inactive)
REMARK    1  A    between atoms: C3_4  and  O_7 
ROOT
ATOM      1  C   UNL d   1      -2.814  -0.427   2.065  0.00  0.00    -0.033 A 
ATOM      2  C1  UNL d   1      -1.943  -0.292   3.148  0.00  0.00     0.039 A 
ATOM      3  C2  UNL d   1      -0.636  -0.774   3.059  0.00  0.00    -0.080 A 
ATOM      4  C3  UNL d   1      -0.213  -1.389   1.884  0.00  0.00     0.150 A 
ATOM      5  C4  UNL d   1      -1.074  -1.524   0.800  0.00  0.00    -0.007 A 
ATOM      6  C5  UNL d   1      -2.379  -1.042   0.891  0.00  0.00     0.039 A 
ENDROOT
BRANCH   4   7
ATOM      7  O   UNL d   1       1.052  -1.880   1.752  0.00  0.00    -0.526 OA
ATOM      8  H5  UNL d   1       1.525  -1.742   2.590  0.00  0.00     0.418 HD
ENDBRANCH   4   7
TORSDOF 1
ENDMDL
