MODEL 1
REMARK minimizedAffinity 5.2240715
REMARK minimizedRMSD -1
REMARK  1 active torsions:
REMARK  status: ('A' for Active; 'I' for Inactive)
REMARK    1  A    between atoms: C3_4  and  O_7 
ROOT
ATOM      1  C   UNL d   1      -5.616   3.004  -0.172  0.00  0.00    -0.033 A 
ATOM      2  C1  UNL d   1      -5.998   4.276  -0.601  0.00  0.00     0.039 A 
ATOM      3  C2  UNL d   1      -5.082   5.097  -1.261  0.00  0.00    -0.080 A 
ATOM      4  C3  UNL d   1      -3.788   4.634  -1.486  0.00  0.00     0.150 A 
ATOM      5  C4  UNL d   1      -3.401   3.366  -1.064  0.00  0.00    -0.007 A 
ATOM      6  C5  UNL d   1      -4.318   2.548  -0.404  0.00  0.00     0.039 A 
ENDROOT
BRANCH   4   7
ATOM      7  O   UNL d   1      -2.857   5.400  -2.122  0.00  0.00    -0.526 OA
ATOM      8  H5  UNL d   1      -3.257   6.261  -2.330  0.00  0.00     0.418 HD
ENDBRANCH   4   7
TORSDOF 1
ENDMDL
