MODEL 1
REMARK minimizedAffinity -1.16295266
REMARK minimizedRMSD -1
REMARK  1 active torsions:
REMARK  status: ('A' for Active; 'I' for Inactive)
REMARK    1  A    between atoms: C3_4  and  O_7 
ROOT
ATOM      1  C   UNL d   1      -3.194   4.097  -4.875  0.00  0.00    -0.033 A 
ATOM      2  C1  UNL d   1      -3.396   2.786  -4.440  0.00  0.00     0.039 A 
ATOM      3  C2  UNL d   1      -3.626   2.525  -3.088  0.00  0.00    -0.080 A 
ATOM      4  C3  UNL d   1      -3.654   3.582  -2.183  0.00  0.00     0.150 A 
ATOM      5  C4  UNL d   1      -3.458   4.891  -2.610  0.00  0.00    -0.007 A 
ATOM      6  C5  UNL d   1      -3.227   5.150  -3.961  0.00  0.00     0.039 A 
ENDROOT
BRANCH   4   7
ATOM      7  O   UNL d   1      -3.871   3.376  -0.853  0.00  0.00    -0.526 OA
ATOM      8  H5  UNL d   1      -3.961   2.421  -0.700  0.00  0.00     0.418 HD
ENDBRANCH   4   7
TORSDOF 1
ENDMDL
