MODEL 1
REMARK minimizedAffinity 0.785004735
REMARK minimizedRMSD -1
REMARK  1 active torsions:
REMARK  status: ('A' for Active; 'I' for Inactive)
REMARK    1  A    between atoms: C3_4  and  O_7 
ROOT
ATOM      1  C   UNL d   1       0.270  -1.822   1.877  0.00  0.00    -0.033 A 
ATOM      2  C1  UNL d   1      -0.765  -1.477   1.006  0.00  0.00     0.039 A 
ATOM      3  C2  UNL d   1      -0.591  -1.607  -0.374  0.00  0.00    -0.080 A 
ATOM      4  C3  UNL d   1       0.620  -2.083  -0.868  0.00  0.00     0.150 A 
ATOM      5  C4  UNL d   1       1.654  -2.432  -0.006  0.00  0.00    -0.007 A 
ATOM      6  C5  UNL d   1       1.480  -2.300   1.371  0.00  0.00     0.039 A 
ENDROOT
BRANCH   4   7
ATOM      7  O   UNL d   1       0.838  -2.223  -2.207  0.00  0.00    -0.526 OA
ATOM      8  H5  UNL d   1       0.047  -1.917  -2.681  0.00  0.00     0.418 HD
ENDBRANCH   4   7
TORSDOF 1
ENDMDL
