MODEL 1
REMARK minimizedAffinity 0.111078344
REMARK minimizedRMSD -1
REMARK  1 active torsions:
REMARK  status: ('A' for Active; 'I' for Inactive)
REMARK    1  A    between atoms: C3_4  and  O_7 
ROOT
ATOM      1  C   UNL d   1      -2.831   4.780  -4.255  0.00  0.00    -0.033 A 
ATOM      2  C1  UNL d   1      -3.824   5.465  -3.553  0.00  0.00     0.039 A 
ATOM      3  C2  UNL d   1      -4.484   4.846  -2.490  0.00  0.00    -0.080 A 
ATOM      4  C3  UNL d   1      -4.142   3.543  -2.139  0.00  0.00     0.150 A 
ATOM      5  C4  UNL d   1      -3.150   2.856  -2.831  0.00  0.00    -0.007 A 
ATOM      6  C5  UNL d   1      -2.493   3.475  -3.893  0.00  0.00     0.039 A 
ENDROOT
BRANCH   4   7
ATOM      7  O   UNL d   1      -4.762   2.896  -1.112  0.00  0.00    -0.526 OA
ATOM      8  H5  UNL d   1      -5.443   3.483  -0.744  0.00  0.00     0.418 HD
ENDBRANCH   4   7
TORSDOF 1
ENDMDL
