MODEL 1
REMARK minimizedAffinity 0.711056113
REMARK minimizedRMSD -1
REMARK  1 active torsions:
REMARK  status: ('A' for Active; 'I' for Inactive)
REMARK    1  A    between atoms: C3_4  and  O_7 
ROOT
ATOM      1  C   UNL d   1      -3.230   2.784  -1.510  0.00  0.00    -0.033 A 
ATOM      2  C1  UNL d   1      -2.918   2.468  -2.833  0.00  0.00     0.039 A 
ATOM      3  C2  UNL d   1      -2.456   3.461  -3.699  0.00  0.00    -0.080 A 
ATOM      4  C3  UNL d   1      -2.310   4.763  -3.230  0.00  0.00     0.150 A 
ATOM      5  C4  UNL d   1      -2.616   5.084  -1.911  0.00  0.00    -0.007 A 
ATOM      6  C5  UNL d   1      -3.078   4.091  -1.048  0.00  0.00     0.039 A 
ENDROOT
BRANCH   4   7
ATOM      7  O   UNL d   1      -1.867   5.767  -4.039  0.00  0.00    -0.526 OA
ATOM      8  H5  UNL d   1      -1.723   5.404  -4.929  0.00  0.00     0.418 HD
ENDBRANCH   4   7
TORSDOF 1
ENDMDL
