MODEL 1
REMARK minimizedAffinity 0.00297504989
REMARK minimizedRMSD -1
REMARK  1 active torsions:
REMARK  status: ('A' for Active; 'I' for Inactive)
REMARK    1  A    between atoms: C3_4  and  O_7 
ROOT
ATOM      1  C   UNL d   1      -0.779  -1.602   2.026  0.00  0.00    -0.033 A 
ATOM      2  C1  UNL d   1      -0.588  -1.331   3.382  0.00  0.00     0.039 A 
ATOM      3  C2  UNL d   1      -1.605  -0.729   4.126  0.00  0.00    -0.080 A 
ATOM      4  C3  UNL d   1      -2.806  -0.404   3.502  0.00  0.00     0.150 A 
ATOM      5  C4  UNL d   1      -3.005  -0.674   2.152  0.00  0.00    -0.007 A 
ATOM      6  C5  UNL d   1      -1.988  -1.275   1.411  0.00  0.00     0.039 A 
ENDROOT
BRANCH   4   7
ATOM      7  O   UNL d   1      -3.826   0.189   4.186  0.00  0.00    -0.526 OA
ATOM      8  H5  UNL d   1      -3.536   0.342   5.101  0.00  0.00     0.418 HD
ENDBRANCH   4   7
TORSDOF 1
ENDMDL
