MODEL 1
REMARK minimizedAffinity -2.85383654
REMARK minimizedRMSD -1
REMARK  1 active torsions:
REMARK  status: ('A' for Active; 'I' for Inactive)
REMARK    1  A    between atoms: C3_4  and  O_7 
ROOT
ATOM      1  C   UNL d   1      -0.827  -1.230   2.843  0.00  0.00    -0.033 A 
ATOM      2  C1  UNL d   1       0.404  -1.778   3.209  0.00  0.00     0.039 A 
ATOM      3  C2  UNL d   1       1.266  -2.278   2.232  0.00  0.00    -0.080 A 
ATOM      4  C3  UNL d   1       0.887  -2.224   0.893  0.00  0.00     0.150 A 
ATOM      5  C4  UNL d   1      -0.336  -1.675   0.521  0.00  0.00    -0.007 A 
ATOM      6  C5  UNL d   1      -1.196  -1.177   1.498  0.00  0.00     0.039 A 
ENDROOT
BRANCH   4   7
ATOM      7  O   UNL d   1       1.692  -2.704  -0.096  0.00  0.00    -0.526 OA
ATOM      8  H5  UNL d   1       2.491  -3.078   0.312  0.00  0.00     0.418 HD
ENDBRANCH   4   7
TORSDOF 1
ENDMDL
