MODEL 1
REMARK minimizedAffinity -2.88528562
REMARK minimizedRMSD -1
REMARK  0 active torsions:
REMARK  status: ('A' for Active; 'I' for Inactive)
ROOT
ATOM      1  C   UNL d   1       0.737  -2.126  -0.235  0.00  0.00     0.172 C 
ATOM      2  N   UNL d   1       0.285  -0.811  -0.624  0.00  0.00    -0.070 N 
ATOM      3  C1  UNL d   1      -0.102  -0.440  -1.885  0.00  0.00    -0.004 A 
ATOM      4  C2  UNL d   1      -0.461   0.889  -1.842  0.00  0.00    -0.047 A 
ATOM      5  C3  UNL d   1      -0.283   1.334  -0.511  0.00  0.00    -0.047 A 
ATOM      6  C4  UNL d   1       0.180   0.261   0.222  0.00  0.00    -0.004 A 
ENDROOT
TORSDOF 0
ENDMDL
