MODEL 1
REMARK minimizedAffinity -3.3356359
REMARK minimizedRMSD -1
REMARK  0 active torsions:
REMARK  status: ('A' for Active; 'I' for Inactive)
ROOT
ATOM      1  C   UNL d   1       0.372  -0.418  -0.035  0.00  0.00     0.172 C 
ATOM      2  N   UNL d   1       0.165  -1.764  -0.514  0.00  0.00    -0.070 N 
ATOM      3  C1  UNL d   1       0.228  -2.165  -1.822  0.00  0.00    -0.004 A 
ATOM      4  C2  UNL d   1      -0.027  -3.519  -1.861  0.00  0.00    -0.047 A 
ATOM      5  C3  UNL d   1      -0.250  -3.947  -0.530  0.00  0.00    -0.047 A 
ATOM      6  C4  UNL d   1      -0.125  -2.840   0.283  0.00  0.00    -0.004 A 
ENDROOT
TORSDOF 0
ENDMDL
