MODEL 1
REMARK minimizedAffinity -2.58628774
REMARK minimizedRMSD -1
REMARK  0 active torsions:
REMARK  status: ('A' for Active; 'I' for Inactive)
ROOT
ATOM      1  C   UNL d   1       0.207   0.840  -0.145  0.00  0.00     0.172 C 
ATOM      2  N   UNL d   1      -0.398  -0.372   0.356  0.00  0.00    -0.070 N 
ATOM      3  C1  UNL d   1      -1.315  -0.446   1.370  0.00  0.00    -0.004 A 
ATOM      4  C2  UNL d   1      -1.644  -1.773   1.546  0.00  0.00    -0.047 A 
ATOM      5  C3  UNL d   1      -0.898  -2.522   0.606  0.00  0.00    -0.047 A 
ATOM      6  C4  UNL d   1      -0.135  -1.630  -0.118  0.00  0.00    -0.004 A 
ENDROOT
TORSDOF 0
ENDMDL
