MODEL 1
REMARK minimizedAffinity -2.70092964
REMARK minimizedRMSD -1
REMARK  0 active torsions:
REMARK  status: ('A' for Active; 'I' for Inactive)
ROOT
ATOM      1  C   UNL d   1      -0.130  -3.002   0.061  0.00  0.00     0.172 C 
ATOM      2  N   UNL d   1      -0.396  -1.586   0.149  0.00  0.00    -0.070 N 
ATOM      3  C1  UNL d   1       0.038  -0.635  -0.736  0.00  0.00    -0.004 A 
ATOM      4  C2  UNL d   1      -0.425   0.588  -0.303  0.00  0.00    -0.047 A 
ATOM      5  C3  UNL d   1      -1.163   0.365   0.884  0.00  0.00    -0.047 A 
ATOM      6  C4  UNL d   1      -1.129  -0.989   1.141  0.00  0.00    -0.004 A 
ENDROOT
TORSDOF 0
ENDMDL
