MODEL 1
REMARK minimizedAffinity -2.71633601
REMARK minimizedRMSD -1
REMARK  0 active torsions:
REMARK  status: ('A' for Active; 'I' for Inactive)
ROOT
ATOM      1  C   UNL d   1       0.051   1.417   0.010  0.00  0.00     0.172 C 
ATOM      2  N   UNL d   1       0.017  -0.010   0.229  0.00  0.00    -0.070 N 
ATOM      3  C1  UNL d   1      -0.650  -0.647   1.241  0.00  0.00    -0.004 A 
ATOM      4  C2  UNL d   1      -0.435  -2.001   1.102  0.00  0.00    -0.047 A 
ATOM      5  C3  UNL d   1       0.391  -2.185  -0.032  0.00  0.00    -0.047 A 
ATOM      6  C4  UNL d   1       0.656  -0.936  -0.553  0.00  0.00    -0.004 A 
ENDROOT
TORSDOF 0
ENDMDL
