MODEL 1
REMARK minimizedAffinity -2.04220986
REMARK minimizedRMSD -1
REMARK  0 active torsions:
REMARK  status: ('A' for Active; 'I' for Inactive)
ROOT
ATOM      1  C   UNL d   1       0.465   0.775   0.263  0.00  0.00     0.172 C 
ATOM      2  N   UNL d   1       0.086  -0.609   0.420  0.00  0.00    -0.070 N 
ATOM      3  C1  UNL d   1      -1.037  -1.062   1.061  0.00  0.00    -0.004 A 
ATOM      4  C2  UNL d   1      -1.035  -2.438   0.994  0.00  0.00    -0.047 A 
ATOM      5  C3  UNL d   1       0.129  -2.827   0.289  0.00  0.00    -0.047 A 
ATOM      6  C4  UNL d   1       0.804  -1.675  -0.055  0.00  0.00    -0.004 A 
ENDROOT
TORSDOF 0
ENDMDL
