MODEL 1
REMARK minimizedAffinity -1.88546693
REMARK minimizedRMSD -1
REMARK  0 active torsions:
REMARK  status: ('A' for Active; 'I' for Inactive)
ROOT
ATOM      1  C   UNL d   1       0.546  -0.359  -1.783  0.00  0.00     0.172 C 
ATOM      2  N   UNL d   1      -0.157  -0.376  -0.522  0.00  0.00    -0.070 N 
ATOM      3  C1  UNL d   1      -0.722   0.710   0.092  0.00  0.00    -0.004 A 
ATOM      4  C2  UNL d   1      -1.294   0.278   1.270  0.00  0.00    -0.047 A 
ATOM      5  C3  UNL d   1      -1.063  -1.114   1.367  0.00  0.00    -0.047 A 
ATOM      6  C4  UNL d   1      -0.358  -1.493   0.245  0.00  0.00    -0.004 A 
ENDROOT
TORSDOF 0
ENDMDL
