MODEL 1
REMARK minimizedAffinity -3.38120079
REMARK minimizedRMSD -1
REMARK  0 active torsions:
REMARK  status: ('A' for Active; 'I' for Inactive)
ROOT
ATOM      1  C   UNL d   1      -0.035   0.059   0.097  0.00  0.00     0.172 C 
ATOM      2  N   UNL d   1      -0.093  -1.353  -0.200  0.00  0.00    -0.070 N 
ATOM      3  C1  UNL d   1      -0.919  -2.263   0.405  0.00  0.00    -0.004 A 
ATOM      4  C2  UNL d   1      -0.671  -3.496  -0.157  0.00  0.00    -0.047 A 
ATOM      5  C3  UNL d   1       0.339  -3.322  -1.132  0.00  0.00    -0.047 A 
ATOM      6  C4  UNL d   1       0.678  -1.986  -1.138  0.00  0.00    -0.004 A 
ENDROOT
TORSDOF 0
ENDMDL
