MODEL 1
REMARK minimizedAffinity -3.77548003
REMARK minimizedRMSD -1
REMARK  0 active torsions:
REMARK  status: ('A' for Active; 'I' for Inactive)
ROOT
ATOM      1  C   UNL d   1      -0.002   1.097  -0.716  0.00  0.00     0.172 C 
ATOM      2  N   UNL d   1      -0.283  -0.183  -0.108  0.00  0.00    -0.070 N 
ATOM      3  C1  UNL d   1      -1.201  -0.411   0.882  0.00  0.00    -0.004 A 
ATOM      4  C2  UNL d   1      -1.168  -1.755   1.186  0.00  0.00    -0.047 A 
ATOM      5  C3  UNL d   1      -0.196  -2.355   0.350  0.00  0.00    -0.047 A 
ATOM      6  C4  UNL d   1       0.336  -1.358  -0.441  0.00  0.00    -0.004 A 
ENDROOT
TORSDOF 0
ENDMDL
