MODEL 1
REMARK minimizedAffinity -2.05802178
REMARK minimizedRMSD -1
REMARK  0 active torsions:
REMARK  status: ('A' for Active; 'I' for Inactive)
ROOT
ATOM      1  C   UNL d   1      -0.007   1.152  -0.399  0.00  0.00     0.172 C 
ATOM      2  N   UNL d   1       0.374  -0.201  -0.731  0.00  0.00    -0.070 N 
ATOM      3  C1  UNL d   1       0.470  -1.243   0.152  0.00  0.00    -0.004 A 
ATOM      4  C2  UNL d   1       0.860  -2.360  -0.554  0.00  0.00    -0.047 A 
ATOM      5  C3  UNL d   1       1.004  -1.976  -1.908  0.00  0.00    -0.047 A 
ATOM      6  C4  UNL d   1       0.697  -0.634  -1.990  0.00  0.00    -0.004 A 
ENDROOT
TORSDOF 0
ENDMDL
