MODEL 1
REMARK minimizedAffinity -3.78560686
REMARK minimizedRMSD -1
REMARK  0 active torsions:
REMARK  status: ('A' for Active; 'I' for Inactive)
ROOT
ATOM      1  C   UNL d   1      -0.923  -0.154   0.706  0.00  0.00     0.172 C 
ATOM      2  N   UNL d   1      -0.359  -1.419   0.298  0.00  0.00    -0.070 N 
ATOM      3  C1  UNL d   1      -0.249  -2.535   1.085  0.00  0.00    -0.004 A 
ATOM      4  C2  UNL d   1       0.340  -3.527   0.331  0.00  0.00    -0.047 A 
ATOM      5  C3  UNL d   1       0.593  -2.988  -0.953  0.00  0.00    -0.047 A 
ATOM      6  C4  UNL d   1       0.151  -1.682  -0.946  0.00  0.00    -0.004 A 
ENDROOT
TORSDOF 0
ENDMDL
