MODEL 1
REMARK minimizedAffinity -2.15411997
REMARK minimizedRMSD -1
REMARK  0 active torsions:
REMARK  status: ('A' for Active; 'I' for Inactive)
ROOT
ATOM      1  C   UNL d   1      -0.783   1.499   0.036  0.00  0.00     0.172 C 
ATOM      2  N   UNL d   1      -0.281   0.283  -0.559  0.00  0.00    -0.070 N 
ATOM      3  C1  UNL d   1       0.074   0.123  -1.871  0.00  0.00    -0.004 A 
ATOM      4  C2  UNL d   1       0.501  -1.177  -2.038  0.00  0.00    -0.047 A 
ATOM      5  C3  UNL d   1       0.398  -1.820  -0.782  0.00  0.00    -0.047 A 
ATOM      6  C4  UNL d   1      -0.088  -0.894   0.116  0.00  0.00    -0.004 A 
ENDROOT
TORSDOF 0
ENDMDL
