MODEL 1
REMARK minimizedAffinity -2.71058297
REMARK minimizedRMSD -1
REMARK  0 active torsions:
REMARK  status: ('A' for Active; 'I' for Inactive)
ROOT
ATOM      1  C   UNL d   1       0.299   1.054  -0.167  0.00  0.00     0.172 C 
ATOM      2  N   UNL d   1      -0.254  -0.276  -0.066  0.00  0.00    -0.070 N 
ATOM      3  C1  UNL d   1      -0.345  -1.183  -1.088  0.00  0.00    -0.004 A 
ATOM      4  C2  UNL d   1      -0.929  -2.326  -0.587  0.00  0.00    -0.047 A 
ATOM      5  C3  UNL d   1      -1.199  -2.098   0.784  0.00  0.00    -0.047 A 
ATOM      6  C4  UNL d   1      -0.772  -0.821   1.080  0.00  0.00    -0.004 A 
ENDROOT
TORSDOF 0
ENDMDL
