MODEL 1
REMARK minimizedAffinity -2.90847898
REMARK minimizedRMSD -1
REMARK  0 active torsions:
REMARK  status: ('A' for Active; 'I' for Inactive)
ROOT
ATOM      1  C   UNL d   1      -1.402   0.132   1.017  0.00  0.00     0.172 C 
ATOM      2  N   UNL d   1      -0.668  -1.014   0.535  0.00  0.00    -0.070 N 
ATOM      3  C1  UNL d   1      -1.044  -2.322   0.680  0.00  0.00    -0.004 A 
ATOM      4  C2  UNL d   1      -0.080  -3.107   0.086  0.00  0.00    -0.047 A 
ATOM      5  C3  UNL d   1       0.910  -2.241  -0.434  0.00  0.00    -0.047 A 
ATOM      6  C4  UNL d   1       0.522  -0.950  -0.142  0.00  0.00    -0.004 A 
ENDROOT
TORSDOF 0
ENDMDL
