MODEL 1
REMARK minimizedAffinity -0.626311421
REMARK minimizedRMSD -1
REMARK  0 active torsions:
REMARK  status: ('A' for Active; 'I' for Inactive)
ROOT
ATOM      1  C   UNL d   1      -5.023  -2.469  -5.339  0.00  0.00     0.172 C 
ATOM      2  N   UNL d   1      -4.968  -3.902  -5.506  0.00  0.00    -0.070 N 
ATOM      3  C1  UNL d   1      -3.894  -4.700  -5.215  0.00  0.00    -0.004 A 
ATOM      4  C2  UNL d   1      -4.241  -6.000  -5.512  0.00  0.00    -0.047 A 
ATOM      5  C3  UNL d   1      -5.569  -5.983  -5.999  0.00  0.00    -0.047 A 
ATOM      6  C4  UNL d   1      -5.995  -4.672  -5.985  0.00  0.00    -0.004 A 
ENDROOT
TORSDOF 0
ENDMDL
