MODEL 1
REMARK minimizedAffinity 8.22698116
REMARK minimizedRMSD -1
REMARK  0 active torsions:
REMARK  status: ('A' for Active; 'I' for Inactive)
ROOT
ATOM      1  C   UNL d   1       2.524   1.412   1.480  0.00  0.00     0.172 C 
ATOM      2  N   UNL d   1       1.917   0.114   1.659  0.00  0.00    -0.070 N 
ATOM      3  C1  UNL d   1       0.572  -0.137   1.720  0.00  0.00    -0.004 A 
ATOM      4  C2  UNL d   1       0.404  -1.493   1.897  0.00  0.00    -0.047 A 
ATOM      5  C3  UNL d   1       1.692  -2.077   1.944  0.00  0.00    -0.047 A 
ATOM      6  C4  UNL d   1       2.610  -1.060   1.794  0.00  0.00    -0.004 A 
ENDROOT
TORSDOF 0
ENDMDL
