MODEL 1
REMARK minimizedAffinity 5.46779346
REMARK minimizedRMSD -1
REMARK  0 active torsions:
REMARK  status: ('A' for Active; 'I' for Inactive)
ROOT
ATOM      1  C   UNL d   1       1.551  -3.904   2.168  0.00  0.00     0.172 C 
ATOM      2  N   UNL d   1       0.956  -2.602   1.978  0.00  0.00    -0.070 N 
ATOM      3  C1  UNL d   1       1.556  -1.530   1.374  0.00  0.00    -0.004 A 
ATOM      4  C2  UNL d   1       0.663  -0.481   1.391  0.00  0.00    -0.047 A 
ATOM      5  C3  UNL d   1      -0.515  -0.938   2.029  0.00  0.00    -0.047 A 
ATOM      6  C4  UNL d   1      -0.306  -2.254   2.382  0.00  0.00    -0.004 A 
ENDROOT
TORSDOF 0
ENDMDL
