MODEL 1
REMARK minimizedAffinity -1.69217372
REMARK minimizedRMSD -1
REMARK  0 active torsions:
REMARK  status: ('A' for Active; 'I' for Inactive)
ROOT
ATOM      1  C   UNL d   1      -4.520  -5.879  -1.752  0.00  0.00     0.078 C 
ATOM      2  C1  UNL d   1      -5.029  -5.227  -3.003  0.00  0.00    -0.077 A 
ATOM      3  C2  UNL d   1      -5.294  -3.853  -3.044  0.00  0.00    -0.001 A 
ATOM      4  C3  UNL d   1      -5.776  -3.262  -4.213  0.00  0.00     0.003 A 
ATOM      5  C4  UNL d   1      -6.000  -4.037  -5.349  0.00  0.00    -0.005 A 
ATOM      6  C5  UNL d   1      -5.741  -5.406  -5.317  0.00  0.00     0.003 A 
ATOM      7  C6  UNL d   1      -5.259  -5.999  -4.149  0.00  0.00    -0.001 A 
ENDROOT
TORSDOF 0
ENDMDL
