MODEL 1
REMARK minimizedAffinity 6.90130138
REMARK minimizedRMSD -1
REMARK  0 active torsions:
REMARK  status: ('A' for Active; 'I' for Inactive)
ROOT
ATOM      1  C   UNL d   1      -5.752  -5.846  -5.956  0.00  0.00     0.078 C 
ATOM      2  C1  UNL d   1      -5.340  -5.315  -4.616  0.00  0.00    -0.077 A 
ATOM      3  C2  UNL d   1      -5.888  -4.129  -4.111  0.00  0.00    -0.001 A 
ATOM      4  C3  UNL d   1      -5.487  -3.641  -2.866  0.00  0.00     0.003 A 
ATOM      5  C4  UNL d   1      -4.537  -4.331  -2.117  0.00  0.00    -0.005 A 
ATOM      6  C5  UNL d   1      -3.984  -5.510  -2.612  0.00  0.00     0.003 A 
ATOM      7  C6  UNL d   1      -4.383  -6.000  -3.857  0.00  0.00    -0.001 A 
ENDROOT
TORSDOF 0
ENDMDL
