MODEL 1
REMARK minimizedAffinity -1.5160768
REMARK minimizedRMSD -1
REMARK  0 active torsions:
REMARK  status: ('A' for Active; 'I' for Inactive)
ROOT
ATOM      1  C   UNL d   1      -5.901  -3.360  -5.928  0.00  0.00     0.078 C 
ATOM      2  C1  UNL d   1      -5.512  -4.164  -4.724  0.00  0.00    -0.077 A 
ATOM      3  C2  UNL d   1      -5.999  -3.840  -3.452  0.00  0.00    -0.001 A 
ATOM      4  C3  UNL d   1      -5.621  -4.591  -2.338  0.00  0.00     0.003 A 
ATOM      5  C4  UNL d   1      -4.752  -5.671  -2.485  0.00  0.00    -0.005 A 
ATOM      6  C5  UNL d   1      -4.260  -6.000  -3.746  0.00  0.00     0.003 A 
ATOM      7  C6  UNL d   1      -4.638  -5.250  -4.861  0.00  0.00    -0.001 A 
ENDROOT
TORSDOF 0
ENDMDL
