MODEL 1
REMARK minimizedAffinity 5.04066086
REMARK minimizedRMSD -1
REMARK  0 active torsions:
REMARK  status: ('A' for Active; 'I' for Inactive)
ROOT
ATOM      1  C   UNL d   1      -6.000  -1.379   2.613  0.00  0.00     0.078 C 
ATOM      2  C1  UNL d   1      -4.703  -0.627   2.601  0.00  0.00    -0.077 A 
ATOM      3  C2  UNL d   1      -3.860  -0.624   3.719  0.00  0.00    -0.001 A 
ATOM      4  C3  UNL d   1      -2.660   0.088   3.697  0.00  0.00     0.003 A 
ATOM      5  C4  UNL d   1      -2.292   0.805   2.560  0.00  0.00    -0.005 A 
ATOM      6  C5  UNL d   1      -3.125   0.810   1.443  0.00  0.00     0.003 A 
ATOM      7  C6  UNL d   1      -4.325   0.098   1.463  0.00  0.00    -0.001 A 
ENDROOT
TORSDOF 0
ENDMDL
