MODEL 1
REMARK minimizedAffinity 6.36565495
REMARK minimizedRMSD -1
REMARK  0 active torsions:
REMARK  status: ('A' for Active; 'I' for Inactive)
ROOT
ATOM      1  C   UNL d   1      -2.542   0.474   1.962  0.00  0.00     0.078 C 
ATOM      2  C1  UNL d   1      -3.743  -0.333   2.356  0.00  0.00    -0.077 A 
ATOM      3  C2  UNL d   1      -4.694  -0.722   1.405  0.00  0.00    -0.001 A 
ATOM      4  C3  UNL d   1      -5.812  -1.465   1.787  0.00  0.00     0.003 A 
ATOM      5  C4  UNL d   1      -5.990  -1.824   3.122  0.00  0.00    -0.005 A 
ATOM      6  C5  UNL d   1      -5.050  -1.440   4.076  0.00  0.00     0.003 A 
ATOM      7  C6  UNL d   1      -3.931  -0.697   3.695  0.00  0.00    -0.001 A 
ENDROOT
TORSDOF 0
ENDMDL
