MODEL 1
REMARK minimizedAffinity 8.48754692
REMARK minimizedRMSD -1
REMARK  0 active torsions:
REMARK  status: ('A' for Active; 'I' for Inactive)
ROOT
ATOM      1  C   UNL d   1      -5.998  -2.235  -4.265  0.00  0.00     0.078 C 
ATOM      2  C1  UNL d   1      -5.433  -3.550  -3.816  0.00  0.00    -0.077 A 
ATOM      3  C2  UNL d   1      -5.991  -4.760  -4.246  0.00  0.00    -0.001 A 
ATOM      4  C3  UNL d   1      -5.461  -5.976  -3.812  0.00  0.00     0.003 A 
ATOM      5  C4  UNL d   1      -4.371  -5.994  -2.945  0.00  0.00    -0.005 A 
ATOM      6  C5  UNL d   1      -3.810  -4.795  -2.509  0.00  0.00     0.003 A 
ATOM      7  C6  UNL d   1      -4.339  -3.578  -2.942  0.00  0.00    -0.001 A 
ENDROOT
TORSDOF 0
ENDMDL
