MODEL 1
REMARK minimizedAffinity -1.55308485
REMARK minimizedRMSD -1
REMARK  0 active torsions:
REMARK  status: ('A' for Active; 'I' for Inactive)
ROOT
ATOM      1  C   UNL d   1      -5.891  -2.292  -5.884  0.00  0.00     0.078 C 
ATOM      2  C1  UNL d   1      -5.657  -3.576  -5.147  0.00  0.00    -0.077 A 
ATOM      3  C2  UNL d   1      -5.086  -3.580  -3.868  0.00  0.00    -0.001 A 
ATOM      4  C3  UNL d   1      -4.865  -4.784  -3.198  0.00  0.00     0.003 A 
ATOM      5  C4  UNL d   1      -5.211  -5.993  -3.798  0.00  0.00    -0.005 A 
ATOM      6  C5  UNL d   1      -5.778  -5.999  -5.071  0.00  0.00     0.003 A 
ATOM      7  C6  UNL d   1      -6.000  -4.796  -5.743  0.00  0.00    -0.001 A 
ENDROOT
TORSDOF 0
ENDMDL
