MODEL 1
REMARK minimizedAffinity 3.17203569
REMARK minimizedRMSD -1
REMARK  0 active torsions:
REMARK  status: ('A' for Active; 'I' for Inactive)
ROOT
ATOM      1  C   UNL d   1      -4.164  -5.531  -1.868  0.00  0.00     0.078 C 
ATOM      2  C1  UNL d   1      -4.811  -5.076  -3.142  0.00  0.00    -0.077 A 
ATOM      3  C2  UNL d   1      -5.239  -6.000  -4.103  0.00  0.00    -0.001 A 
ATOM      4  C3  UNL d   1      -5.831  -5.562  -5.289  0.00  0.00     0.003 A 
ATOM      5  C4  UNL d   1      -6.000  -4.199  -5.525  0.00  0.00    -0.005 A 
ATOM      6  C5  UNL d   1      -5.576  -3.272  -4.575  0.00  0.00     0.003 A 
ATOM      7  C6  UNL d   1      -4.983  -3.708  -3.389  0.00  0.00    -0.001 A 
ENDROOT
TORSDOF 0
ENDMDL
