MODEL 1
REMARK minimizedAffinity -1.9852134
REMARK minimizedRMSD -1
REMARK  0 active torsions:
REMARK  status: ('A' for Active; 'I' for Inactive)
ROOT
ATOM      1  C   UNL d   1      -5.368  -5.507  -1.947  0.00  0.00     0.078 C 
ATOM      2  C1  UNL d   1      -5.581  -5.044  -3.357  0.00  0.00    -0.077 A 
ATOM      3  C2  UNL d   1      -5.721  -3.683  -3.656  0.00  0.00    -0.001 A 
ATOM      4  C3  UNL d   1      -5.929  -3.267  -4.972  0.00  0.00     0.003 A 
ATOM      5  C4  UNL d   1      -5.999  -4.205  -6.000  0.00  0.00    -0.005 A 
ATOM      6  C5  UNL d   1      -5.863  -5.562  -5.712  0.00  0.00     0.003 A 
ATOM      7  C6  UNL d   1      -5.655  -5.980  -4.397  0.00  0.00    -0.001 A 
ENDROOT
TORSDOF 0
ENDMDL
