MODEL 1
REMARK minimizedAffinity -0.901975691
REMARK minimizedRMSD -1
REMARK  0 active torsions:
REMARK  status: ('A' for Active; 'I' for Inactive)
ROOT
ATOM      1  C   UNL d   1      -2.581  -3.013  -3.836  0.00  0.00     0.078 C 
ATOM      2  C1  UNL d   1      -3.663  -3.971  -3.436  0.00  0.00    -0.077 A 
ATOM      3  C2  UNL d   1      -3.372  -5.110  -2.676  0.00  0.00    -0.001 A 
ATOM      4  C3  UNL d   1      -4.388  -5.999  -2.319  0.00  0.00     0.003 A 
ATOM      5  C4  UNL d   1      -5.701  -5.758  -2.718  0.00  0.00    -0.005 A 
ATOM      6  C5  UNL d   1      -5.999  -4.628  -3.477  0.00  0.00     0.003 A 
ATOM      7  C6  UNL d   1      -4.985  -3.738  -3.835  0.00  0.00    -0.001 A 
ENDROOT
TORSDOF 0
ENDMDL
