MODEL 1
REMARK minimizedAffinity 1.46074712
REMARK minimizedRMSD -1
REMARK  0 active torsions:
REMARK  status: ('A' for Active; 'I' for Inactive)
ROOT
ATOM      1  C   UNL d   1      -4.156  -5.639  -2.409  0.00  0.00     0.078 C 
ATOM      2  C1  UNL d   1      -4.790  -5.110  -3.661  0.00  0.00    -0.077 A 
ATOM      3  C2  UNL d   1      -4.884  -3.733  -3.896  0.00  0.00    -0.001 A 
ATOM      4  C3  UNL d   1      -5.486  -3.255  -5.061  0.00  0.00     0.003 A 
ATOM      5  C4  UNL d   1      -6.000  -4.147  -6.000  0.00  0.00    -0.005 A 
ATOM      6  C5  UNL d   1      -5.913  -5.519  -5.774  0.00  0.00     0.003 A 
ATOM      7  C6  UNL d   1      -5.312  -5.999  -4.609  0.00  0.00    -0.001 A 
ENDROOT
TORSDOF 0
ENDMDL
