MODEL 1
REMARK minimizedAffinity -1.48766959
REMARK minimizedRMSD -1
REMARK  0 active torsions:
REMARK  status: ('A' for Active; 'I' for Inactive)
ROOT
ATOM      1  C   UNL d   1      -4.101  -5.248  -2.219  0.00  0.00     0.078 C 
ATOM      2  C1  UNL d   1      -4.771  -4.961  -3.529  0.00  0.00    -0.077 A 
ATOM      3  C2  UNL d   1      -5.386  -5.982  -4.264  0.00  0.00    -0.001 A 
ATOM      4  C3  UNL d   1      -5.998  -5.702  -5.487  0.00  0.00     0.003 A 
ATOM      5  C4  UNL d   1      -6.000  -4.401  -5.986  0.00  0.00    -0.005 A 
ATOM      6  C5  UNL d   1      -5.388  -3.379  -5.263  0.00  0.00     0.003 A 
ATOM      7  C6  UNL d   1      -4.776  -3.657  -4.040  0.00  0.00    -0.001 A 
ENDROOT
TORSDOF 0
ENDMDL
