MODEL 1
REMARK minimizedAffinity 4.19595909
REMARK minimizedRMSD -1
REMARK  0 active torsions:
REMARK  status: ('A' for Active; 'I' for Inactive)
ROOT
ATOM      1  C   UNL d   1       0.346  -3.821  -3.779  0.00  0.00     0.078 C 
ATOM      2  C1  UNL d   1       1.229  -3.025  -2.865  0.00  0.00    -0.077 A 
ATOM      3  C2  UNL d   1       1.808  -3.610  -1.732  0.00  0.00    -0.001 A 
ATOM      4  C3  UNL d   1       2.620  -2.855  -0.885  0.00  0.00     0.003 A 
ATOM      5  C4  UNL d   1       2.859  -1.510  -1.160  0.00  0.00    -0.005 A 
ATOM      6  C5  UNL d   1       2.286  -0.919  -2.284  0.00  0.00     0.003 A 
ATOM      7  C6  UNL d   1       1.473  -1.672  -3.133  0.00  0.00    -0.001 A 
ENDROOT
TORSDOF 0
ENDMDL
