MODEL 1
REMARK minimizedAffinity 1.43703103
REMARK minimizedRMSD -1
REMARK  0 active torsions:
REMARK  status: ('A' for Active; 'I' for Inactive)
ROOT
ATOM      1  C   UNL d   1      -4.269  -5.998  -1.838  0.00  0.00     0.078 C 
ATOM      2  C1  UNL d   1      -4.881  -5.286  -3.007  0.00  0.00    -0.077 A 
ATOM      3  C2  UNL d   1      -5.442  -5.999  -4.074  0.00  0.00    -0.001 A 
ATOM      4  C3  UNL d   1      -5.999  -5.323  -5.160  0.00  0.00     0.003 A 
ATOM      5  C4  UNL d   1      -6.000  -3.930  -5.191  0.00  0.00    -0.005 A 
ATOM      6  C5  UNL d   1      -5.442  -3.211  -4.136  0.00  0.00     0.003 A 
ATOM      7  C6  UNL d   1      -4.884  -3.886  -3.048  0.00  0.00    -0.001 A 
ENDROOT
TORSDOF 0
ENDMDL
