MODEL 1
REMARK minimizedAffinity -1.54619396
REMARK minimizedRMSD -1
REMARK  0 active torsions:
REMARK  status: ('A' for Active; 'I' for Inactive)
ROOT
ATOM      1  C   UNL d   1      -5.943  -2.180  -5.980  0.00  0.00     0.078 C 
ATOM      2  C1  UNL d   1      -5.680  -3.504  -5.327  0.00  0.00    -0.077 A 
ATOM      3  C2  UNL d   1      -5.105  -3.578  -4.052  0.00  0.00    -0.001 A 
ATOM      4  C3  UNL d   1      -4.856  -4.818  -3.461  0.00  0.00     0.003 A 
ATOM      5  C4  UNL d   1      -5.178  -5.993  -4.137  0.00  0.00    -0.005 A 
ATOM      6  C5  UNL d   1      -5.749  -5.929  -5.407  0.00  0.00     0.003 A 
ATOM      7  C6  UNL d   1      -5.998  -4.690  -6.000  0.00  0.00    -0.001 A 
ENDROOT
TORSDOF 0
ENDMDL
