MODEL 1
REMARK minimizedAffinity 3.62503314
REMARK minimizedRMSD -1
REMARK  0 active torsions:
REMARK  status: ('A' for Active; 'I' for Inactive)
ROOT
ATOM      1  C   UNL d   1      -3.749  -2.325  -4.476  0.00  0.00     0.078 C 
ATOM      2  C1  UNL d   1      -4.536  -3.590  -4.642  0.00  0.00    -0.077 A 
ATOM      3  C2  UNL d   1      -4.565  -4.559  -3.631  0.00  0.00    -0.001 A 
ATOM      4  C3  UNL d   1      -5.295  -5.736  -3.803  0.00  0.00     0.003 A 
ATOM      5  C4  UNL d   1      -5.999  -5.957  -4.985  0.00  0.00    -0.005 A 
ATOM      6  C5  UNL d   1      -5.975  -4.999  -5.997  0.00  0.00     0.003 A 
ATOM      7  C6  UNL d   1      -5.246  -3.821  -5.827  0.00  0.00    -0.001 A 
ENDROOT
TORSDOF 0
ENDMDL
