MODEL 1
REMARK minimizedAffinity -2.03359437
REMARK minimizedRMSD -1
REMARK  0 active torsions:
REMARK  status: ('A' for Active; 'I' for Inactive)
ROOT
ATOM      1  C   UNL d   1      -4.617  -5.775  -2.278  0.00  0.00     0.078 C 
ATOM      2  C1  UNL d   1      -5.105  -5.205  -3.576  0.00  0.00    -0.077 A 
ATOM      3  C2  UNL d   1      -5.189  -6.000  -4.726  0.00  0.00    -0.001 A 
ATOM      4  C3  UNL d   1      -5.635  -5.454  -5.931  0.00  0.00     0.003 A 
ATOM      5  C4  UNL d   1      -6.000  -4.111  -5.997  0.00  0.00    -0.005 A 
ATOM      6  C5  UNL d   1      -5.918  -3.312  -4.859  0.00  0.00     0.003 A 
ATOM      7  C6  UNL d   1      -5.471  -3.856  -3.653  0.00  0.00    -0.001 A 
ENDROOT
TORSDOF 0
ENDMDL
