MODEL 1
REMARK minimizedAffinity 9.02802372
REMARK minimizedRMSD -1
REMARK  0 active torsions:
REMARK  status: ('A' for Active; 'I' for Inactive)
ROOT
ATOM      1  C4' PXY d   1       0.371   1.193   2.978  0.00  0.00     0.077 C 
ATOM      2  C1' PXY d   1      -0.672   3.587  -2.179  0.00  0.00     0.077 C 
ATOM      3  C1  PXY d   1      -0.411   2.960  -0.823  0.00  0.00    -0.082 A 
ATOM      4  C2  PXY d   1       0.814   2.973  -0.322  0.00  0.00     0.003 A 
ATOM      5  C3  PXY d   1       1.073   2.383   0.889  0.00  0.00     0.003 A 
ATOM      6  C4  PXY d   1       0.059   1.821   1.617  0.00  0.00    -0.082 A 
ATOM      7  C5  PXY d   1      -1.194   1.814   1.118  0.00  0.00     0.003 A 
ATOM      8  C6  PXY d   1      -1.430   2.382  -0.131  0.00  0.00     0.003 A 
ENDROOT
TORSDOF 0
ENDMDL
