MODEL 1
REMARK minimizedAffinity 3.67470384
REMARK minimizedRMSD -1
REMARK  0 active torsions:
REMARK  status: ('A' for Active; 'I' for Inactive)
ROOT
ATOM      1  C4' PXY d   1       2.122  -3.154   5.715  0.00  0.00     0.077 C 
ATOM      2  C1' PXY d   1       0.253   1.038   2.201  0.00  0.00     0.077 C 
ATOM      3  C1  PXY d   1       0.742  -0.070   3.113  0.00  0.00    -0.082 A 
ATOM      4  C2  PXY d   1       0.637   0.068   4.425  0.00  0.00     0.003 A 
ATOM      5  C3  PXY d   1       1.103  -0.910   5.265  0.00  0.00     0.003 A 
ATOM      6  C4  PXY d   1       1.634  -2.065   4.756  0.00  0.00    -0.082 A 
ATOM      7  C5  PXY d   1       1.734  -2.219   3.418  0.00  0.00     0.003 A 
ATOM      8  C6  PXY d   1       1.293  -1.196   2.584  0.00  0.00     0.003 A 
ENDROOT
TORSDOF 0
ENDMDL
