MODEL 1
REMARK minimizedAffinity 1.65386307
REMARK minimizedRMSD -1
REMARK  0 active torsions:
REMARK  status: ('A' for Active; 'I' for Inactive)
ROOT
ATOM      1  C4' PXY d   1      -5.999  -1.682   5.283  0.00  0.00     0.077 C 
ATOM      2  C1' PXY d   1      -3.977   0.366   0.270  0.00  0.00     0.077 C 
ATOM      3  C1  PXY d   1      -4.502  -0.183   1.582  0.00  0.00    -0.082 A 
ATOM      4  C2  PXY d   1      -5.532   0.403   2.170  0.00  0.00     0.003 A 
ATOM      5  C3  PXY d   1      -6.000  -0.061   3.373  0.00  0.00     0.003 A 
ATOM      6  C4  PXY d   1      -5.441  -1.168   3.953  0.00  0.00    -0.082 A 
ATOM      7  C5  PXY d   1      -4.396  -1.777   3.354  0.00  0.00     0.003 A 
ATOM      8  C6  PXY d   1      -3.910  -1.266   2.154  0.00  0.00     0.003 A 
ENDROOT
TORSDOF 0
ENDMDL
