MODEL 1
REMARK minimizedAffinity 10.0190229
REMARK minimizedRMSD -1
REMARK  0 active torsions:
REMARK  status: ('A' for Active; 'I' for Inactive)
ROOT
ATOM      1  C4' PXY d   1      -6.000  -1.490   3.765  0.00  0.00     0.077 C 
ATOM      2  C1' PXY d   1      -4.490   1.025  -1.217  0.00  0.00     0.077 C 
ATOM      3  C1  PXY d   1      -4.887   0.377   0.095  0.00  0.00    -0.082 A 
ATOM      4  C2  PXY d   1      -4.512  -0.865   0.351  0.00  0.00     0.003 A 
ATOM      5  C3  PXY d   1      -4.889  -1.477   1.519  0.00  0.00     0.003 A 
ATOM      6  C4  PXY d   1      -5.614  -0.792   2.457  0.00  0.00    -0.082 A 
ATOM      7  C5  PXY d   1      -5.991   0.479   2.208  0.00  0.00     0.003 A 
ATOM      8  C6  PXY d   1      -5.633   1.069   0.999  0.00  0.00     0.003 A 
ENDROOT
TORSDOF 0
ENDMDL
