MODEL 1
REMARK minimizedAffinity 2.48363876
REMARK minimizedRMSD -1
REMARK  0 active torsions:
REMARK  status: ('A' for Active; 'I' for Inactive)
ROOT
ATOM      1  C4' PXY d   1      -5.954  -1.862   5.052  0.00  0.00     0.077 C 
ATOM      2  C1' PXY d   1      -4.222   0.693   0.164  0.00  0.00     0.077 C 
ATOM      3  C1  PXY d   1      -4.672   0.011   1.441  0.00  0.00    -0.082 A 
ATOM      4  C2  PXY d   1      -5.604   0.577   2.191  0.00  0.00     0.003 A 
ATOM      5  C3  PXY d   1      -6.000  -0.010   3.366  0.00  0.00     0.003 A 
ATOM      6  C4  PXY d   1      -5.475  -1.215   3.750  0.00  0.00    -0.082 A 
ATOM      7  C5  PXY d   1      -4.532  -1.804   2.984  0.00  0.00     0.003 A 
ATOM      8  C6  PXY d   1      -4.114  -1.172   1.817  0.00  0.00     0.003 A 
ENDROOT
TORSDOF 0
ENDMDL
