MODEL 1
REMARK minimizedAffinity 9.29224777
REMARK minimizedRMSD -1
REMARK  0 active torsions:
REMARK  status: ('A' for Active; 'I' for Inactive)
ROOT
ATOM      1  C4' PXY d   1      -4.053   1.452  -1.739  0.00  0.00     0.077 C 
ATOM      2  C1' PXY d   1      -0.586   5.744  -3.462  0.00  0.00     0.077 C 
ATOM      3  C1  PXY d   1      -1.486   4.610  -3.012  0.00  0.00    -0.082 A 
ATOM      4  C2  PXY d   1      -2.797   4.720  -3.152  0.00  0.00     0.003 A 
ATOM      5  C3  PXY d   1      -3.627   3.717  -2.720  0.00  0.00     0.003 A 
ATOM      6  C4  PXY d   1      -3.106   2.568  -2.189  0.00  0.00    -0.082 A 
ATOM      7  C5  PXY d   1      -1.769   2.444  -2.052  0.00  0.00     0.003 A 
ATOM      8  C6  PXY d   1      -0.946   3.490  -2.459  0.00  0.00     0.003 A 
ENDROOT
TORSDOF 0
ENDMDL
