MODEL 1
REMARK minimizedAffinity 5.36385727
REMARK minimizedRMSD -1
REMARK  0 active torsions:
REMARK  status: ('A' for Active; 'I' for Inactive)
ROOT
ATOM      1  C4' PXY d   1      -0.874   4.118  -3.358  0.00  0.00     0.077 C 
ATOM      2  C1' PXY d   1       0.162   1.676   1.778  0.00  0.00     0.077 C 
ATOM      3  C1  PXY d   1      -0.110   2.305   0.426  0.00  0.00    -0.082 A 
ATOM      4  C2  PXY d   1       0.252   3.558   0.202  0.00  0.00     0.003 A 
ATOM      5  C3  PXY d   1      -0.015   4.152  -1.005  0.00  0.00     0.003 A 
ATOM      6  C4  PXY d   1      -0.611   3.440  -2.011  0.00  0.00    -0.082 A 
ATOM      7  C5  PXY d   1      -0.974   2.158  -1.794  0.00  0.00     0.003 A 
ATOM      8  C6  PXY d   1      -0.731   1.586  -0.548  0.00  0.00     0.003 A 
ENDROOT
TORSDOF 0
ENDMDL
