MODEL 1
REMARK minimizedAffinity 10.3039789
REMARK minimizedRMSD -1
REMARK  0 active torsions:
REMARK  status: ('A' for Active; 'I' for Inactive)
ROOT
ATOM      1  C4' PXY d   1      -1.478   1.866   2.742  0.00  0.00     0.077 C 
ATOM      2  C1' PXY d   1      -5.999  -1.543   3.905  0.00  0.00     0.077 C 
ATOM      3  C1  PXY d   1      -4.821  -0.641   3.593  0.00  0.00    -0.082 A 
ATOM      4  C2  PXY d   1      -3.593  -1.134   3.625  0.00  0.00     0.003 A 
ATOM      5  C3  PXY d   1      -2.515  -0.325   3.377  0.00  0.00     0.003 A 
ATOM      6  C4  PXY d   1      -2.698   0.990   3.041  0.00  0.00    -0.082 A 
ATOM      7  C5  PXY d   1      -3.948   1.497   2.996  0.00  0.00     0.003 A 
ATOM      8  C6  PXY d   1      -5.027   0.669   3.291  0.00  0.00     0.003 A 
ENDROOT
TORSDOF 0
ENDMDL
