MODEL 1
REMARK minimizedAffinity 11.3917799
REMARK minimizedRMSD -1
REMARK  0 active torsions:
REMARK  status: ('A' for Active; 'I' for Inactive)
ROOT
ATOM      1  C4' PXY d   1      -5.355   0.471  -1.095  0.00  0.00     0.077 C 
ATOM      2  C1' PXY d   1      -0.098   1.986   0.773  0.00  0.00     0.077 C 
ATOM      3  C1  PXY d   1      -1.478   1.581   0.294  0.00  0.00    -0.082 A 
ATOM      4  C2  PXY d   1      -1.787   1.702  -0.987  0.00  0.00     0.003 A 
ATOM      5  C3  PXY d   1      -3.041   1.370  -1.433  0.00  0.00     0.003 A 
ATOM      6  C4  PXY d   1      -3.971   0.859  -0.567  0.00  0.00    -0.082 A 
ATOM      7  C5  PXY d   1      -3.660   0.723   0.739  0.00  0.00     0.003 A 
ATOM      8  C6  PXY d   1      -2.395   1.104   1.179  0.00  0.00     0.003 A 
ENDROOT
TORSDOF 0
ENDMDL
