MODEL 1
REMARK minimizedAffinity 4.46499252
REMARK minimizedRMSD -1
REMARK  0 active torsions:
REMARK  status: ('A' for Active; 'I' for Inactive)
ROOT
ATOM      1  C4' PXY d   1       5.995  -4.826  -0.823  0.00  0.00     0.077 C 
ATOM      2  C1' PXY d   1       0.248  -4.208  -0.876  0.00  0.00     0.077 C 
ATOM      3  C1  PXY d   1       1.754  -4.382  -0.867  0.00  0.00    -0.082 A 
ATOM      4  C2  PXY d   1       2.492  -3.648  -0.050  0.00  0.00     0.003 A 
ATOM      5  C3  PXY d   1       3.858  -3.770  -0.052  0.00  0.00     0.003 A 
ATOM      6  C4  PXY d   1       4.470  -4.690  -0.860  0.00  0.00    -0.082 A 
ATOM      7  C5  PXY d   1       3.723  -5.450  -1.688  0.00  0.00     0.003 A 
ATOM      8  C6  PXY d   1       2.341  -5.282  -1.701  0.00  0.00     0.003 A 
ENDROOT
TORSDOF 0
ENDMDL
