MODEL 1
REMARK minimizedAffinity 4.7351923
REMARK minimizedRMSD -1
REMARK  1 active torsions:
REMARK  status: ('A' for Active; 'I' for Inactive)
REMARK    1  A    between atoms: C1_2  and  C2_3 
ROOT
ATOM      1  C2  UNL d   1      -0.939   0.894  -1.217  0.00  0.00    -0.077 A 
ATOM      2  C3  UNL d   1       0.040  -0.024  -1.620  0.00  0.00     0.002 A 
ATOM      3  C4  UNL d   1      -0.294  -1.361  -1.845  0.00  0.00     0.002 A 
ATOM      4  C5  UNL d   1      -1.608  -1.791  -1.672  0.00  0.00    -0.004 A 
ATOM      5  C6  UNL d   1      -2.589  -0.886  -1.269  0.00  0.00     0.002 A 
ATOM      6  C7  UNL d   1      -2.257   0.451  -1.044  0.00  0.00     0.002 A 
ENDROOT
BRANCH   1   7
ATOM      7  C1  UNL d   1      -0.591   2.346  -1.022  0.00  0.00     0.055 C 
ATOM      8  C   UNL d   1      -0.250   2.644   0.431  0.00  0.00     0.019 C 
ENDBRANCH   1   7
TORSDOF 1
ENDMDL
