MODEL 1
REMARK minimizedAffinity 4.53336763
REMARK minimizedRMSD -1
REMARK  1 active torsions:
REMARK  status: ('A' for Active; 'I' for Inactive)
REMARK    1  A    between atoms: C1_2  and  C2_3 
ROOT
ATOM      1  C2  UNL d   1       4.101  -3.923  -1.521  0.00  0.00    -0.077 A 
ATOM      2  C3  UNL d   1       3.117  -3.923  -0.522  0.00  0.00     0.002 A 
ATOM      3  C4  UNL d   1       2.176  -4.952  -0.458  0.00  0.00     0.002 A 
ATOM      4  C5  UNL d   1       2.212  -5.991  -1.385  0.00  0.00    -0.004 A 
ATOM      5  C6  UNL d   1       3.186  -6.000  -2.383  0.00  0.00     0.002 A 
ATOM      6  C7  UNL d   1       4.126  -4.971  -2.450  0.00  0.00     0.002 A 
ENDROOT
BRANCH   1   7
ATOM      7  C1  UNL d   1       5.146  -2.840  -1.563  0.00  0.00     0.055 C 
ATOM      8  C   UNL d   1       4.530  -1.488  -1.894  0.00  0.00     0.019 C 
ENDBRANCH   1   7
TORSDOF 1
ENDMDL
