MODEL 1
REMARK minimizedAffinity 1.41860819
REMARK minimizedRMSD -1
REMARK  1 active torsions:
REMARK  status: ('A' for Active; 'I' for Inactive)
REMARK    1  A    between atoms: C1_2  and  C2_3 
ROOT
ATOM      1  C2  UNL d   1      -3.392  -1.063  -0.957  0.00  0.00    -0.077 A 
ATOM      2  C3  UNL d   1      -3.658   0.295  -1.182  0.00  0.00     0.002 A 
ATOM      3  C4  UNL d   1      -4.211   1.084  -0.171  0.00  0.00     0.002 A 
ATOM      4  C5  UNL d   1      -4.498   0.524   1.073  0.00  0.00    -0.004 A 
ATOM      5  C6  UNL d   1      -4.238  -0.826   1.306  0.00  0.00     0.002 A 
ATOM      6  C7  UNL d   1      -3.687  -1.615   0.296  0.00  0.00     0.002 A 
ENDROOT
BRANCH   1   7
ATOM      7  C1  UNL d   1      -2.750  -1.903  -2.030  0.00  0.00     0.055 C 
ATOM      8  C   UNL d   1      -1.238  -1.732  -2.037  0.00  0.00     0.019 C 
ENDBRANCH   1   7
TORSDOF 1
ENDMDL
