MODEL 1
REMARK minimizedAffinity 2.2098465
REMARK minimizedRMSD -1
REMARK  1 active torsions:
REMARK  status: ('A' for Active; 'I' for Inactive)
REMARK    1  A    between atoms: C1_2  and  C2_3 
ROOT
ATOM      1  C2  UNL d   1       0.142   2.875   1.533  0.00  0.00    -0.077 A 
ATOM      2  C3  UNL d   1       0.307   4.138   0.948  0.00  0.00     0.002 A 
ATOM      3  C4  UNL d   1       0.163   4.302  -0.431  0.00  0.00     0.002 A 
ATOM      4  C5  UNL d   1      -0.152   3.209  -1.235  0.00  0.00    -0.004 A 
ATOM      5  C6  UNL d   1      -0.317   1.948  -0.663  0.00  0.00     0.002 A 
ATOM      6  C7  UNL d   1      -0.172   1.782   0.715  0.00  0.00     0.002 A 
ENDROOT
BRANCH   1   7
ATOM      7  C1  UNL d   1       0.249   2.705   3.026  0.00  0.00     0.055 C 
ATOM      8  C   UNL d   1      -0.287   1.351   3.470  0.00  0.00     0.019 C 
ENDBRANCH   1   7
TORSDOF 1
ENDMDL
