MODEL 1
REMARK minimizedAffinity 0.719504833
REMARK minimizedRMSD -1
REMARK  1 active torsions:
REMARK  status: ('A' for Active; 'I' for Inactive)
REMARK    1  A    between atoms: C1_2  and  C2_3 
ROOT
ATOM      1  C2  UNL d   1      -0.816   1.550  -0.934  0.00  0.00    -0.077 A 
ATOM      2  C3  UNL d   1      -2.214   1.492  -1.021  0.00  0.00     0.002 A 
ATOM      3  C4  UNL d   1      -2.866   0.260  -1.109  0.00  0.00     0.002 A 
ATOM      4  C5  UNL d   1      -2.128  -0.922  -1.105  0.00  0.00    -0.004 A 
ATOM      5  C6  UNL d   1      -0.737  -0.874  -1.021  0.00  0.00     0.002 A 
ATOM      6  C7  UNL d   1      -0.084   0.356  -0.934  0.00  0.00     0.002 A 
ENDROOT
BRANCH   1   7
ATOM      7  C1  UNL d   1      -0.115   2.875  -0.790  0.00  0.00     0.055 C 
ATOM      8  C   UNL d   1       0.368   3.095   0.637  0.00  0.00     0.019 C 
ENDBRANCH   1   7
TORSDOF 1
ENDMDL
