MODEL 1
REMARK minimizedAffinity -0.58712858
REMARK minimizedRMSD -1
REMARK  1 active torsions:
REMARK  status: ('A' for Active; 'I' for Inactive)
REMARK    1  A    between atoms: C1_2  and  C2_3 
ROOT
ATOM      1  C2  UNL d   1       0.230   4.208   0.171  0.00  0.00    -0.077 A 
ATOM      2  C3  UNL d   1       1.540   4.649   0.407  0.00  0.00     0.002 A 
ATOM      3  C4  UNL d   1       2.162   4.390   1.629  0.00  0.00     0.002 A 
ATOM      4  C5  UNL d   1       1.485   3.687   2.623  0.00  0.00    -0.004 A 
ATOM      5  C6  UNL d   1       0.181   3.247   2.399  0.00  0.00     0.002 A 
ATOM      6  C7  UNL d   1      -0.443   3.505   1.178  0.00  0.00     0.002 A 
ENDROOT
BRANCH   1   7
ATOM      7  C1  UNL d   1      -0.426   4.443  -1.165  0.00  0.00     0.055 C 
ATOM      8  C   UNL d   1      -0.186   5.863  -1.658  0.00  0.00     0.019 C 
ENDBRANCH   1   7
TORSDOF 1
ENDMDL
