MODEL 1
REMARK minimizedAffinity 3.0917716
REMARK minimizedRMSD -1
REMARK  3 active torsions:
REMARK  status: ('A' for Active; 'I' for Inactive)
REMARK    1  A    between atoms: C3'_2  and  C2'_3 
REMARK    2  A    between atoms: C2'_3  and  C1'_4 
REMARK    3  A    between atoms: C1'_4  and  C1_5 
ROOT
ATOM      1  C1  N4B d   1       3.610   1.288  -5.969  0.00  0.00    -0.075 A 
ATOM      2  C2  N4B d   1       3.614   2.700  -5.990  0.00  0.00     0.002 A 
ATOM      3  C3  N4B d   1       4.805   3.383  -5.999  0.00  0.00     0.002 A 
ATOM      4  C4  N4B d   1       6.000   2.679  -5.968  0.00  0.00    -0.004 A 
ATOM      5  C5  N4B d   1       5.987   1.315  -5.973  0.00  0.00     0.002 A 
ATOM      6  C6  N4B d   1       4.797   0.616  -5.968  0.00  0.00     0.002 A 
ENDROOT
BRANCH   1   7
ATOM      7  C1' N4B d   1       2.333   0.499  -5.872  0.00  0.00     0.057 C 
BRANCH   7   8
ATOM      8  C2' N4B d   1       1.780   0.614  -4.454  0.00  0.00     0.009 C 
BRANCH   8   9
ATOM      9  C3' N4B d   1       1.114  -0.673  -3.998  0.00  0.00     0.004 C 
ATOM     10  C4' N4B d   1       1.145  -0.847  -2.509  0.00  0.00     0.003 C 
ENDBRANCH   8   9
ENDBRANCH   7   8
ENDBRANCH   1   7
TORSDOF 3
ENDMDL
