MODEL 1
REMARK minimizedAffinity -4.83972216
REMARK minimizedRMSD -1
REMARK  3 active torsions:
REMARK  status: ('A' for Active; 'I' for Inactive)
REMARK    1  A    between atoms: C3'_2  and  C2'_3 
REMARK    2  A    between atoms: C2'_3  and  C1'_4 
REMARK    3  A    between atoms: C1'_4  and  C1_5 
ROOT
ATOM      1  C1  N4B d   1      -4.025   3.320   5.107  0.00  0.00    -0.075 A 
ATOM      2  C2  N4B d   1      -5.051   3.750   5.977  0.00  0.00     0.002 A 
ATOM      3  C3  N4B d   1      -5.425   5.071   5.998  0.00  0.00     0.002 A 
ATOM      4  C4  N4B d   1      -4.778   5.980   5.175  0.00  0.00    -0.004 A 
ATOM      5  C5  N4B d   1      -3.806   5.553   4.319  0.00  0.00     0.002 A 
ATOM      6  C6  N4B d   1      -3.422   4.227   4.284  0.00  0.00     0.002 A 
ENDROOT
BRANCH   1   7
ATOM      7  C1' N4B d   1      -3.522   1.903   5.110  0.00  0.00     0.057 C 
BRANCH   7   8
ATOM      8  C2' N4B d   1      -4.620   0.983   5.638  0.00  0.00     0.009 C 
BRANCH   8   9
ATOM      9  C3' N4B d   1      -4.639  -0.352   4.914  0.00  0.00     0.004 C 
ATOM     10  C4' N4B d   1      -3.284  -0.990   4.837  0.00  0.00     0.003 C 
ENDBRANCH   8   9
ENDBRANCH   7   8
ENDBRANCH   1   7
TORSDOF 3
ENDMDL
