MODEL 1
REMARK minimizedAffinity 4.53199577
REMARK minimizedRMSD -1
REMARK  3 active torsions:
REMARK  status: ('A' for Active; 'I' for Inactive)
REMARK    1  A    between atoms: C3'_2  and  C2'_3 
REMARK    2  A    between atoms: C2'_3  and  C1'_4 
REMARK    3  A    between atoms: C1'_4  and  C1_5 
ROOT
ATOM      1  C1  N4B d   1       1.442  -0.725  -3.562  0.00  0.00    -0.075 A 
ATOM      2  C2  N4B d   1       1.792  -1.966  -2.985  0.00  0.00     0.002 A 
ATOM      3  C3  N4B d   1       1.456  -2.236  -1.681  0.00  0.00     0.002 A 
ATOM      4  C4  N4B d   1       0.789  -1.278  -0.932  0.00  0.00    -0.004 A 
ATOM      5  C5  N4B d   1       0.432  -0.092  -1.505  0.00  0.00     0.002 A 
ATOM      6  C6  N4B d   1       0.760   0.191  -2.815  0.00  0.00     0.002 A 
ENDROOT
BRANCH   1   7
ATOM      7  C1' N4B d   1       1.864  -0.351  -4.956  0.00  0.00     0.057 C 
BRANCH   7   8
ATOM      8  C2' N4B d   1       2.930   0.739  -4.882  0.00  0.00     0.009 C 
BRANCH   8   9
ATOM      9  C3' N4B d   1       3.952   0.611  -5.998  0.00  0.00     0.004 C 
ATOM     10  C4' N4B d   1       5.336   0.994  -5.566  0.00  0.00     0.003 C 
ENDBRANCH   8   9
ENDBRANCH   7   8
ENDBRANCH   1   7
TORSDOF 3
ENDMDL
