MODEL 1
REMARK minimizedAffinity 2.96402669
REMARK minimizedRMSD -1
REMARK  3 active torsions:
REMARK  status: ('A' for Active; 'I' for Inactive)
REMARK    1  A    between atoms: C3'_2  and  C2'_3 
REMARK    2  A    between atoms: C2'_3  and  C1'_4 
REMARK    3  A    between atoms: C1'_4  and  C1_5 
ROOT
ATOM      1  C1  N4B d   1       4.481   3.556  -5.218  0.00  0.00    -0.075 A 
ATOM      2  C2  N4B d   1       3.364   3.971  -5.977  0.00  0.00     0.002 A 
ATOM      3  C3  N4B d   1       2.350   4.676  -5.376  0.00  0.00     0.002 A 
ATOM      4  C4  N4B d   1       2.422   4.961  -4.021  0.00  0.00    -0.004 A 
ATOM      5  C5  N4B d   1       3.516   4.578  -3.301  0.00  0.00     0.002 A 
ATOM      6  C6  N4B d   1       4.544   3.873  -3.892  0.00  0.00     0.002 A 
ENDROOT
BRANCH   1   7
ATOM      7  C1' N4B d   1       5.573   2.709  -5.812  0.00  0.00     0.057 C 
BRANCH   7   8
ATOM      8  C2' N4B d   1       5.059   1.284  -5.994  0.00  0.00     0.009 C 
BRANCH   8   9
ATOM      9  C3' N4B d   1       5.991   0.260  -5.371  0.00  0.00     0.004 C 
ATOM     10  C4' N4B d   1       5.997   0.316  -3.872  0.00  0.00     0.003 C 
ENDBRANCH   8   9
ENDBRANCH   7   8
ENDBRANCH   1   7
TORSDOF 3
ENDMDL
