MODEL 1
REMARK minimizedAffinity 1.60643852
REMARK minimizedRMSD -1
REMARK  3 active torsions:
REMARK  status: ('A' for Active; 'I' for Inactive)
REMARK    1  A    between atoms: C3'_2  and  C2'_3 
REMARK    2  A    between atoms: C2'_3  and  C1'_4 
REMARK    3  A    between atoms: C1'_4  and  C1_5 
ROOT
ATOM      1  C1  N4B d   1       1.768  -0.736  -3.771  0.00  0.00    -0.075 A 
ATOM      2  C2  N4B d   1       1.518  -2.119  -3.911  0.00  0.00     0.002 A 
ATOM      3  C3  N4B d   1       1.146  -2.864  -2.819  0.00  0.00     0.002 A 
ATOM      4  C4  N4B d   1       1.037  -2.254  -1.578  0.00  0.00    -0.004 A 
ATOM      5  C5  N4B d   1       1.255  -0.912  -1.456  0.00  0.00     0.002 A 
ATOM      6  C6  N4B d   1       1.625  -0.151  -2.546  0.00  0.00     0.002 A 
ENDROOT
BRANCH   1   7
ATOM      7  C1' N4B d   1       2.260   0.102  -4.919  0.00  0.00     0.057 C 
BRANCH   7   8
ATOM      8  C2' N4B d   1       3.739   0.414  -4.714  0.00  0.00     0.009 C 
BRANCH   8   9
ATOM      9  C3' N4B d   1       4.403   0.890  -5.995  0.00  0.00     0.004 C 
ATOM     10  C4' N4B d   1       5.900   0.826  -5.931  0.00  0.00     0.003 C 
ENDBRANCH   8   9
ENDBRANCH   7   8
ENDBRANCH   1   7
TORSDOF 3
ENDMDL
