MODEL 1
REMARK minimizedAffinity 3.16602182
REMARK minimizedRMSD -1
REMARK  3 active torsions:
REMARK  status: ('A' for Active; 'I' for Inactive)
REMARK    1  A    between atoms: C3'_2  and  C2'_3 
REMARK    2  A    between atoms: C2'_3  and  C1'_4 
REMARK    3  A    between atoms: C1'_4  and  C1_5 
ROOT
ATOM      1  C1  N4B d   1       1.451   0.921  -0.657  0.00  0.00    -0.075 A 
ATOM      2  C2  N4B d   1       1.079   1.228  -1.984  0.00  0.00     0.002 A 
ATOM      3  C3  N4B d   1       0.709   0.223  -2.843  0.00  0.00     0.002 A 
ATOM      4  C4  N4B d   1       0.722  -1.093  -2.405  0.00  0.00    -0.004 A 
ATOM      5  C5  N4B d   1       1.059  -1.379  -1.114  0.00  0.00     0.002 A 
ATOM      6  C6  N4B d   1       1.428  -0.378  -0.239  0.00  0.00     0.002 A 
ENDROOT
BRANCH   1   7
ATOM      7  C1' N4B d   1       1.945   1.978   0.294  0.00  0.00     0.057 C 
BRANCH   7   8
ATOM      8  C2' N4B d   1       3.057   1.392   1.159  0.00  0.00     0.009 C 
BRANCH   8   9
ATOM      9  C3' N4B d   1       3.821   2.470   1.908  0.00  0.00     0.004 C 
ATOM     10  C4' N4B d   1       4.916   1.914   2.768  0.00  0.00     0.003 C 
ENDBRANCH   8   9
ENDBRANCH   7   8
ENDBRANCH   1   7
TORSDOF 3
ENDMDL
