MODEL 1
REMARK minimizedAffinity 4.57540369
REMARK minimizedRMSD -1
REMARK  3 active torsions:
REMARK  status: ('A' for Active; 'I' for Inactive)
REMARK    1  A    between atoms: C3'_2  and  C2'_3 
REMARK    2  A    between atoms: C2'_3  and  C1'_4 
REMARK    3  A    between atoms: C1'_4  and  C1_5 
ROOT
ATOM      1  C1  N4B d   1       3.567   1.314  -5.030  0.00  0.00    -0.075 A 
ATOM      2  C2  N4B d   1       4.806   0.669  -4.817  0.00  0.00     0.002 A 
ATOM      3  C3  N4B d   1       5.963   1.407  -4.758  0.00  0.00     0.002 A 
ATOM      4  C4  N4B d   1       5.908   2.782  -4.929  0.00  0.00    -0.004 A 
ATOM      5  C5  N4B d   1       4.705   3.400  -5.110  0.00  0.00     0.002 A 
ATOM      6  C6  N4B d   1       3.534   2.672  -5.166  0.00  0.00     0.002 A 
ENDROOT
BRANCH   1   7
ATOM      7  C1' N4B d   1       2.286   0.541  -5.187  0.00  0.00     0.057 C 
BRANCH   7   8
ATOM      8  C2' N4B d   1       1.561   0.496  -3.845  0.00  0.00     0.009 C 
BRANCH   8   9
ATOM      9  C3' N4B d   1       1.036  -0.893  -3.529  0.00  0.00     0.004 C 
ATOM     10  C4' N4B d   1       1.221  -1.271  -2.090  0.00  0.00     0.003 C 
ENDBRANCH   8   9
ENDBRANCH   7   8
ENDBRANCH   1   7
TORSDOF 3
ENDMDL
