MODEL 1
REMARK minimizedAffinity 1.33298421
REMARK minimizedRMSD -1
REMARK  3 active torsions:
REMARK  status: ('A' for Active; 'I' for Inactive)
REMARK    1  A    between atoms: C3'_2  and  C2'_3 
REMARK    2  A    between atoms: C2'_3  and  C1'_4 
REMARK    3  A    between atoms: C1'_4  and  C1_5 
ROOT
ATOM      1  C1  N4B d   1       1.020  -0.237  -1.825  0.00  0.00    -0.075 A 
ATOM      2  C2  N4B d   1       0.863  -1.639  -1.765  0.00  0.00     0.002 A 
ATOM      3  C3  N4B d   1       1.045  -2.399  -2.894  0.00  0.00     0.002 A 
ATOM      4  C4  N4B d   1       1.364  -1.780  -4.093  0.00  0.00    -0.004 A 
ATOM      5  C5  N4B d   1       1.539  -0.428  -4.137  0.00  0.00     0.002 A 
ATOM      6  C6  N4B d   1       1.363   0.348  -3.009  0.00  0.00     0.002 A 
ENDROOT
BRANCH   1   7
ATOM      7  C1' N4B d   1       0.748   0.644  -0.636  0.00  0.00     0.057 C 
BRANCH   7   8
ATOM      8  C2' N4B d   1       0.747   2.103  -1.084  0.00  0.00     0.009 C 
BRANCH   8   9
ATOM      9  C3' N4B d   1       1.488   2.998  -0.105  0.00  0.00     0.004 C 
ATOM     10  C4' N4B d   1       2.444   2.240   0.766  0.00  0.00     0.003 C 
ENDBRANCH   8   9
ENDBRANCH   7   8
ENDBRANCH   1   7
TORSDOF 3
ENDMDL
