MODEL 1
REMARK minimizedAffinity 14.7827368
REMARK minimizedRMSD -1
REMARK  0 active torsions:
REMARK  status: ('A' for Active; 'I' for Inactive)
ROOT
ATOM      1  C4' PXY d   1       3.077  -5.999   0.527  0.00  0.00     0.077 C 
ATOM      2  C1' PXY d   1       0.748  -0.742   1.117  0.00  0.00     0.077 C 
ATOM      3  C1  PXY d   1       1.347  -2.126   0.962  0.00  0.00    -0.082 A 
ATOM      4  C2  PXY d   1       2.601  -2.340   1.324  0.00  0.00     0.003 A 
ATOM      5  C3  PXY d   1       3.169  -3.577   1.162  0.00  0.00     0.003 A 
ATOM      6  C4  PXY d   1       2.428  -4.620   0.673  0.00  0.00    -0.082 A 
ATOM      7  C5  PXY d   1       1.144  -4.413   0.312  0.00  0.00     0.003 A 
ATOM      8  C6  PXY d   1       0.599  -3.139   0.446  0.00  0.00     0.003 A 
ENDROOT
TORSDOF 0
ENDMDL
