MODEL 1
REMARK minimizedAffinity 17.3848991
REMARK minimizedRMSD -1
REMARK  0 active torsions:
REMARK  status: ('A' for Active; 'I' for Inactive)
ROOT
ATOM      1  C4' PXY d   1       3.717  -5.045   0.234  0.00  0.00     0.077 C 
ATOM      2  C1' PXY d   1       0.893  -0.310   1.973  0.00  0.00     0.077 C 
ATOM      3  C1  PXY d   1       1.645  -1.546   1.520  0.00  0.00    -0.082 A 
ATOM      4  C2  PXY d   1       1.080  -2.377   0.659  0.00  0.00     0.003 A 
ATOM      5  C3  PXY d   1       1.733  -3.515   0.263  0.00  0.00     0.003 A 
ATOM      6  C4  PXY d   1       2.999  -3.780   0.712  0.00  0.00    -0.082 A 
ATOM      7  C5  PXY d   1       3.587  -2.932   1.582  0.00  0.00     0.003 A 
ATOM      8  C6  PXY d   1       2.891  -1.802   2.003  0.00  0.00     0.003 A 
ENDROOT
TORSDOF 0
ENDMDL
