MODEL 1
REMARK minimizedAffinity 8.8334856
REMARK minimizedRMSD -1
REMARK  0 active torsions:
REMARK  status: ('A' for Active; 'I' for Inactive)
ROOT
ATOM      1  C4' PXY d   1      -5.694   4.881  -6.000  0.00  0.00     0.077 C 
ATOM      2  C1' PXY d   1      -1.253   2.567  -3.112  0.00  0.00     0.077 C 
ATOM      3  C1  PXY d   1      -2.418   3.183  -3.861  0.00  0.00    -0.082 A 
ATOM      4  C2  PXY d   1      -3.166   2.425  -4.647  0.00  0.00     0.003 A 
ATOM      5  C3  PXY d   1      -4.203   2.973  -5.356  0.00  0.00     0.003 A 
ATOM      6  C4  PXY d   1      -4.513   4.300  -5.218  0.00  0.00    -0.082 A 
ATOM      7  C5  PXY d   1      -3.762   5.077  -4.409  0.00  0.00     0.003 A 
ATOM      8  C6  PXY d   1      -2.687   4.511  -3.730  0.00  0.00     0.003 A 
ENDROOT
TORSDOF 0
ENDMDL
