MODEL 1
REMARK minimizedAffinity 6.99381304
REMARK minimizedRMSD -1
REMARK  0 active torsions:
REMARK  status: ('A' for Active; 'I' for Inactive)
ROOT
ATOM      1  C4' PXY d   1      -2.710   0.344  -1.622  0.00  0.00     0.077 C 
ATOM      2  C1' PXY d   1      -5.673   3.318  -5.596  0.00  0.00     0.077 C 
ATOM      3  C1  PXY d   1      -4.885   2.545  -4.557  0.00  0.00    -0.082 A 
ATOM      4  C2  PXY d   1      -5.323   1.365  -4.149  0.00  0.00     0.003 A 
ATOM      5  C3  PXY d   1      -4.640   0.666  -3.187  0.00  0.00     0.003 A 
ATOM      6  C4  PXY d   1      -3.468   1.156  -2.676  0.00  0.00    -0.082 A 
ATOM      7  C5  PXY d   1      -3.009   2.354  -3.096  0.00  0.00     0.003 A 
ATOM      8  C6  PXY d   1      -3.739   3.066  -4.043  0.00  0.00     0.003 A 
ENDROOT
TORSDOF 0
ENDMDL
