MODEL 1
REMARK minimizedAffinity 8.70986748
REMARK minimizedRMSD -1
REMARK  0 active torsions:
REMARK  status: ('A' for Active; 'I' for Inactive)
ROOT
ATOM      1  C4' PXY d   1      -0.965   0.300   3.848  0.00  0.00     0.077 C 
ATOM      2  C1' PXY d   1       2.760  -2.746   0.644  0.00  0.00     0.077 C 
ATOM      3  C1  PXY d   1       1.774  -1.948   1.475  0.00  0.00    -0.082 A 
ATOM      4  C2  PXY d   1       2.222  -1.105   2.391  0.00  0.00     0.003 A 
ATOM      5  C3  PXY d   1       1.344  -0.400   3.173  0.00  0.00     0.003 A 
ATOM      6  C4  PXY d   1      -0.006  -0.519   2.980  0.00  0.00    -0.082 A 
ATOM      7  C5  PXY d   1      -0.471  -1.369   2.040  0.00  0.00     0.003 A 
ATOM      8  C6  PXY d   1       0.436  -2.106   1.284  0.00  0.00     0.003 A 
ENDROOT
TORSDOF 0
ENDMDL
