MODEL 1
REMARK minimizedAffinity 6.51921701
REMARK minimizedRMSD -1
REMARK  0 active torsions:
REMARK  status: ('A' for Active; 'I' for Inactive)
ROOT
ATOM      1  C4' PXY d   1       4.078  -2.396   4.414  0.00  0.00     0.077 C 
ATOM      2  C1' PXY d   1      -1.192  -0.830   2.627  0.00  0.00     0.077 C 
ATOM      3  C1  PXY d   1       0.187  -1.253   3.094  0.00  0.00    -0.082 A 
ATOM      4  C2  PXY d   1       0.873  -0.466   3.906  0.00  0.00     0.003 A 
ATOM      5  C3  PXY d   1       2.135  -0.818   4.312  0.00  0.00     0.003 A 
ATOM      6  C4  PXY d   1       2.679  -2.014   3.925  0.00  0.00    -0.082 A 
ATOM      7  C5  PXY d   1       1.981  -2.827   3.105  0.00  0.00     0.003 A 
ATOM      8  C6  PXY d   1       0.719  -2.432   2.671  0.00  0.00     0.003 A 
ENDROOT
TORSDOF 0
ENDMDL
