MODEL 1
REMARK minimizedAffinity 8.65278435
REMARK minimizedRMSD -1
REMARK  0 active torsions:
REMARK  status: ('A' for Active; 'I' for Inactive)
ROOT
ATOM      1  C4' PXY d   1       5.524  -2.321  -0.497  0.00  0.00     0.077 C 
ATOM      2  C1' PXY d   1      -0.030  -2.224   1.105  0.00  0.00     0.077 C 
ATOM      3  C1  PXY d   1       1.426  -2.262   0.683  0.00  0.00    -0.082 A 
ATOM      4  C2  PXY d   1       2.268  -1.359   1.157  0.00  0.00     0.003 A 
ATOM      5  C3  PXY d   1       3.581  -1.360   0.760  0.00  0.00     0.003 A 
ATOM      6  C4  PXY d   1       4.048  -2.326  -0.090  0.00  0.00    -0.082 A 
ATOM      7  C5  PXY d   1       3.196  -3.257  -0.570  0.00  0.00     0.003 A 
ATOM      8  C6  PXY d   1       1.859  -3.215  -0.187  0.00  0.00     0.003 A 
ENDROOT
TORSDOF 0
ENDMDL
