MODEL 1
REMARK minimizedAffinity 11.472949
REMARK minimizedRMSD -1
REMARK  0 active torsions:
REMARK  status: ('A' for Active; 'I' for Inactive)
ROOT
ATOM      1  C4' PXY d   1      -0.011   3.083  -3.307  0.00  0.00     0.077 C 
ATOM      2  C1' PXY d   1      -3.999  -0.702  -1.521  0.00  0.00     0.077 C 
ATOM      3  C1  PXY d   1      -2.962   0.297  -1.997  0.00  0.00    -0.082 A 
ATOM      4  C2  PXY d   1      -1.677  -0.006  -1.914  0.00  0.00     0.003 A 
ATOM      5  C3  PXY d   1      -0.725   0.898  -2.311  0.00  0.00     0.003 A 
ATOM      6  C4  PXY d   1      -1.093   2.102  -2.847  0.00  0.00    -0.082 A 
ATOM      7  C5  PXY d   1      -2.403   2.414  -2.945  0.00  0.00     0.003 A 
ATOM      8  C6  PXY d   1      -3.353   1.499  -2.499  0.00  0.00     0.003 A 
ENDROOT
TORSDOF 0
ENDMDL
