MODEL 1
REMARK minimizedAffinity 14.1711254
REMARK minimizedRMSD -1
REMARK  0 active torsions:
REMARK  status: ('A' for Active; 'I' for Inactive)
ROOT
ATOM      1  C4' PXY d   1      -0.283  -0.968  -0.872  0.00  0.00     0.077 C 
ATOM      2  C1' PXY d   1      -3.346   3.224  -3.414  0.00  0.00     0.077 C 
ATOM      3  C1  PXY d   1      -2.553   2.122  -2.739  0.00  0.00    -0.082 A 
ATOM      4  C2  PXY d   1      -1.233   2.116  -2.832  0.00  0.00     0.003 A 
ATOM      5  C3  PXY d   1      -0.502   1.110  -2.254  0.00  0.00     0.003 A 
ATOM      6  C4  PXY d   1      -1.124   0.130  -1.530  0.00  0.00    -0.082 A 
ATOM      7  C5  PXY d   1      -2.470   0.135  -1.421  0.00  0.00     0.003 A 
ATOM      8  C6  PXY d   1      -3.197   1.142  -2.050  0.00  0.00     0.003 A 
ENDROOT
TORSDOF 0
ENDMDL
