MODEL 1
REMARK minimizedAffinity 7.658741
REMARK minimizedRMSD -1
REMARK  0 active torsions:
REMARK  status: ('A' for Active; 'I' for Inactive)
ROOT
ATOM      1  C4' PXY d   1       4.808  -2.577   0.205  0.00  0.00     0.077 C 
ATOM      2  C1' PXY d   1      -0.789  -2.475   1.647  0.00  0.00     0.077 C 
ATOM      3  C1  PXY d   1       0.677  -2.514   1.265  0.00  0.00    -0.082 A 
ATOM      4  C2  PXY d   1       1.529  -1.690   1.854  0.00  0.00     0.003 A 
ATOM      5  C3  PXY d   1       2.853  -1.690   1.497  0.00  0.00     0.003 A 
ATOM      6  C4  PXY d   1       3.320  -2.579   0.566  0.00  0.00    -0.082 A 
ATOM      7  C5  PXY d   1       2.459  -3.430  -0.032  0.00  0.00     0.003 A 
ATOM      8  C6  PXY d   1       1.112  -3.386   0.314  0.00  0.00     0.003 A 
ENDROOT
TORSDOF 0
ENDMDL
