MODEL 1
REMARK minimizedAffinity 6.69717836
REMARK minimizedRMSD -1
REMARK  0 active torsions:
REMARK  status: ('A' for Active; 'I' for Inactive)
ROOT
ATOM      1  C4' PXY d   1       1.077   2.677  -3.772  0.00  0.00     0.077 C 
ATOM      2  C1' PXY d   1      -4.515   1.645  -4.813  0.00  0.00     0.077 C 
ATOM      3  C1  PXY d   1      -3.051   1.920  -4.528  0.00  0.00    -0.082 A 
ATOM      4  C2  PXY d   1      -2.213   2.108  -5.535  0.00  0.00     0.003 A 
ATOM      5  C3  PXY d   1      -0.880   2.326  -5.296  0.00  0.00     0.003 A 
ATOM      6  C4  PXY d   1      -0.411   2.406  -4.012  0.00  0.00    -0.082 A 
ATOM      7  C5  PXY d   1      -1.262   2.227  -2.980  0.00  0.00     0.003 A 
ATOM      8  C6  PXY d   1      -2.603   1.965  -3.244  0.00  0.00     0.003 A 
ENDROOT
TORSDOF 0
ENDMDL
