MODEL 1
REMARK minimizedAffinity 12.043169
REMARK minimizedRMSD -1
REMARK  0 active torsions:
REMARK  status: ('A' for Active; 'I' for Inactive)
ROOT
ATOM      1  C   UNL d   1       1.906  -0.222  -2.622  0.00  0.00     0.124 A 
ATOM      2  C1  UNL d   1       1.929   0.936  -1.857  0.00  0.00     0.062 A 
ATOM      3  C2  UNL d   1       2.508   0.926  -0.591  0.00  0.00     0.162 A 
ATOM      4  C3  UNL d   1       3.069  -0.246  -0.083  0.00  0.00    -0.034 A 
ATOM      5  C4  UNL d   1       3.041  -1.406  -0.858  0.00  0.00     0.162 A 
ATOM      6  C5  UNL d   1       2.461  -1.391  -2.123  0.00  0.00     0.062 A 
ATOM      7  F   UNL d   1       2.440  -2.510  -2.861  0.00  0.00    -0.097 F 
ATOM      8  F1  UNL d   1       3.571  -2.550  -0.400  0.00  0.00    -0.096 F 
ATOM      9  I   UNL d   1       3.936  -0.265   1.810  0.00  0.00    -0.060 I 
ATOM     10  F2  UNL d   1       2.517   2.059   0.127  0.00  0.00    -0.096 F 
ATOM     11  F3  UNL d   1       1.392   2.066  -2.337  0.00  0.00    -0.097 F 
ATOM     12  F4  UNL d   1       1.347  -0.210  -3.840  0.00  0.00    -0.092 F 
ENDROOT
TORSDOF 0
ENDMDL
