MODEL 1
REMARK minimizedAffinity 12.3009291
REMARK minimizedRMSD -1
REMARK  0 active torsions:
REMARK  status: ('A' for Active; 'I' for Inactive)
ROOT
ATOM      1  C   UNL d   1      -0.754   2.843   1.357  0.00  0.00     0.124 A 
ATOM      2  C1  UNL d   1       0.536   2.513   1.749  0.00  0.00     0.062 A 
ATOM      3  C2  UNL d   1       1.421   1.945   0.837  0.00  0.00     0.162 A 
ATOM      4  C3  UNL d   1       1.019   1.703  -0.477  0.00  0.00    -0.034 A 
ATOM      5  C4  UNL d   1      -0.280   2.037  -0.863  0.00  0.00     0.162 A 
ATOM      6  C5  UNL d   1      -1.161   2.605   0.052  0.00  0.00     0.062 A 
ATOM      7  F   UNL d   1      -2.407   2.923  -0.329  0.00  0.00    -0.097 F 
ATOM      8  F1  UNL d   1      -0.699   1.818  -2.118  0.00  0.00    -0.096 F 
ATOM      9  I   UNL d   1       2.339   0.853  -1.843  0.00  0.00    -0.060 I 
ATOM     10  F2  UNL d   1       2.661   1.636   1.244  0.00  0.00    -0.096 F 
ATOM     11  F3  UNL d   1       0.931   2.742   3.010  0.00  0.00    -0.097 F 
ATOM     12  F4  UNL d   1      -1.604   3.389   2.236  0.00  0.00    -0.092 F 
ENDROOT
TORSDOF 0
ENDMDL
