MODEL 1
REMARK minimizedAffinity 43.1721115
REMARK minimizedRMSD -1
REMARK  0 active torsions:
REMARK  status: ('A' for Active; 'I' for Inactive)
ROOT
ATOM      1  C   UNL d   1      -2.563  -1.276   1.282  0.00  0.00     0.124 A 
ATOM      2  C1  UNL d   1      -2.296  -0.465   2.376  0.00  0.00     0.062 A 
ATOM      3  C2  UNL d   1      -3.275  -0.244   3.340  0.00  0.00     0.162 A 
ATOM      4  C3  UNL d   1      -4.532  -0.836   3.214  0.00  0.00    -0.034 A 
ATOM      5  C4  UNL d   1      -4.794  -1.650   2.110  0.00  0.00     0.162 A 
ATOM      6  C5  UNL d   1      -3.812  -1.867   1.150  0.00  0.00     0.062 A 
ATOM      7  F   UNL d   1      -4.072  -2.651   0.093  0.00  0.00    -0.097 F 
ATOM      8  F1  UNL d   1      -5.992  -2.234   1.958  0.00  0.00    -0.096 F 
ATOM      9  I   UNL d   1      -6.000  -0.509   4.653  0.00  0.00    -0.060 I 
ATOM     10  F2  UNL d   1      -2.989   0.544   4.387  0.00  0.00    -0.096 F 
ATOM     11  F3  UNL d   1      -1.091   0.109   2.505  0.00  0.00    -0.097 F 
ATOM     12  F4  UNL d   1      -1.619  -1.485   0.355  0.00  0.00    -0.092 F 
ENDROOT
TORSDOF 0
ENDMDL
