MODEL 1
REMARK minimizedAffinity 21.6040401
REMARK minimizedRMSD -1
REMARK  0 active torsions:
REMARK  status: ('A' for Active; 'I' for Inactive)
ROOT
ATOM      1  C   UNL d   1       1.727   3.601  -2.573  0.00  0.00     0.124 A 
ATOM      2  C1  UNL d   1       1.294   2.827  -3.641  0.00  0.00     0.062 A 
ATOM      3  C2  UNL d   1       0.962   1.490  -3.448  0.00  0.00     0.162 A 
ATOM      4  C3  UNL d   1       1.060   0.917  -2.180  0.00  0.00    -0.034 A 
ATOM      5  C4  UNL d   1       1.497   1.701  -1.110  0.00  0.00     0.162 A 
ATOM      6  C5  UNL d   1       1.828   3.037  -1.309  0.00  0.00     0.062 A 
ATOM      7  F   UNL d   1       2.246   3.783  -0.276  0.00  0.00    -0.097 F 
ATOM      8  F1  UNL d   1       1.603   1.182   0.122  0.00  0.00    -0.096 F 
ATOM      9  I   UNL d   1       0.564  -1.083  -1.885  0.00  0.00    -0.060 I 
ATOM     10  F2  UNL d   1       0.546   0.766  -4.498  0.00  0.00    -0.096 F 
ATOM     11  F3  UNL d   1       1.196   3.369  -4.864  0.00  0.00    -0.097 F 
ATOM     12  F4  UNL d   1       2.047   4.888  -2.763  0.00  0.00    -0.092 F 
ENDROOT
TORSDOF 0
ENDMDL
