MODEL 1
REMARK minimizedAffinity 19.1510696
REMARK minimizedRMSD -1
REMARK  0 active torsions:
REMARK  status: ('A' for Active; 'I' for Inactive)
ROOT
ATOM      1  C   UNL d   1       2.954   3.671   2.012  0.00  0.00     0.124 A 
ATOM      2  C1  UNL d   1       3.351   2.367   1.750  0.00  0.00     0.062 A 
ATOM      3  C2  UNL d   1       2.861   1.697   0.633  0.00  0.00     0.162 A 
ATOM      4  C3  UNL d   1       1.969   2.330  -0.232  0.00  0.00    -0.034 A 
ATOM      5  C4  UNL d   1       1.573   3.641   0.039  0.00  0.00     0.162 A 
ATOM      6  C5  UNL d   1       2.065   4.307   1.157  0.00  0.00     0.062 A 
ATOM      7  F   UNL d   1       1.680   5.566   1.408  0.00  0.00    -0.097 F 
ATOM      8  F1  UNL d   1       0.716   4.280  -0.772  0.00  0.00    -0.096 F 
ATOM      9  I   UNL d   1       1.234   1.332  -1.904  0.00  0.00    -0.060 I 
ATOM     10  F2  UNL d   1       3.263   0.438   0.404  0.00  0.00    -0.096 F 
ATOM     11  F3  UNL d   1       4.209   1.751   2.576  0.00  0.00    -0.097 F 
ATOM     12  F4  UNL d   1       3.426   4.313   3.089  0.00  0.00    -0.092 F 
ENDROOT
TORSDOF 0
ENDMDL
