MODEL 1
REMARK minimizedAffinity 9.05027294
REMARK minimizedRMSD -1
REMARK  0 active torsions:
REMARK  status: ('A' for Active; 'I' for Inactive)
ROOT
ATOM      1  C   UNL d   1       2.424  -2.362  -0.140  0.00  0.00     0.124 A 
ATOM      2  C1  UNL d   1       3.401  -1.491  -0.600  0.00  0.00     0.062 A 
ATOM      3  C2  UNL d   1       3.098  -0.558  -1.588  0.00  0.00     0.162 A 
ATOM      4  C3  UNL d   1       1.811  -0.491  -2.123  0.00  0.00    -0.034 A 
ATOM      5  C4  UNL d   1       0.834  -1.372  -1.656  0.00  0.00     0.162 A 
ATOM      6  C5  UNL d   1       1.142  -2.303  -0.668  0.00  0.00     0.062 A 
ATOM      7  F   UNL d   1       0.196  -3.144  -0.225  0.00  0.00    -0.097 F 
ATOM      8  F1  UNL d   1      -0.413  -1.336  -2.148  0.00  0.00    -0.096 F 
ATOM      9  I   UNL d   1       1.355   0.902  -3.600  0.00  0.00    -0.060 I 
ATOM     10  F2  UNL d   1       4.062   0.272  -2.014  0.00  0.00    -0.096 F 
ATOM     11  F3  UNL d   1       4.641  -1.547  -0.092  0.00  0.00    -0.097 F 
ATOM     12  F4  UNL d   1       2.718  -3.259   0.810  0.00  0.00    -0.092 F 
ENDROOT
TORSDOF 0
ENDMDL
