MODEL 1
REMARK minimizedAffinity 8.46185112
REMARK minimizedRMSD -1
REMARK  0 active torsions:
REMARK  status: ('A' for Active; 'I' for Inactive)
ROOT
ATOM      1  C   UNL d   1       0.713  -2.871  -0.068  0.00  0.00     0.124 A 
ATOM      2  C1  UNL d   1       2.091  -2.707  -0.108  0.00  0.00     0.062 A 
ATOM      3  C2  UNL d   1       2.643  -1.548  -0.645  0.00  0.00     0.162 A 
ATOM      4  C3  UNL d   1       1.816  -0.542  -1.146  0.00  0.00    -0.034 A 
ATOM      5  C4  UNL d   1       0.431  -0.714  -1.104  0.00  0.00     0.162 A 
ATOM      6  C5  UNL d   1      -0.115  -1.875  -0.566  0.00  0.00     0.062 A 
ATOM      7  F   UNL d   1      -1.446  -2.032  -0.528  0.00  0.00    -0.097 F 
ATOM      8  F1  UNL d   1      -0.392   0.233  -1.576  0.00  0.00    -0.096 F 
ATOM      9  I   UNL d   1       2.637   1.194  -1.950  0.00  0.00    -0.060 I 
ATOM     10  F2  UNL d   1       3.977  -1.416  -0.671  0.00  0.00    -0.096 F 
ATOM     11  F3  UNL d   1       2.894  -3.668   0.371  0.00  0.00    -0.097 F 
ATOM     12  F4  UNL d   1       0.186  -3.989   0.448  0.00  0.00    -0.092 F 
ENDROOT
TORSDOF 0
ENDMDL
