MODEL 1
REMARK minimizedAffinity 16.8873653
REMARK minimizedRMSD -1
REMARK  0 active torsions:
REMARK  status: ('A' for Active; 'I' for Inactive)
ROOT
ATOM      1  C   UNL d   1       2.347  -0.371  -1.578  0.00  0.00     0.124 A 
ATOM      2  C1  UNL d   1       1.789  -1.642  -1.568  0.00  0.00     0.062 A 
ATOM      3  C2  UNL d   1       0.416  -1.803  -1.406  0.00  0.00     0.162 A 
ATOM      4  C3  UNL d   1      -0.410  -0.689  -1.253  0.00  0.00    -0.034 A 
ATOM      5  C4  UNL d   1       0.159   0.586  -1.264  0.00  0.00     0.162 A 
ATOM      6  C5  UNL d   1       1.532   0.741  -1.426  0.00  0.00     0.062 A 
ATOM      7  F   UNL d   1       2.069   1.970  -1.436  0.00  0.00    -0.097 F 
ATOM      8  F1  UNL d   1      -0.606   1.679  -1.120  0.00  0.00    -0.096 F 
ATOM      9  I   UNL d   1      -2.463  -0.924  -1.010  0.00  0.00    -0.060 I 
ATOM     10  F2  UNL d   1      -0.096  -3.042  -1.400  0.00  0.00    -0.096 F 
ATOM     11  F3  UNL d   1       2.575  -2.719  -1.714  0.00  0.00    -0.097 F 
ATOM     12  F4  UNL d   1       3.668  -0.220  -1.734  0.00  0.00    -0.092 F 
ENDROOT
TORSDOF 0
ENDMDL
