MODEL 1
REMARK minimizedAffinity 7.95600176
REMARK minimizedRMSD -1
REMARK  0 active torsions:
REMARK  status: ('A' for Active; 'I' for Inactive)
ROOT
ATOM      1  C   UNL d   1       1.470   0.475  -3.724  0.00  0.00     0.124 A 
ATOM      2  C1  UNL d   1       2.096   0.896  -2.559  0.00  0.00     0.062 A 
ATOM      3  C2  UNL d   1       2.224   0.026  -1.480  0.00  0.00     0.162 A 
ATOM      4  C3  UNL d   1       1.725  -1.274  -1.561  0.00  0.00    -0.034 A 
ATOM      5  C4  UNL d   1       1.096  -1.689  -2.736  0.00  0.00     0.162 A 
ATOM      6  C5  UNL d   1       0.971  -0.816  -3.812  0.00  0.00     0.062 A 
ATOM      7  F   UNL d   1       0.366  -1.224  -4.937  0.00  0.00    -0.097 F 
ATOM      8  F1  UNL d   1       0.605  -2.933  -2.848  0.00  0.00    -0.096 F 
ATOM      9  I   UNL d   1       1.914  -2.578   0.050  0.00  0.00    -0.060 I 
ATOM     10  F2  UNL d   1       2.833   0.459  -0.366  0.00  0.00    -0.096 F 
ATOM     11  F3  UNL d   1       2.579   2.144  -2.472  0.00  0.00    -0.097 F 
ATOM     12  F4  UNL d   1       1.348   1.315  -4.761  0.00  0.00    -0.092 F 
ENDROOT
TORSDOF 0
ENDMDL
