MODEL 1
REMARK minimizedAffinity 10.86341
REMARK minimizedRMSD -1
REMARK  0 active torsions:
REMARK  status: ('A' for Active; 'I' for Inactive)
ROOT
ATOM      1  C   UNL d   1       3.687  -0.478  -2.714  0.00  0.00     0.124 A 
ATOM      2  C1  UNL d   1       2.409  -1.013  -2.645  0.00  0.00     0.062 A 
ATOM      3  C2  UNL d   1       2.117  -2.013  -1.721  0.00  0.00     0.162 A 
ATOM      4  C3  UNL d   1       3.106  -2.483  -0.858  0.00  0.00    -0.034 A 
ATOM      5  C4  UNL d   1       4.390  -1.940  -0.934  0.00  0.00     0.162 A 
ATOM      6  C5  UNL d   1       4.677  -0.942  -1.859  0.00  0.00     0.062 A 
ATOM      7  F   UNL d   1       5.913  -0.426  -1.924  0.00  0.00    -0.097 F 
ATOM      8  F1  UNL d   1       5.365  -2.369  -0.118  0.00  0.00    -0.096 F 
ATOM      9  I   UNL d   1       2.674  -3.977   0.525  0.00  0.00    -0.060 I 
ATOM     10  F2  UNL d   1       0.873  -2.512  -1.677  0.00  0.00    -0.096 F 
ATOM     11  F3  UNL d   1       1.451  -0.568  -3.471  0.00  0.00    -0.097 F 
ATOM     12  F4  UNL d   1       3.965   0.483  -3.605  0.00  0.00    -0.092 F 
ENDROOT
TORSDOF 0
ENDMDL
