MODEL 1
REMARK minimizedAffinity 19.3363495
REMARK minimizedRMSD -1
REMARK  0 active torsions:
REMARK  status: ('A' for Active; 'I' for Inactive)
ROOT
ATOM      1  C   UNL d   1       2.749   0.252  -2.083  0.00  0.00     0.124 A 
ATOM      2  C1  UNL d   1       1.639   1.049  -2.328  0.00  0.00     0.062 A 
ATOM      3  C2  UNL d   1       0.939   1.619  -1.268  0.00  0.00     0.162 A 
ATOM      4  C3  UNL d   1       1.348   1.395   0.046  0.00  0.00    -0.034 A 
ATOM      5  C4  UNL d   1       2.464   0.591   0.285  0.00  0.00     0.162 A 
ATOM      6  C5  UNL d   1       3.160   0.024  -0.778  0.00  0.00     0.062 A 
ATOM      7  F   UNL d   1       4.232  -0.746  -0.539  0.00  0.00    -0.097 F 
ATOM      8  F1  UNL d   1       2.884   0.355   1.536  0.00  0.00    -0.096 F 
ATOM      9  I   UNL d   1       0.304   2.245   1.634  0.00  0.00    -0.060 I 
ATOM     10  F2  UNL d   1      -0.129   2.385  -1.534  0.00  0.00    -0.096 F 
ATOM     11  F3  UNL d   1       1.239   1.271  -3.588  0.00  0.00    -0.097 F 
ATOM     12  F4  UNL d   1       3.419  -0.296  -3.105  0.00  0.00    -0.092 F 
ENDROOT
TORSDOF 0
ENDMDL
