MODEL 1
REMARK minimizedAffinity 14.6114521
REMARK minimizedRMSD -1
REMARK  0 active torsions:
REMARK  status: ('A' for Active; 'I' for Inactive)
ROOT
ATOM      1  C   UNL d   1      -0.722  -0.649  -0.805  0.00  0.00     0.124 A 
ATOM      2  C1  UNL d   1       0.586  -1.011  -0.515  0.00  0.00     0.062 A 
ATOM      3  C2  UNL d   1       1.597  -0.055  -0.530  0.00  0.00     0.162 A 
ATOM      4  C3  UNL d   1       1.304   1.274  -0.835  0.00  0.00    -0.034 A 
ATOM      5  C4  UNL d   1      -0.014   1.631  -1.127  0.00  0.00     0.162 A 
ATOM      6  C5  UNL d   1      -1.021   0.671  -1.111  0.00  0.00     0.062 A 
ATOM      7  F   UNL d   1      -2.284   1.023  -1.391  0.00  0.00    -0.097 F 
ATOM      8  F1  UNL d   1      -0.331   2.900  -1.425  0.00  0.00    -0.096 F 
ATOM      9  I   UNL d   1       2.813   2.707  -0.858  0.00  0.00    -0.060 I 
ATOM     10  F2  UNL d   1       2.852  -0.433  -0.245  0.00  0.00    -0.096 F 
ATOM     11  F3  UNL d   1       0.877  -2.287  -0.220  0.00  0.00    -0.097 F 
ATOM     12  F4  UNL d   1      -1.693  -1.572  -0.791  0.00  0.00    -0.092 F 
ENDROOT
TORSDOF 0
ENDMDL
