MODEL 1
REMARK minimizedAffinity 7.08386803
REMARK minimizedRMSD -1
REMARK  0 active torsions:
REMARK  status: ('A' for Active; 'I' for Inactive)
ROOT
ATOM      1  C   UNL d   1       2.081   0.013  -1.444  0.00  0.00     0.124 A 
ATOM      2  C1  UNL d   1       1.239   1.050  -1.070  0.00  0.00     0.062 A 
ATOM      3  C2  UNL d   1      -0.129   0.829  -0.938  0.00  0.00     0.162 A 
ATOM      4  C3  UNL d   1      -0.664  -0.436  -1.180  0.00  0.00    -0.034 A 
ATOM      5  C4  UNL d   1       0.190  -1.475  -1.557  0.00  0.00     0.162 A 
ATOM      6  C5  UNL d   1       1.556  -1.249  -1.687  0.00  0.00     0.062 A 
ATOM      7  F   UNL d   1       2.368  -2.253  -2.049  0.00  0.00    -0.097 F 
ATOM      8  F1  UNL d   1      -0.291  -2.704  -1.797  0.00  0.00    -0.096 F 
ATOM      9  I   UNL d   1      -2.708  -0.771  -0.984  0.00  0.00    -0.060 I 
ATOM     10  F2  UNL d   1      -0.919   1.851  -0.575  0.00  0.00    -0.096 F 
ATOM     11  F3  UNL d   1       1.744   2.270  -0.835  0.00  0.00    -0.097 F 
ATOM     12  F4  UNL d   1       3.397   0.228  -1.571  0.00  0.00    -0.092 F 
ENDROOT
TORSDOF 0
ENDMDL
