MODEL 1
REMARK minimizedAffinity 21.1608562
REMARK minimizedRMSD -1
REMARK  0 active torsions:
REMARK  status: ('A' for Active; 'I' for Inactive)
ROOT
ATOM      1  C   UNL d   1       1.110  -1.406  -2.307  0.00  0.00     0.124 A 
ATOM      2  C1  UNL d   1      -0.204  -1.456  -1.861  0.00  0.00     0.062 A 
ATOM      3  C2  UNL d   1      -0.741  -0.391  -1.144  0.00  0.00     0.162 A 
ATOM      4  C3  UNL d   1       0.035   0.736  -0.871  0.00  0.00    -0.034 A 
ATOM      5  C4  UNL d   1       1.356   0.779  -1.322  0.00  0.00     0.162 A 
ATOM      6  C5  UNL d   1       1.888  -0.289  -2.038  0.00  0.00     0.062 A 
ATOM      7  F   UNL d   1       3.157  -0.239  -2.468  0.00  0.00    -0.097 F 
ATOM      8  F1  UNL d   1       2.130   1.846  -1.077  0.00  0.00    -0.096 F 
ATOM      9  I   UNL d   1      -0.764   2.331   0.200  0.00  0.00    -0.060 I 
ATOM     10  F2  UNL d   1      -2.013  -0.466  -0.725  0.00  0.00    -0.096 F 
ATOM     11  F3  UNL d   1      -0.957  -2.535  -2.119  0.00  0.00    -0.097 F 
ATOM     12  F4  UNL d   1       1.624  -2.433  -2.995  0.00  0.00    -0.092 F 
ENDROOT
TORSDOF 0
ENDMDL
