MODEL 1
REMARK minimizedAffinity 21.7908077
REMARK minimizedRMSD -1
REMARK  0 active torsions:
REMARK  status: ('A' for Active; 'I' for Inactive)
ROOT
ATOM      1  C   UNL d   1       0.066   3.299   1.657  0.00  0.00     0.124 A 
ATOM      2  C1  UNL d   1      -0.723   3.150   0.525  0.00  0.00     0.062 A 
ATOM      3  C2  UNL d   1      -0.316   2.309  -0.507  0.00  0.00     0.162 A 
ATOM      4  C3  UNL d   1       0.887   1.609  -0.410  0.00  0.00    -0.034 A 
ATOM      5  C4  UNL d   1       1.675   1.764   0.731  0.00  0.00     0.162 A 
ATOM      6  C5  UNL d   1       1.264   2.605   1.759  0.00  0.00     0.062 A 
ATOM      7  F   UNL d   1       2.027   2.747   2.853  0.00  0.00    -0.097 F 
ATOM      8  F1  UNL d   1       2.837   1.105   0.856  0.00  0.00    -0.096 F 
ATOM      9  I   UNL d   1       1.499   0.350  -1.951  0.00  0.00    -0.060 I 
ATOM     10  F2  UNL d   1      -1.098   2.185  -1.589  0.00  0.00    -0.096 F 
ATOM     11  F3  UNL d   1      -1.880   3.820   0.424  0.00  0.00    -0.097 F 
ATOM     12  F4  UNL d   1      -0.328   4.109   2.648  0.00  0.00    -0.092 F 
ENDROOT
TORSDOF 0
ENDMDL
