MODEL 1
REMARK minimizedAffinity 7.63504124
REMARK minimizedRMSD -1
REMARK  0 active torsions:
REMARK  status: ('A' for Active; 'I' for Inactive)
ROOT
ATOM      1  C   UNL d   1      -0.162   3.938   1.087  0.00  0.00     0.124 A 
ATOM      2  C1  UNL d   1      -0.593   3.939  -0.232  0.00  0.00     0.062 A 
ATOM      3  C2  UNL d   1      -0.211   2.916  -1.095  0.00  0.00     0.162 A 
ATOM      4  C3  UNL d   1       0.607   1.881  -0.641  0.00  0.00    -0.034 A 
ATOM      5  C4  UNL d   1       1.038   1.887   0.687  0.00  0.00     0.162 A 
ATOM      6  C5  UNL d   1       0.653   2.912   1.545  0.00  0.00     0.062 A 
ATOM      7  F   UNL d   1       1.072   2.909   2.819  0.00  0.00    -0.097 F 
ATOM      8  F1  UNL d   1       1.826   0.908   1.156  0.00  0.00    -0.096 F 
ATOM      9  I   UNL d   1       1.181   0.349  -1.928  0.00  0.00    -0.060 I 
ATOM     10  F2  UNL d   1      -0.643   2.943  -2.365  0.00  0.00    -0.096 F 
ATOM     11  F3  UNL d   1      -1.380   4.929  -0.678  0.00  0.00    -0.097 F 
ATOM     12  F4  UNL d   1      -0.530   4.924   1.914  0.00  0.00    -0.092 F 
ENDROOT
TORSDOF 0
ENDMDL
