MODEL 1
REMARK minimizedAffinity 10.5061121
REMARK minimizedRMSD -1
REMARK  0 active torsions:
REMARK  status: ('A' for Active; 'I' for Inactive)
ROOT
ATOM      1  C   UNL d   1       2.712   0.663  -2.271  0.00  0.00     0.124 A 
ATOM      2  C1  UNL d   1       1.468   1.241  -2.480  0.00  0.00     0.062 A 
ATOM      3  C2  UNL d   1       0.696   1.651  -1.396  0.00  0.00     0.162 A 
ATOM      4  C3  UNL d   1       1.168   1.486  -0.094  0.00  0.00    -0.034 A 
ATOM      5  C4  UNL d   1       2.420   0.902   0.108  0.00  0.00     0.162 A 
ATOM      6  C5  UNL d   1       3.187   0.494  -0.978  0.00  0.00     0.062 A 
ATOM      7  F   UNL d   1       4.389  -0.065  -0.775  0.00  0.00    -0.097 F 
ATOM      8  F1  UNL d   1       2.904   0.728   1.347  0.00  0.00    -0.096 F 
ATOM      9  I   UNL d   1       0.017   2.098   1.529  0.00  0.00    -0.060 I 
ATOM     10  F2  UNL d   1      -0.502   2.207  -1.627  0.00  0.00    -0.096 F 
ATOM     11  F3  UNL d   1       1.006   1.404  -3.728  0.00  0.00    -0.097 F 
ATOM     12  F4  UNL d   1       3.452   0.268  -3.316  0.00  0.00    -0.092 F 
ENDROOT
TORSDOF 0
ENDMDL
