MODEL 1
REMARK minimizedAffinity 8.22695351
REMARK minimizedRMSD -1
REMARK  0 active torsions:
REMARK  status: ('A' for Active; 'I' for Inactive)
ROOT
ATOM      1  C   UNL d   1       0.005  -0.037  -1.349  0.00  0.00     0.124 A 
ATOM      2  C1  UNL d   1       0.786  -1.182  -1.416  0.00  0.00     0.062 A 
ATOM      3  C2  UNL d   1       2.145  -1.087  -1.699  0.00  0.00     0.162 A 
ATOM      4  C3  UNL d   1       2.733   0.159  -1.916  0.00  0.00    -0.034 A 
ATOM      5  C4  UNL d   1       1.941   1.307  -1.848  0.00  0.00     0.162 A 
ATOM      6  C5  UNL d   1       0.583   1.206  -1.565  0.00  0.00     0.062 A 
ATOM      7  F   UNL d   1      -0.170   2.314  -1.501  0.00  0.00    -0.097 F 
ATOM      8  F1  UNL d   1       2.475   2.520  -2.051  0.00  0.00    -0.096 F 
ATOM      9  I   UNL d   1       4.766   0.306  -2.339  0.00  0.00    -0.060 I 
ATOM     10  F2  UNL d   1       2.876  -2.211  -1.757  0.00  0.00    -0.096 F 
ATOM     11  F3  UNL d   1       0.229  -2.384  -1.209  0.00  0.00    -0.097 F 
ATOM     12  F4  UNL d   1      -1.303  -0.131  -1.078  0.00  0.00    -0.092 F 
ENDROOT
TORSDOF 0
ENDMDL
