MODEL 1
REMARK minimizedAffinity 1.87482238
REMARK minimizedRMSD -1
REMARK  0 active torsions:
REMARK  status: ('A' for Active; 'I' for Inactive)
ROOT
ATOM      1  C4' PXY d   1      -1.498   3.802  -2.624  0.00  0.00     0.077 C 
ATOM      2  C1' PXY d   1       1.933   2.695   1.894  0.00  0.00     0.077 C 
ATOM      3  C1  PXY d   1       1.041   2.995   0.705  0.00  0.00    -0.082 A 
ATOM      4  C2  PXY d   1      -0.238   2.658   0.746  0.00  0.00     0.003 A 
ATOM      5  C3  PXY d   1      -1.051   2.893  -0.333  0.00  0.00     0.003 A 
ATOM      6  C4  PXY d   1      -0.563   3.527  -1.444  0.00  0.00    -0.082 A 
ATOM      7  C5  PXY d   1       0.738   3.884  -1.488  0.00  0.00     0.003 A 
ATOM      8  C6  PXY d   1       1.557   3.599  -0.399  0.00  0.00     0.003 A 
ENDROOT
TORSDOF 0
ENDMDL
