MODEL 1
REMARK minimizedAffinity 11.3348188
REMARK minimizedRMSD -1
REMARK  0 active torsions:
REMARK  status: ('A' for Active; 'I' for Inactive)
ROOT
ATOM      1  C4' PXY d   1       4.019  -6.000  -1.239  0.00  0.00     0.077 C 
ATOM      2  C1' PXY d   1      -0.895  -3.507  -2.988  0.00  0.00     0.077 C 
ATOM      3  C1  PXY d   1       0.393  -4.154  -2.518  0.00  0.00    -0.082 A 
ATOM      4  C2  PXY d   1       1.232  -4.661  -3.407  0.00  0.00     0.003 A 
ATOM      5  C3  PXY d   1       2.386  -5.278  -2.998  0.00  0.00     0.003 A 
ATOM      6  C4  PXY d   1       2.711  -5.329  -1.668  0.00  0.00    -0.082 A 
ATOM      7  C5  PXY d   1       1.865  -4.805  -0.756  0.00  0.00     0.003 A 
ATOM      8  C6  PXY d   1       0.679  -4.219  -1.189  0.00  0.00     0.003 A 
ENDROOT
TORSDOF 0
ENDMDL
