MODEL 1
REMARK minimizedAffinity 12.7600803
REMARK minimizedRMSD -1
REMARK  0 active torsions:
REMARK  status: ('A' for Active; 'I' for Inactive)
ROOT
ATOM      1  C4' PXY d   1       2.839   5.999  -4.390  0.00  0.00     0.077 C 
ATOM      2  C1' PXY d   1       1.614   2.818   0.279  0.00  0.00     0.077 C 
ATOM      3  C1  PXY d   1       1.939   3.662  -0.938  0.00  0.00    -0.082 A 
ATOM      4  C2  PXY d   1       1.332   3.414  -2.087  0.00  0.00     0.003 A 
ATOM      5  C3  PXY d   1       1.638   4.147  -3.205  0.00  0.00     0.003 A 
ATOM      6  C4  PXY d   1       2.535   5.179  -3.133  0.00  0.00    -0.082 A 
ATOM      7  C5  PXY d   1       3.150   5.445  -1.961  0.00  0.00     0.003 A 
ATOM      8  C6  PXY d   1       2.856   4.663  -0.848  0.00  0.00     0.003 A 
ENDROOT
TORSDOF 0
ENDMDL
