MODEL 1
REMARK minimizedAffinity 13.7184334
REMARK minimizedRMSD -1
REMARK  0 active torsions:
REMARK  status: ('A' for Active; 'I' for Inactive)
ROOT
ATOM      1  C4' PXY d   1       2.465  -3.405   4.923  0.00  0.00     0.077 C 
ATOM      2  C1' PXY d   1      -0.222   1.465   3.348  0.00  0.00     0.077 C 
ATOM      3  C1  PXY d   1       0.489   0.187   3.749  0.00  0.00    -0.082 A 
ATOM      4  C2  PXY d   1      -0.027  -0.578   4.697  0.00  0.00     0.003 A 
ATOM      5  C3  PXY d   1       0.619  -1.720   5.095  0.00  0.00     0.003 A 
ATOM      6  C4  PXY d   1       1.777  -2.111   4.479  0.00  0.00    -0.082 A 
ATOM      7  C5  PXY d   1       2.304  -1.342   3.503  0.00  0.00     0.003 A 
ATOM      8  C6  PXY d   1       1.655  -0.164   3.143  0.00  0.00     0.003 A 
ENDROOT
TORSDOF 0
ENDMDL
