MODEL 1
REMARK minimizedAffinity 16.0333729
REMARK minimizedRMSD -1
REMARK  0 active torsions:
REMARK  status: ('A' for Active; 'I' for Inactive)
ROOT
ATOM      1  C4' PXY d   1       0.594   1.748   2.878  0.00  0.00     0.077 C 
ATOM      2  C1' PXY d   1       1.940  -3.495   4.907  0.00  0.00     0.077 C 
ATOM      3  C1  PXY d   1       1.575  -2.122   4.379  0.00  0.00    -0.082 A 
ATOM      4  C2  PXY d   1       2.306  -1.573   3.423  0.00  0.00     0.003 A 
ATOM      5  C3  PXY d   1       2.009  -0.318   2.956  0.00  0.00     0.003 A 
ATOM      6  C4  PXY d   1       0.920   0.359   3.436  0.00  0.00    -0.082 A 
ATOM      7  C5  PXY d   1       0.163  -0.198   4.403  0.00  0.00     0.003 A 
ATOM      8  C6  PXY d   1       0.505  -1.455   4.893  0.00  0.00     0.003 A 
ENDROOT
TORSDOF 0
ENDMDL
