MODEL 1
REMARK minimizedAffinity 11.1202021
REMARK minimizedRMSD -1
REMARK  0 active torsions:
REMARK  status: ('A' for Active; 'I' for Inactive)
ROOT
ATOM      1  C4' PXY d   1      -1.711   1.779   1.985  0.00  0.00     0.077 C 
ATOM      2  C1' PXY d   1       1.334   4.111  -2.341  0.00  0.00     0.077 C 
ATOM      3  C1  PXY d   1       0.543   3.489  -1.207  0.00  0.00    -0.082 A 
ATOM      4  C2  PXY d   1      -0.715   3.851  -1.011  0.00  0.00     0.003 A 
ATOM      5  C3  PXY d   1      -1.434   3.322   0.030  0.00  0.00     0.003 A 
ATOM      6  C4  PXY d   1      -0.878   2.374   0.846  0.00  0.00    -0.082 A 
ATOM      7  C5  PXY d   1       0.402   1.992   0.646  0.00  0.00     0.003 A 
ATOM      8  C6  PXY d   1       1.128   2.571  -0.390  0.00  0.00     0.003 A 
ENDROOT
TORSDOF 0
ENDMDL
