MODEL 1
REMARK minimizedAffinity 9.73855305
REMARK minimizedRMSD -1
REMARK  0 active torsions:
REMARK  status: ('A' for Active; 'I' for Inactive)
ROOT
ATOM      1  C4' PXY d   1      -0.117   0.292   3.753  0.00  0.00     0.077 C 
ATOM      2  C1' PXY d   1       2.975  -4.044   5.999  0.00  0.00     0.077 C 
ATOM      3  C1  PXY d   1       2.175  -2.903   5.404  0.00  0.00    -0.082 A 
ATOM      4  C2  PXY d   1       1.064  -2.503   6.000  0.00  0.00     0.003 A 
ATOM      5  C3  PXY d   1       0.311  -1.493   5.458  0.00  0.00     0.003 A 
ATOM      6  C4  PXY d   1       0.728  -0.850   4.323  0.00  0.00    -0.082 A 
ATOM      7  C5  PXY d   1       1.866  -1.245   3.715  0.00  0.00     0.003 A 
ATOM      8  C6  PXY d   1       2.595  -2.300   4.258  0.00  0.00     0.003 A 
ENDROOT
TORSDOF 0
ENDMDL
