MODEL 1
REMARK minimizedAffinity 14.5893517
REMARK minimizedRMSD -1
REMARK  0 active torsions:
REMARK  status: ('A' for Active; 'I' for Inactive)
ROOT
ATOM      1  C4' PXY d   1      -1.879   3.774  -1.963  0.00  0.00     0.077 C 
ATOM      2  C1' PXY d   1       2.116   1.870   1.756  0.00  0.00     0.077 C 
ATOM      3  C1  PXY d   1       1.076   2.378   0.776  0.00  0.00    -0.082 A 
ATOM      4  C2  PXY d   1      -0.208   2.185   1.026  0.00  0.00     0.003 A 
ATOM      5  C3  PXY d   1      -1.160   2.610   0.136  0.00  0.00     0.003 A 
ATOM      6  C4  PXY d   1      -0.796   3.286  -0.998  0.00  0.00    -0.082 A 
ATOM      7  C5  PXY d   1       0.513   3.496  -1.255  0.00  0.00     0.003 A 
ATOM      8  C6  PXY d   1       1.465   3.021  -0.359  0.00  0.00     0.003 A 
ENDROOT
TORSDOF 0
ENDMDL
