MODEL 1
REMARK minimizedAffinity 23.1874008
REMARK minimizedRMSD -1
REMARK  0 active torsions:
REMARK  status: ('A' for Active; 'I' for Inactive)
ROOT
ATOM      1  C4' PXY d   1       1.416   3.723  -2.365  0.00  0.00     0.077 C 
ATOM      2  C1' PXY d   1      -1.266   1.337   2.166  0.00  0.00     0.077 C 
ATOM      3  C1  PXY d   1      -0.551   1.961   0.983  0.00  0.00    -0.082 A 
ATOM      4  C2  PXY d   1      -1.200   2.804   0.197  0.00  0.00     0.003 A 
ATOM      5  C3  PXY d   1      -0.579   3.353  -0.895  0.00  0.00     0.003 A 
ATOM      6  C4  PXY d   1       0.737   3.077  -1.155  0.00  0.00    -0.082 A 
ATOM      7  C5  PXY d   1       1.410   2.226  -0.351  0.00  0.00     0.003 A 
ATOM      8  C6  PXY d   1       0.749   1.648   0.729  0.00  0.00     0.003 A 
ENDROOT
TORSDOF 0
ENDMDL
