MODEL 1
REMARK minimizedAffinity 9.02641296
REMARK minimizedRMSD -1
REMARK  0 active torsions:
REMARK  status: ('A' for Active; 'I' for Inactive)
ROOT
ATOM      1  C4' PXY d   1       0.715   3.896  -1.131  0.00  0.00     0.077 C 
ATOM      2  C1' PXY d   1      -0.220   0.839   3.685  0.00  0.00     0.077 C 
ATOM      3  C1  PXY d   1       0.015   1.635   2.417  0.00  0.00    -0.082 A 
ATOM      4  C2  PXY d   1       1.236   2.047   2.120  0.00  0.00     0.003 A 
ATOM      5  C3  PXY d   1       1.461   2.796   0.993  0.00  0.00     0.003 A 
ATOM      6  C4  PXY d   1       0.433   3.081   0.135  0.00  0.00    -0.082 A 
ATOM      7  C5  PXY d   1      -0.814   2.655   0.425  0.00  0.00     0.003 A 
ATOM      8  C6  PXY d   1      -1.028   1.932   1.595  0.00  0.00     0.003 A 
ENDROOT
TORSDOF 0
ENDMDL
