MODEL 1
REMARK minimizedAffinity 12.5464373
REMARK minimizedRMSD -1
REMARK  0 active torsions:
REMARK  status: ('A' for Active; 'I' for Inactive)
ROOT
ATOM      1  C4' PXY d   1       3.712  -0.791   1.379  0.00  0.00     0.077 C 
ATOM      2  C1' PXY d   1       0.396  -4.198  -1.909  0.00  0.00     0.077 C 
ATOM      3  C1  PXY d   1       1.262  -3.311  -1.036  0.00  0.00    -0.082 A 
ATOM      4  C2  PXY d   1       1.607  -2.108  -1.465  0.00  0.00     0.003 A 
ATOM      5  C3  PXY d   1       2.415  -1.305  -0.703  0.00  0.00     0.003 A 
ATOM      6  C4  PXY d   1       2.832  -1.717   0.535  0.00  0.00    -0.082 A 
ATOM      7  C5  PXY d   1       2.475  -2.939   0.984  0.00  0.00     0.003 A 
ATOM      8  C6  PXY d   1       1.687  -3.755   0.177  0.00  0.00     0.003 A 
ENDROOT
TORSDOF 0
ENDMDL
