MODEL 1
REMARK minimizedAffinity 14.9639797
REMARK minimizedRMSD -1
REMARK  0 active torsions:
REMARK  status: ('A' for Active; 'I' for Inactive)
ROOT
ATOM      1  C4' PXY d   1       5.949  -5.986  -3.112  0.00  0.00     0.077 C 
ATOM      2  C1' PXY d   1       5.913  -1.775   0.848  0.00  0.00     0.077 C 
ATOM      3  C1  PXY d   1       5.918  -2.871  -0.200  0.00  0.00    -0.082 A 
ATOM      4  C2  PXY d   1       5.854  -4.137   0.179  0.00  0.00     0.003 A 
ATOM      5  C3  PXY d   1       5.889  -5.142  -0.754  0.00  0.00     0.003 A 
ATOM      6  C4  PXY d   1       5.938  -4.846  -2.090  0.00  0.00    -0.082 A 
ATOM      7  C5  PXY d   1       5.993  -3.556  -2.484  0.00  0.00     0.003 A 
ATOM      8  C6  PXY d   1       5.997  -2.552  -1.520  0.00  0.00     0.003 A 
ENDROOT
TORSDOF 0
ENDMDL
