MODEL 1
REMARK minimizedAffinity -3.38419747
REMARK minimizedRMSD -1
REMARK  0 active torsions:
REMARK  status: ('A' for Active; 'I' for Inactive)
ROOT
ATOM      1  C   UNL d   1      -1.929  -0.527   3.615  0.00  0.00     0.077 C 
ATOM      2  C1  UNL d   1      -0.918  -0.125   2.583  0.00  0.00    -0.074 A 
ATOM      3  C2  UNL d   1      -0.075   0.972   2.792  0.00  0.00    -0.005 A 
ATOM      4  C3  UNL d   1       0.867   1.328   1.828  0.00  0.00     0.006 A 
ATOM      5  C4  UNL d   1       0.977   0.593   0.647  0.00  0.00    -0.005 A 
ATOM      6  C5  UNL d   1       0.144  -0.507   0.421  0.00  0.00    -0.074 A 
ATOM      7  C6  UNL d   1       0.255  -1.314  -0.838  0.00  0.00     0.077 C 
ATOM      8  C7  UNL d   1      -0.796  -0.863   1.398  0.00  0.00    -0.001 A 
ENDROOT
TORSDOF 0
ENDMDL
