MODEL 1
REMARK minimizedAffinity -3.97170424
REMARK minimizedRMSD -1
REMARK  0 active torsions:
REMARK  status: ('A' for Active; 'I' for Inactive)
ROOT
ATOM      1  C   UNL d   1       2.116   0.685   2.671  0.00  0.00     0.077 C 
ATOM      2  C1  UNL d   1       0.767   0.169   2.264  0.00  0.00    -0.074 A 
ATOM      3  C2  UNL d   1       0.055  -0.709   3.086  0.00  0.00    -0.005 A 
ATOM      4  C3  UNL d   1      -1.202  -1.173   2.698  0.00  0.00     0.006 A 
ATOM      5  C4  UNL d   1      -1.759  -0.762   1.486  0.00  0.00    -0.005 A 
ATOM      6  C5  UNL d   1      -1.062   0.117   0.651  0.00  0.00    -0.074 A 
ATOM      7  C6  UNL d   1      -1.651   0.575  -0.650  0.00  0.00     0.077 C 
ATOM      8  C7  UNL d   1       0.197   0.583   1.051  0.00  0.00    -0.001 A 
ENDROOT
TORSDOF 0
ENDMDL
