MODEL 1
REMARK minimizedAffinity -0.61648047
REMARK minimizedRMSD -1
REMARK  0 active torsions:
REMARK  status: ('A' for Active; 'I' for Inactive)
ROOT
ATOM      1  C   UNL d   1      -3.187  -5.268   4.674  0.00  0.00     0.077 C 
ATOM      2  C1  UNL d   1      -3.938  -5.519   3.401  0.00  0.00    -0.074 A 
ATOM      3  C2  UNL d   1      -5.312  -5.778   3.416  0.00  0.00    -0.005 A 
ATOM      4  C3  UNL d   1      -5.999  -6.000   2.222  0.00  0.00     0.006 A 
ATOM      5  C4  UNL d   1      -5.321  -5.964   1.004  0.00  0.00    -0.005 A 
ATOM      6  C5  UNL d   1      -3.947  -5.705   0.969  0.00  0.00    -0.074 A 
ATOM      7  C6  UNL d   1      -3.204  -5.654  -0.333  0.00  0.00     0.077 C 
ATOM      8  C7  UNL d   1      -3.265  -5.477   2.172  0.00  0.00    -0.001 A 
ENDROOT
TORSDOF 0
ENDMDL
