MODEL 1
REMARK minimizedAffinity 5.49765539
REMARK minimizedRMSD -1
REMARK  0 active torsions:
REMARK  status: ('A' for Active; 'I' for Inactive)
ROOT
ATOM      1  C   UNL d   1      -1.536  -1.265   0.379  0.00  0.00     0.077 C 
ATOM      2  C1  UNL d   1      -2.593  -2.312   0.571  0.00  0.00    -0.074 A 
ATOM      3  C2  UNL d   1      -3.780  -2.019   1.250  0.00  0.00    -0.005 A 
ATOM      4  C3  UNL d   1      -4.758  -3.001   1.412  0.00  0.00     0.006 A 
ATOM      5  C4  UNL d   1      -4.558  -4.283   0.899  0.00  0.00    -0.005 A 
ATOM      6  C5  UNL d   1      -3.378  -4.594   0.217  0.00  0.00    -0.074 A 
ATOM      7  C6  UNL d   1      -3.151  -5.965  -0.349  0.00  0.00     0.077 C 
ATOM      8  C7  UNL d   1      -2.403  -3.601   0.052  0.00  0.00    -0.001 A 
ENDROOT
TORSDOF 0
ENDMDL
