MODEL 1
REMARK minimizedAffinity 0.729053617
REMARK minimizedRMSD -1
REMARK  0 active torsions:
REMARK  status: ('A' for Active; 'I' for Inactive)
ROOT
ATOM      1  C   UNL d   1      -2.610  -2.176   1.325  0.00  0.00     0.077 C 
ATOM      2  C1  UNL d   1      -3.141  -3.508   1.764  0.00  0.00    -0.074 A 
ATOM      3  C2  UNL d   1      -3.731  -4.384   0.847  0.00  0.00    -0.005 A 
ATOM      4  C3  UNL d   1      -4.211  -5.624   1.268  0.00  0.00     0.006 A 
ATOM      5  C4  UNL d   1      -4.108  -6.000   2.608  0.00  0.00    -0.005 A 
ATOM      6  C5  UNL d   1      -3.521  -5.137   3.539  0.00  0.00    -0.074 A 
ATOM      7  C6  UNL d   1      -3.393  -5.529   4.981  0.00  0.00     0.077 C 
ATOM      8  C7  UNL d   1      -3.034  -3.896   3.107  0.00  0.00    -0.001 A 
ENDROOT
TORSDOF 0
ENDMDL
