MODEL 1
REMARK minimizedAffinity -0.863705993
REMARK minimizedRMSD -1
REMARK  0 active torsions:
REMARK  status: ('A' for Active; 'I' for Inactive)
ROOT
ATOM      1  C   UNL d   1      -1.398   0.897   1.101  0.00  0.00     0.077 C 
ATOM      2  C1  UNL d   1      -2.038   1.656   2.225  0.00  0.00    -0.074 A 
ATOM      3  C2  UNL d   1      -1.268   2.185   3.265  0.00  0.00    -0.005 A 
ATOM      4  C3  UNL d   1      -1.876   2.896   4.299  0.00  0.00     0.006 A 
ATOM      5  C4  UNL d   1      -3.258   3.086   4.303  0.00  0.00    -0.005 A 
ATOM      6  C5  UNL d   1      -4.045   2.565   3.271  0.00  0.00    -0.074 A 
ATOM      7  C6  UNL d   1      -5.531   2.768   3.255  0.00  0.00     0.077 C 
ATOM      8  C7  UNL d   1      -3.426   1.857   2.232  0.00  0.00    -0.001 A 
ENDROOT
TORSDOF 0
ENDMDL
