MODEL 1
REMARK minimizedAffinity 4.10565758
REMARK minimizedRMSD -1
REMARK  0 active torsions:
REMARK  status: ('A' for Active; 'I' for Inactive)
ROOT
ATOM      1  C   UNL d   1      -2.657  -0.792   0.494  0.00  0.00     0.077 C 
ATOM      2  C1  UNL d   1      -1.535   0.049   1.024  0.00  0.00    -0.074 A 
ATOM      3  C2  UNL d   1      -0.232  -0.103   0.538  0.00  0.00    -0.005 A 
ATOM      4  C3  UNL d   1       0.801   0.694   1.034  0.00  0.00     0.006 A 
ATOM      5  C4  UNL d   1       0.541   1.648   2.019  0.00  0.00    -0.005 A 
ATOM      6  C5  UNL d   1      -0.755   1.814   2.516  0.00  0.00    -0.074 A 
ATOM      7  C6  UNL d   1      -1.053   2.841   3.567  0.00  0.00     0.077 C 
ATOM      8  C7  UNL d   1      -1.789   1.015   2.007  0.00  0.00    -0.001 A 
ENDROOT
TORSDOF 0
ENDMDL
