MODEL 1
REMARK minimizedAffinity -5.19120979
REMARK minimizedRMSD -1
REMARK  0 active torsions:
REMARK  status: ('A' for Active; 'I' for Inactive)
ROOT
ATOM      1  C   UNL d   1       2.648  -0.034   2.878  0.00  0.00     0.077 C 
ATOM      2  C1  UNL d   1       1.434   0.019   1.998  0.00  0.00    -0.074 A 
ATOM      3  C2  UNL d   1       0.161   0.224   2.541  0.00  0.00    -0.005 A 
ATOM      4  C3  UNL d   1      -0.957   0.281   1.709  0.00  0.00     0.006 A 
ATOM      5  C4  UNL d   1      -0.814   0.135   0.328  0.00  0.00    -0.005 A 
ATOM      6  C5  UNL d   1       0.451  -0.070  -0.232  0.00  0.00    -0.074 A 
ATOM      7  C6  UNL d   1       0.624  -0.219  -1.714  0.00  0.00     0.077 C 
ATOM      8  C7  UNL d   1       1.571  -0.119   0.610  0.00  0.00    -0.001 A 
ENDROOT
TORSDOF 0
ENDMDL
