MODEL 1
REMARK minimizedAffinity -3.92992282
REMARK minimizedRMSD -1
REMARK  0 active torsions:
REMARK  status: ('A' for Active; 'I' for Inactive)
ROOT
ATOM      1  C   UNL d   1       0.150  -0.842  -0.563  0.00  0.00     0.077 C 
ATOM      2  C1  UNL d   1       0.179  -0.308   0.838  0.00  0.00    -0.074 A 
ATOM      3  C2  UNL d   1       1.142   0.627   1.231  0.00  0.00    -0.005 A 
ATOM      4  C3  UNL d   1       1.151   1.122   2.535  0.00  0.00     0.006 A 
ATOM      5  C4  UNL d   1       0.198   0.688   3.458  0.00  0.00    -0.005 A 
ATOM      6  C5  UNL d   1      -0.773  -0.246   3.083  0.00  0.00    -0.074 A 
ATOM      7  C6  UNL d   1      -1.811  -0.715   4.059  0.00  0.00     0.077 C 
ATOM      8  C7  UNL d   1      -0.780  -0.733   1.769  0.00  0.00    -0.001 A 
ENDROOT
TORSDOF 0
ENDMDL
