MODEL 1
REMARK minimizedAffinity -4.84972572
REMARK minimizedRMSD -1
REMARK  0 active torsions:
REMARK  status: ('A' for Active; 'I' for Inactive)
ROOT
ATOM      1  C   UNL d   1      -0.046  -0.446   3.089  0.00  0.00     0.077 C 
ATOM      2  C1  UNL d   1       0.097  -0.127   1.630  0.00  0.00    -0.074 A 
ATOM      3  C2  UNL d   1      -0.817   0.712   0.985  0.00  0.00    -0.005 A 
ATOM      4  C3  UNL d   1      -0.666   1.008  -0.370  0.00  0.00     0.006 A 
ATOM      5  C4  UNL d   1       0.399   0.467  -1.092  0.00  0.00    -0.005 A 
ATOM      6  C5  UNL d   1       1.323  -0.373  -0.463  0.00  0.00    -0.074 A 
ATOM      7  C6  UNL d   1       2.479  -0.954  -1.223  0.00  0.00     0.077 C 
ATOM      8  C7  UNL d   1       1.168  -0.659   0.900  0.00  0.00    -0.001 A 
ENDROOT
TORSDOF 0
ENDMDL
