MODEL 1
REMARK minimizedAffinity -4.92601633
REMARK minimizedRMSD -1
REMARK  0 active torsions:
REMARK  status: ('A' for Active; 'I' for Inactive)
ROOT
ATOM      1  C   UNL d   1       0.861   0.513  -1.533  0.00  0.00     0.077 C 
ATOM      2  C1  UNL d   1       0.384   0.194  -0.147  0.00  0.00    -0.074 A 
ATOM      3  C2  UNL d   1      -0.695  -0.670   0.061  0.00  0.00    -0.005 A 
ATOM      4  C3  UNL d   1      -1.121  -0.965   1.357  0.00  0.00     0.006 A 
ATOM      5  C4  UNL d   1      -0.472  -0.399   2.455  0.00  0.00    -0.005 A 
ATOM      6  C5  UNL d   1       0.610   0.467   2.266  0.00  0.00    -0.074 A 
ATOM      7  C6  UNL d   1       1.324   1.076   3.436  0.00  0.00     0.077 C 
ATOM      8  C7  UNL d   1       1.036   0.752   0.962  0.00  0.00    -0.001 A 
ENDROOT
TORSDOF 0
ENDMDL
