MODEL 1
REMARK minimizedAffinity -4.50656414
REMARK minimizedRMSD -1
REMARK  0 active torsions:
REMARK  status: ('A' for Active; 'I' for Inactive)
ROOT
ATOM      1  C   UNL d   1       0.192   0.439  -1.373  0.00  0.00     0.077 C 
ATOM      2  C1  UNL d   1      -0.024   0.096   0.071  0.00  0.00    -0.074 A 
ATOM      3  C2  UNL d   1      -1.165  -0.601   0.481  0.00  0.00    -0.005 A 
ATOM      4  C3  UNL d   1      -1.347  -0.921   1.826  0.00  0.00     0.006 A 
ATOM      5  C4  UNL d   1      -0.393  -0.548   2.773  0.00  0.00    -0.005 A 
ATOM      6  C5  UNL d   1       0.754   0.149   2.381  0.00  0.00    -0.074 A 
ATOM      7  C6  UNL d   1       1.795   0.549   3.385  0.00  0.00     0.077 C 
ATOM      8  C7  UNL d   1       0.934   0.461   1.027  0.00  0.00    -0.001 A 
ENDROOT
TORSDOF 0
ENDMDL
