MODEL 1
REMARK minimizedAffinity -3.05760503
REMARK minimizedRMSD -1
REMARK  0 active torsions:
REMARK  status: ('A' for Active; 'I' for Inactive)
ROOT
ATOM      1  C   UNL d   1       0.997  -0.415  -1.610  0.00  0.00     0.077 C 
ATOM      2  C1  UNL d   1       0.348  -0.298  -0.263  0.00  0.00    -0.074 A 
ATOM      3  C2  UNL d   1      -1.043  -0.361  -0.127  0.00  0.00    -0.005 A 
ATOM      4  C3  UNL d   1      -1.631  -0.260   1.133  0.00  0.00     0.006 A 
ATOM      5  C4  UNL d   1      -0.837  -0.095   2.268  0.00  0.00    -0.005 A 
ATOM      6  C5  UNL d   1       0.555  -0.031   2.152  0.00  0.00    -0.074 A 
ATOM      7  C6  UNL d   1       1.424   0.137   3.363  0.00  0.00     0.077 C 
ATOM      8  C7  UNL d   1       1.139  -0.140   0.883  0.00  0.00    -0.001 A 
ENDROOT
TORSDOF 0
ENDMDL
