MODEL 1
REMARK minimizedAffinity -2.7268815
REMARK minimizedRMSD -1
REMARK  0 active torsions:
REMARK  status: ('A' for Active; 'I' for Inactive)
ROOT
ATOM      1  C   UNL d   1       1.605   0.879  -1.013  0.00  0.00     0.077 C 
ATOM      2  C1  UNL d   1       2.523   0.385  -2.091  0.00  0.00    -0.074 A 
ATOM      3  C2  UNL d   1       2.294  -0.840  -2.725  0.00  0.00    -0.005 A 
ATOM      4  C3  UNL d   1       3.151  -1.281  -3.733  0.00  0.00     0.006 A 
ATOM      5  C4  UNL d   1       4.245  -0.504  -4.116  0.00  0.00    -0.005 A 
ATOM      6  C5  UNL d   1       4.489   0.724  -3.494  0.00  0.00    -0.074 A 
ATOM      7  C6  UNL d   1       5.655   1.577  -3.900  0.00  0.00     0.077 C 
ATOM      8  C7  UNL d   1       3.619   1.165  -2.487  0.00  0.00    -0.001 A 
ENDROOT
TORSDOF 0
ENDMDL
