MODEL 1
REMARK minimizedAffinity 9.10791492
REMARK minimizedRMSD -1
REMARK  0 active torsions:
REMARK  status: ('A' for Active; 'I' for Inactive)
ROOT
ATOM      1  C   UNL d   1       0.376  -3.253  -4.122  0.00  0.00     0.077 C 
ATOM      2  C1  UNL d   1       1.103  -2.147  -3.416  0.00  0.00    -0.074 A 
ATOM      3  C2  UNL d   1       0.489  -1.424  -2.388  0.00  0.00    -0.005 A 
ATOM      4  C3  UNL d   1       1.181  -0.404  -1.735  0.00  0.00     0.006 A 
ATOM      5  C4  UNL d   1       2.492  -0.097  -2.103  0.00  0.00    -0.005 A 
ATOM      6  C5  UNL d   1       3.122  -0.810  -3.128  0.00  0.00    -0.074 A 
ATOM      7  C6  UNL d   1       4.533  -0.499  -3.529  0.00  0.00     0.077 C 
ATOM      8  C7  UNL d   1       2.422  -1.838  -3.775  0.00  0.00    -0.001 A 
ENDROOT
TORSDOF 0
ENDMDL
