MODEL 1
REMARK minimizedAffinity -0.435149789
REMARK minimizedRMSD -1
REMARK  0 active torsions:
REMARK  status: ('A' for Active; 'I' for Inactive)
ROOT
ATOM      1  C   UNL d   1       4.710  -1.058   5.662  0.00  0.00     0.077 C 
ATOM      2  C1  UNL d   1       3.990  -1.358   4.380  0.00  0.00    -0.074 A 
ATOM      3  C2  UNL d   1       4.342  -0.712   3.190  0.00  0.00    -0.005 A 
ATOM      4  C3  UNL d   1       3.670  -1.009   2.005  0.00  0.00     0.006 A 
ATOM      5  C4  UNL d   1       2.642  -1.952   1.996  0.00  0.00    -0.005 A 
ATOM      6  C5  UNL d   1       2.278  -2.609   3.176  0.00  0.00    -0.074 A 
ATOM      7  C6  UNL d   1       1.182  -3.633   3.183  0.00  0.00     0.077 C 
ATOM      8  C7  UNL d   1       2.962  -2.311   4.362  0.00  0.00    -0.001 A 
ENDROOT
TORSDOF 0
ENDMDL
