MODEL 1
REMARK minimizedAffinity 3.05006981
REMARK minimizedRMSD -1
REMARK  0 active torsions:
REMARK  status: ('A' for Active; 'I' for Inactive)
ROOT
ATOM      1  C1  DEN d   1      -2.919   1.930   0.948  0.00  0.00     0.130 A 
ATOM      2  C2  DEN d   1      -3.839   3.056   0.808  0.00  0.00    -0.031 A 
ATOM      3  C3  DEN d   1      -4.330   3.073  -0.584  0.00  0.00     0.027 A 
ATOM      4  C4  DEN d   1      -3.762   1.473  -2.526  0.00  0.00     0.027 A 
ATOM      5  C5  DEN d   1      -3.020   0.372  -2.892  0.00  0.00    -0.003 A 
ATOM      6  C6  DEN d   1      -2.174  -0.261  -2.021  0.00  0.00     0.001 A 
ATOM      7  C7  DEN d   1      -2.082   0.175  -0.726  0.00  0.00     0.017 A 
ATOM      8  C8  DEN d   1      -2.821   1.289  -0.351  0.00  0.00    -0.094 A 
ATOM      9  C9  DEN d   1      -3.681   1.908  -1.243  0.00  0.00    -0.072 A 
ENDROOT
TORSDOF 0
ENDMDL
