MODEL 1
REMARK minimizedAffinity 6.53591681
REMARK minimizedRMSD -1
REMARK  0 active torsions:
REMARK  status: ('A' for Active; 'I' for Inactive)
ROOT
ATOM      1  C1  DEN d   1       0.817  -2.373   3.190  0.00  0.00     0.130 A 
ATOM      2  C2  DEN d   1       1.212  -1.198   2.417  0.00  0.00    -0.031 A 
ATOM      3  C3  DEN d   1       2.679  -1.061   2.513  0.00  0.00     0.027 A 
ATOM      4  C4  DEN d   1       4.369  -2.549   3.771  0.00  0.00     0.027 A 
ATOM      5  C5  DEN d   1       4.506  -3.656   4.578  0.00  0.00    -0.003 A 
ATOM      6  C6  DEN d   1       3.429  -4.387   5.004  0.00  0.00     0.001 A 
ATOM      7  C7  DEN d   1       2.170  -4.046   4.587  0.00  0.00     0.017 A 
ATOM      8  C8  DEN d   1       2.023  -2.927   3.779  0.00  0.00    -0.094 A 
ATOM      9  C9  DEN d   1       3.125  -2.208   3.349  0.00  0.00    -0.072 A 
ENDROOT
TORSDOF 0
ENDMDL
