MODEL 1
REMARK minimizedAffinity 8.11420441
REMARK minimizedRMSD -1
REMARK  0 active torsions:
REMARK  status: ('A' for Active; 'I' for Inactive)
ROOT
ATOM      1  C1  DEN d   1       1.982  -0.960   4.149  0.00  0.00     0.130 A 
ATOM      2  C2  DEN d   1       1.605  -0.550   2.799  0.00  0.00    -0.031 A 
ATOM      3  C3  DEN d   1       1.421  -1.769   1.986  0.00  0.00     0.027 A 
ATOM      4  C4  DEN d   1       1.678  -4.239   2.685  0.00  0.00     0.027 A 
ATOM      5  C5  DEN d   1       1.995  -5.084   3.726  0.00  0.00    -0.003 A 
ATOM      6  C6  DEN d   1       2.360  -4.617   4.960  0.00  0.00     0.001 A 
ATOM      7  C7  DEN d   1       2.373  -3.268   5.199  0.00  0.00     0.017 A 
ATOM      8  C8  DEN d   1       2.062  -2.409   4.153  0.00  0.00    -0.094 A 
ATOM      9  C9  DEN d   1       1.683  -2.902   2.915  0.00  0.00    -0.072 A 
ENDROOT
TORSDOF 0
ENDMDL
