MODEL 1
REMARK minimizedAffinity 8.04975128
REMARK minimizedRMSD -1
REMARK  0 active torsions:
REMARK  status: ('A' for Active; 'I' for Inactive)
ROOT
ATOM      1  C1  DEN d   1       1.893  -2.848   4.314  0.00  0.00     0.130 A 
ATOM      2  C2  DEN d   1       1.469  -2.307   3.026  0.00  0.00    -0.031 A 
ATOM      3  C3  DEN d   1       2.674  -1.854   2.302  0.00  0.00     0.027 A 
ATOM      4  C4  DEN d   1       5.142  -1.944   3.045  0.00  0.00     0.027 A 
ATOM      5  C5  DEN d   1       5.995  -2.307   4.063  0.00  0.00    -0.003 A 
ATOM      6  C6  DEN d   1       5.542  -2.840   5.241  0.00  0.00     0.001 A 
ATOM      7  C7  DEN d   1       4.202  -3.068   5.411  0.00  0.00     0.017 A 
ATOM      8  C8  DEN d   1       3.335  -2.697   4.392  0.00  0.00    -0.094 A 
ATOM      9  C9  DEN d   1       3.814  -2.171   3.204  0.00  0.00    -0.072 A 
ENDROOT
TORSDOF 0
ENDMDL
