MODEL 1
REMARK minimizedAffinity -1.06996047
REMARK minimizedRMSD -1
REMARK  0 active torsions:
REMARK  status: ('A' for Active; 'I' for Inactive)
ROOT
ATOM      1  C   UNL d   1      -5.286  -3.408  -2.241  0.00  0.00     0.078 C 
ATOM      2  C1  UNL d   1      -5.257  -4.139  -3.550  0.00  0.00    -0.077 A 
ATOM      3  C2  UNL d   1      -4.506  -3.657  -4.629  0.00  0.00    -0.001 A 
ATOM      4  C3  UNL d   1      -4.496  -4.342  -5.845  0.00  0.00     0.003 A 
ATOM      5  C4  UNL d   1      -5.237  -5.513  -5.994  0.00  0.00    -0.005 A 
ATOM      6  C5  UNL d   1      -5.989  -5.999  -4.927  0.00  0.00     0.003 A 
ATOM      7  C6  UNL d   1      -6.000  -5.315  -3.710  0.00  0.00    -0.001 A 
ENDROOT
TORSDOF 0
ENDMDL
