MODEL 1
REMARK minimizedAffinity -2.57510757
REMARK minimizedRMSD -1
REMARK  0 active torsions:
REMARK  status: ('A' for Active; 'I' for Inactive)
ROOT
ATOM      1  C   UNL d   1      -5.999  -4.054  -1.987  0.00  0.00     0.078 C 
ATOM      2  C1  UNL d   1      -5.626  -4.443  -3.387  0.00  0.00    -0.077 A 
ATOM      3  C2  UNL d   1      -6.000  -3.651  -4.479  0.00  0.00    -0.001 A 
ATOM      4  C3  UNL d   1      -5.654  -4.031  -5.777  0.00  0.00     0.003 A 
ATOM      5  C4  UNL d   1      -4.934  -5.204  -5.995  0.00  0.00    -0.005 A 
ATOM      6  C5  UNL d   1      -4.560  -6.000  -4.914  0.00  0.00     0.003 A 
ATOM      7  C6  UNL d   1      -4.905  -5.622  -3.615  0.00  0.00    -0.001 A 
ENDROOT
TORSDOF 0
ENDMDL
