MODEL 1
REMARK minimizedAffinity -4.23931265
REMARK minimizedRMSD -1
REMARK  0 active torsions:
REMARK  status: ('A' for Active; 'I' for Inactive)
ROOT
ATOM      1  C   UNL d   1      -5.492  -4.657  -5.989  0.00  0.00     0.078 C 
ATOM      2  C1  UNL d   1      -5.468  -4.771  -4.494  0.00  0.00    -0.077 A 
ATOM      3  C2  UNL d   1      -4.932  -5.902  -3.866  0.00  0.00    -0.001 A 
ATOM      4  C3  UNL d   1      -4.926  -6.000  -2.474  0.00  0.00     0.003 A 
ATOM      5  C4  UNL d   1      -5.454  -4.970  -1.698  0.00  0.00    -0.005 A 
ATOM      6  C5  UNL d   1      -5.991  -3.842  -2.314  0.00  0.00     0.003 A 
ATOM      7  C6  UNL d   1      -5.999  -3.743  -3.706  0.00  0.00    -0.001 A 
ENDROOT
TORSDOF 0
ENDMDL
