MODEL 1
REMARK minimizedAffinity -3.68674326
REMARK minimizedRMSD -1
REMARK  0 active torsions:
REMARK  status: ('A' for Active; 'I' for Inactive)
ROOT
ATOM      1  C   UNL d   1      -4.597  -5.999  -2.179  0.00  0.00     0.078 C 
ATOM      2  C1  UNL d   1      -4.984  -5.353  -3.475  0.00  0.00    -0.077 A 
ATOM      3  C2  UNL d   1      -5.636  -4.114  -3.497  0.00  0.00    -0.001 A 
ATOM      4  C3  UNL d   1      -5.999  -3.528  -4.711  0.00  0.00     0.003 A 
ATOM      5  C4  UNL d   1      -5.715  -4.175  -5.912  0.00  0.00    -0.005 A 
ATOM      6  C5  UNL d   1      -5.069  -5.409  -5.900  0.00  0.00     0.003 A 
ATOM      7  C6  UNL d   1      -4.705  -5.996  -4.688  0.00  0.00    -0.001 A 
ENDROOT
TORSDOF 0
ENDMDL
