MODEL 1
REMARK minimizedAffinity 0.518436611
REMARK minimizedRMSD -1
REMARK  0 active torsions:
REMARK  status: ('A' for Active; 'I' for Inactive)
ROOT
ATOM      1  C   UNL d   1      -1.440  -1.675   0.925  0.00  0.00     0.124 A 
ATOM      2  C1  UNL d   1      -0.540  -2.040  -0.066  0.00  0.00     0.062 A 
ATOM      3  C2  UNL d   1       0.190  -1.066  -0.742  0.00  0.00     0.162 A 
ATOM      4  C3  UNL d   1       0.023   0.282  -0.428  0.00  0.00    -0.034 A 
ATOM      5  C4  UNL d   1      -0.884   0.642   0.570  0.00  0.00     0.162 A 
ATOM      6  C5  UNL d   1      -1.611  -0.335   1.242  0.00  0.00     0.062 A 
ATOM      7  F   UNL d   1      -2.480   0.019   2.200  0.00  0.00    -0.097 F 
ATOM      8  F1  UNL d   1      -1.069   1.929   0.897  0.00  0.00    -0.096 F 
ATOM      9  I   UNL d   1       1.112   1.741  -1.437  0.00  0.00    -0.060 I 
ATOM     10  F2  UNL d   1       1.052  -1.448  -1.696  0.00  0.00    -0.096 F 
ATOM     11  F3  UNL d   1      -0.373  -3.334  -0.375  0.00  0.00    -0.097 F 
ATOM     12  F4  UNL d   1      -2.141  -2.614   1.574  0.00  0.00    -0.092 F 
ENDROOT
TORSDOF 0
ENDMDL
