MODEL 1
REMARK minimizedAffinity -1.85581911
REMARK minimizedRMSD -1
REMARK  0 active torsions:
REMARK  status: ('A' for Active; 'I' for Inactive)
ROOT
ATOM      1  C   UNL d   1      -0.385  -1.728  -0.336  0.00  0.00     0.124 A 
ATOM      2  C1  UNL d   1      -0.555  -1.270   0.963  0.00  0.00     0.062 A 
ATOM      3  C2  UNL d   1      -0.155   0.017   1.310  0.00  0.00     0.162 A 
ATOM      4  C3  UNL d   1       0.418   0.857   0.356  0.00  0.00    -0.034 A 
ATOM      5  C4  UNL d   1       0.586   0.390  -0.949  0.00  0.00     0.162 A 
ATOM      6  C5  UNL d   1       0.185  -0.898  -1.291  0.00  0.00     0.062 A 
ATOM      7  F   UNL d   1       0.350  -1.338  -2.547  0.00  0.00    -0.097 F 
ATOM      8  F1  UNL d   1       1.134   1.171  -1.892  0.00  0.00    -0.096 F 
ATOM      9  I   UNL d   1       1.017   2.783   0.870  0.00  0.00    -0.060 I 
ATOM     10  F2  UNL d   1      -0.332   0.433   2.573  0.00  0.00    -0.096 F 
ATOM     11  F3  UNL d   1      -1.105  -2.071   1.888  0.00  0.00    -0.097 F 
ATOM     12  F4  UNL d   1      -0.770  -2.967  -0.667  0.00  0.00    -0.092 F 
ENDROOT
TORSDOF 0
ENDMDL
