MODEL 1
REMARK minimizedAffinity -3.82979536
REMARK minimizedRMSD -1
REMARK  0 active torsions:
REMARK  status: ('A' for Active; 'I' for Inactive)
ROOT
ATOM      1  C   UNL d   1      -0.777  -2.260  -0.974  0.00  0.00     0.124 A 
ATOM      2  C1  UNL d   1      -0.031  -1.426  -1.796  0.00  0.00     0.062 A 
ATOM      3  C2  UNL d   1       0.215  -0.109  -1.419  0.00  0.00     0.162 A 
ATOM      4  C3  UNL d   1      -0.286   0.383  -0.213  0.00  0.00    -0.034 A 
ATOM      5  C4  UNL d   1      -1.037  -0.461   0.607  0.00  0.00     0.162 A 
ATOM      6  C5  UNL d   1      -1.279  -1.777   0.226  0.00  0.00     0.062 A 
ATOM      7  F   UNL d   1      -2.000  -2.581   1.021  0.00  0.00    -0.097 F 
ATOM      8  F1  UNL d   1      -1.533  -0.021   1.773  0.00  0.00    -0.096 F 
ATOM      9  I   UNL d   1       0.078   2.352   0.354  0.00  0.00    -0.060 I 
ATOM     10  F2  UNL d   1       0.939   0.675  -2.232  0.00  0.00    -0.096 F 
ATOM     11  F3  UNL d   1       0.455  -1.890  -2.956  0.00  0.00    -0.097 F 
ATOM     12  F4  UNL d   1      -1.012  -3.526  -1.340  0.00  0.00    -0.092 F 
ENDROOT
TORSDOF 0
ENDMDL
