MODEL 1
REMARK minimizedAffinity 2.70846367
REMARK minimizedRMSD -1
REMARK  0 active torsions:
REMARK  status: ('A' for Active; 'I' for Inactive)
ROOT
ATOM      1  C   UNL d   1      -0.599  -1.417  -0.574  0.00  0.00     0.124 A 
ATOM      2  C1  UNL d   1      -0.775  -0.904   0.704  0.00  0.00     0.062 A 
ATOM      3  C2  UNL d   1      -0.353   0.388   1.004  0.00  0.00     0.162 A 
ATOM      4  C3  UNL d   1       0.249   1.177   0.024  0.00  0.00    -0.034 A 
ATOM      5  C4  UNL d   1       0.423   0.654  -1.259  0.00  0.00     0.162 A 
ATOM      6  C5  UNL d   1      -0.000  -0.637  -1.554  0.00  0.00     0.062 A 
ATOM      7  F   UNL d   1       0.171  -1.131  -2.789  0.00  0.00    -0.097 F 
ATOM      8  F1  UNL d   1       0.998   1.386  -2.225  0.00  0.00    -0.096 F 
ATOM      9  I   UNL d   1       0.881   3.110   0.468  0.00  0.00    -0.060 I 
ATOM     10  F2  UNL d   1      -0.535   0.857   2.247  0.00  0.00    -0.096 F 
ATOM     11  F3  UNL d   1      -1.352  -1.655   1.652  0.00  0.00    -0.097 F 
ATOM     12  F4  UNL d   1      -1.005  -2.660  -0.860  0.00  0.00    -0.092 F 
ENDROOT
TORSDOF 0
ENDMDL
