MODEL 1
REMARK minimizedAffinity -0.132743061
REMARK minimizedRMSD -1
REMARK  0 active torsions:
REMARK  status: ('A' for Active; 'I' for Inactive)
ROOT
ATOM      1  C   UNL d   1      -1.451  -0.525   1.477  0.00  0.00     0.124 A 
ATOM      2  C1  UNL d   1      -0.960  -1.780   1.149  0.00  0.00     0.062 A 
ATOM      3  C2  UNL d   1      -0.258  -1.969  -0.038  0.00  0.00     0.162 A 
ATOM      4  C3  UNL d   1      -0.042  -0.898  -0.906  0.00  0.00    -0.034 A 
ATOM      5  C4  UNL d   1      -0.541   0.362  -0.569  0.00  0.00     0.162 A 
ATOM      6  C5  UNL d   1      -1.242   0.545   0.618  0.00  0.00     0.062 A 
ATOM      7  F   UNL d   1      -1.716   1.759   0.934  0.00  0.00    -0.097 F 
ATOM      8  F1  UNL d   1      -0.352   1.413  -1.381  0.00  0.00    -0.096 F 
ATOM      9  I   UNL d   1       1.007  -1.175  -2.682  0.00  0.00    -0.060 I 
ATOM     10  F2  UNL d   1       0.206  -3.193  -0.330  0.00  0.00    -0.096 F 
ATOM     11  F3  UNL d   1      -1.162  -2.815   1.976  0.00  0.00    -0.097 F 
ATOM     12  F4  UNL d   1      -2.127  -0.346   2.620  0.00  0.00    -0.092 F 
ENDROOT
TORSDOF 0
ENDMDL
