MODEL 1
REMARK minimizedAffinity -2.94937634
REMARK minimizedRMSD -1
REMARK  0 active torsions:
REMARK  status: ('A' for Active; 'I' for Inactive)
ROOT
ATOM      1  C   UNL d   1       0.296  -1.666  -1.238  0.00  0.00     0.124 A 
ATOM      2  C1  UNL d   1      -0.131  -0.370  -1.490  0.00  0.00     0.062 A 
ATOM      3  C2  UNL d   1      -0.965   0.281  -0.585  0.00  0.00     0.162 A 
ATOM      4  C3  UNL d   1      -1.376  -0.364   0.582  0.00  0.00    -0.034 A 
ATOM      5  C4  UNL d   1      -0.943  -1.668   0.828  0.00  0.00     0.162 A 
ATOM      6  C5  UNL d   1      -0.110  -2.314  -0.079  0.00  0.00     0.062 A 
ATOM      7  F   UNL d   1       0.302  -3.566   0.166  0.00  0.00    -0.097 F 
ATOM      8  F1  UNL d   1      -1.319  -2.317   1.940  0.00  0.00    -0.096 F 
ATOM      9  I   UNL d   1      -2.622   0.606   1.938  0.00  0.00    -0.060 I 
ATOM     10  F2  UNL d   1      -1.362   1.533  -0.854  0.00  0.00    -0.096 F 
ATOM     11  F3  UNL d   1       0.258   0.257  -2.609  0.00  0.00    -0.097 F 
ATOM     12  F4  UNL d   1       1.097  -2.290  -2.111  0.00  0.00    -0.092 F 
ENDROOT
TORSDOF 0
ENDMDL
