MODEL 1
REMARK minimizedAffinity -2.0541327
REMARK minimizedRMSD -1
REMARK  0 active torsions:
REMARK  status: ('A' for Active; 'I' for Inactive)
ROOT
ATOM      1  C   UNL d   1      -0.695  -1.849  -0.440  0.00  0.00     0.124 A 
ATOM      2  C1  UNL d   1      -0.365  -0.955  -1.450  0.00  0.00     0.062 A 
ATOM      3  C2  UNL d   1      -0.009   0.354  -1.138  0.00  0.00     0.162 A 
ATOM      4  C3  UNL d   1       0.020   0.777   0.191  0.00  0.00    -0.034 A 
ATOM      5  C4  UNL d   1      -0.314  -0.127   1.201  0.00  0.00     0.162 A 
ATOM      6  C5  UNL d   1      -0.669  -1.434   0.884  0.00  0.00     0.062 A 
ATOM      7  F   UNL d   1      -0.988  -2.296   1.860  0.00  0.00    -0.097 F 
ATOM      8  F1  UNL d   1      -0.296   0.247   2.489  0.00  0.00    -0.096 F 
ATOM      9  I   UNL d   1       0.553   2.733   0.662  0.00  0.00    -0.060 I 
ATOM     10  F2  UNL d   1       0.306   1.195  -2.133  0.00  0.00    -0.096 F 
ATOM     11  F3  UNL d   1      -0.390  -1.353  -2.730  0.00  0.00    -0.097 F 
ATOM     12  F4  UNL d   1      -1.038  -3.107  -0.744  0.00  0.00    -0.092 F 
ENDROOT
TORSDOF 0
ENDMDL
