MODEL 1
REMARK minimizedAffinity 4.05251169
REMARK minimizedRMSD -1
REMARK  0 active torsions:
REMARK  status: ('A' for Active; 'I' for Inactive)
ROOT
ATOM      1  C   UNL d   1      -0.920  -1.645  -0.455  0.00  0.00     0.124 A 
ATOM      2  C1  UNL d   1      -0.285  -0.990  -1.501  0.00  0.00     0.062 A 
ATOM      3  C2  UNL d   1       0.240   0.286  -1.314  0.00  0.00     0.162 A 
ATOM      4  C3  UNL d   1       0.132   0.915  -0.074  0.00  0.00    -0.034 A 
ATOM      5  C4  UNL d   1      -0.509   0.251   0.973  0.00  0.00     0.162 A 
ATOM      6  C5  UNL d   1      -1.031  -1.024   0.781  0.00  0.00     0.062 A 
ATOM      7  F   UNL d   1      -1.645  -1.654   1.793  0.00  0.00    -0.097 F 
ATOM      8  F1  UNL d   1      -0.631   0.828   2.178  0.00  0.00    -0.096 F 
ATOM      9  I   UNL d   1       0.914   2.823   0.211  0.00  0.00    -0.060 I 
ATOM     10  F2  UNL d   1       0.848   0.894  -2.342  0.00  0.00    -0.096 F 
ATOM     11  F3  UNL d   1      -0.176  -1.588  -2.697  0.00  0.00    -0.097 F 
ATOM     12  F4  UNL d   1      -1.424  -2.872  -0.638  0.00  0.00    -0.092 F 
ENDROOT
TORSDOF 0
ENDMDL
