MODEL 1
REMARK minimizedAffinity -0.931426764
REMARK minimizedRMSD -1
REMARK  0 active torsions:
REMARK  status: ('A' for Active; 'I' for Inactive)
ROOT
ATOM      1  C   UNL d   1      -0.786  -1.763  -0.347  0.00  0.00     0.124 A 
ATOM      2  C1  UNL d   1      -0.372  -1.084  -1.485  0.00  0.00     0.062 A 
ATOM      3  C2  UNL d   1       0.077   0.230  -1.391  0.00  0.00     0.162 A 
ATOM      4  C3  UNL d   1       0.115   0.874  -0.154  0.00  0.00    -0.034 A 
ATOM      5  C4  UNL d   1      -0.303   0.185   0.985  0.00  0.00     0.162 A 
ATOM      6  C5  UNL d   1      -0.751  -1.128   0.886  0.00  0.00     0.062 A 
ATOM      7  F   UNL d   1      -1.151  -1.783   1.986  0.00  0.00    -0.097 F 
ATOM      8  F1  UNL d   1      -0.279   0.774   2.190  0.00  0.00    -0.096 F 
ATOM      9  I   UNL d   1       0.786   2.839  -0.009  0.00  0.00    -0.060 I 
ATOM     10  F2  UNL d   1       0.471   0.863  -2.507  0.00  0.00    -0.096 F 
ATOM     11  F3  UNL d   1      -0.406  -1.694  -2.678  0.00  0.00    -0.097 F 
ATOM     12  F4  UNL d   1      -1.218  -3.027  -0.441  0.00  0.00    -0.092 F 
ENDROOT
TORSDOF 0
ENDMDL
