MODEL 1
REMARK minimizedAffinity -2.07453942
REMARK minimizedRMSD -1
REMARK  0 active torsions:
REMARK  status: ('A' for Active; 'I' for Inactive)
ROOT
ATOM      1  C   UNL d   1      -0.388  -0.562   1.692  0.00  0.00     0.124 A 
ATOM      2  C1  UNL d   1      -0.569   0.439   0.748  0.00  0.00     0.062 A 
ATOM      3  C2  UNL d   1      -0.315   0.188  -0.597  0.00  0.00     0.162 A 
ATOM      4  C3  UNL d   1       0.123  -1.072  -1.007  0.00  0.00    -0.034 A 
ATOM      5  C4  UNL d   1       0.304  -2.074  -0.052  0.00  0.00     0.162 A 
ATOM      6  C5  UNL d   1       0.048  -1.817   1.291  0.00  0.00     0.062 A 
ATOM      7  F   UNL d   1       0.224  -2.786   2.201  0.00  0.00    -0.097 F 
ATOM      8  F1  UNL d   1       0.724  -3.296  -0.412  0.00  0.00    -0.096 F 
ATOM      9  I   UNL d   1       0.505  -1.452  -3.018  0.00  0.00    -0.060 I 
ATOM     10  F2  UNL d   1      -0.498   1.174  -1.487  0.00  0.00    -0.096 F 
ATOM     11  F3  UNL d   1      -0.990   1.653   1.132  0.00  0.00    -0.097 F 
ATOM     12  F4  UNL d   1      -0.633  -0.317   2.985  0.00  0.00    -0.092 F 
ENDROOT
TORSDOF 0
ENDMDL
