MODEL 1
REMARK minimizedAffinity 0.904271543
REMARK minimizedRMSD -1
REMARK  0 active torsions:
REMARK  status: ('A' for Active; 'I' for Inactive)
ROOT
ATOM      1  C   UNL d   1      -0.344   1.198  -1.513  0.00  0.00     0.124 A 
ATOM      2  C1  UNL d   1      -0.547   0.974  -0.159  0.00  0.00     0.062 A 
ATOM      3  C2  UNL d   1      -0.370  -0.300   0.374  0.00  0.00     0.162 A 
ATOM      4  C3  UNL d   1       0.014  -1.359  -0.448  0.00  0.00    -0.034 A 
ATOM      5  C4  UNL d   1       0.215  -1.126  -1.809  0.00  0.00     0.162 A 
ATOM      6  C5  UNL d   1       0.037   0.148  -2.337  0.00  0.00     0.062 A 
ATOM      7  F   UNL d   1       0.234   0.363  -3.646  0.00  0.00    -0.097 F 
ATOM      8  F1  UNL d   1       0.584  -2.122  -2.628  0.00  0.00    -0.096 F 
ATOM      9  I   UNL d   1       0.280  -3.265   0.345  0.00  0.00    -0.060 I 
ATOM     10  F2  UNL d   1      -0.573  -0.487   1.687  0.00  0.00    -0.096 F 
ATOM     11  F3  UNL d   1      -0.916   1.986   0.639  0.00  0.00    -0.097 F 
ATOM     12  F4  UNL d   1      -0.516   2.424  -2.024  0.00  0.00    -0.092 F 
ENDROOT
TORSDOF 0
ENDMDL
