MODEL 1
REMARK minimizedAffinity -1.66679621
REMARK minimizedRMSD -1
REMARK  0 active torsions:
REMARK  status: ('A' for Active; 'I' for Inactive)
ROOT
ATOM      1  C   UNL d   1      -1.367  -1.800   0.734  0.00  0.00     0.124 A 
ATOM      2  C1  UNL d   1      -1.697  -0.452   0.693  0.00  0.00     0.062 A 
ATOM      3  C2  UNL d   1      -0.737   0.493   0.344  0.00  0.00     0.162 A 
ATOM      4  C3  UNL d   1       0.563   0.094   0.032  0.00  0.00    -0.034 A 
ATOM      5  C4  UNL d   1       0.887  -1.263   0.077  0.00  0.00     0.162 A 
ATOM      6  C5  UNL d   1      -0.076  -2.204   0.426  0.00  0.00     0.062 A 
ATOM      7  F   UNL d   1       0.244  -3.506   0.466  0.00  0.00    -0.097 F 
ATOM      8  F1  UNL d   1       2.127  -1.682  -0.217  0.00  0.00    -0.096 F 
ATOM      9  I   UNL d   1       2.002   1.504  -0.490  0.00  0.00    -0.060 I 
ATOM     10  F2  UNL d   1      -1.083   1.788   0.312  0.00  0.00    -0.096 F 
ATOM     11  F3  UNL d   1      -2.944  -0.059   0.991  0.00  0.00    -0.097 F 
ATOM     12  F4  UNL d   1      -2.293  -2.707   1.071  0.00  0.00    -0.092 F 
ENDROOT
TORSDOF 0
ENDMDL
