MODEL 1
REMARK minimizedAffinity -1.95114684
REMARK minimizedRMSD -1
REMARK  0 active torsions:
REMARK  status: ('A' for Active; 'I' for Inactive)
ROOT
ATOM      1  C   UNL d   1      -0.411  -2.627  -1.103  0.00  0.00     0.124 A 
ATOM      2  C1  UNL d   1      -0.479  -2.136   0.194  0.00  0.00     0.062 A 
ATOM      3  C2  UNL d   1      -0.404  -0.766   0.429  0.00  0.00     0.162 A 
ATOM      4  C3  UNL d   1      -0.261   0.124  -0.636  0.00  0.00    -0.034 A 
ATOM      5  C4  UNL d   1      -0.193  -0.377  -1.937  0.00  0.00     0.162 A 
ATOM      6  C5  UNL d   1      -0.268  -1.747  -2.167  0.00  0.00     0.062 A 
ATOM      7  F   UNL d   1      -0.202  -2.220  -3.420  0.00  0.00    -0.097 F 
ATOM      8  F1  UNL d   1      -0.055   0.450  -2.984  0.00  0.00    -0.096 F 
ATOM      9  I   UNL d   1      -0.149   2.173  -0.289  0.00  0.00    -0.060 I 
ATOM     10  F2  UNL d   1      -0.473  -0.320   1.692  0.00  0.00    -0.096 F 
ATOM     11  F3  UNL d   1      -0.616  -2.983   1.224  0.00  0.00    -0.097 F 
ATOM     12  F4  UNL d   1      -0.482  -3.945  -1.325  0.00  0.00    -0.092 F 
ENDROOT
TORSDOF 0
ENDMDL
