MODEL 1
REMARK minimizedAffinity 0.764536917
REMARK minimizedRMSD -1
REMARK  0 active torsions:
REMARK  status: ('A' for Active; 'I' for Inactive)
ROOT
ATOM      1  C   UNL d   1      -2.678  -1.842   1.209  0.00  0.00     0.077 C 
ATOM      2  C1  UNL d   1      -2.262  -2.059  -0.216  0.00  0.00    -0.074 A 
ATOM      3  C2  UNL d   1      -3.215  -2.159  -1.235  0.00  0.00    -0.005 A 
ATOM      4  C3  UNL d   1      -2.813  -2.351  -2.557  0.00  0.00     0.006 A 
ATOM      5  C4  UNL d   1      -1.457  -2.444  -2.872  0.00  0.00    -0.005 A 
ATOM      6  C5  UNL d   1      -0.490  -2.345  -1.867  0.00  0.00    -0.074 A 
ATOM      7  C6  UNL d   1       0.972  -2.434  -2.190  0.00  0.00     0.077 C 
ATOM      8  C7  UNL d   1      -0.902  -2.146  -0.542  0.00  0.00    -0.001 A 
ENDROOT
TORSDOF 0
ENDMDL
