MODEL 1
REMARK minimizedAffinity -5.89636326
REMARK minimizedRMSD -1
REMARK  0 active torsions:
REMARK  status: ('A' for Active; 'I' for Inactive)
ROOT
ATOM      1  C   UNL d   1       1.292   0.553  -2.692  0.00  0.00     0.077 C 
ATOM      2  C1  UNL d   1       0.690   0.216  -1.360  0.00  0.00    -0.074 A 
ATOM      3  C2  UNL d   1       0.154   1.214  -0.540  0.00  0.00    -0.005 A 
ATOM      4  C3  UNL d   1      -0.411   0.883   0.692  0.00  0.00     0.006 A 
ATOM      5  C4  UNL d   1      -0.445  -0.446   1.116  0.00  0.00    -0.005 A 
ATOM      6  C5  UNL d   1       0.085  -1.457   0.309  0.00  0.00    -0.074 A 
ATOM      7  C6  UNL d   1       0.048  -2.892   0.744  0.00  0.00     0.077 C 
ATOM      8  C7  UNL d   1       0.645  -1.118  -0.931  0.00  0.00    -0.001 A 
ENDROOT
TORSDOF 0
ENDMDL
