MODEL 1
REMARK minimizedAffinity -4.33739185
REMARK minimizedRMSD -1
REMARK  0 active torsions:
REMARK  status: ('A' for Active; 'I' for Inactive)
ROOT
ATOM      1  C   UNL d   1       2.371   3.079   0.290  0.00  0.00     0.077 C 
ATOM      2  C1  UNL d   1       1.642   1.865  -0.202  0.00  0.00    -0.074 A 
ATOM      3  C2  UNL d   1       1.888   1.346  -1.477  0.00  0.00    -0.005 A 
ATOM      4  C3  UNL d   1       1.208   0.210  -1.918  0.00  0.00     0.006 A 
ATOM      5  C4  UNL d   1       0.278  -0.417  -1.089  0.00  0.00    -0.005 A 
ATOM      6  C5  UNL d   1       0.019   0.087   0.190  0.00  0.00    -0.074 A 
ATOM      7  C6  UNL d   1      -0.971  -0.582   1.097  0.00  0.00     0.077 C 
ATOM      8  C7  UNL d   1       0.711   1.224   0.628  0.00  0.00    -0.001 A 
ENDROOT
TORSDOF 0
ENDMDL
