MODEL 1
REMARK minimizedAffinity 7.58394861
REMARK minimizedRMSD -1
REMARK  0 active torsions:
REMARK  status: ('A' for Active; 'I' for Inactive)
ROOT
ATOM      1  C   UNL d   1      -0.379   5.827   4.157  0.00  0.00     0.077 C 
ATOM      2  C1  UNL d   1      -0.114   4.986   2.944  0.00  0.00    -0.074 A 
ATOM      3  C2  UNL d   1      -1.161   4.570   2.115  0.00  0.00    -0.005 A 
ATOM      4  C3  UNL d   1      -0.898   3.796   0.985  0.00  0.00     0.006 A 
ATOM      5  C4  UNL d   1       0.413   3.430   0.673  0.00  0.00    -0.005 A 
ATOM      6  C5  UNL d   1       1.472   3.837   1.490  0.00  0.00    -0.074 A 
ATOM      7  C6  UNL d   1       2.887   3.461   1.164  0.00  0.00     0.077 C 
ATOM      8  C7  UNL d   1       1.200   4.621   2.620  0.00  0.00    -0.001 A 
ENDROOT
TORSDOF 0
ENDMDL
