MODEL 1
REMARK minimizedAffinity -4.12795448
REMARK minimizedRMSD -1
REMARK  0 active torsions:
REMARK  status: ('A' for Active; 'I' for Inactive)
ROOT
ATOM      1  C   UNL d   1      -0.000  -2.564   0.393  0.00  0.00     0.077 C 
ATOM      2  C1  UNL d   1       0.408  -1.336  -0.366  0.00  0.00    -0.074 A 
ATOM      3  C2  UNL d   1       0.965  -1.433  -1.645  0.00  0.00    -0.005 A 
ATOM      4  C3  UNL d   1       1.331  -0.282  -2.342  0.00  0.00     0.006 A 
ATOM      5  C4  UNL d   1       1.144   0.976  -1.768  0.00  0.00    -0.005 A 
ATOM      6  C5  UNL d   1       0.587   1.093  -0.490  0.00  0.00    -0.074 A 
ATOM      7  C6  UNL d   1       0.370   2.438   0.137  0.00  0.00     0.077 C 
ATOM      8  C7  UNL d   1       0.216  -0.068   0.201  0.00  0.00    -0.001 A 
ENDROOT
TORSDOF 0
ENDMDL
