MODEL 1
REMARK minimizedAffinity -5.58836174
REMARK minimizedRMSD -1
REMARK  0 active torsions:
REMARK  status: ('A' for Active; 'I' for Inactive)
ROOT
ATOM      1  C   UNL d   1       1.859   2.924   1.173  0.00  0.00     0.077 C 
ATOM      2  C1  UNL d   1       1.211   1.981   0.204  0.00  0.00    -0.074 A 
ATOM      3  C2  UNL d   1      -0.112   1.564   0.382  0.00  0.00    -0.005 A 
ATOM      4  C3  UNL d   1      -0.705   0.694  -0.533  0.00  0.00     0.006 A 
ATOM      5  C4  UNL d   1       0.018   0.234  -1.634  0.00  0.00    -0.005 A 
ATOM      6  C5  UNL d   1       1.341   0.642  -1.830  0.00  0.00    -0.074 A 
ATOM      7  C6  UNL d   1       2.129   0.164  -3.014  0.00  0.00     0.077 C 
ATOM      8  C7  UNL d   1       1.928   1.521  -0.910  0.00  0.00    -0.001 A 
ENDROOT
TORSDOF 0
ENDMDL
