MODEL 1
REMARK minimizedAffinity -0.754874527
REMARK minimizedRMSD -1
REMARK  0 active torsions:
REMARK  status: ('A' for Active; 'I' for Inactive)
ROOT
ATOM      1  C   UNL d   1      -0.939  -2.531   0.090  0.00  0.00     0.077 C 
ATOM      2  C1  UNL d   1      -1.027  -1.127   0.609  0.00  0.00    -0.074 A 
ATOM      3  C2  UNL d   1      -0.403  -0.071  -0.063  0.00  0.00    -0.005 A 
ATOM      4  C3  UNL d   1      -0.501   1.231   0.427  0.00  0.00     0.006 A 
ATOM      5  C4  UNL d   1      -1.223   1.490   1.593  0.00  0.00    -0.005 A 
ATOM      6  C5  UNL d   1      -1.854   0.447   2.278  0.00  0.00    -0.074 A 
ATOM      7  C6  UNL d   1      -2.642   0.710   3.527  0.00  0.00     0.077 C 
ATOM      8  C7  UNL d   1      -1.757  -0.857   1.776  0.00  0.00    -0.001 A 
ENDROOT
TORSDOF 0
ENDMDL
