MODEL 1
REMARK minimizedAffinity -1.72616374
REMARK minimizedRMSD -1
REMARK  0 active torsions:
REMARK  status: ('A' for Active; 'I' for Inactive)
ROOT
ATOM      1  C   UNL d   1       4.498   1.736  -0.752  0.00  0.00     0.077 C 
ATOM      2  C1  UNL d   1       3.310   2.146   0.067  0.00  0.00    -0.074 A 
ATOM      3  C2  UNL d   1       3.387   3.225   0.954  0.00  0.00    -0.005 A 
ATOM      4  C3  UNL d   1       2.271   3.601   1.703  0.00  0.00     0.006 A 
ATOM      5  C4  UNL d   1       1.070   2.903   1.572  0.00  0.00    -0.005 A 
ATOM      6  C5  UNL d   1       0.974   1.822   0.689  0.00  0.00    -0.074 A 
ATOM      7  C6  UNL d   1      -0.312   1.068   0.529  0.00  0.00     0.077 C 
ATOM      8  C7  UNL d   1       2.098   1.455  -0.064  0.00  0.00    -0.001 A 
ENDROOT
TORSDOF 0
ENDMDL
