MODEL 1
REMARK minimizedAffinity 1.82922924
REMARK minimizedRMSD -1
REMARK  0 active torsions:
REMARK  status: ('A' for Active; 'I' for Inactive)
ROOT
ATOM      1  C   UNL d   1      -0.930  -2.673   0.306  0.00  0.00     0.077 C 
ATOM      2  C1  UNL d   1      -0.957  -1.340   0.992  0.00  0.00    -0.074 A 
ATOM      3  C2  UNL d   1      -1.503  -1.202   2.273  0.00  0.00    -0.005 A 
ATOM      4  C3  UNL d   1      -1.514   0.043   2.903  0.00  0.00     0.006 A 
ATOM      5  C4  UNL d   1      -0.979   1.160   2.260  0.00  0.00    -0.005 A 
ATOM      6  C5  UNL d   1      -0.428   1.041   0.980  0.00  0.00    -0.074 A 
ATOM      7  C6  UNL d   1       0.160   2.230   0.280  0.00  0.00     0.077 C 
ATOM      8  C7  UNL d   1      -0.415  -0.214   0.357  0.00  0.00    -0.001 A 
ENDROOT
TORSDOF 0
ENDMDL
