MODEL 1
REMARK minimizedAffinity -3.9547205
REMARK minimizedRMSD -1
REMARK  0 active torsions:
REMARK  status: ('A' for Active; 'I' for Inactive)
ROOT
ATOM      1  C   UNL d   1       1.128   2.222   0.851  0.00  0.00     0.077 C 
ATOM      2  C1  UNL d   1       0.534   0.963   0.292  0.00  0.00    -0.074 A 
ATOM      3  C2  UNL d   1       0.611   0.676  -1.074  0.00  0.00    -0.005 A 
ATOM      4  C3  UNL d   1       0.062  -0.503  -1.578  0.00  0.00     0.006 A 
ATOM      5  C4  UNL d   1      -0.569  -1.406  -0.721  0.00  0.00    -0.005 A 
ATOM      6  C5  UNL d   1      -0.655  -1.137   0.648  0.00  0.00    -0.074 A 
ATOM      7  C6  UNL d   1      -1.321  -2.102   1.584  0.00  0.00     0.077 C 
ATOM      8  C7  UNL d   1      -0.095   0.047   1.148  0.00  0.00    -0.001 A 
ENDROOT
TORSDOF 0
ENDMDL
