MODEL 1
REMARK minimizedAffinity 1.35482383
REMARK minimizedRMSD -1
REMARK  0 active torsions:
REMARK  status: ('A' for Active; 'I' for Inactive)
ROOT
ATOM      1  C   UNL d   1       1.516   3.162   1.716  0.00  0.00     0.077 C 
ATOM      2  C1  UNL d   1       1.111   2.167   0.669  0.00  0.00    -0.074 A 
ATOM      3  C2  UNL d   1      -0.142   1.546   0.714  0.00  0.00    -0.005 A 
ATOM      4  C3  UNL d   1      -0.508   0.630  -0.272  0.00  0.00     0.006 A 
ATOM      5  C4  UNL d   1       0.372   0.326  -1.311  0.00  0.00    -0.005 A 
ATOM      6  C5  UNL d   1       1.628   0.938  -1.373  0.00  0.00    -0.074 A 
ATOM      7  C6  UNL d   1       2.583   0.630  -2.488  0.00  0.00     0.077 C 
ATOM      8  C7  UNL d   1       1.987   1.862  -0.382  0.00  0.00    -0.001 A 
ENDROOT
TORSDOF 0
ENDMDL
