MODEL 1
REMARK minimizedAffinity -5.68861961
REMARK minimizedRMSD -1
REMARK  0 active torsions:
REMARK  status: ('A' for Active; 'I' for Inactive)
ROOT
ATOM      1  C   UNL d   1       1.243   0.104  -2.928  0.00  0.00     0.077 C 
ATOM      2  C1  UNL d   1       0.698  -0.023  -1.536  0.00  0.00    -0.074 A 
ATOM      3  C2  UNL d   1       0.314   1.108  -0.809  0.00  0.00    -0.005 A 
ATOM      4  C3  UNL d   1      -0.200   0.974   0.481  0.00  0.00     0.006 A 
ATOM      5  C4  UNL d   1      -0.334  -0.291   1.056  0.00  0.00    -0.005 A 
ATOM      6  C5  UNL d   1       0.045  -1.433   0.343  0.00  0.00    -0.074 A 
ATOM      7  C6  UNL d   1      -0.102  -2.800   0.943  0.00  0.00     0.077 C 
ATOM      8  C7  UNL d   1       0.553  -1.290  -0.955  0.00  0.00    -0.001 A 
ENDROOT
TORSDOF 0
ENDMDL
