MODEL 1
REMARK minimizedAffinity -5.5649004
REMARK minimizedRMSD -1
REMARK  0 active torsions:
REMARK  status: ('A' for Active; 'I' for Inactive)
ROOT
ATOM      1  C   UNL d   1      -1.402   0.432   1.909  0.00  0.00     0.077 C 
ATOM      2  C1  UNL d   1      -0.825  -0.577   0.961  0.00  0.00    -0.074 A 
ATOM      3  C2  UNL d   1      -0.993  -1.948   1.181  0.00  0.00    -0.005 A 
ATOM      4  C3  UNL d   1      -0.459  -2.874   0.286  0.00  0.00     0.006 A 
ATOM      5  C4  UNL d   1       0.247  -2.440  -0.837  0.00  0.00    -0.005 A 
ATOM      6  C5  UNL d   1       0.424  -1.073  -1.074  0.00  0.00    -0.074 A 
ATOM      7  C6  UNL d   1       1.171  -0.590  -2.282  0.00  0.00     0.077 C 
ATOM      8  C7  UNL d   1      -0.122  -0.148  -0.174  0.00  0.00    -0.001 A 
ENDROOT
TORSDOF 0
ENDMDL
