MODEL 1
REMARK minimizedAffinity -4.13024616
REMARK minimizedRMSD -1
REMARK  0 active torsions:
REMARK  status: ('A' for Active; 'I' for Inactive)
ROOT
ATOM      1  C   UNL d   1      -0.831  -3.081   0.271  0.00  0.00     0.077 C 
ATOM      2  C1  UNL d   1      -0.453  -1.654   0.002  0.00  0.00    -0.074 A 
ATOM      3  C2  UNL d   1      -0.794  -0.639   0.901  0.00  0.00    -0.005 A 
ATOM      4  C3  UNL d   1      -0.428   0.682   0.642  0.00  0.00     0.006 A 
ATOM      5  C4  UNL d   1       0.281   1.000  -0.516  0.00  0.00    -0.005 A 
ATOM      6  C5  UNL d   1       0.632  -0.002  -1.427  0.00  0.00    -0.074 A 
ATOM      7  C6  UNL d   1       1.402   0.321  -2.672  0.00  0.00     0.077 C 
ATOM      8  C7  UNL d   1       0.266  -1.328  -1.156  0.00  0.00    -0.001 A 
ENDROOT
TORSDOF 0
ENDMDL
