MODEL 1
REMARK minimizedAffinity -2.18760443
REMARK minimizedRMSD -1
REMARK  0 active torsions:
REMARK  status: ('A' for Active; 'I' for Inactive)
ROOT
ATOM      1  C   UNL d   1       3.768   1.193  -0.578  0.00  0.00     0.077 C 
ATOM      2  C1  UNL d   1       2.501   1.705   0.039  0.00  0.00    -0.074 A 
ATOM      3  C2  UNL d   1       2.404   3.025   0.493  0.00  0.00    -0.005 A 
ATOM      4  C3  UNL d   1       1.216   3.490   1.056  0.00  0.00     0.006 A 
ATOM      5  C4  UNL d   1       0.114   2.642   1.171  0.00  0.00    -0.005 A 
ATOM      6  C5  UNL d   1       0.191   1.320   0.722  0.00  0.00    -0.074 A 
ATOM      7  C6  UNL d   1      -0.988   0.398   0.828  0.00  0.00     0.077 C 
ATOM      8  C7  UNL d   1       1.386   0.862   0.151  0.00  0.00    -0.001 A 
ENDROOT
TORSDOF 0
ENDMDL
