MODEL 1
REMARK minimizedAffinity 4.25256729
REMARK minimizedRMSD -1
REMARK  0 active torsions:
REMARK  status: ('A' for Active; 'I' for Inactive)
ROOT
ATOM      1  C   UNL d   1      -0.823   0.685   0.674  0.00  0.00     0.077 C 
ATOM      2  C1  UNL d   1       0.339   1.633   0.630  0.00  0.00    -0.074 A 
ATOM      3  C2  UNL d   1       0.284   2.868   1.286  0.00  0.00    -0.005 A 
ATOM      4  C3  UNL d   1       1.375   3.735   1.244  0.00  0.00     0.006 A 
ATOM      5  C4  UNL d   1       2.531   3.378   0.549  0.00  0.00    -0.005 A 
ATOM      6  C5  UNL d   1       2.604   2.147  -0.112  0.00  0.00    -0.074 A 
ATOM      7  C6  UNL d   1       3.842   1.743  -0.856  0.00  0.00     0.077 C 
ATOM      8  C7  UNL d   1       1.506   1.278  -0.060  0.00  0.00    -0.001 A 
ENDROOT
TORSDOF 0
ENDMDL
