MODEL 1
REMARK minimizedAffinity -4.6397109
REMARK minimizedRMSD -1
REMARK  0 active torsions:
REMARK  status: ('A' for Active; 'I' for Inactive)
ROOT
ATOM      1  C   UNL d   1      -0.507  -0.606   1.154  0.00  0.00     0.077 C 
ATOM      2  C1  UNL d   1       0.298   0.068   0.083  0.00  0.00    -0.074 A 
ATOM      3  C2  UNL d   1       0.249  -0.379  -1.242  0.00  0.00    -0.005 A 
ATOM      4  C3  UNL d   1       0.996   0.264  -2.229  0.00  0.00     0.006 A 
ATOM      5  C4  UNL d   1       1.798   1.358  -1.903  0.00  0.00    -0.005 A 
ATOM      6  C5  UNL d   1       1.859   1.820  -0.584  0.00  0.00    -0.074 A 
ATOM      7  C6  UNL d   1       2.708   3.000  -0.218  0.00  0.00     0.077 C 
ATOM      8  C7  UNL d   1       1.100   1.173   0.401  0.00  0.00    -0.001 A 
ENDROOT
TORSDOF 0
ENDMDL
