MODEL 1
REMARK minimizedAffinity -5.60335732
REMARK minimizedRMSD -1
REMARK  0 active torsions:
REMARK  status: ('A' for Active; 'I' for Inactive)
ROOT
ATOM      1  C   UNL d   1      -0.090  -3.342   0.573  0.00  0.00     0.077 C 
ATOM      2  C1  UNL d   1       0.121  -1.908   0.188  0.00  0.00    -0.074 A 
ATOM      3  C2  UNL d   1      -0.336  -0.870   1.006  0.00  0.00    -0.005 A 
ATOM      4  C3  UNL d   1      -0.123   0.460   0.640  0.00  0.00     0.006 A 
ATOM      5  C4  UNL d   1       0.547   0.763  -0.545  0.00  0.00    -0.005 A 
ATOM      6  C5  UNL d   1       1.012  -0.262  -1.375  0.00  0.00    -0.074 A 
ATOM      7  C6  UNL d   1       1.743   0.048  -2.648  0.00  0.00     0.077 C 
ATOM      8  C7  UNL d   1       0.801  -1.595  -0.997  0.00  0.00    -0.001 A 
ENDROOT
TORSDOF 0
ENDMDL
