MODEL 1
REMARK minimizedAffinity -6.02450752
REMARK minimizedRMSD -1
REMARK  2 active torsions:
REMARK  status: ('A' for Active; 'I' for Inactive)
REMARK    1  A    between atoms: C1_2  and  C2_3 
REMARK    2  A    between atoms: C2_3  and  C3_4 
ROOT
ATOM      1  C3  UNL d   1       0.142  -0.947  -0.699  0.00  0.00    -0.075 A 
ATOM      2  C4  UNL d   1       0.399   0.005  -1.696  0.00  0.00     0.002 A 
ATOM      3  C5  UNL d   1       0.863  -0.390  -2.951  0.00  0.00     0.002 A 
ATOM      4  C6  UNL d   1       1.086  -1.739  -3.221  0.00  0.00    -0.004 A 
ATOM      5  C7  UNL d   1       0.850  -2.692  -2.233  0.00  0.00     0.002 A 
ATOM      6  C8  UNL d   1       0.381  -2.299  -0.978  0.00  0.00     0.002 A 
ENDROOT
BRANCH   1   7
ATOM      7  C2  UNL d   1      -0.389  -0.528   0.651  0.00  0.00     0.056 C 
BRANCH   7   8
ATOM      8  C1  UNL d   1       0.599  -0.742   1.803  0.00  0.00     0.007 C 
ATOM      9  C   UNL d   1      -0.082  -1.091   3.120  0.00  0.00     0.009 C 
ENDBRANCH   7   8
ENDBRANCH   1   7
TORSDOF 2
ENDMDL
