MODEL 1
REMARK minimizedAffinity -2.48785973
REMARK minimizedRMSD -1
REMARK  2 active torsions:
REMARK  status: ('A' for Active; 'I' for Inactive)
REMARK    1  A    between atoms: C1_2  and  C2_3 
REMARK    2  A    between atoms: C2_3  and  C3_4 
ROOT
ATOM      1  C3  UNL d   1       0.386   0.312  -0.487  0.00  0.00    -0.075 A 
ATOM      2  C4  UNL d   1      -0.207  -0.713   0.264  0.00  0.00     0.002 A 
ATOM      3  C5  UNL d   1       0.025  -0.811   1.637  0.00  0.00     0.002 A 
ATOM      4  C6  UNL d   1       0.859   0.107   2.272  0.00  0.00    -0.004 A 
ATOM      5  C7  UNL d   1       1.466   1.119   1.533  0.00  0.00     0.002 A 
ATOM      6  C8  UNL d   1       1.233   1.222   0.160  0.00  0.00     0.002 A 
ENDROOT
BRANCH   1   7
ATOM      7  C2  UNL d   1       0.115   0.440  -1.967  0.00  0.00     0.056 C 
BRANCH   7   8
ATOM      8  C1  UNL d   1       1.179  -0.215  -2.855  0.00  0.00     0.007 C 
ATOM      9  C   UNL d   1       0.601  -1.221  -3.841  0.00  0.00     0.009 C 
ENDBRANCH   7   8
ENDBRANCH   1   7
TORSDOF 2
ENDMDL
