MODEL 1
REMARK minimizedAffinity -2.74524832
REMARK minimizedRMSD -1
REMARK  2 active torsions:
REMARK  status: ('A' for Active; 'I' for Inactive)
REMARK    1  A    between atoms: C1_2  and  C2_3 
REMARK    2  A    between atoms: C2_3  and  C3_4 
ROOT
ATOM      1  C3  UNL d   1      -0.481  -0.212   0.797  0.00  0.00    -0.075 A 
ATOM      2  C4  UNL d   1       0.152  -0.055   2.039  0.00  0.00     0.002 A 
ATOM      3  C5  UNL d   1      -0.589   0.274   3.175  0.00  0.00     0.002 A 
ATOM      4  C6  UNL d   1      -1.966   0.460   3.082  0.00  0.00    -0.004 A 
ATOM      5  C7  UNL d   1      -2.603   0.323   1.851  0.00  0.00     0.002 A 
ATOM      6  C8  UNL d   1      -1.865  -0.010   0.713  0.00  0.00     0.002 A 
ENDROOT
BRANCH   1   7
ATOM      7  C2  UNL d   1       0.310  -0.596  -0.430  0.00  0.00     0.056 C 
BRANCH   7   8
ATOM      8  C1  UNL d   1      -0.025   0.234  -1.674  0.00  0.00     0.007 C 
ATOM      9  C   UNL d   1       0.553  -0.347  -2.957  0.00  0.00     0.009 C 
ENDBRANCH   7   8
ENDBRANCH   1   7
TORSDOF 2
ENDMDL
