MODEL 1
REMARK minimizedAffinity -3.25071931
REMARK minimizedRMSD -1
REMARK  2 active torsions:
REMARK  status: ('A' for Active; 'I' for Inactive)
REMARK    1  A    between atoms: C1_2  and  C2_3 
REMARK    2  A    between atoms: C2_3  and  C3_4 
ROOT
ATOM      1  C3  UNL d   1       0.140   0.165  -0.431  0.00  0.00    -0.075 A 
ATOM      2  C4  UNL d   1       1.394   0.045   0.186  0.00  0.00     0.002 A 
ATOM      3  C5  UNL d   1       1.497  -0.021   1.576  0.00  0.00     0.002 A 
ATOM      4  C6  UNL d   1       0.351   0.042   2.366  0.00  0.00    -0.004 A 
ATOM      5  C7  UNL d   1      -0.899   0.179   1.765  0.00  0.00     0.002 A 
ATOM      6  C8  UNL d   1      -1.005   0.240   0.374  0.00  0.00     0.002 A 
ENDROOT
BRANCH   1   7
ATOM      7  C2  UNL d   1       0.019   0.207  -1.935  0.00  0.00     0.056 C 
BRANCH   7   8
ATOM      8  C1  UNL d   1       1.303  -0.185  -2.675  0.00  0.00     0.007 C 
ATOM      9  C   UNL d   1       1.058  -1.131  -3.843  0.00  0.00     0.009 C 
ENDBRANCH   7   8
ENDBRANCH   1   7
TORSDOF 2
ENDMDL
