MODEL 1
REMARK minimizedAffinity -3.14727926
REMARK minimizedRMSD -1
REMARK  2 active torsions:
REMARK  status: ('A' for Active; 'I' for Inactive)
REMARK    1  A    between atoms: C1_2  and  C2_3 
REMARK    2  A    between atoms: C2_3  and  C3_4 
ROOT
ATOM      1  C3  UNL d   1       0.089  -0.263  -1.338  0.00  0.00    -0.075 A 
ATOM      2  C4  UNL d   1      -0.679  -1.184  -2.066  0.00  0.00     0.002 A 
ATOM      3  C5  UNL d   1      -0.277  -1.595  -3.337  0.00  0.00     0.002 A 
ATOM      4  C6  UNL d   1       0.890  -1.083  -3.900  0.00  0.00    -0.004 A 
ATOM      5  C7  UNL d   1       1.652  -0.155  -3.193  0.00  0.00     0.002 A 
ATOM      6  C8  UNL d   1       1.254   0.254  -1.919  0.00  0.00     0.002 A 
ENDROOT
BRANCH   1   7
ATOM      7  C2  UNL d   1      -0.326   0.162   0.050  0.00  0.00     0.056 C 
BRANCH   7   8
ATOM      8  C1  UNL d   1       0.738  -0.089   1.123  0.00  0.00     0.007 C 
ATOM      9  C   UNL d   1       0.206   0.056   2.543  0.00  0.00     0.009 C 
ENDBRANCH   7   8
ENDBRANCH   1   7
TORSDOF 2
ENDMDL
