MODEL 1
REMARK minimizedAffinity -3.92039251
REMARK minimizedRMSD -1
REMARK  2 active torsions:
REMARK  status: ('A' for Active; 'I' for Inactive)
REMARK    1  A    between atoms: C1_2  and  C2_3 
REMARK    2  A    between atoms: C2_3  and  C3_4 
ROOT
ATOM      1  C3  UNL d   1      -0.354  -0.565   0.768  0.00  0.00    -0.075 A 
ATOM      2  C4  UNL d   1      -1.585  -0.111   0.274  0.00  0.00     0.002 A 
ATOM      3  C5  UNL d   1      -1.644   0.631  -0.907  0.00  0.00     0.002 A 
ATOM      4  C6  UNL d   1      -0.475   0.936  -1.600  0.00  0.00    -0.004 A 
ATOM      5  C7  UNL d   1       0.755   0.504  -1.109  0.00  0.00     0.002 A 
ATOM      6  C8  UNL d   1       0.817  -0.242   0.069  0.00  0.00     0.002 A 
ENDROOT
BRANCH   1   7
ATOM      7  C2  UNL d   1      -0.286  -1.393   2.029  0.00  0.00     0.056 C 
BRANCH   7   8
ATOM      8  C1  UNL d   1      -0.677  -0.630   3.299  0.00  0.00     0.007 C 
ATOM      9  C   UNL d   1       0.032   0.711   3.435  0.00  0.00     0.009 C 
ENDBRANCH   7   8
ENDBRANCH   1   7
TORSDOF 2
ENDMDL
