MODEL 1
REMARK minimizedAffinity -5.92025089
REMARK minimizedRMSD -1
REMARK  2 active torsions:
REMARK  status: ('A' for Active; 'I' for Inactive)
REMARK    1  A    between atoms: C1_2  and  C2_3 
REMARK    2  A    between atoms: C2_3  and  C3_4 
ROOT
ATOM      1  C3  UNL d   1       0.384  -0.732   0.856  0.00  0.00    -0.075 A 
ATOM      2  C4  UNL d   1       0.427   0.405   1.676  0.00  0.00     0.002 A 
ATOM      3  C5  UNL d   1      -0.254   0.427   2.893  0.00  0.00     0.002 A 
ATOM      4  C6  UNL d   1      -0.995  -0.681   3.301  0.00  0.00    -0.004 A 
ATOM      5  C7  UNL d   1      -1.058  -1.809   2.487  0.00  0.00     0.002 A 
ATOM      6  C8  UNL d   1      -0.374  -1.836   1.270  0.00  0.00     0.002 A 
ENDROOT
BRANCH   1   7
ATOM      7  C2  UNL d   1       1.144  -0.773  -0.448  0.00  0.00     0.056 C 
BRANCH   7   8
ATOM      8  C1  UNL d   1       0.389  -0.154  -1.629  0.00  0.00     0.007 C 
ATOM      9  C   UNL d   1       0.948  -0.570  -2.983  0.00  0.00     0.009 C 
ENDBRANCH   7   8
ENDBRANCH   1   7
TORSDOF 2
ENDMDL
