MODEL 1
REMARK minimizedAffinity -4.4111371
REMARK minimizedRMSD -1
REMARK  2 active torsions:
REMARK  status: ('A' for Active; 'I' for Inactive)
REMARK    1  A    between atoms: C1_2  and  C2_3 
REMARK    2  A    between atoms: C2_3  and  C3_4 
ROOT
ATOM      1  C3  UNL d   1       0.602  -0.683  -1.080  0.00  0.00    -0.075 A 
ATOM      2  C4  UNL d   1       0.262   0.626  -1.454  0.00  0.00     0.002 A 
ATOM      3  C5  UNL d   1       0.204   0.984  -2.801  0.00  0.00     0.002 A 
ATOM      4  C6  UNL d   1       0.494   0.045  -3.789  0.00  0.00    -0.004 A 
ATOM      5  C7  UNL d   1       0.849  -1.253  -3.428  0.00  0.00     0.002 A 
ATOM      6  C8  UNL d   1       0.904  -1.616  -2.081  0.00  0.00     0.002 A 
ENDROOT
BRANCH   1   7
ATOM      7  C2  UNL d   1       0.638  -1.085   0.375  0.00  0.00     0.056 C 
BRANCH   7   8
ATOM      8  C1  UNL d   1      -0.039  -0.083   1.316  0.00  0.00     0.007 C 
ATOM      9  C   UNL d   1      -0.113  -0.569   2.757  0.00  0.00     0.009 C 
ENDBRANCH   7   8
ENDBRANCH   1   7
TORSDOF 2
ENDMDL
