MODEL 1
REMARK minimizedAffinity -0.719253123
REMARK minimizedRMSD -1
REMARK  2 active torsions:
REMARK  status: ('A' for Active; 'I' for Inactive)
REMARK    1  A    between atoms: C1_2  and  C2_3 
REMARK    2  A    between atoms: C2_3  and  C3_4 
ROOT
ATOM      1  C3  UNL d   1      -0.027  -0.011   0.884  0.00  0.00    -0.075 A 
ATOM      2  C4  UNL d   1       0.903  -0.069  -0.164  0.00  0.00     0.002 A 
ATOM      3  C5  UNL d   1       0.529   0.275  -1.463  0.00  0.00     0.002 A 
ATOM      4  C6  UNL d   1      -0.779   0.671  -1.733  0.00  0.00    -0.004 A 
ATOM      5  C7  UNL d   1      -1.716   0.717  -0.702  0.00  0.00     0.002 A 
ATOM      6  C8  UNL d   1      -1.343   0.376   0.599  0.00  0.00     0.002 A 
ENDROOT
BRANCH   1   7
ATOM      7  C2  UNL d   1       0.379  -0.355   2.297  0.00  0.00     0.056 C 
BRANCH   7   8
ATOM      8  C1  UNL d   1      -0.373   0.437   3.372  0.00  0.00     0.007 C 
ATOM      9  C   UNL d   1      -1.350  -0.414   4.172  0.00  0.00     0.009 C 
ENDBRANCH   7   8
ENDBRANCH   1   7
TORSDOF 2
ENDMDL
