MODEL 1
REMARK minimizedAffinity -4.3295207
REMARK minimizedRMSD -1
REMARK  2 active torsions:
REMARK  status: ('A' for Active; 'I' for Inactive)
REMARK    1  A    between atoms: C1_2  and  C2_3 
REMARK    2  A    between atoms: C2_3  and  C3_4 
ROOT
ATOM      1  C3  UNL d   1      -0.027  -0.046   0.104  0.00  0.00    -0.075 A 
ATOM      2  C4  UNL d   1       0.954   0.243   1.064  0.00  0.00     0.002 A 
ATOM      3  C5  UNL d   1       0.640   0.231   2.423  0.00  0.00     0.002 A 
ATOM      4  C6  UNL d   1      -0.657  -0.060   2.839  0.00  0.00    -0.004 A 
ATOM      5  C7  UNL d   1      -1.643  -0.332   1.894  0.00  0.00     0.002 A 
ATOM      6  C8  UNL d   1      -1.331  -0.325   0.533  0.00  0.00     0.002 A 
ENDROOT
BRANCH   1   7
ATOM      7  C2  UNL d   1       0.313  -0.064  -1.367  0.00  0.00     0.056 C 
BRANCH   7   8
ATOM      8  C1  UNL d   1       0.322  -1.465  -1.988  0.00  0.00     0.007 C 
ATOM      9  C   UNL d   1       1.122  -1.543  -3.282  0.00  0.00     0.009 C 
ENDBRANCH   7   8
ENDBRANCH   1   7
TORSDOF 2
ENDMDL
