MODEL 1
REMARK minimizedAffinity -4.46813488
REMARK minimizedRMSD -1
REMARK  2 active torsions:
REMARK  status: ('A' for Active; 'I' for Inactive)
REMARK    1  A    between atoms: C1_2  and  C2_3 
REMARK    2  A    between atoms: C2_3  and  C3_4 
ROOT
ATOM      1  C3  UNL d   1       0.102  -0.144  -0.221  0.00  0.00    -0.075 A 
ATOM      2  C4  UNL d   1       1.132   0.790  -0.406  0.00  0.00     0.002 A 
ATOM      3  C5  UNL d   1       2.388   0.379  -0.854  0.00  0.00     0.002 A 
ATOM      4  C6  UNL d   1       2.633  -0.968  -1.113  0.00  0.00    -0.004 A 
ATOM      5  C7  UNL d   1       1.622  -1.906  -0.917  0.00  0.00     0.002 A 
ATOM      6  C8  UNL d   1       0.363  -1.498  -0.473  0.00  0.00     0.002 A 
ENDROOT
BRANCH   1   7
ATOM      7  C2  UNL d   1      -1.268   0.297   0.235  0.00  0.00     0.056 C 
BRANCH   7   8
ATOM      8  C1  UNL d   1      -1.312   0.799   1.682  0.00  0.00     0.007 C 
ATOM      9  C   UNL d   1      -2.652   0.554   2.362  0.00  0.00     0.009 C 
ENDBRANCH   7   8
ENDBRANCH   1   7
TORSDOF 2
ENDMDL
