MODEL 1
REMARK minimizedAffinity -5.60337162
REMARK minimizedRMSD -1
REMARK  2 active torsions:
REMARK  status: ('A' for Active; 'I' for Inactive)
REMARK    1  A    between atoms: C1_2  and  C2_3 
REMARK    2  A    between atoms: C2_3  and  C3_4 
ROOT
ATOM      1  C3  UNL d   1      -2.990  -0.260   3.100  0.00  0.00    -0.075 A 
ATOM      2  C4  UNL d   1      -2.594   0.820   3.904  0.00  0.00     0.002 A 
ATOM      3  C5  UNL d   1      -1.844   1.865   3.365  0.00  0.00     0.002 A 
ATOM      4  C6  UNL d   1      -1.472   1.841   2.023  0.00  0.00    -0.004 A 
ATOM      5  C7  UNL d   1      -1.846   0.766   1.220  0.00  0.00     0.002 A 
ATOM      6  C8  UNL d   1      -2.600  -0.280   1.755  0.00  0.00     0.002 A 
ENDROOT
BRANCH   1   7
ATOM      7  C2  UNL d   1      -3.828  -1.380   3.670  0.00  0.00     0.056 C 
BRANCH   7   8
ATOM      8  C1  UNL d   1      -4.541  -2.226   2.610  0.00  0.00     0.007 C 
ATOM      9  C   UNL d   1      -5.992  -2.530   2.961  0.00  0.00     0.009 C 
ENDBRANCH   7   8
ENDBRANCH   1   7
TORSDOF 2
ENDMDL
