MODEL 1
REMARK minimizedAffinity -3.52779818
REMARK minimizedRMSD -1
REMARK  2 active torsions:
REMARK  status: ('A' for Active; 'I' for Inactive)
REMARK    1  A    between atoms: C1_2  and  C2_3 
REMARK    2  A    between atoms: C2_3  and  C3_4 
ROOT
ATOM      1  C3  UNL d   1      -3.090  -0.539   3.080  0.00  0.00    -0.075 A 
ATOM      2  C4  UNL d   1      -3.147  -0.629   4.478  0.00  0.00     0.002 A 
ATOM      3  C5  UNL d   1      -3.994  -1.549   5.096  0.00  0.00     0.002 A 
ATOM      4  C6  UNL d   1      -4.802  -2.383   4.325  0.00  0.00    -0.004 A 
ATOM      5  C7  UNL d   1      -4.766  -2.291   2.935  0.00  0.00     0.002 A 
ATOM      6  C8  UNL d   1      -3.916  -1.374   2.315  0.00  0.00     0.002 A 
ENDROOT
BRANCH   1   7
ATOM      7  C2  UNL d   1      -2.154   0.434   2.405  0.00  0.00     0.056 C 
BRANCH   7   8
ATOM      8  C1  UNL d   1      -1.720   0.009   0.998  0.00  0.00     0.007 C 
ATOM      9  C   UNL d   1      -0.412   0.650   0.554  0.00  0.00     0.009 C 
ENDBRANCH   7   8
ENDBRANCH   1   7
TORSDOF 2
ENDMDL
