MODEL 1
REMARK minimizedAffinity -4.15946436
REMARK minimizedRMSD -1
REMARK  2 active torsions:
REMARK  status: ('A' for Active; 'I' for Inactive)
REMARK    1  A    between atoms: C1_2  and  C2_3 
REMARK    2  A    between atoms: C2_3  and  C3_4 
ROOT
ATOM      1  C3  UNL d   1      -1.636   0.391   1.358  0.00  0.00    -0.075 A 
ATOM      2  C4  UNL d   1      -1.284   1.524   2.107  0.00  0.00     0.002 A 
ATOM      3  C5  UNL d   1      -1.582   1.594   3.468  0.00  0.00     0.002 A 
ATOM      4  C6  UNL d   1      -2.244   0.540   4.094  0.00  0.00    -0.004 A 
ATOM      5  C7  UNL d   1      -2.613  -0.582   3.357  0.00  0.00     0.002 A 
ATOM      6  C8  UNL d   1      -2.312  -0.657   1.996  0.00  0.00     0.002 A 
ENDROOT
BRANCH   1   7
ATOM      7  C2  UNL d   1      -1.290   0.296  -0.109  0.00  0.00     0.056 C 
BRANCH   7   8
ATOM      8  C1  UNL d   1       0.192   0.540  -0.417  0.00  0.00     0.007 C 
ATOM      9  C   UNL d   1       1.049  -0.711  -0.269  0.00  0.00     0.009 C 
ENDBRANCH   7   8
ENDBRANCH   1   7
TORSDOF 2
ENDMDL
