MODEL 1
REMARK minimizedAffinity 8.04405975
REMARK minimizedRMSD -1
REMARK  2 active torsions:
REMARK  status: ('A' for Active; 'I' for Inactive)
REMARK    1  A    between atoms: C1_2  and  C2_3 
REMARK    2  A    between atoms: C2_3  and  C3_4 
ROOT
ATOM      1  C3  UNL d   1       0.781  -1.712  -1.534  0.00  0.00    -0.075 A 
ATOM      2  C4  UNL d   1       0.871  -0.335  -1.782  0.00  0.00     0.002 A 
ATOM      3  C5  UNL d   1       1.944   0.406  -1.284  0.00  0.00     0.002 A 
ATOM      4  C6  UNL d   1       2.932  -0.218  -0.525  0.00  0.00    -0.004 A 
ATOM      5  C7  UNL d   1       2.843  -1.582  -0.258  0.00  0.00     0.002 A 
ATOM      6  C8  UNL d   1       1.773  -2.326  -0.759  0.00  0.00     0.002 A 
ENDROOT
BRANCH   1   7
ATOM      7  C2  UNL d   1      -0.362  -2.524  -2.095  0.00  0.00     0.056 C 
BRANCH   7   8
ATOM      8  C1  UNL d   1      -1.455  -2.852  -1.073  0.00  0.00     0.007 C 
ATOM      9  C   UNL d   1      -2.651  -1.912  -1.150  0.00  0.00     0.009 C 
ENDBRANCH   7   8
ENDBRANCH   1   7
TORSDOF 2
ENDMDL
