MODEL 1
REMARK minimizedAffinity -3.1407609
REMARK minimizedRMSD -1
REMARK  2 active torsions:
REMARK  status: ('A' for Active; 'I' for Inactive)
REMARK    1  A    between atoms: C1_2  and  C2_3 
REMARK    2  A    between atoms: C2_3  and  C3_4 
ROOT
ATOM      1  C3  UNL d   1       5.283   0.591   5.753  0.00  0.00    -0.075 A 
ATOM      2  C4  UNL d   1       5.999   1.772   6.000  0.00  0.00     0.002 A 
ATOM      3  C5  UNL d   1       5.404   3.017   5.797  0.00  0.00     0.002 A 
ATOM      4  C6  UNL d   1       4.092   3.099   5.336  0.00  0.00    -0.004 A 
ATOM      5  C7  UNL d   1       3.376   1.933   5.073  0.00  0.00     0.002 A 
ATOM      6  C8  UNL d   1       3.967   0.685   5.279  0.00  0.00     0.002 A 
ENDROOT
BRANCH   1   7
ATOM      7  C2  UNL d   1       5.911  -0.759   5.999  0.00  0.00     0.056 C 
BRANCH   7   8
ATOM      8  C1  UNL d   1       5.389  -1.867   5.078  0.00  0.00     0.007 C 
ATOM      9  C   UNL d   1       5.980  -1.809   3.675  0.00  0.00     0.009 C 
ENDBRANCH   7   8
ENDBRANCH   1   7
TORSDOF 2
ENDMDL
