MODEL 1
REMARK minimizedAffinity -2.78353667
REMARK minimizedRMSD -1
REMARK  2 active torsions:
REMARK  status: ('A' for Active; 'I' for Inactive)
REMARK    1  A    between atoms: C1_2  and  C2_3 
REMARK    2  A    between atoms: C2_3  and  C3_4 
ROOT
ATOM      1  C3  UNL d   1      -0.171   0.018  -0.049  0.00  0.00    -0.075 A 
ATOM      2  C4  UNL d   1       0.414  -1.254  -0.137  0.00  0.00     0.002 A 
ATOM      3  C5  UNL d   1       1.050  -1.662  -1.310  0.00  0.00     0.002 A 
ATOM      4  C6  UNL d   1       1.101  -0.810  -2.411  0.00  0.00    -0.004 A 
ATOM      5  C7  UNL d   1       0.509   0.450  -2.340  0.00  0.00     0.002 A 
ATOM      6  C8  UNL d   1      -0.124   0.862  -1.167  0.00  0.00     0.002 A 
ENDROOT
BRANCH   1   7
ATOM      7  C2  UNL d   1      -0.835   0.476   1.227  0.00  0.00     0.056 C 
BRANCH   7   8
ATOM      8  C1  UNL d   1      -1.768  -0.565   1.853  0.00  0.00     0.007 C 
ATOM      9  C   UNL d   1      -1.972  -0.366   3.349  0.00  0.00     0.009 C 
ENDBRANCH   7   8
ENDBRANCH   1   7
TORSDOF 2
ENDMDL
