MODEL 1
REMARK minimizedAffinity 2.85310602
REMARK minimizedRMSD -1
REMARK  2 active torsions:
REMARK  status: ('A' for Active; 'I' for Inactive)
REMARK    1  A    between atoms: C1_2  and  C2_3 
REMARK    2  A    between atoms: C2_3  and  C3_4 
ROOT
ATOM      1  C3  UNL d   1       1.904  -0.322  -2.035  0.00  0.00    -0.075 A 
ATOM      2  C4  UNL d   1       1.037   0.501  -1.302  0.00  0.00     0.002 A 
ATOM      3  C5  UNL d   1       0.624   1.731  -1.816  0.00  0.00     0.002 A 
ATOM      4  C6  UNL d   1       1.080   2.157  -3.061  0.00  0.00    -0.004 A 
ATOM      5  C7  UNL d   1       1.955   1.355  -3.791  0.00  0.00     0.002 A 
ATOM      6  C8  UNL d   1       2.366   0.122  -3.281  0.00  0.00     0.002 A 
ENDROOT
BRANCH   1   7
ATOM      7  C2  UNL d   1       2.331  -1.667  -1.497  0.00  0.00     0.056 C 
BRANCH   7   8
ATOM      8  C1  UNL d   1       2.542  -1.694   0.020  0.00  0.00     0.007 C 
ATOM      9  C   UNL d   1       2.164  -3.025   0.655  0.00  0.00     0.009 C 
ENDBRANCH   7   8
ENDBRANCH   1   7
TORSDOF 2
ENDMDL
