MODEL 1
REMARK minimizedAffinity -4.32397795
REMARK minimizedRMSD -1
REMARK  2 active torsions:
REMARK  status: ('A' for Active; 'I' for Inactive)
REMARK    1  A    between atoms: C1_2  and  C2_3 
REMARK    2  A    between atoms: C2_3  and  C3_4 
ROOT
ATOM      1  C3  UNL d   1       0.717  -0.380  -0.417  0.00  0.00    -0.075 A 
ATOM      2  C4  UNL d   1       1.631   0.477   0.212  0.00  0.00     0.002 A 
ATOM      3  C5  UNL d   1       2.925   0.624  -0.290  0.00  0.00     0.002 A 
ATOM      4  C6  UNL d   1       3.322  -0.089  -1.419  0.00  0.00    -0.004 A 
ATOM      5  C7  UNL d   1       2.427  -0.955  -2.043  0.00  0.00     0.002 A 
ATOM      6  C8  UNL d   1       1.131  -1.102  -1.545  0.00  0.00     0.002 A 
ENDROOT
BRANCH   1   7
ATOM      7  C2  UNL d   1      -0.694  -0.522   0.104  0.00  0.00     0.056 C 
BRANCH   7   8
ATOM      8  C1  UNL d   1      -1.456   0.803   0.210  0.00  0.00     0.007 C 
ATOM      9  C   UNL d   1      -1.487   1.584  -1.097  0.00  0.00     0.009 C 
ENDBRANCH   7   8
ENDBRANCH   1   7
TORSDOF 2
ENDMDL
