MODEL 1
REMARK minimizedAffinity -2.77643251
REMARK minimizedRMSD -1
REMARK  2 active torsions:
REMARK  status: ('A' for Active; 'I' for Inactive)
REMARK    1  A    between atoms: C1_2  and  C2_3 
REMARK    2  A    between atoms: C2_3  and  C3_4 
ROOT
ATOM      1  C3  UNL d   1       1.059   0.151  -1.249  0.00  0.00    -0.075 A 
ATOM      2  C4  UNL d   1       1.900  -0.825  -1.802  0.00  0.00     0.002 A 
ATOM      3  C5  UNL d   1       2.538  -0.602  -3.023  0.00  0.00     0.002 A 
ATOM      4  C6  UNL d   1       2.336   0.594  -3.709  0.00  0.00    -0.004 A 
ATOM      5  C7  UNL d   1       1.490   1.564  -3.177  0.00  0.00     0.002 A 
ATOM      6  C8  UNL d   1       0.854   1.345  -1.954  0.00  0.00     0.002 A 
ENDROOT
BRANCH   1   7
ATOM      7  C2  UNL d   1       0.388  -0.073   0.085  0.00  0.00     0.056 C 
BRANCH   7   8
ATOM      8  C1  UNL d   1      -1.139  -0.174   0.007  0.00  0.00     0.007 C 
ATOM      9  C   UNL d   1      -1.812  -0.164   1.373  0.00  0.00     0.009 C 
ENDBRANCH   7   8
ENDBRANCH   1   7
TORSDOF 2
ENDMDL
