MODEL 1
REMARK minimizedAffinity -5.10586214
REMARK minimizedRMSD -1
REMARK  2 active torsions:
REMARK  status: ('A' for Active; 'I' for Inactive)
REMARK    1  A    between atoms: C1_2  and  C2_3 
REMARK    2  A    between atoms: C2_3  and  C3_4 
ROOT
ATOM      1  C3  UNL d   1      -0.267   0.244  -0.413  0.00  0.00    -0.075 A 
ATOM      2  C4  UNL d   1       0.389  -0.990  -0.290  0.00  0.00     0.002 A 
ATOM      3  C5  UNL d   1       1.642  -1.186  -0.871  0.00  0.00     0.002 A 
ATOM      4  C6  UNL d   1       2.250  -0.158  -1.589  0.00  0.00    -0.004 A 
ATOM      5  C7  UNL d   1       1.600   1.066  -1.731  0.00  0.00     0.002 A 
ATOM      6  C8  UNL d   1       0.348   1.267  -1.148  0.00  0.00     0.002 A 
ENDROOT
BRANCH   1   7
ATOM      7  C2  UNL d   1      -1.610   0.472   0.238  0.00  0.00     0.056 C 
BRANCH   7   8
ATOM      8  C1  UNL d   1      -1.532   1.164   1.603  0.00  0.00     0.007 C 
ATOM      9  C   UNL d   1      -2.395   0.495   2.665  0.00  0.00     0.009 C 
ENDBRANCH   7   8
ENDBRANCH   1   7
TORSDOF 2
ENDMDL
