MODEL 1
REMARK minimizedAffinity -2.40583038
REMARK minimizedRMSD -1
REMARK  2 active torsions:
REMARK  status: ('A' for Active; 'I' for Inactive)
REMARK    1  A    between atoms: C1_2  and  C2_3 
REMARK    2  A    between atoms: C2_3  and  C3_4 
ROOT
ATOM      1  C3  UNL d   1      -0.123  -0.531  -0.278  0.00  0.00    -0.075 A 
ATOM      2  C4  UNL d   1       0.365  -1.835  -0.447  0.00  0.00     0.002 A 
ATOM      3  C5  UNL d   1       1.659  -2.050  -0.923  0.00  0.00     0.002 A 
ATOM      4  C6  UNL d   1       2.475  -0.969  -1.246  0.00  0.00    -0.004 A 
ATOM      5  C7  UNL d   1       1.994   0.331  -1.098  0.00  0.00     0.002 A 
ATOM      6  C8  UNL d   1       0.702   0.550  -0.618  0.00  0.00     0.002 A 
ENDROOT
BRANCH   1   7
ATOM      7  C2  UNL d   1      -1.512  -0.290   0.264  0.00  0.00     0.056 C 
BRANCH   7   8
ATOM      8  C1  UNL d   1      -1.607   0.895   1.230  0.00  0.00     0.007 C 
ATOM      9  C   UNL d   1      -2.167   0.515   2.594  0.00  0.00     0.009 C 
ENDBRANCH   7   8
ENDBRANCH   1   7
TORSDOF 2
ENDMDL
