MODEL 1
REMARK minimizedAffinity -3.66730285
REMARK minimizedRMSD -1
REMARK  2 active torsions:
REMARK  status: ('A' for Active; 'I' for Inactive)
REMARK    1  A    between atoms: C1_2  and  C2_3 
REMARK    2  A    between atoms: C2_3  and  C3_4 
ROOT
ATOM      1  C3  UNL d   1      -0.296   0.250  -0.333  0.00  0.00    -0.075 A 
ATOM      2  C4  UNL d   1       0.813   1.005  -0.743  0.00  0.00     0.002 A 
ATOM      3  C5  UNL d   1       1.982   0.373  -1.169  0.00  0.00     0.002 A 
ATOM      4  C6  UNL d   1       2.060  -1.018  -1.181  0.00  0.00    -0.004 A 
ATOM      5  C7  UNL d   1       0.971  -1.778  -0.760  0.00  0.00     0.002 A 
ATOM      6  C8  UNL d   1      -0.202  -1.148  -0.338  0.00  0.00     0.002 A 
ENDROOT
BRANCH   1   7
ATOM      7  C2  UNL d   1      -1.574   0.928   0.101  0.00  0.00     0.056 C 
BRANCH   7   8
ATOM      8  C1  UNL d   1      -1.738   1.034   1.620  0.00  0.00     0.007 C 
ATOM      9  C   UNL d   1      -2.779   0.074   2.181  0.00  0.00     0.009 C 
ENDBRANCH   7   8
ENDBRANCH   1   7
TORSDOF 2
ENDMDL
