MODEL 1
REMARK minimizedAffinity -1.9637897
REMARK minimizedRMSD -1
REMARK  2 active torsions:
REMARK  status: ('A' for Active; 'I' for Inactive)
REMARK    1  A    between atoms: C1_2  and  C2_3 
REMARK    2  A    between atoms: C2_3  and  C3_4 
ROOT
ATOM      1  C3  UNL d   1      -1.197  -0.067   0.534  0.00  0.00    -0.075 A 
ATOM      2  C4  UNL d   1      -0.818   1.069  -0.196  0.00  0.00     0.002 A 
ATOM      3  C5  UNL d   1       0.294   1.031  -1.038  0.00  0.00     0.002 A 
ATOM      4  C6  UNL d   1       1.046  -0.136  -1.152  0.00  0.00    -0.004 A 
ATOM      5  C7  UNL d   1       0.689  -1.265  -0.419  0.00  0.00     0.002 A 
ATOM      6  C8  UNL d   1      -0.426  -1.232   0.420  0.00  0.00     0.002 A 
ENDROOT
BRANCH   1   7
ATOM      7  C2  UNL d   1      -2.417  -0.042   1.424  0.00  0.00     0.056 C 
BRANCH   7   8
ATOM      8  C1  UNL d   1      -2.165   0.561   2.809  0.00  0.00     0.007 C 
ATOM      9  C   UNL d   1      -1.939  -0.488   3.889  0.00  0.00     0.009 C 
ENDBRANCH   7   8
ENDBRANCH   1   7
TORSDOF 2
ENDMDL
