MODEL 1
REMARK minimizedAffinity -0.465792239
REMARK minimizedRMSD -1
REMARK  2 active torsions:
REMARK  status: ('A' for Active; 'I' for Inactive)
REMARK    1  A    between atoms: C1_2  and  C2_3 
REMARK    2  A    between atoms: C2_3  and  C3_4 
ROOT
ATOM      1  C3  UNL d   1       2.041  -0.071  -1.924  0.00  0.00    -0.075 A 
ATOM      2  C4  UNL d   1       2.936  -0.662  -1.021  0.00  0.00     0.002 A 
ATOM      3  C5  UNL d   1       2.603  -1.849  -0.368  0.00  0.00     0.002 A 
ATOM      4  C6  UNL d   1       1.370  -2.454  -0.601  0.00  0.00    -0.004 A 
ATOM      5  C7  UNL d   1       0.466  -1.867  -1.484  0.00  0.00     0.002 A 
ATOM      6  C8  UNL d   1       0.799  -0.682  -2.142  0.00  0.00     0.002 A 
ENDROOT
BRANCH   1   7
ATOM      7  C2  UNL d   1       2.408   1.197  -2.657  0.00  0.00     0.056 C 
BRANCH   7   8
ATOM      8  C1  UNL d   1       1.477   2.379  -2.361  0.00  0.00     0.007 C 
ATOM      9  C   UNL d   1       2.196   3.721  -2.352  0.00  0.00     0.009 C 
ENDBRANCH   7   8
ENDBRANCH   1   7
TORSDOF 2
ENDMDL
