MODEL 1
REMARK minimizedAffinity 11.6561852
REMARK minimizedRMSD -1
REMARK  1 active torsions:
REMARK  status: ('A' for Active; 'I' for Inactive)
REMARK    1  A    between atoms: C1_2  and  C2_3 
ROOT
ATOM      1  C2  UNL d   1       1.891   0.886  -0.803  0.00  0.00    -0.081 A 
ATOM      2  C3  UNL d   1       2.028   0.462   0.525  0.00  0.00     0.006 A 
ATOM      3  C4  UNL d   1       1.102   0.856   1.493  0.00  0.00     0.002 A 
ATOM      4  C5  UNL d   1       0.021   1.674   1.150  0.00  0.00    -0.080 A 
ATOM      5  C6  UNL d   1      -0.997   2.081   2.174  0.00  0.00     0.076 C 
ATOM      6  C7  UNL d   1      -0.107   2.112  -0.173  0.00  0.00     0.002 A 
ATOM      7  C8  UNL d   1       0.819   1.718  -1.142  0.00  0.00     0.006 A 
ENDROOT
BRANCH   1   8
ATOM      8  C1  UNL d   1       2.851   0.409  -1.863  0.00  0.00     0.054 C 
ATOM      9  C   UNL d   1       2.218   0.458  -3.246  0.00  0.00     0.018 C 
ENDBRANCH   1   8
TORSDOF 1
ENDMDL
