MODEL 1
REMARK minimizedAffinity 14.8563576
REMARK minimizedRMSD -1
REMARK  1 active torsions:
REMARK  status: ('A' for Active; 'I' for Inactive)
REMARK    1  A    between atoms: C1_2  and  C2_3 
ROOT
ATOM      1  C2  UNL d   1       0.856   2.200   1.503  0.00  0.00    -0.081 A 
ATOM      2  C3  UNL d   1       1.071   2.481   2.858  0.00  0.00     0.006 A 
ATOM      3  C4  UNL d   1       2.364   2.699   3.339  0.00  0.00     0.002 A 
ATOM      4  C5  UNL d   1       3.462   2.647   2.473  0.00  0.00    -0.080 A 
ATOM      5  C6  UNL d   1       4.852   2.909   2.971  0.00  0.00     0.076 C 
ATOM      6  C7  UNL d   1       3.248   2.349   1.123  0.00  0.00     0.002 A 
ATOM      7  C8  UNL d   1       1.956   2.131   0.641  0.00  0.00     0.006 A 
ENDROOT
BRANCH   1   8
ATOM      8  C1  UNL d   1      -0.543   2.029   0.969  0.00  0.00     0.054 C 
ATOM      9  C   UNL d   1      -1.583   2.467   1.990  0.00  0.00     0.018 C 
ENDBRANCH   1   8
TORSDOF 1
ENDMDL
