MODEL 1
REMARK minimizedAffinity 10.4527121
REMARK minimizedRMSD -1
REMARK  1 active torsions:
REMARK  status: ('A' for Active; 'I' for Inactive)
REMARK    1  A    between atoms: C1_2  and  C2_3 
ROOT
ATOM      1  C2  UNL d   1       2.013   1.151   0.950  0.00  0.00    -0.081 A 
ATOM      2  C3  UNL d   1       2.768   1.816  -0.024  0.00  0.00     0.006 A 
ATOM      3  C4  UNL d   1       2.791   1.352  -1.341  0.00  0.00     0.002 A 
ATOM      4  C5  UNL d   1       2.056   0.220  -1.708  0.00  0.00    -0.080 A 
ATOM      5  C6  UNL d   1       2.048  -0.271  -3.125  0.00  0.00     0.076 C 
ATOM      6  C7  UNL d   1       1.316  -0.455  -0.732  0.00  0.00     0.002 A 
ATOM      7  C8  UNL d   1       1.292   0.008   0.585  0.00  0.00     0.006 A 
ENDROOT
BRANCH   1   8
ATOM      8  C1  UNL d   1       1.934   1.686   2.356  0.00  0.00     0.054 C 
ATOM      9  C   UNL d   1       3.239   2.352   2.769  0.00  0.00     0.018 C 
ENDBRANCH   1   8
TORSDOF 1
ENDMDL
