MODEL 1
REMARK minimizedAffinity 7.47902775
REMARK minimizedRMSD -1
REMARK  1 active torsions:
REMARK  status: ('A' for Active; 'I' for Inactive)
REMARK    1  A    between atoms: C1_2  and  C2_3 
ROOT
ATOM      1  C2  UNL d   1       0.454  -2.496  -0.889  0.00  0.00    -0.081 A 
ATOM      2  C3  UNL d   1       0.039  -2.120   0.394  0.00  0.00     0.006 A 
ATOM      3  C4  UNL d   1       0.535  -0.956   0.986  0.00  0.00     0.002 A 
ATOM      4  C5  UNL d   1       1.447  -0.145   0.302  0.00  0.00    -0.080 A 
ATOM      5  C6  UNL d   1       1.964   1.123   0.914  0.00  0.00     0.076 C 
ATOM      6  C7  UNL d   1       1.875  -0.530  -0.973  0.00  0.00     0.002 A 
ATOM      7  C8  UNL d   1       1.380  -1.694  -1.565  0.00  0.00     0.006 A 
ENDROOT
BRANCH   1   8
ATOM      8  C1  UNL d   1      -0.128  -3.716  -1.556  0.00  0.00     0.054 C 
ATOM      9  C   UNL d   1      -1.633  -3.798  -1.343  0.00  0.00     0.018 C 
ENDBRANCH   1   8
TORSDOF 1
ENDMDL
