MODEL 1
REMARK minimizedAffinity 1.83460653
REMARK minimizedRMSD -1
REMARK  1 active torsions:
REMARK  status: ('A' for Active; 'I' for Inactive)
REMARK    1  A    between atoms: C1_2  and  C2_3 
ROOT
ATOM      1  C2  UNL d   1       2.232   1.531   1.228  0.00  0.00    -0.081 A 
ATOM      2  C3  UNL d   1       1.585   2.063   2.350  0.00  0.00     0.006 A 
ATOM      3  C4  UNL d   1       2.163   3.110   3.071  0.00  0.00     0.002 A 
ATOM      4  C5  UNL d   1       3.393   3.648   2.678  0.00  0.00    -0.080 A 
ATOM      5  C6  UNL d   1       4.011   4.793   3.425  0.00  0.00     0.076 C 
ATOM      6  C7  UNL d   1       4.049   3.105   1.567  0.00  0.00     0.002 A 
ATOM      7  C8  UNL d   1       3.471   2.057   0.847  0.00  0.00     0.006 A 
ENDROOT
BRANCH   1   8
ATOM      8  C1  UNL d   1       1.581   0.445   0.411  0.00  0.00     0.054 C 
ATOM      9  C   UNL d   1       2.276   0.269  -0.931  0.00  0.00     0.018 C 
ENDBRANCH   1   8
TORSDOF 1
ENDMDL
