MODEL 1
REMARK minimizedAffinity 11.0093012
REMARK minimizedRMSD -1
REMARK  1 active torsions:
REMARK  status: ('A' for Active; 'I' for Inactive)
REMARK    1  A    between atoms: C1_2  and  C2_3 
ROOT
ATOM      1  C2  UNL d   1       0.705   1.520  -2.985  0.00  0.00    -0.081 A 
ATOM      2  C3  UNL d   1       0.529   0.196  -2.563  0.00  0.00     0.006 A 
ATOM      3  C4  UNL d   1       1.634  -0.628  -2.337  0.00  0.00     0.002 A 
ATOM      4  C5  UNL d   1       2.933  -0.140  -2.521  0.00  0.00    -0.080 A 
ATOM      5  C6  UNL d   1       4.128  -1.006  -2.253  0.00  0.00     0.076 C 
ATOM      6  C7  UNL d   1       3.108   1.177  -2.959  0.00  0.00     0.002 A 
ATOM      7  C8  UNL d   1       2.004   2.001  -3.186  0.00  0.00     0.006 A 
ENDROOT
BRANCH   1   8
ATOM      8  C1  UNL d   1      -0.482   2.431  -3.167  0.00  0.00     0.054 C 
ATOM      9  C   UNL d   1      -0.618   3.401  -2.002  0.00  0.00     0.018 C 
ENDBRANCH   1   8
TORSDOF 1
ENDMDL
