MODEL 1
REMARK minimizedAffinity 5.66112185
REMARK minimizedRMSD -1
REMARK  1 active torsions:
REMARK  status: ('A' for Active; 'I' for Inactive)
REMARK    1  A    between atoms: C1_2  and  C2_3 
ROOT
ATOM      1  C2  UNL d   1       2.866   0.521  -1.333  0.00  0.00    -0.081 A 
ATOM      2  C3  UNL d   1       2.183  -0.216  -0.358  0.00  0.00     0.006 A 
ATOM      3  C4  UNL d   1       2.185   0.200   0.976  0.00  0.00     0.002 A 
ATOM      4  C5  UNL d   1       2.863   1.364   1.354  0.00  0.00    -0.080 A 
ATOM      5  C6  UNL d   1       2.848   1.839   2.777  0.00  0.00     0.076 C 
ATOM      6  C7  UNL d   1       3.559   2.091   0.383  0.00  0.00     0.002 A 
ATOM      7  C8  UNL d   1       3.558   1.675  -0.950  0.00  0.00     0.006 A 
ENDROOT
BRANCH   1   8
ATOM      8  C1  UNL d   1       2.812   0.110  -2.782  0.00  0.00     0.054 C 
ATOM      9  C   UNL d   1       1.627   0.748  -3.494  0.00  0.00     0.018 C 
ENDBRANCH   1   8
TORSDOF 1
ENDMDL
