MODEL 1
REMARK minimizedAffinity 7.41482925
REMARK minimizedRMSD -1
REMARK  1 active torsions:
REMARK  status: ('A' for Active; 'I' for Inactive)
REMARK    1  A    between atoms: C1_2  and  C2_3 
ROOT
ATOM      1  C2  UNL d   1      -3.992   1.089   1.168  0.00  0.00    -0.081 A 
ATOM      2  C3  UNL d   1      -3.303   2.292   1.364  0.00  0.00     0.006 A 
ATOM      3  C4  UNL d   1      -3.946   3.517   1.165  0.00  0.00     0.002 A 
ATOM      4  C5  UNL d   1      -5.289   3.558   0.775  0.00  0.00    -0.080 A 
ATOM      5  C6  UNL d   1      -5.999   4.866   0.588  0.00  0.00     0.076 C 
ATOM      6  C7  UNL d   1      -5.972   2.356   0.562  0.00  0.00     0.002 A 
ATOM      7  C8  UNL d   1      -5.330   1.132   0.760  0.00  0.00     0.006 A 
ENDROOT
BRANCH   1   8
ATOM      8  C1  UNL d   1      -3.321  -0.232   1.444  0.00  0.00     0.054 C 
ATOM      9  C   UNL d   1      -2.999  -0.391   2.923  0.00  0.00     0.018 C 
ENDBRANCH   1   8
TORSDOF 1
ENDMDL
