MODEL 1
REMARK minimizedAffinity 12.1174345
REMARK minimizedRMSD -1
REMARK  1 active torsions:
REMARK  status: ('A' for Active; 'I' for Inactive)
REMARK    1  A    between atoms: C1_2  and  C2_3 
ROOT
ATOM      1  C2  UNL d   1       1.953   0.658  -0.931  0.00  0.00    -0.081 A 
ATOM      2  C3  UNL d   1       1.858   0.247   0.404  0.00  0.00     0.006 A 
ATOM      3  C4  UNL d   1       0.828   0.723   1.220  0.00  0.00     0.002 A 
ATOM      4  C5  UNL d   1      -0.127   1.610   0.712  0.00  0.00    -0.080 A 
ATOM      5  C6  UNL d   1      -1.254   2.105   1.569  0.00  0.00     0.076 C 
ATOM      6  C7  UNL d   1      -0.022   2.034  -0.617  0.00  0.00     0.002 A 
ATOM      7  C8  UNL d   1       1.007   1.559  -1.432  0.00  0.00     0.006 A 
ENDROOT
BRANCH   1   8
ATOM      8  C1  UNL d   1       3.024   0.096  -1.831  0.00  0.00     0.054 C 
ATOM      9  C   UNL d   1       2.457  -0.292  -3.189  0.00  0.00     0.018 C 
ENDBRANCH   1   8
TORSDOF 1
ENDMDL
