MODEL 1
REMARK minimizedAffinity 9.35561848
REMARK minimizedRMSD -1
REMARK  1 active torsions:
REMARK  status: ('A' for Active; 'I' for Inactive)
REMARK    1  A    between atoms: C1_2  and  C2_3 
ROOT
ATOM      1  C2  UNL d   1       1.811  -0.378   0.232  0.00  0.00    -0.081 A 
ATOM      2  C3  UNL d   1       0.603  -0.928   0.678  0.00  0.00     0.006 A 
ATOM      3  C4  UNL d   1      -0.310  -0.149   1.392  0.00  0.00     0.002 A 
ATOM      4  C5  UNL d   1      -0.034   1.195   1.666  0.00  0.00    -0.080 A 
ATOM      5  C6  UNL d   1      -1.018   2.052   2.405  0.00  0.00     0.076 C 
ATOM      6  C7  UNL d   1       1.181   1.740   1.237  0.00  0.00     0.002 A 
ATOM      7  C8  UNL d   1       2.094   0.961   0.523  0.00  0.00     0.006 A 
ENDROOT
BRANCH   1   8
ATOM      8  C1  UNL d   1       2.768  -1.199  -0.594  0.00  0.00     0.054 C 
ATOM      9  C   UNL d   1       2.994  -0.573  -1.963  0.00  0.00     0.018 C 
ENDBRANCH   1   8
TORSDOF 1
ENDMDL
