MODEL 1
REMARK minimizedAffinity 7.23772573
REMARK minimizedRMSD -1
REMARK  1 active torsions:
REMARK  status: ('A' for Active; 'I' for Inactive)
REMARK    1  A    between atoms: C1_2  and  C2_3 
ROOT
ATOM      1  C2  UNL d   1       2.297   0.648  -1.561  0.00  0.00    -0.081 A 
ATOM      2  C3  UNL d   1       1.401   0.297  -0.544  0.00  0.00     0.006 A 
ATOM      3  C4  UNL d   1       1.555   0.815   0.745  0.00  0.00     0.002 A 
ATOM      4  C5  UNL d   1       2.601   1.697   1.035  0.00  0.00    -0.080 A 
ATOM      5  C6  UNL d   1       2.759   2.284   2.406  0.00  0.00     0.076 C 
ATOM      6  C7  UNL d   1       3.506   2.033   0.023  0.00  0.00     0.002 A 
ATOM      7  C8  UNL d   1       3.354   1.516  -1.265  0.00  0.00     0.006 A 
ENDROOT
BRANCH   1   8
ATOM      8  C1  UNL d   1       2.096   0.142  -2.967  0.00  0.00     0.054 C 
ATOM      9  C   UNL d   1       1.213   1.083  -3.773  0.00  0.00     0.018 C 
ENDBRANCH   1   8
TORSDOF 1
ENDMDL
