MODEL 1
REMARK minimizedAffinity 7.06573343
REMARK minimizedRMSD -1
REMARK  1 active torsions:
REMARK  status: ('A' for Active; 'I' for Inactive)
REMARK    1  A    between atoms: C1_2  and  C2_3 
ROOT
ATOM      1  C2  UNL d   1       1.103   1.431   1.149  0.00  0.00    -0.081 A 
ATOM      2  C3  UNL d   1       1.250   1.577   2.534  0.00  0.00     0.006 A 
ATOM      3  C4  UNL d   1       0.196   2.063   3.310  0.00  0.00     0.002 A 
ATOM      4  C5  UNL d   1      -1.024   2.405   2.717  0.00  0.00    -0.080 A 
ATOM      5  C6  UNL d   1      -2.174   2.900   3.543  0.00  0.00     0.076 C 
ATOM      6  C7  UNL d   1      -1.165   2.276   1.331  0.00  0.00     0.002 A 
ATOM      7  C8  UNL d   1      -0.111   1.790   0.554  0.00  0.00     0.006 A 
ENDROOT
BRANCH   1   8
ATOM      8  C1  UNL d   1       2.216   0.846   0.317  0.00  0.00     0.054 C 
ATOM      9  C   UNL d   1       2.068  -0.662   0.178  0.00  0.00     0.018 C 
ENDBRANCH   1   8
TORSDOF 1
ENDMDL
