MODEL 1
REMARK minimizedAffinity 11.8189459
REMARK minimizedRMSD -1
REMARK  1 active torsions:
REMARK  status: ('A' for Active; 'I' for Inactive)
REMARK    1  A    between atoms: C1_2  and  C2_3 
ROOT
ATOM      1  C2  UNL d   1       2.700   0.435  -1.323  0.00  0.00    -0.081 A 
ATOM      2  C3  UNL d   1       1.728   0.052  -0.390  0.00  0.00     0.006 A 
ATOM      3  C4  UNL d   1       1.756   0.561   0.910  0.00  0.00     0.002 A 
ATOM      4  C5  UNL d   1       2.750   1.466   1.297  0.00  0.00    -0.080 A 
ATOM      5  C6  UNL d   1       2.774   2.043   2.681  0.00  0.00     0.076 C 
ATOM      6  C7  UNL d   1       3.731   1.836   0.370  0.00  0.00     0.002 A 
ATOM      7  C8  UNL d   1       3.704   1.327  -0.930  0.00  0.00     0.006 A 
ENDROOT
BRANCH   1   8
ATOM      8  C1  UNL d   1       2.635  -0.061  -2.745  0.00  0.00     0.054 C 
ATOM      9  C   UNL d   1       1.633   0.739  -3.565  0.00  0.00     0.018 C 
ENDBRANCH   1   8
TORSDOF 1
ENDMDL
