MODEL 1
REMARK minimizedAffinity -3.72174215
REMARK minimizedRMSD -1
REMARK  1 active torsions:
REMARK  status: ('A' for Active; 'I' for Inactive)
REMARK    1  A    between atoms: C1_2  and  C2_3 
ROOT
ATOM      1  C2  UNL d   1      -0.159  -0.251  -0.317  0.00  0.00    -0.073 A 
ATOM      2  C3  UNL d   1      -1.476  -0.558  -0.677  0.00  0.00    -0.002 A 
ATOM      3  C4  UNL d   1      -2.539  -0.175   0.142  0.00  0.00     0.004 A 
ATOM      4  C5  UNL d   1      -2.298   0.524   1.324  0.00  0.00    -0.004 A 
ATOM      5  C6  UNL d   1      -0.990   0.852   1.695  0.00  0.00    -0.075 A 
ATOM      6  C7  UNL d   1      -0.713   1.602   2.965  0.00  0.00     0.076 C 
ATOM      7  C8  UNL d   1       0.073   0.461   0.869  0.00  0.00     0.001 A 
ENDROOT
BRANCH   1   8
ATOM      8  C1  UNL d   1       0.991  -0.657  -1.201  0.00  0.00     0.053 C 
ATOM      9  C   UNL d   1       0.633  -0.575  -2.677  0.00  0.00     0.018 C 
ENDBRANCH   1   8
TORSDOF 1
ENDMDL
