MODEL 1
REMARK minimizedAffinity -5.32826376
REMARK minimizedRMSD -1
REMARK  1 active torsions:
REMARK  status: ('A' for Active; 'I' for Inactive)
REMARK    1  A    between atoms: C1_2  and  C2_3 
ROOT
ATOM      1  C2  UNL d   1       0.337  -0.771   0.574  0.00  0.00    -0.073 A 
ATOM      2  C3  UNL d   1       0.115  -0.015   1.730  0.00  0.00    -0.002 A 
ATOM      3  C4  UNL d   1      -1.178   0.375   2.080  0.00  0.00     0.004 A 
ATOM      4  C5  UNL d   1      -2.262   0.008   1.283  0.00  0.00    -0.004 A 
ATOM      5  C6  UNL d   1      -2.062  -0.757   0.130  0.00  0.00    -0.075 A 
ATOM      6  C7  UNL d   1      -3.217  -1.159  -0.740  0.00  0.00     0.076 C 
ATOM      7  C8  UNL d   1      -0.760  -1.143  -0.217  0.00  0.00     0.001 A 
ENDROOT
BRANCH   1   8
ATOM      8  C1  UNL d   1       1.731  -1.199   0.195  0.00  0.00     0.053 C 
ATOM      9  C   UNL d   1       2.585  -1.503   1.415  0.00  0.00     0.018 C 
ENDBRANCH   1   8
TORSDOF 1
ENDMDL
