MODEL 1
REMARK minimizedAffinity 21.7565441
REMARK minimizedRMSD -1
REMARK  2 active torsions:
REMARK  status: ('A' for Active; 'I' for Inactive)
REMARK    1  A    between atoms: C2'_3  and  C1'_4 
REMARK    2  A    between atoms: C1'_4  and  C1_5 
ROOT
ATOM      1  C1  I4B d   1      -0.632  -0.221  -0.990  0.00  0.00    -0.075 A 
ATOM      2  C2  I4B d   1       0.319   0.768  -1.051  0.00  0.00     0.003 A 
ATOM      3  C3  I4B d   1       1.616   0.480  -1.540  0.00  0.00     0.002 A 
ATOM      4  C4  I4B d   1       1.933  -0.812  -1.908  0.00  0.00    -0.004 A 
ATOM      5  C5  I4B d   1       0.961  -1.808  -1.867  0.00  0.00     0.002 A 
ATOM      6  C6  I4B d   1      -0.333  -1.508  -1.417  0.00  0.00     0.003 A 
ENDROOT
BRANCH   1   7
ATOM      7  C1' I4B d   1      -1.982   0.111  -0.438  0.00  0.00     0.060 C 
BRANCH   7   8
ATOM      8  C2' I4B d   1      -2.302  -0.896   0.648  0.00  0.00    -0.013 C 
ATOM      9  C4' I4B d   1      -2.394  -0.233   1.997  0.00  0.00     0.013 C 
ATOM     10  C3' I4B d   1      -3.591  -1.572   0.288  0.00  0.00     0.013 C 
ENDBRANCH   7   8
ENDBRANCH   1   7
TORSDOF 2
ENDMDL
