MODEL 1
REMARK minimizedAffinity 12.916111
REMARK minimizedRMSD -1
REMARK  2 active torsions:
REMARK  status: ('A' for Active; 'I' for Inactive)
REMARK    1  A    between atoms: C2'_3  and  C1'_4 
REMARK    2  A    between atoms: C1'_4  and  C1_5 
ROOT
ATOM      1  C1  I4B d   1       1.024   4.772  -0.484  0.00  0.00    -0.075 A 
ATOM      2  C2  I4B d   1       0.246   3.812  -1.081  0.00  0.00     0.003 A 
ATOM      3  C3  I4B d   1      -1.164   3.941  -1.090  0.00  0.00     0.002 A 
ATOM      4  C4  I4B d   1      -1.752   5.013  -0.452  0.00  0.00    -0.004 A 
ATOM      5  C5  I4B d   1      -0.962   5.998   0.133  0.00  0.00     0.002 A 
ATOM      6  C6  I4B d   1       0.436   5.884   0.106  0.00  0.00     0.003 A 
ENDROOT
BRANCH   1   7
ATOM      7  C1' I4B d   1       2.508   4.588  -0.463  0.00  0.00     0.060 C 
BRANCH   7   8
ATOM      8  C2' I4B d   1       3.031   4.852  -1.861  0.00  0.00    -0.013 C 
ATOM      9  C4' I4B d   1       2.298   5.996  -2.510  0.00  0.00     0.013 C 
ATOM     10  C3' I4B d   1       4.500   5.137  -1.759  0.00  0.00     0.013 C 
ENDBRANCH   7   8
ENDBRANCH   1   7
TORSDOF 2
ENDMDL
