MODEL 1
REMARK minimizedAffinity 21.8849545
REMARK minimizedRMSD -1
REMARK  2 active torsions:
REMARK  status: ('A' for Active; 'I' for Inactive)
REMARK    1  A    between atoms: C2'_3  and  C1'_4 
REMARK    2  A    between atoms: C1'_4  and  C1_5 
ROOT
ATOM      1  C1  I4B d   1      -0.722  -0.567  -1.059  0.00  0.00    -0.075 A 
ATOM      2  C2  I4B d   1       0.323   0.322  -1.009  0.00  0.00     0.003 A 
ATOM      3  C3  I4B d   1       1.614  -0.071  -1.435  0.00  0.00     0.002 A 
ATOM      4  C4  I4B d   1       1.826  -1.369  -1.854  0.00  0.00    -0.004 A 
ATOM      5  C5  I4B d   1       0.761  -2.262  -1.927  0.00  0.00     0.002 A 
ATOM      6  C6  I4B d   1      -0.524  -1.856  -1.539  0.00  0.00     0.003 A 
ENDROOT
BRANCH   1   7
ATOM      7  C1' I4B d   1      -2.066  -0.129  -0.570  0.00  0.00     0.060 C 
BRANCH   7   8
ATOM      8  C2' I4B d   1      -2.671  -1.271   0.220  0.00  0.00    -0.013 C 
ATOM      9  C4' I4B d   1      -2.663  -0.977   1.697  0.00  0.00     0.013 C 
ATOM     10  C3' I4B d   1      -4.067  -1.492  -0.281  0.00  0.00     0.013 C 
ENDBRANCH   7   8
ENDBRANCH   1   7
TORSDOF 2
ENDMDL
