MODEL 1
REMARK minimizedAffinity 18.8688221
REMARK minimizedRMSD -1
REMARK  2 active torsions:
REMARK  status: ('A' for Active; 'I' for Inactive)
REMARK    1  A    between atoms: C2'_3  and  C1'_4 
REMARK    2  A    between atoms: C1'_4  and  C1_5 
ROOT
ATOM      1  C1  I4B d   1      -1.615  -1.068   0.943  0.00  0.00    -0.075 A 
ATOM      2  C2  I4B d   1      -2.879  -0.642   0.620  0.00  0.00     0.003 A 
ATOM      3  C3  I4B d   1      -3.584   0.224   1.491  0.00  0.00     0.002 A 
ATOM      4  C4  I4B d   1      -3.011   0.596   2.690  0.00  0.00    -0.004 A 
ATOM      5  C5  I4B d   1      -1.720   0.183   3.005  0.00  0.00     0.002 A 
ATOM      6  C6  I4B d   1      -1.012  -0.645   2.121  0.00  0.00     0.003 A 
ENDROOT
BRANCH   1   7
ATOM      7  C1' I4B d   1      -0.912  -2.009   0.017  0.00  0.00     0.060 C 
BRANCH   7   8
ATOM      8  C2' I4B d   1      -0.387  -1.204  -1.155  0.00  0.00    -0.013 C 
ATOM      9  C4' I4B d   1       1.037  -0.773  -0.926  0.00  0.00     0.013 C 
ATOM     10  C3' I4B d   1      -0.505  -2.051  -2.387  0.00  0.00     0.013 C 
ENDBRANCH   7   8
ENDBRANCH   1   7
TORSDOF 2
ENDMDL
