MODEL 1
REMARK minimizedAffinity 9.30420208
REMARK minimizedRMSD -1
REMARK  2 active torsions:
REMARK  status: ('A' for Active; 'I' for Inactive)
REMARK    1  A    between atoms: C2'_3  and  C1'_4 
REMARK    2  A    between atoms: C1'_4  and  C1_5 
ROOT
ATOM      1  C1  I4B d   1       4.272   4.931   1.439  0.00  0.00    -0.075 A 
ATOM      2  C2  I4B d   1       3.668   4.377   2.540  0.00  0.00     0.003 A 
ATOM      3  C3  I4B d   1       4.171   4.639   3.837  0.00  0.00     0.002 A 
ATOM      4  C4  I4B d   1       5.302   5.416   3.983  0.00  0.00    -0.004 A 
ATOM      5  C5  I4B d   1       5.900   5.997   2.867  0.00  0.00     0.002 A 
ATOM      6  C6  I4B d   1       5.374   5.763   1.588  0.00  0.00     0.003 A 
ENDROOT
BRANCH   1   7
ATOM      7  C1' I4B d   1       3.734   4.606   0.081  0.00  0.00     0.060 C 
BRANCH   7   8
ATOM      8  C2' I4B d   1       3.149   5.875  -0.505  0.00  0.00    -0.013 C 
ATOM      9  C4' I4B d   1       3.306   5.906  -2.002  0.00  0.00     0.013 C 
ATOM     10  C3' I4B d   1       1.703   5.942  -0.111  0.00  0.00     0.013 C 
ENDBRANCH   7   8
ENDBRANCH   1   7
TORSDOF 2
ENDMDL
