MODEL 1
REMARK minimizedAffinity 15.1555338
REMARK minimizedRMSD -1
REMARK  2 active torsions:
REMARK  status: ('A' for Active; 'I' for Inactive)
REMARK    1  A    between atoms: C2'_3  and  C1'_4 
REMARK    2  A    between atoms: C1'_4  and  C1_5 
ROOT
ATOM      1  C1  I4B d   1      -4.455   0.122   3.083  0.00  0.00    -0.075 A 
ATOM      2  C2  I4B d   1      -5.593  -0.574   3.405  0.00  0.00     0.003 A 
ATOM      3  C3  I4B d   1      -6.000  -0.688   4.757  0.00  0.00     0.002 A 
ATOM      4  C4  I4B d   1      -5.217  -0.137   5.751  0.00  0.00    -0.004 A 
ATOM      5  C5  I4B d   1      -4.076   0.588   5.420  0.00  0.00     0.002 A 
ATOM      6  C6  I4B d   1      -3.699   0.729   4.077  0.00  0.00     0.003 A 
ENDROOT
BRANCH   1   7
ATOM      7  C1' I4B d   1      -4.037   0.194   1.648  0.00  0.00     0.060 C 
BRANCH   7   8
ATOM      8  C2' I4B d   1      -3.518  -1.171   1.244  0.00  0.00    -0.013 C 
ATOM      9  C4' I4B d   1      -3.094  -1.188  -0.201  0.00  0.00     0.013 C 
ATOM     10  C3' I4B d   1      -2.373  -1.518   2.148  0.00  0.00     0.013 C 
ENDBRANCH   7   8
ENDBRANCH   1   7
TORSDOF 2
ENDMDL
