MODEL 1
REMARK minimizedAffinity 22.5860157
REMARK minimizedRMSD -1
REMARK  2 active torsions:
REMARK  status: ('A' for Active; 'I' for Inactive)
REMARK    1  A    between atoms: C2'_3  and  C1'_4 
REMARK    2  A    between atoms: C1'_4  and  C1_5 
ROOT
ATOM      1  C1  I4B d   1      -4.440   0.094   3.360  0.00  0.00    -0.075 A 
ATOM      2  C2  I4B d   1      -5.561  -0.683   3.515  0.00  0.00     0.003 A 
ATOM      3  C3  I4B d   1      -5.999  -1.050   4.810  0.00  0.00     0.002 A 
ATOM      4  C4  I4B d   1      -5.263  -0.665   5.912  0.00  0.00    -0.004 A 
ATOM      5  C5  I4B d   1      -4.140   0.141   5.754  0.00  0.00     0.002 A 
ATOM      6  C6  I4B d   1      -3.732   0.534   4.471  0.00  0.00     0.003 A 
ENDROOT
BRANCH   1   7
ATOM      7  C1' I4B d   1      -3.986   0.436   1.976  0.00  0.00     0.060 C 
BRANCH   7   8
ATOM      8  C2' I4B d   1      -3.706  -0.860   1.243  0.00  0.00    -0.013 C 
ATOM      9  C4' I4B d   1      -4.378  -0.879  -0.105  0.00  0.00     0.013 C 
ATOM     10  C3' I4B d   1      -2.220  -1.004   1.109  0.00  0.00     0.013 C 
ENDBRANCH   7   8
ENDBRANCH   1   7
TORSDOF 2
ENDMDL
