MODEL 1
REMARK minimizedAffinity 11.7238569
REMARK minimizedRMSD -1
REMARK  2 active torsions:
REMARK  status: ('A' for Active; 'I' for Inactive)
REMARK    1  A    between atoms: C2'_3  and  C1'_4 
REMARK    2  A    between atoms: C1'_4  and  C1_5 
ROOT
ATOM      1  C1  I4B d   1       1.581  -0.115  -2.264  0.00  0.00    -0.075 A 
ATOM      2  C2  I4B d   1       0.627   0.537  -3.006  0.00  0.00     0.003 A 
ATOM      3  C3  I4B d   1       0.640   1.949  -3.101  0.00  0.00     0.002 A 
ATOM      4  C4  I4B d   1       1.587   2.669  -2.402  0.00  0.00    -0.004 A 
ATOM      5  C5  I4B d   1       2.567   2.006  -1.668  0.00  0.00     0.002 A 
ATOM      6  C6  I4B d   1       2.571   0.605  -1.608  0.00  0.00     0.003 A 
ENDROOT
BRANCH   1   7
ATOM      7  C1' I4B d   1       1.518  -1.605  -2.158  0.00  0.00     0.060 C 
BRANCH   7   8
ATOM      8  C2' I4B d   1       0.353  -2.084  -3.001  0.00  0.00    -0.013 C 
ATOM      9  C4' I4B d   1       0.817  -3.005  -4.099  0.00  0.00     0.013 C 
ATOM     10  C3' I4B d   1      -0.623  -2.772  -2.093  0.00  0.00     0.013 C 
ENDBRANCH   7   8
ENDBRANCH   1   7
TORSDOF 2
ENDMDL
