MODEL 1
REMARK minimizedAffinity 2.66140366
REMARK minimizedRMSD -1
REMARK  2 active torsions:
REMARK  status: ('A' for Active; 'I' for Inactive)
REMARK    1  A    between atoms: C2'_3  and  C1'_4 
REMARK    2  A    between atoms: C1'_4  and  C1_5 
ROOT
ATOM      1  C1  I4B d   1       5.182  -3.049   5.229  0.00  0.00    -0.075 A 
ATOM      2  C2  I4B d   1       5.582  -1.736   5.202  0.00  0.00     0.003 A 
ATOM      3  C3  I4B d   1       4.849  -0.782   4.457  0.00  0.00     0.002 A 
ATOM      4  C4  I4B d   1       3.758  -1.190   3.717  0.00  0.00    -0.004 A 
ATOM      5  C5  I4B d   1       3.339  -2.517   3.764  0.00  0.00     0.002 A 
ATOM      6  C6  I4B d   1       4.048  -3.450   4.534  0.00  0.00     0.003 A 
ENDROOT
BRANCH   1   7
ATOM      7  C1' I4B d   1       5.999  -4.037   6.000  0.00  0.00     0.060 C 
BRANCH   7   8
ATOM      8  C2' I4B d   1       5.605  -5.426   5.543  0.00  0.00    -0.013 C 
ATOM      9  C4' I4B d   1       4.191  -5.753   5.946  0.00  0.00     0.013 C 
ATOM     10  C3' I4B d   1       5.771  -5.488   4.054  0.00  0.00     0.013 C 
ENDBRANCH   7   8
ENDBRANCH   1   7
TORSDOF 2
ENDMDL
