MODEL 1
REMARK minimizedAffinity 14.8965721
REMARK minimizedRMSD -1
REMARK  2 active torsions:
REMARK  status: ('A' for Active; 'I' for Inactive)
REMARK    1  A    between atoms: C2'_3  and  C1'_4 
REMARK    2  A    between atoms: C1'_4  and  C1_5 
ROOT
ATOM      1  C1  I4B d   1       5.206  -2.026   4.998  0.00  0.00    -0.075 A 
ATOM      2  C2  I4B d   1       3.985  -2.147   4.383  0.00  0.00     0.003 A 
ATOM      3  C3  I4B d   1       3.510  -1.119   3.532  0.00  0.00     0.002 A 
ATOM      4  C4  I4B d   1       4.261   0.026   3.366  0.00  0.00    -0.004 A 
ATOM      5  C5  I4B d   1       5.509   0.138   3.972  0.00  0.00     0.002 A 
ATOM      6  C6  I4B d   1       5.990  -0.900   4.784  0.00  0.00     0.003 A 
ENDROOT
BRANCH   1   7
ATOM      7  C1' I4B d   1       5.662  -3.115   5.916  0.00  0.00     0.060 C 
BRANCH   7   8
ATOM      8  C2' I4B d   1       5.350  -4.443   5.256  0.00  0.00    -0.013 C 
ATOM      9  C4' I4B d   1       5.997  -5.584   5.995  0.00  0.00     0.013 C 
ATOM     10  C3' I4B d   1       3.859  -4.600   5.215  0.00  0.00     0.013 C 
ENDBRANCH   7   8
ENDBRANCH   1   7
TORSDOF 2
ENDMDL
