MODEL 1
REMARK minimizedAffinity 12.7188759
REMARK minimizedRMSD -1
REMARK  2 active torsions:
REMARK  status: ('A' for Active; 'I' for Inactive)
REMARK    1  A    between atoms: C2'_3  and  C1'_4 
REMARK    2  A    between atoms: C1'_4  and  C1_5 
ROOT
ATOM      1  C1  I4B d   1       1.687   2.226  -2.317  0.00  0.00    -0.075 A 
ATOM      2  C2  I4B d   1       0.813   1.961  -3.341  0.00  0.00     0.003 A 
ATOM      3  C3  I4B d   1       0.167   0.703  -3.419  0.00  0.00     0.002 A 
ATOM      4  C4  I4B d   1       0.461  -0.271  -2.486  0.00  0.00    -0.004 A 
ATOM      5  C5  I4B d   1       1.330   0.008  -1.435  0.00  0.00     0.002 A 
ATOM      6  C6  I4B d   1       1.938   1.269  -1.343  0.00  0.00     0.003 A 
ENDROOT
BRANCH   1   7
ATOM      7  C1' I4B d   1       2.376   3.554  -2.284  0.00  0.00     0.060 C 
BRANCH   7   8
ATOM      8  C2' I4B d   1       1.979   4.254  -1.001  0.00  0.00    -0.013 C 
ATOM      9  C4' I4B d   1       2.952   3.953   0.109  0.00  0.00     0.013 C 
ATOM     10  C3' I4B d   1       1.913   5.726  -1.278  0.00  0.00     0.013 C 
ENDBRANCH   7   8
ENDBRANCH   1   7
TORSDOF 2
ENDMDL
