MODEL 1
REMARK minimizedAffinity 9.07481861
REMARK minimizedRMSD -1
REMARK  0 active torsions:
REMARK  status: ('A' for Active; 'I' for Inactive)
ROOT
ATOM      1  C   UNL d   1       0.785   4.171  -4.584  0.00  0.00     0.124 A 
ATOM      2  C1  UNL d   1      -0.111   3.112  -4.616  0.00  0.00     0.062 A 
ATOM      3  C2  UNL d   1      -0.521   2.505  -3.433  0.00  0.00     0.162 A 
ATOM      4  C3  UNL d   1      -0.035   2.956  -2.205  0.00  0.00    -0.034 A 
ATOM      5  C4  UNL d   1       0.867   4.022  -2.181  0.00  0.00     0.162 A 
ATOM      6  C5  UNL d   1       1.273   4.625  -3.367  0.00  0.00     0.062 A 
ATOM      7  F   UNL d   1       2.140   5.648  -3.333  0.00  0.00    -0.097 F 
ATOM      8  F1  UNL d   1       1.354   4.481  -1.018  0.00  0.00    -0.096 F 
ATOM      9  I   UNL d   1      -0.645   2.052  -0.433  0.00  0.00    -0.060 I 
ATOM     10  F2  UNL d   1      -1.388   1.483  -3.494  0.00  0.00    -0.096 F 
ATOM     11  F3  UNL d   1      -0.584   2.671  -5.791  0.00  0.00    -0.097 F 
ATOM     12  F4  UNL d   1       1.179   4.752  -5.724  0.00  0.00    -0.092 F 
ENDROOT
TORSDOF 0
ENDMDL
