MODEL 1
REMARK minimizedAffinity 8.70977306
REMARK minimizedRMSD -1
REMARK  0 active torsions:
REMARK  status: ('A' for Active; 'I' for Inactive)
ROOT
ATOM      1  C   UNL d   1       1.881   1.883  -2.573  0.00  0.00     0.124 A 
ATOM      2  C1  UNL d   1       1.632   2.193  -1.244  0.00  0.00     0.062 A 
ATOM      3  C2  UNL d   1       1.738   1.211  -0.264  0.00  0.00     0.162 A 
ATOM      4  C3  UNL d   1       2.096  -0.092  -0.609  0.00  0.00    -0.034 A 
ATOM      5  C4  UNL d   1       2.344  -0.397  -1.949  0.00  0.00     0.162 A 
ATOM      6  C5  UNL d   1       2.237   0.588  -2.925  0.00  0.00     0.062 A 
ATOM      7  F   UNL d   1       2.477   0.286  -4.209  0.00  0.00    -0.097 F 
ATOM      8  F1  UNL d   1       2.691  -1.640  -2.316  0.00  0.00    -0.096 F 
ATOM      9  I   UNL d   1       2.257  -1.564   0.854  0.00  0.00    -0.060 I 
ATOM     10  F2  UNL d   1       1.492   1.540   1.013  0.00  0.00    -0.096 F 
ATOM     11  F3  UNL d   1       1.287   3.443  -0.902  0.00  0.00    -0.097 F 
ATOM     12  F4  UNL d   1       1.777   2.830  -3.515  0.00  0.00    -0.092 F 
ENDROOT
TORSDOF 0
ENDMDL
