MODEL 1
REMARK minimizedAffinity 11.1673288
REMARK minimizedRMSD -1
REMARK  0 active torsions:
REMARK  status: ('A' for Active; 'I' for Inactive)
ROOT
ATOM      1  C   UNL d   1       1.477   1.917  -2.182  0.00  0.00     0.124 A 
ATOM      2  C1  UNL d   1       1.672   2.176  -0.833  0.00  0.00     0.062 A 
ATOM      3  C2  UNL d   1       1.794   1.125   0.071  0.00  0.00     0.162 A 
ATOM      4  C3  UNL d   1       1.722  -0.196  -0.372  0.00  0.00    -0.034 A 
ATOM      5  C4  UNL d   1       1.526  -0.448  -1.731  0.00  0.00     0.162 A 
ATOM      6  C5  UNL d   1       1.404   0.606  -2.630  0.00  0.00     0.062 A 
ATOM      7  F   UNL d   1       1.216   0.354  -3.934  0.00  0.00    -0.097 F 
ATOM      8  F1  UNL d   1       1.452  -1.706  -2.190  0.00  0.00    -0.096 F 
ATOM      9  I   UNL d   1       1.904  -1.771   0.977  0.00  0.00    -0.060 I 
ATOM     10  F2  UNL d   1       1.981   1.404   1.370  0.00  0.00    -0.096 F 
ATOM     11  F3  UNL d   1       1.741   3.442  -0.398  0.00  0.00    -0.097 F 
ATOM     12  F4  UNL d   1       1.359   2.931  -3.050  0.00  0.00    -0.092 F 
ENDROOT
TORSDOF 0
ENDMDL
