MODEL 1
REMARK minimizedAffinity 11.5073252
REMARK minimizedRMSD -1
REMARK  0 active torsions:
REMARK  status: ('A' for Active; 'I' for Inactive)
ROOT
ATOM      1  C   UNL d   1       3.545  -0.598  -2.458  0.00  0.00     0.124 A 
ATOM      2  C1  UNL d   1       2.162  -0.597  -2.570  0.00  0.00     0.062 A 
ATOM      3  C2  UNL d   1       1.370  -0.895  -1.465  0.00  0.00     0.162 A 
ATOM      4  C3  UNL d   1       1.959  -1.196  -0.237  0.00  0.00    -0.034 A 
ATOM      5  C4  UNL d   1       3.352  -1.196  -0.132  0.00  0.00     0.162 A 
ATOM      6  C5  UNL d   1       4.139  -0.897  -1.240  0.00  0.00     0.062 A 
ATOM      7  F   UNL d   1       5.475  -0.898  -1.130  0.00  0.00    -0.097 F 
ATOM      8  F1  UNL d   1       3.951  -1.480   1.033  0.00  0.00    -0.096 F 
ATOM      9  I   UNL d   1       0.779  -1.642   1.418  0.00  0.00    -0.060 I 
ATOM     10  F2  UNL d   1       0.035  -0.887  -1.602  0.00  0.00    -0.096 F 
ATOM     11  F3  UNL d   1       1.586  -0.309  -3.746  0.00  0.00    -0.097 F 
ATOM     12  F4  UNL d   1       4.305  -0.311  -3.523  0.00  0.00    -0.092 F 
ENDROOT
TORSDOF 0
ENDMDL
