MODEL 1
REMARK minimizedAffinity 6.63062191
REMARK minimizedRMSD -1
REMARK  0 active torsions:
REMARK  status: ('A' for Active; 'I' for Inactive)
ROOT
ATOM      1  C   UNL d   1       1.539   1.614  -1.263  0.00  0.00     0.124 A 
ATOM      2  C1  UNL d   1       1.744   0.343  -0.744  0.00  0.00     0.062 A 
ATOM      3  C2  UNL d   1       0.660  -0.489  -0.483  0.00  0.00     0.162 A 
ATOM      4  C3  UNL d   1      -0.640  -0.054  -0.740  0.00  0.00    -0.034 A 
ATOM      5  C4  UNL d   1      -0.839   1.226  -1.261  0.00  0.00     0.162 A 
ATOM      6  C5  UNL d   1       0.248   2.054  -1.521  0.00  0.00     0.062 A 
ATOM      7  F   UNL d   1       0.048   3.282  -2.022  0.00  0.00    -0.097 F 
ATOM      8  F1  UNL d   1      -2.075   1.676  -1.521  0.00  0.00    -0.096 F 
ATOM      9  I   UNL d   1      -2.264  -1.296  -0.350  0.00  0.00    -0.060 I 
ATOM     10  F2  UNL d   1       0.888  -1.712   0.018  0.00  0.00    -0.096 F 
ATOM     11  F3  UNL d   1       2.990  -0.084  -0.494  0.00  0.00    -0.097 F 
ATOM     12  F4  UNL d   1       2.584   2.414  -1.513  0.00  0.00    -0.092 F 
ENDROOT
TORSDOF 0
ENDMDL
