MODEL 1
REMARK minimizedAffinity 5.15527344
REMARK minimizedRMSD -1
REMARK  0 active torsions:
REMARK  status: ('A' for Active; 'I' for Inactive)
ROOT
ATOM      1  C   UNL d   1       1.657  -2.209   0.679  0.00  0.00     0.124 A 
ATOM      2  C1  UNL d   1       0.532  -1.483   0.313  0.00  0.00     0.062 A 
ATOM      3  C2  UNL d   1       0.579  -0.623  -0.780  0.00  0.00     0.162 A 
ATOM      4  C3  UNL d   1       1.757  -0.483  -1.515  0.00  0.00    -0.034 A 
ATOM      5  C4  UNL d   1       2.884  -1.215  -1.140  0.00  0.00     0.162 A 
ATOM      6  C5  UNL d   1       2.832  -2.074  -0.047  0.00  0.00     0.062 A 
ATOM      7  F   UNL d   1       3.920  -2.774   0.305  0.00  0.00    -0.097 F 
ATOM      8  F1  UNL d   1       4.032  -1.105  -1.825  0.00  0.00    -0.096 F 
ATOM      9  I   UNL d   1       1.832   0.803  -3.150  0.00  0.00    -0.060 I 
ATOM     10  F2  UNL d   1      -0.523   0.066  -1.112  0.00  0.00    -0.096 F 
ATOM     11  F3  UNL d   1      -0.604  -1.611   1.013  0.00  0.00    -0.097 F 
ATOM     12  F4  UNL d   1       1.609  -3.036   1.732  0.00  0.00    -0.092 F 
ENDROOT
TORSDOF 0
ENDMDL
