MODEL 1
REMARK minimizedAffinity 10.5744286
REMARK minimizedRMSD -1
REMARK  0 active torsions:
REMARK  status: ('A' for Active; 'I' for Inactive)
ROOT
ATOM      1  N1  IND d   1       1.110  -0.747  -0.207  0.00  0.00    -0.196 N 
ATOM      2  C2  IND d   1       1.750   0.046  -1.118  0.00  0.00     0.054 A 
ATOM      3  C3  IND d   1       2.978  -0.448  -1.392  0.00  0.00    -0.031 A 
ATOM      4  C4  IND d   1       4.103  -2.600  -0.538  0.00  0.00     0.051 A 
ATOM      5  C5  IND d   1       3.926  -3.633   0.339  0.00  0.00    -0.031 A 
ATOM      6  C6  IND d   1       2.776  -3.762   1.092  0.00  0.00     0.015 A 
ATOM      7  C7  IND d   1       1.752  -2.863   0.987  0.00  0.00    -0.016 A 
ATOM      8  C8  IND d   1       1.932  -1.809   0.103  0.00  0.00    -0.047 A 
ATOM      9  C9  IND d   1       3.114  -1.650  -0.632  0.00  0.00    -0.096 A 
ATOM     10  HN1 IND d   1       0.327  -0.607   0.118  0.00  0.00     0.298 HD
ENDROOT
TORSDOF 0
ENDMDL
