MODEL 1
REMARK minimizedAffinity 8.16421509
REMARK minimizedRMSD -1
REMARK  0 active torsions:
REMARK  status: ('A' for Active; 'I' for Inactive)
ROOT
ATOM      1  N1  IND d   1       1.646  -2.433   0.748  0.00  0.00    -0.196 N 
ATOM      2  C2  IND d   1       0.875  -1.622   1.534  0.00  0.00     0.054 A 
ATOM      3  C3  IND d   1       1.365  -1.582   2.793  0.00  0.00    -0.031 A 
ATOM      4  C4  IND d   1       3.479  -2.688   3.760  0.00  0.00     0.051 A 
ATOM      5  C5  IND d   1       4.486  -3.554   3.437  0.00  0.00    -0.031 A 
ATOM      6  C6  IND d   1       4.602  -4.098   2.174  0.00  0.00     0.015 A 
ATOM      7  C7  IND d   1       3.718  -3.788   1.181  0.00  0.00    -0.016 A 
ATOM      8  C8  IND d   1       2.690  -2.915   1.507  0.00  0.00    -0.047 A 
ATOM      9  C9  IND d   1       2.542  -2.392   2.799  0.00  0.00    -0.096 A 
ATOM     10  HN1 IND d   1       1.504  -2.611  -0.081  0.00  0.00     0.298 HD
ENDROOT
TORSDOF 0
ENDMDL
