MODEL 1
REMARK minimizedAffinity 9.42777538
REMARK minimizedRMSD -1
REMARK  0 active torsions:
REMARK  status: ('A' for Active; 'I' for Inactive)
ROOT
ATOM      1  N1  IND d   1       3.116  -1.099  -1.530  0.00  0.00    -0.196 N 
ATOM      2  C2  IND d   1       2.341  -0.014  -1.831  0.00  0.00     0.054 A 
ATOM      3  C3  IND d   1       1.335   0.108  -0.936  0.00  0.00    -0.031 A 
ATOM      4  C4  IND d   1       0.830  -1.300   1.159  0.00  0.00     0.051 A 
ATOM      5  C5  IND d   1       1.238  -2.420   1.829  0.00  0.00    -0.031 A 
ATOM      6  C6  IND d   1       2.316  -3.170   1.406  0.00  0.00     0.015 A 
ATOM      7  C7  IND d   1       3.037  -2.820   0.299  0.00  0.00    -0.016 A 
ATOM      8  C8  IND d   1       2.621  -1.688  -0.387  0.00  0.00    -0.047 A 
ATOM      9  C9  IND d   1       1.502  -0.947   0.013  0.00  0.00    -0.096 A 
ATOM     10  HN1 IND d   1       3.799  -1.368  -1.979  0.00  0.00     0.298 HD
ENDROOT
TORSDOF 0
ENDMDL
