MODEL 1
REMARK minimizedAffinity 0.310735136
REMARK minimizedRMSD -1
REMARK  0 active torsions:
REMARK  status: ('A' for Active; 'I' for Inactive)
ROOT
ATOM      1  N1  IND d   1       1.702  -1.596   0.144  0.00  0.00    -0.196 N 
ATOM      2  C2  IND d   1       1.014  -1.020   1.175  0.00  0.00     0.054 A 
ATOM      3  C3  IND d   1       1.258  -1.680   2.330  0.00  0.00    -0.031 A 
ATOM      4  C4  IND d   1       2.831  -3.668   2.777  0.00  0.00     0.051 A 
ATOM      5  C5  IND d   1       3.645  -4.562   2.139  0.00  0.00    -0.031 A 
ATOM      6  C6  IND d   1       3.860  -4.510   0.777  0.00  0.00     0.015 A 
ATOM      7  C7  IND d   1       3.275  -3.551  -0.000  0.00  0.00    -0.016 A 
ATOM      8  C8  IND d   1       2.442  -2.646   0.642  0.00  0.00    -0.047 A 
ATOM      9  C9  IND d   1       2.186  -2.720   2.018  0.00  0.00    -0.096 A 
ATOM     10  HN1 IND d   1       1.677  -1.345  -0.678  0.00  0.00     0.298 HD
ENDROOT
TORSDOF 0
ENDMDL
