MODEL 1
REMARK minimizedAffinity -1.23345482
REMARK minimizedRMSD -1
REMARK  0 active torsions:
REMARK  status: ('A' for Active; 'I' for Inactive)
ROOT
ATOM      1  N1  IND d   1       1.784  -0.985  -0.324  0.00  0.00    -0.196 N 
ATOM      2  C2  IND d   1       2.648  -0.158  -0.987  0.00  0.00     0.054 A 
ATOM      3  C3  IND d   1       3.905  -0.651  -0.935  0.00  0.00    -0.031 A 
ATOM      4  C4  IND d   1       4.758  -2.851   0.096  0.00  0.00     0.051 A 
ATOM      5  C5  IND d   1       4.349  -3.921   0.841  0.00  0.00    -0.031 A 
ATOM      6  C6  IND d   1       3.037  -4.072   1.242  0.00  0.00     0.015 A 
ATOM      7  C7  IND d   1       2.079  -3.159   0.901  0.00  0.00    -0.016 A 
ATOM      8  C8  IND d   1       2.492  -2.068   0.150  0.00  0.00    -0.047 A 
ATOM      9  C9  IND d   1       3.830  -1.888  -0.224  0.00  0.00    -0.096 A 
ATOM     10  HN1 IND d   1       0.941  -0.852  -0.221  0.00  0.00     0.298 HD
ENDROOT
TORSDOF 0
ENDMDL
