MODEL 1
REMARK minimizedAffinity 5.8637538
REMARK minimizedRMSD -1
REMARK  0 active torsions:
REMARK  status: ('A' for Active; 'I' for Inactive)
ROOT
ATOM      1  N1  IND d   1       2.766  -2.387  -0.196  0.00  0.00    -0.196 N 
ATOM      2  C2  IND d   1       1.721  -1.845   0.498  0.00  0.00     0.054 A 
ATOM      3  C3  IND d   1       1.874  -2.063   1.824  0.00  0.00    -0.031 A 
ATOM      4  C4  IND d   1       3.813  -3.197   3.082  0.00  0.00     0.051 A 
ATOM      5  C5  IND d   1       4.977  -3.882   2.874  0.00  0.00    -0.031 A 
ATOM      6  C6  IND d   1       5.476  -4.106   1.607  0.00  0.00     0.015 A 
ATOM      7  C7  IND d   1       4.831  -3.641   0.496  0.00  0.00    -0.016 A 
ATOM      8  C8  IND d   1       3.645  -2.951   0.702  0.00  0.00    -0.047 A 
ATOM      9  C9  IND d   1       3.112  -2.758   1.984  0.00  0.00    -0.096 A 
ATOM     10  HN1 IND d   1       2.859  -2.377  -1.051  0.00  0.00     0.298 HD
ENDROOT
TORSDOF 0
ENDMDL
