MODEL 1
REMARK minimizedAffinity 4.13571548
REMARK minimizedRMSD -1
REMARK  0 active torsions:
REMARK  status: ('A' for Active; 'I' for Inactive)
ROOT
ATOM      1  C1  BNZ d   1       4.643   0.994   0.719  0.00  0.00     0.000 A 
ATOM      2  C2  BNZ d   1       4.859   0.752  -0.611  0.00  0.00     0.000 A 
ATOM      3  C3  BNZ d   1       3.827   0.404  -1.437  0.00  0.00     0.000 A 
ATOM      4  C4  BNZ d   1       2.588   0.260  -0.924  0.00  0.00     0.000 A 
ATOM      5  C5  BNZ d   1       2.355   0.491   0.417  0.00  0.00     0.000 A 
ATOM      6  C6  BNZ d   1       3.389   0.880   1.237  0.00  0.00     0.000 A 
ENDROOT
TORSDOF 0
ENDMDL
