MODEL 1
REMARK minimizedAffinity 7.98725319
REMARK minimizedRMSD -1
REMARK  0 active torsions:
REMARK  status: ('A' for Active; 'I' for Inactive)
ROOT
ATOM      1  C1  BNZ d   1      -0.946   0.793   1.848  0.00  0.00     0.000 A 
ATOM      2  C2  BNZ d   1      -1.084   1.283   0.577  0.00  0.00     0.000 A 
ATOM      3  C3  BNZ d   1      -0.108   1.085  -0.360  0.00  0.00     0.000 A 
ATOM      4  C4  BNZ d   1       1.020   0.434  -0.014  0.00  0.00     0.000 A 
ATOM      5  C5  BNZ d   1       1.179  -0.059   1.266  0.00  0.00     0.000 A 
ATOM      6  C6  BNZ d   1       0.178   0.108   2.195  0.00  0.00     0.000 A 
ENDROOT
TORSDOF 0
ENDMDL
