MODEL 1
REMARK minimizedAffinity 9.03255653
REMARK minimizedRMSD -1
REMARK  0 active torsions:
REMARK  status: ('A' for Active; 'I' for Inactive)
ROOT
ATOM      1  C1  BNZ d   1       1.266   0.339  -0.310  0.00  0.00     0.000 A 
ATOM      2  C2  BNZ d   1       0.208   0.928  -0.951  0.00  0.00     0.000 A 
ATOM      3  C3  BNZ d   1      -0.856   1.414  -0.244  0.00  0.00     0.000 A 
ATOM      4  C4  BNZ d   1      -0.880   1.276   1.098  0.00  0.00     0.000 A 
ATOM      5  C5  BNZ d   1       0.175   0.676   1.757  0.00  0.00     0.000 A 
ATOM      6  C6  BNZ d   1       1.262   0.223   1.046  0.00  0.00     0.000 A 
ENDROOT
TORSDOF 0
ENDMDL
