MODEL 1
REMARK minimizedAffinity 0.554932714
REMARK minimizedRMSD -1
REMARK  0 active torsions:
REMARK  status: ('A' for Active; 'I' for Inactive)
ROOT
ATOM      1  C1  BNZ d   1      -4.698   1.620  -3.014  0.00  0.00     0.000 A 
ATOM      2  C2  BNZ d   1      -3.546   1.066  -2.523  0.00  0.00     0.000 A 
ATOM      3  C3  BNZ d   1      -2.510   0.751  -3.357  0.00  0.00     0.000 A 
ATOM      4  C4  BNZ d   1      -2.643   0.952  -4.683  0.00  0.00     0.000 A 
ATOM      5  C5  BNZ d   1      -3.801   1.501  -5.195  0.00  0.00     0.000 A 
ATOM      6  C6  BNZ d   1      -4.827   1.854  -4.348  0.00  0.00     0.000 A 
ENDROOT
TORSDOF 0
ENDMDL
