MODEL 1
REMARK minimizedAffinity 6.69478035
REMARK minimizedRMSD -1
REMARK  0 active torsions:
REMARK  status: ('A' for Active; 'I' for Inactive)
ROOT
ATOM      1  C1  BNZ d   1      -1.842   0.549  -3.307  0.00  0.00     0.000 A 
ATOM      2  C2  BNZ d   1      -2.554   1.350  -4.160  0.00  0.00     0.000 A 
ATOM      3  C3  BNZ d   1      -3.597   0.847  -4.886  0.00  0.00     0.000 A 
ATOM      4  C4  BNZ d   1      -3.902  -0.463  -4.788  0.00  0.00     0.000 A 
ATOM      5  C5  BNZ d   1      -3.188  -1.285  -3.940  0.00  0.00     0.000 A 
ATOM      6  C6  BNZ d   1      -2.164  -0.767  -3.181  0.00  0.00     0.000 A 
ENDROOT
TORSDOF 0
ENDMDL
