MODEL 1
REMARK minimizedAffinity 11.1110859
REMARK minimizedRMSD -1
REMARK  0 active torsions:
REMARK  status: ('A' for Active; 'I' for Inactive)
ROOT
ATOM      1  C1  BNZ d   1       3.347  -1.252  -1.219  0.00  0.00     0.000 A 
ATOM      2  C2  BNZ d   1       4.226  -0.655  -2.082  0.00  0.00     0.000 A 
ATOM      3  C3  BNZ d   1       4.520   0.675  -1.973  0.00  0.00     0.000 A 
ATOM      4  C4  BNZ d   1       3.905   1.414  -1.026  0.00  0.00     0.000 A 
ATOM      5  C5  BNZ d   1       3.010   0.829  -0.154  0.00  0.00     0.000 A 
ATOM      6  C6  BNZ d   1       2.746  -0.519  -0.243  0.00  0.00     0.000 A 
ENDROOT
TORSDOF 0
ENDMDL
