MODEL 1
REMARK minimizedAffinity 2.90360236
REMARK minimizedRMSD -1
REMARK  0 active torsions:
REMARK  status: ('A' for Active; 'I' for Inactive)
ROOT
ATOM      1  C1  BNZ d   1       1.157  -0.027   0.062  0.00  0.00     0.000 A 
ATOM      2  C2  BNZ d   1       1.987  -0.796  -0.710  0.00  0.00     0.000 A 
ATOM      3  C3  BNZ d   1       3.320  -0.509  -0.803  0.00  0.00     0.000 A 
ATOM      4  C4  BNZ d   1       3.814   0.568  -0.158  0.00  0.00     0.000 A 
ATOM      5  C5  BNZ d   1       2.988   1.359   0.615  0.00  0.00     0.000 A 
ATOM      6  C6  BNZ d   1       1.654   1.044   0.738  0.00  0.00     0.000 A 
ENDROOT
TORSDOF 0
ENDMDL
