MODEL 1
REMARK minimizedAffinity 6.47453737
REMARK minimizedRMSD -1
REMARK  0 active torsions:
REMARK  status: ('A' for Active; 'I' for Inactive)
ROOT
ATOM      1  C1  BNZ d   1       3.769   0.753  -1.499  0.00  0.00     0.000 A 
ATOM      2  C2  BNZ d   1       4.871   1.171  -2.196  0.00  0.00     0.000 A 
ATOM      3  C3  BNZ d   1       5.986   1.613  -1.542  0.00  0.00     0.000 A 
ATOM      4  C4  BNZ d   1       5.984   1.674  -0.194  0.00  0.00     0.000 A 
ATOM      5  C5  BNZ d   1       4.877   1.265   0.522  0.00  0.00     0.000 A 
ATOM      6  C6  BNZ d   1       3.770   0.784  -0.139  0.00  0.00     0.000 A 
ENDROOT
TORSDOF 0
ENDMDL
