MODEL 1
REMARK minimizedAffinity 4.05738544
REMARK minimizedRMSD -1
REMARK  0 active torsions:
REMARK  status: ('A' for Active; 'I' for Inactive)
ROOT
ATOM      1  C1  BNZ d   1       5.999  -0.014  -0.026  0.00  0.00     0.000 A 
ATOM      2  C2  BNZ d   1       4.957  -0.903  -0.024  0.00  0.00     0.000 A 
ATOM      3  C3  BNZ d   1       3.715  -0.526  -0.451  0.00  0.00     0.000 A 
ATOM      4  C4  BNZ d   1       3.506   0.748  -0.842  0.00  0.00     0.000 A 
ATOM      5  C5  BNZ d   1       4.544   1.658  -0.840  0.00  0.00     0.000 A 
ATOM      6  C6  BNZ d   1       5.802   1.265  -0.446  0.00  0.00     0.000 A 
ENDROOT
TORSDOF 0
ENDMDL
