MODEL 1
REMARK minimizedAffinity 5.87816572
REMARK minimizedRMSD -1
REMARK  0 active torsions:
REMARK  status: ('A' for Active; 'I' for Inactive)
ROOT
ATOM      1  C1  BNZ d   1      -5.995   0.975  -4.266  0.00  0.00     0.000 A 
ATOM      2  C2  BNZ d   1      -4.863   0.482  -4.857  0.00  0.00     0.000 A 
ATOM      3  C3  BNZ d   1      -3.723   1.235  -4.922  0.00  0.00     0.000 A 
ATOM      4  C4  BNZ d   1      -3.730   2.491  -4.433  0.00  0.00     0.000 A 
ATOM      5  C5  BNZ d   1      -4.867   3.005  -3.841  0.00  0.00     0.000 A 
ATOM      6  C6  BNZ d   1      -6.000   2.231  -3.743  0.00  0.00     0.000 A 
ENDROOT
TORSDOF 0
ENDMDL
