MODEL 1
REMARK minimizedAffinity 3.59058118
REMARK minimizedRMSD -1
REMARK  0 active torsions:
REMARK  status: ('A' for Active; 'I' for Inactive)
ROOT
ATOM      1  C1  BNZ d   1      -1.825   0.734  -4.461  0.00  0.00     0.000 A 
ATOM      2  C2  BNZ d   1      -2.739   1.339  -5.282  0.00  0.00     0.000 A 
ATOM      3  C3  BNZ d   1      -4.080   1.152  -5.095  0.00  0.00     0.000 A 
ATOM      4  C4  BNZ d   1      -4.504   0.329  -4.114  0.00  0.00     0.000 A 
ATOM      5  C5  BNZ d   1      -3.594  -0.296  -3.284  0.00  0.00     0.000 A 
ATOM      6  C6  BNZ d   1      -2.247  -0.074  -3.451  0.00  0.00     0.000 A 
ENDROOT
TORSDOF 0
ENDMDL
