MODEL 1
REMARK minimizedAffinity 2.18113637
REMARK minimizedRMSD -1
REMARK  0 active torsions:
REMARK  status: ('A' for Active; 'I' for Inactive)
ROOT
ATOM      1  C1  BNZ d   1       6.000  -0.643   0.016  0.00  0.00     0.000 A 
ATOM      2  C2  BNZ d   1       4.835  -1.364   0.003  0.00  0.00     0.000 A 
ATOM      3  C3  BNZ d   1       3.664  -0.794  -0.413  0.00  0.00     0.000 A 
ATOM      4  C4  BNZ d   1       3.651   0.505  -0.775  0.00  0.00     0.000 A 
ATOM      5  C5  BNZ d   1       4.815   1.248  -0.757  0.00  0.00     0.000 A 
ATOM      6  C6  BNZ d   1       5.999   0.660  -0.376  0.00  0.00     0.000 A 
ENDROOT
TORSDOF 0
ENDMDL
