MODEL 1
REMARK minimizedAffinity 2.74349332
REMARK minimizedRMSD -1
REMARK  0 active torsions:
REMARK  status: ('A' for Active; 'I' for Inactive)
ROOT
ATOM      1  C1  BNZ d   1      -2.560   0.861  -4.656  0.00  0.00     0.000 A 
ATOM      2  C2  BNZ d   1      -3.672   1.471  -5.172  0.00  0.00     0.000 A 
ATOM      3  C3  BNZ d   1      -4.822   1.566  -4.439  0.00  0.00     0.000 A 
ATOM      4  C4  BNZ d   1      -4.871   1.016  -3.208  0.00  0.00     0.000 A 
ATOM      5  C5  BNZ d   1      -3.761   0.390  -2.678  0.00  0.00     0.000 A 
ATOM      6  C6  BNZ d   1      -2.593   0.330  -3.403  0.00  0.00     0.000 A 
ENDROOT
TORSDOF 0
ENDMDL
