MODEL 1
REMARK minimizedAffinity 3.19143677
REMARK minimizedRMSD -1
REMARK  1 active torsions:
REMARK  status: ('A' for Active; 'I' for Inactive)
REMARK    1  A    between atoms: C3_4  and  O_7 
ROOT
ATOM      1  C   UNL d   1      -3.266   3.840  -0.247  0.00  0.00    -0.033 A 
ATOM      2  C1  UNL d   1      -2.640   3.134   0.782  0.00  0.00     0.039 A 
ATOM      3  C2  UNL d   1      -3.354   2.795   1.933  0.00  0.00    -0.080 A 
ATOM      4  C3  UNL d   1      -4.691   3.167   2.043  0.00  0.00     0.150 A 
ATOM      5  C4  UNL d   1      -5.322   3.868   1.020  0.00  0.00    -0.007 A 
ATOM      6  C5  UNL d   1      -4.608   4.206  -0.128  0.00  0.00     0.039 A 
ENDROOT
BRANCH   4   7
ATOM      7  O   UNL d   1      -5.426   2.862   3.149  0.00  0.00    -0.526 OA
ATOM      8  H5  UNL d   1      -4.852   2.403   3.784  0.00  0.00     0.418 HD
ENDBRANCH   4   7
TORSDOF 1
ENDMDL
