MODEL 1
REMARK minimizedAffinity 3.05951095
REMARK minimizedRMSD -1
REMARK  1 active torsions:
REMARK  status: ('A' for Active; 'I' for Inactive)
REMARK    1  A    between atoms: C3_4  and  O_7 
ROOT
ATOM      1  C   UNL d   1       5.168   1.172  -5.019  0.00  0.00    -0.033 A 
ATOM      2  C1  UNL d   1       4.357   0.433  -4.155  0.00  0.00     0.039 A 
ATOM      3  C2  UNL d   1       4.360  -0.962  -4.213  0.00  0.00    -0.080 A 
ATOM      4  C3  UNL d   1       5.179  -1.605  -5.137  0.00  0.00     0.150 A 
ATOM      5  C4  UNL d   1       5.993  -0.876  -5.998  0.00  0.00    -0.007 A 
ATOM      6  C5  UNL d   1       5.987   0.517  -5.939  0.00  0.00     0.039 A 
ENDROOT
BRANCH   4   7
ATOM      7  O   UNL d   1       5.213  -2.965  -5.234  0.00  0.00    -0.526 OA
ATOM      8  H5  UNL d   1       4.578  -3.334  -4.598  0.00  0.00     0.418 HD
ENDBRANCH   4   7
TORSDOF 1
ENDMDL
