MODEL 1
REMARK minimizedAffinity 1.14987135
REMARK minimizedRMSD -1
REMARK  1 active torsions:
REMARK  status: ('A' for Active; 'I' for Inactive)
REMARK    1  A    between atoms: C3_4  and  O_7 
ROOT
ATOM      1  C   UNL d   1       5.863  -2.572   4.829  0.00  0.00    -0.033 A 
ATOM      2  C1  UNL d   1       5.108  -2.684   5.998  0.00  0.00     0.039 A 
ATOM      3  C2  UNL d   1       3.754  -2.342   5.992  0.00  0.00    -0.080 A 
ATOM      4  C3  UNL d   1       3.169  -1.890   4.813  0.00  0.00     0.150 A 
ATOM      5  C4  UNL d   1       3.914  -1.779   3.644  0.00  0.00    -0.007 A 
ATOM      6  C5  UNL d   1       5.266  -2.120   3.652  0.00  0.00     0.039 A 
ENDROOT
BRANCH   4   7
ATOM      7  O   UNL d   1       1.852  -1.539   4.760  0.00  0.00    -0.526 OA
ATOM      8  H5  UNL d   1       1.471  -1.640   5.648  0.00  0.00     0.418 HD
ENDBRANCH   4   7
TORSDOF 1
ENDMDL
