MODEL 1
REMARK minimizedAffinity 3.45802903
REMARK minimizedRMSD -1
REMARK  0 active torsions:
REMARK  status: ('A' for Active; 'I' for Inactive)
ROOT
ATOM      1  C1  BNZ d   1      -1.427  -4.111   1.251  0.00  0.00     0.000 A 
ATOM      2  C2  BNZ d   1      -0.511  -5.120   1.390  0.00  0.00     0.000 A 
ATOM      3  C3  BNZ d   1       0.291  -5.486   0.346  0.00  0.00     0.000 A 
ATOM      4  C4  BNZ d   1       0.150  -4.871  -0.846  0.00  0.00     0.000 A 
ATOM      5  C5  BNZ d   1      -0.774  -3.858  -1.005  0.00  0.00     0.000 A 
ATOM      6  C6  BNZ d   1      -1.554  -3.466   0.059  0.00  0.00     0.000 A 
ENDROOT
TORSDOF 0
ENDMDL
