MODEL 1
REMARK minimizedAffinity 7.65262508
REMARK minimizedRMSD -1
REMARK  0 active torsions:
REMARK  status: ('A' for Active; 'I' for Inactive)
ROOT
ATOM      1  C1  BNZ d   1      -4.127   1.467  -4.269  0.00  0.00     0.000 A 
ATOM      2  C2  BNZ d   1      -2.814   1.338  -4.638  0.00  0.00     0.000 A 
ATOM      3  C3  BNZ d   1      -1.903   0.768  -3.793  0.00  0.00     0.000 A 
ATOM      4  C4  BNZ d   1      -2.297   0.364  -2.568  0.00  0.00     0.000 A 
ATOM      5  C5  BNZ d   1      -3.615   0.496  -2.178  0.00  0.00     0.000 A 
ATOM      6  C6  BNZ d   1      -4.537   1.035  -3.046  0.00  0.00     0.000 A 
ENDROOT
TORSDOF 0
ENDMDL
