MODEL 1
REMARK minimizedAffinity -0.456573963
REMARK minimizedRMSD -1
REMARK  0 active torsions:
REMARK  status: ('A' for Active; 'I' for Inactive)
ROOT
ATOM      1  C1  BNZ d   1      -5.970   0.553   3.684  0.00  0.00     0.000 A 
ATOM      2  C2  BNZ d   1      -5.966   1.521   2.715  0.00  0.00     0.000 A 
ATOM      3  C3  BNZ d   1      -5.996   1.184   1.390  0.00  0.00     0.000 A 
ATOM      4  C4  BNZ d   1      -5.989  -0.117   1.036  0.00  0.00     0.000 A 
ATOM      5  C5  BNZ d   1      -5.984  -1.104   2.001  0.00  0.00     0.000 A 
ATOM      6  C6  BNZ d   1      -5.993  -0.762   3.334  0.00  0.00     0.000 A 
ENDROOT
TORSDOF 0
ENDMDL
