MODEL 1
REMARK minimizedAffinity 6.03863859
REMARK minimizedRMSD -1
REMARK  0 active torsions:
REMARK  status: ('A' for Active; 'I' for Inactive)
ROOT
ATOM      1  C1  BNZ d   1      -2.162  -2.969  -0.333  0.00  0.00     0.000 A 
ATOM      2  C2  BNZ d   1      -1.207  -3.840  -0.786  0.00  0.00     0.000 A 
ATOM      3  C3  BNZ d   1      -0.490  -4.609   0.088  0.00  0.00     0.000 A 
ATOM      4  C4  BNZ d   1      -0.700  -4.477   1.414  0.00  0.00     0.000 A 
ATOM      5  C5  BNZ d   1      -1.652  -3.596   1.887  0.00  0.00     0.000 A 
ATOM      6  C6  BNZ d   1      -2.399  -2.852   1.002  0.00  0.00     0.000 A 
ENDROOT
TORSDOF 0
ENDMDL
