MODEL 1
REMARK minimizedAffinity 4.50662136
REMARK minimizedRMSD -1
REMARK  0 active torsions:
REMARK  status: ('A' for Active; 'I' for Inactive)
ROOT
ATOM      1  C1  BNZ d   1      -2.183  -3.470   0.760  0.00  0.00     0.000 A 
ATOM      2  C2  BNZ d   1      -1.666  -4.700   1.068  0.00  0.00     0.000 A 
ATOM      3  C3  BNZ d   1      -0.543  -5.164   0.441  0.00  0.00     0.000 A 
ATOM      4  C4  BNZ d   1       0.037  -4.416  -0.520  0.00  0.00     0.000 A 
ATOM      5  C5  BNZ d   1      -0.479  -3.177  -0.848  0.00  0.00     0.000 A 
ATOM      6  C6  BNZ d   1      -1.586  -2.697  -0.187  0.00  0.00     0.000 A 
ENDROOT
TORSDOF 0
ENDMDL
