MODEL 1
REMARK minimizedAffinity -3.13497353
REMARK minimizedRMSD -1
REMARK  0 active torsions:
REMARK  status: ('A' for Active; 'I' for Inactive)
ROOT
ATOM      1  C1  BNZ d   1       0.866   0.046   1.754  0.00  0.00     0.000 A 
ATOM      2  C2  BNZ d   1       0.054   1.116   2.018  0.00  0.00     0.000 A 
ATOM      3  C3  BNZ d   1      -0.509   1.835   1.001  0.00  0.00     0.000 A 
ATOM      4  C4  BNZ d   1      -0.228   1.509  -0.277  0.00  0.00     0.000 A 
ATOM      5  C5  BNZ d   1       0.597   0.438  -0.560  0.00  0.00     0.000 A 
ATOM      6  C6  BNZ d   1       1.131  -0.308   0.466  0.00  0.00     0.000 A 
ENDROOT
TORSDOF 0
ENDMDL
