MODEL 1
REMARK minimizedAffinity 1.7458607
REMARK minimizedRMSD -1
REMARK  0 active torsions:
REMARK  status: ('A' for Active; 'I' for Inactive)
ROOT
ATOM      1  C1  BNZ d   1      -2.229   2.344  -1.224  0.00  0.00     0.000 A 
ATOM      2  C2  BNZ d   1      -1.002   1.843  -0.880  0.00  0.00     0.000 A 
ATOM      3  C3  BNZ d   1       0.103   2.647  -0.868  0.00  0.00     0.000 A 
ATOM      4  C4  BNZ d   1      -0.012   3.938  -1.239  0.00  0.00     0.000 A 
ATOM      5  C5  BNZ d   1      -1.240   4.456  -1.598  0.00  0.00     0.000 A 
ATOM      6  C6  BNZ d   1      -2.358   3.653  -1.571  0.00  0.00     0.000 A 
ENDROOT
TORSDOF 0
ENDMDL
