MODEL 1
REMARK minimizedAffinity 2.10417247
REMARK minimizedRMSD -1
REMARK  0 active torsions:
REMARK  status: ('A' for Active; 'I' for Inactive)
ROOT
ATOM      1  C1  BNZ d   1       0.452   0.277   0.785  0.00  0.00     0.000 A 
ATOM      2  C2  BNZ d   1       0.044   1.529   1.161  0.00  0.00     0.000 A 
ATOM      3  C3  BNZ d   1       0.339   2.018   2.403  0.00  0.00     0.000 A 
ATOM      4  C4  BNZ d   1       1.005   1.240   3.280  0.00  0.00     0.000 A 
ATOM      5  C5  BNZ d   1       1.415  -0.028   2.919  0.00  0.00     0.000 A 
ATOM      6  C6  BNZ d   1       1.150  -0.502   1.655  0.00  0.00     0.000 A 
ENDROOT
TORSDOF 0
ENDMDL
