MODEL 1
REMARK minimizedAffinity 11.1766081
REMARK minimizedRMSD -1
REMARK  2 active torsions:
REMARK  status: ('A' for Active; 'I' for Inactive)
REMARK    1  A    between atoms: C1_2  and  C2_3 
REMARK    2  A    between atoms: C2_3  and  C3_4 
ROOT
ATOM      1  C3  UNL d   1       1.393   0.490   0.478  0.00  0.00    -0.075 A 
ATOM      2  C4  UNL d   1       0.522   0.873  -0.552  0.00  0.00     0.002 A 
ATOM      3  C5  UNL d   1      -0.654   1.566  -0.264  0.00  0.00     0.002 A 
ATOM      4  C6  UNL d   1      -0.978   1.876   1.055  0.00  0.00    -0.004 A 
ATOM      5  C7  UNL d   1      -0.128   1.486   2.087  0.00  0.00     0.002 A 
ATOM      6  C8  UNL d   1       1.052   0.796   1.802  0.00  0.00     0.002 A 
ENDROOT
BRANCH   1   7
ATOM      7  C2  UNL d   1       2.682  -0.234   0.170  0.00  0.00     0.056 C 
BRANCH   7   8
ATOM      8  C1  UNL d   1       3.488   0.387  -0.976  0.00  0.00     0.007 C 
ATOM      9  C   UNL d   1       4.660   1.232  -0.497  0.00  0.00     0.009 C 
ENDBRANCH   7   8
ENDBRANCH   1   7
TORSDOF 2
ENDMDL
