MODEL 1
REMARK minimizedAffinity 15.9790525
REMARK minimizedRMSD -1
REMARK  2 active torsions:
REMARK  status: ('A' for Active; 'I' for Inactive)
REMARK    1  A    between atoms: C1_2  and  C2_3 
REMARK    2  A    between atoms: C2_3  and  C3_4 
ROOT
ATOM      1  C3  UNL d   1      -0.566  -2.200  -2.612  0.00  0.00    -0.075 A 
ATOM      2  C4  UNL d   1      -1.714  -3.006  -2.622  0.00  0.00     0.002 A 
ATOM      3  C5  UNL d   1      -1.614  -4.384  -2.430  0.00  0.00     0.002 A 
ATOM      4  C6  UNL d   1      -0.367  -4.974  -2.236  0.00  0.00    -0.004 A 
ATOM      5  C7  UNL d   1       0.782  -4.186  -2.240  0.00  0.00     0.002 A 
ATOM      6  C8  UNL d   1       0.684  -2.806  -2.428  0.00  0.00     0.002 A 
ENDROOT
BRANCH   1   7
ATOM      7  C2  UNL d   1      -0.670  -0.704  -2.790  0.00  0.00     0.056 C 
BRANCH   7   8
ATOM      8  C1  UNL d   1      -2.108  -0.191  -2.926  0.00  0.00     0.007 C 
ATOM      9  C   UNL d   1      -2.277   0.834  -4.039  0.00  0.00     0.009 C 
ENDBRANCH   7   8
ENDBRANCH   1   7
TORSDOF 2
ENDMDL
