MODEL 1
REMARK minimizedAffinity 11.387208
REMARK minimizedRMSD -1
REMARK  2 active torsions:
REMARK  status: ('A' for Active; 'I' for Inactive)
REMARK    1  A    between atoms: C1_2  and  C2_3 
REMARK    2  A    between atoms: C2_3  and  C3_4 
ROOT
ATOM      1  C3  UNL d   1       1.213   0.541  -0.082  0.00  0.00    -0.075 A 
ATOM      2  C4  UNL d   1       0.165   1.128  -0.806  0.00  0.00     0.002 A 
ATOM      3  C5  UNL d   1      -0.930   1.683  -0.144  0.00  0.00     0.002 A 
ATOM      4  C6  UNL d   1      -0.997   1.649   1.248  0.00  0.00    -0.004 A 
ATOM      5  C7  UNL d   1       0.030   1.053   1.976  0.00  0.00     0.002 A 
ATOM      6  C8  UNL d   1       1.130   0.501   1.316  0.00  0.00     0.002 A 
ENDROOT
BRANCH   1   7
ATOM      7  C2  UNL d   1       2.415  -0.035  -0.792  0.00  0.00     0.056 C 
BRANCH   7   8
ATOM      8  C1  UNL d   1       3.757   0.484  -0.267  0.00  0.00     0.007 C 
ATOM      9  C   UNL d   1       4.537   1.287  -1.300  0.00  0.00     0.009 C 
ENDBRANCH   7   8
ENDBRANCH   1   7
TORSDOF 2
ENDMDL
