MODEL 1
REMARK minimizedAffinity 5.2118082
REMARK minimizedRMSD -1
REMARK  2 active torsions:
REMARK  status: ('A' for Active; 'I' for Inactive)
REMARK    1  A    between atoms: C1_2  and  C2_3 
REMARK    2  A    between atoms: C2_3  and  C3_4 
ROOT
ATOM      1  C3  UNL d   1       0.355  -4.334  -0.882  0.00  0.00    -0.075 A 
ATOM      2  C4  UNL d   1      -0.001  -5.164   0.190  0.00  0.00     0.002 A 
ATOM      3  C5  UNL d   1      -1.118  -5.995   0.102  0.00  0.00     0.002 A 
ATOM      4  C6  UNL d   1      -1.898  -5.999  -1.052  0.00  0.00    -0.004 A 
ATOM      5  C7  UNL d   1      -1.564  -5.165  -2.117  0.00  0.00     0.002 A 
ATOM      6  C8  UNL d   1      -0.444  -4.336  -2.034  0.00  0.00     0.002 A 
ENDROOT
BRANCH   1   7
ATOM      7  C2  UNL d   1       1.580  -3.454  -0.805  0.00  0.00     0.056 C 
BRANCH   7   8
ATOM      8  C1  UNL d   1       1.806  -2.589  -2.049  0.00  0.00     0.007 C 
ATOM      9  C   UNL d   1       2.524  -3.327  -3.171  0.00  0.00     0.009 C 
ENDBRANCH   7   8
ENDBRANCH   1   7
TORSDOF 2
ENDMDL
