MODEL 1
REMARK minimizedAffinity 13.7620659
REMARK minimizedRMSD -1
REMARK  2 active torsions:
REMARK  status: ('A' for Active; 'I' for Inactive)
REMARK    1  A    between atoms: C1_2  and  C2_3 
REMARK    2  A    between atoms: C2_3  and  C3_4 
ROOT
ATOM      1  C3  UNL d   1       3.977   3.638   3.925  0.00  0.00    -0.075 A 
ATOM      2  C4  UNL d   1       3.305   3.408   5.135  0.00  0.00     0.002 A 
ATOM      3  C5  UNL d   1       3.022   4.465   6.000  0.00  0.00     0.002 A 
ATOM      4  C6  UNL d   1       3.415   5.761   5.672  0.00  0.00    -0.004 A 
ATOM      5  C7  UNL d   1       4.097   5.999   4.481  0.00  0.00     0.002 A 
ATOM      6  C8  UNL d   1       4.378   4.944   3.612  0.00  0.00     0.002 A 
ENDROOT
BRANCH   1   7
ATOM      7  C2  UNL d   1       4.261   2.503   2.971  0.00  0.00     0.056 C 
BRANCH   7   8
ATOM      8  C1  UNL d   1       5.138   2.895   1.777  0.00  0.00     0.007 C 
ATOM      9  C   UNL d   1       4.426   2.757   0.438  0.00  0.00     0.009 C 
ENDBRANCH   7   8
ENDBRANCH   1   7
TORSDOF 2
ENDMDL
