MODEL 1
REMARK minimizedAffinity -5.38776779
REMARK minimizedRMSD -1
REMARK  1 active torsions:
REMARK  status: ('A' for Active; 'I' for Inactive)
REMARK    1  A    between atoms: C1_2  and  C2_3 
ROOT
ATOM      1  C2  UNL d   1       0.180  -0.424   0.365  0.00  0.00    -0.073 A 
ATOM      2  C3  UNL d   1      -0.186  -1.476   1.213  0.00  0.00    -0.002 A 
ATOM      3  C4  UNL d   1      -0.391  -2.757   0.699  0.00  0.00     0.004 A 
ATOM      4  C5  UNL d   1      -0.225  -3.001  -0.664  0.00  0.00    -0.004 A 
ATOM      5  C6  UNL d   1       0.152  -1.966  -1.526  0.00  0.00    -0.075 A 
ATOM      6  C7  UNL d   1       0.332  -2.212  -2.995  0.00  0.00     0.076 C 
ATOM      7  C8  UNL d   1       0.353  -0.682  -1.003  0.00  0.00     0.001 A 
ENDROOT
BRANCH   1   8
ATOM      8  C1  UNL d   1       0.409   0.959   0.916  0.00  0.00     0.053 C 
ATOM      9  C   UNL d   1       1.141   1.853  -0.073  0.00  0.00     0.018 C 
ENDBRANCH   1   8
TORSDOF 1
ENDMDL
