MODEL 1
REMARK minimizedAffinity -3.64378738
REMARK minimizedRMSD -1
REMARK  1 active torsions:
REMARK  status: ('A' for Active; 'I' for Inactive)
REMARK    1  A    between atoms: C1_2  and  C2_3 
ROOT
ATOM      1  C2  UNL d   1       0.195  -1.292   0.250  0.00  0.00    -0.073 A 
ATOM      2  C3  UNL d   1       0.087  -2.551   0.852  0.00  0.00    -0.002 A 
ATOM      3  C4  UNL d   1       0.005  -3.703   0.068  0.00  0.00     0.004 A 
ATOM      4  C5  UNL d   1       0.036  -3.609  -1.323  0.00  0.00    -0.004 A 
ATOM      5  C6  UNL d   1       0.155  -2.361  -1.943  0.00  0.00    -0.075 A 
ATOM      6  C7  UNL d   1       0.188  -2.243  -3.439  0.00  0.00     0.076 C 
ATOM      7  C8  UNL d   1       0.235  -1.209  -1.150  0.00  0.00     0.001 A 
ENDROOT
BRANCH   1   8
ATOM      8  C1  UNL d   1       0.290  -0.046   1.092  0.00  0.00     0.053 C 
ATOM      9  C   UNL d   1       0.672   1.172   0.266  0.00  0.00     0.018 C 
ENDBRANCH   1   8
TORSDOF 1
ENDMDL
