MODEL 1
REMARK minimizedAffinity -3.59147978
REMARK minimizedRMSD -1
REMARK  1 active torsions:
REMARK  status: ('A' for Active; 'I' for Inactive)
REMARK    1  A    between atoms: C1_2  and  C2_3 
ROOT
ATOM      1  C2  UNL d   1      -0.683  -1.087   0.178  0.00  0.00    -0.073 A 
ATOM      2  C3  UNL d   1      -0.250   0.194  -0.184  0.00  0.00    -0.002 A 
ATOM      3  C4  UNL d   1       0.018   0.496  -1.520  0.00  0.00     0.004 A 
ATOM      4  C5  UNL d   1      -0.151  -0.475  -2.506  0.00  0.00    -0.004 A 
ATOM      5  C6  UNL d   1      -0.594  -1.757  -2.166  0.00  0.00    -0.075 A 
ATOM      6  C7  UNL d   1      -0.778  -2.814  -3.215  0.00  0.00     0.076 C 
ATOM      7  C8  UNL d   1      -0.858  -2.054  -0.822  0.00  0.00     0.001 A 
ENDROOT
BRANCH   1   8
ATOM      8  C1  UNL d   1      -0.980  -1.416   1.618  0.00  0.00     0.053 C 
ATOM      9  C   UNL d   1       0.278  -1.779   2.391  0.00  0.00     0.018 C 
ENDBRANCH   1   8
TORSDOF 1
ENDMDL
