MODEL 1
REMARK minimizedAffinity -5.07851696
REMARK minimizedRMSD -1
REMARK  1 active torsions:
REMARK  status: ('A' for Active; 'I' for Inactive)
REMARK    1  A    between atoms: C1_2  and  C2_3 
ROOT
ATOM      1  C2  UNL d   1       0.644   0.989  -0.088  0.00  0.00    -0.073 A 
ATOM      2  C3  UNL d   1       1.190   0.299  -1.176  0.00  0.00    -0.002 A 
ATOM      3  C4  UNL d   1       0.980  -1.073  -1.318  0.00  0.00     0.004 A 
ATOM      4  C5  UNL d   1       0.217  -1.767  -0.379  0.00  0.00    -0.004 A 
ATOM      5  C6  UNL d   1      -0.347  -1.093   0.709  0.00  0.00    -0.075 A 
ATOM      6  C7  UNL d   1      -1.168  -1.826   1.729  0.00  0.00     0.076 C 
ATOM      7  C8  UNL d   1      -0.129   0.285   0.846  0.00  0.00     0.001 A 
ENDROOT
BRANCH   1   8
ATOM      8  C1  UNL d   1       0.863   2.472   0.066  0.00  0.00     0.053 C 
ATOM      9  C   UNL d   1       2.117   2.783   0.869  0.00  0.00     0.018 C 
ENDBRANCH   1   8
TORSDOF 1
ENDMDL
