MODEL 1
REMARK minimizedAffinity -4.14077425
REMARK minimizedRMSD -1
REMARK  1 active torsions:
REMARK  status: ('A' for Active; 'I' for Inactive)
REMARK    1  A    between atoms: C1_2  and  C2_3 
ROOT
ATOM      1  C2  UNL d   1       0.408   0.815  -0.099  0.00  0.00    -0.073 A 
ATOM      2  C3  UNL d   1       0.341   0.827  -1.497  0.00  0.00    -0.002 A 
ATOM      3  C4  UNL d   1       0.322  -0.370  -2.213  0.00  0.00     0.004 A 
ATOM      4  C5  UNL d   1       0.363  -1.591  -1.540  0.00  0.00    -0.004 A 
ATOM      5  C6  UNL d   1       0.418  -1.625  -0.143  0.00  0.00    -0.075 A 
ATOM      6  C7  UNL d   1       0.465  -2.930   0.596  0.00  0.00     0.076 C 
ATOM      7  C8  UNL d   1       0.439  -0.418   0.569  0.00  0.00     0.001 A 
ENDROOT
BRANCH   1   8
ATOM      8  C1  UNL d   1       0.422   2.105   0.678  0.00  0.00     0.053 C 
ATOM      9  C   UNL d   1       1.770   2.803   0.600  0.00  0.00     0.018 C 
ENDBRANCH   1   8
TORSDOF 1
ENDMDL
