MODEL 1
REMARK minimizedAffinity -5.04365492
REMARK minimizedRMSD -1
REMARK  1 active torsions:
REMARK  status: ('A' for Active; 'I' for Inactive)
REMARK    1  A    between atoms: C1_2  and  C2_3 
ROOT
ATOM      1  C2  UNL d   1       0.374   0.659   0.168  0.00  0.00    -0.073 A 
ATOM      2  C3  UNL d   1       0.322   0.510  -1.223  0.00  0.00    -0.002 A 
ATOM      3  C4  UNL d   1       0.255  -0.762  -1.794  0.00  0.00     0.004 A 
ATOM      4  C5  UNL d   1       0.232  -1.895  -0.981  0.00  0.00    -0.004 A 
ATOM      5  C6  UNL d   1       0.271  -1.767   0.411  0.00  0.00    -0.075 A 
ATOM      6  C7  UNL d   1       0.249  -2.977   1.298  0.00  0.00     0.076 C 
ATOM      7  C8  UNL d   1       0.341  -0.487   0.976  0.00  0.00     0.001 A 
ENDROOT
BRANCH   1   8
ATOM      8  C1  UNL d   1       0.440   2.030   0.789  0.00  0.00     0.053 C 
ATOM      9  C   UNL d   1       1.858   2.578   0.810  0.00  0.00     0.018 C 
ENDBRANCH   1   8
TORSDOF 1
ENDMDL
