MODEL 1
REMARK minimizedAffinity 0.507298827
REMARK minimizedRMSD -1
REMARK  1 active torsions:
REMARK  status: ('A' for Active; 'I' for Inactive)
REMARK    1  A    between atoms: C1_2  and  C2_3 
ROOT
ATOM      1  C2  UNL d   1       0.567   1.323   0.054  0.00  0.00    -0.073 A 
ATOM      2  C3  UNL d   1       0.099   0.592  -1.044  0.00  0.00    -0.002 A 
ATOM      3  C4  UNL d   1      -0.685  -0.547  -0.851  0.00  0.00     0.004 A 
ATOM      4  C5  UNL d   1      -1.014  -0.962   0.439  0.00  0.00    -0.004 A 
ATOM      5  C6  UNL d   1      -0.566  -0.238   1.549  0.00  0.00    -0.075 A 
ATOM      6  C7  UNL d   1      -0.909  -0.672   2.944  0.00  0.00     0.076 C 
ATOM      7  C8  UNL d   1       0.223   0.903   1.347  0.00  0.00     0.001 A 
ENDROOT
BRANCH   1   8
ATOM      8  C1  UNL d   1       1.408   2.556  -0.150  0.00  0.00     0.053 C 
ATOM      9  C   UNL d   1       0.691   3.817   0.308  0.00  0.00     0.018 C 
ENDBRANCH   1   8
TORSDOF 1
ENDMDL
