MODEL 1
REMARK minimizedAffinity -2.05103159
REMARK minimizedRMSD -1
REMARK  1 active torsions:
REMARK  status: ('A' for Active; 'I' for Inactive)
REMARK    1  A    between atoms: C1_2  and  C2_3 
ROOT
ATOM      1  C2  UNL d   1       0.695  -0.466   0.444  0.00  0.00    -0.073 A 
ATOM      2  C3  UNL d   1      -0.083   0.036  -0.606  0.00  0.00    -0.002 A 
ATOM      3  C4  UNL d   1      -0.006   1.384  -0.958  0.00  0.00     0.004 A 
ATOM      4  C5  UNL d   1       0.853   2.241  -0.271  0.00  0.00    -0.004 A 
ATOM      5  C6  UNL d   1       1.647   1.756   0.773  0.00  0.00    -0.075 A 
ATOM      6  C7  UNL d   1       2.574   2.666   1.524  0.00  0.00     0.076 C 
ATOM      7  C8  UNL d   1       1.562   0.402   1.123  0.00  0.00     0.001 A 
ENDROOT
BRANCH   1   8
ATOM      8  C1  UNL d   1       0.619  -1.922   0.824  0.00  0.00     0.053 C 
ATOM      9  C   UNL d   1      -0.813  -2.433   0.844  0.00  0.00     0.018 C 
ENDBRANCH   1   8
TORSDOF 1
ENDMDL
