MODEL 1
REMARK minimizedAffinity -4.06876278
REMARK minimizedRMSD -1
REMARK  1 active torsions:
REMARK  status: ('A' for Active; 'I' for Inactive)
REMARK    1  A    between atoms: C1_2  and  C2_3 
ROOT
ATOM      1  C2  UNL d   1      -0.022  -1.306   0.196  0.00  0.00    -0.073 A 
ATOM      2  C3  UNL d   1       0.270  -1.512  -1.157  0.00  0.00    -0.002 A 
ATOM      3  C4  UNL d   1       0.537  -0.427  -1.994  0.00  0.00     0.004 A 
ATOM      4  C5  UNL d   1       0.522   0.872  -1.485  0.00  0.00    -0.004 A 
ATOM      5  C6  UNL d   1       0.243   1.097  -0.133  0.00  0.00    -0.075 A 
ATOM      6  C7  UNL d   1       0.221   2.488   0.428  0.00  0.00     0.076 C 
ATOM      7  C8  UNL d   1      -0.026   0.003   0.700  0.00  0.00     0.001 A 
ENDROOT
BRANCH   1   8
ATOM      8  C1  UNL d   1      -0.305  -2.475   1.104  0.00  0.00     0.053 C 
ATOM      9  C   UNL d   1      -0.273  -3.798   0.357  0.00  0.00     0.018 C 
ENDBRANCH   1   8
TORSDOF 1
ENDMDL
