MODEL 1
REMARK minimizedAffinity -4.89133835
REMARK minimizedRMSD -1
REMARK  1 active torsions:
REMARK  status: ('A' for Active; 'I' for Inactive)
REMARK    1  A    between atoms: C1_2  and  C2_3 
ROOT
ATOM      1  C2  UNL d   1       0.496  -0.078   0.720  0.00  0.00    -0.073 A 
ATOM      2  C3  UNL d   1      -0.019   0.245  -0.540  0.00  0.00    -0.002 A 
ATOM      3  C4  UNL d   1       0.240   1.494  -1.108  0.00  0.00     0.004 A 
ATOM      4  C5  UNL d   1       1.021   2.427  -0.426  0.00  0.00    -0.004 A 
ATOM      5  C6  UNL d   1       1.555   2.117   0.829  0.00  0.00    -0.075 A 
ATOM      6  C7  UNL d   1       2.395   3.110   1.577  0.00  0.00     0.076 C 
ATOM      7  C8  UNL d   1       1.288   0.863   1.394  0.00  0.00     0.001 A 
ENDROOT
BRANCH   1   8
ATOM      8  C1  UNL d   1       0.224  -1.427   1.334  0.00  0.00     0.053 C 
ATOM      9  C   UNL d   1       0.293  -2.546   0.307  0.00  0.00     0.018 C 
ENDBRANCH   1   8
TORSDOF 1
ENDMDL
