MODEL 1
REMARK minimizedAffinity -1.3556031
REMARK minimizedRMSD -1
REMARK  1 active torsions:
REMARK  status: ('A' for Active; 'I' for Inactive)
REMARK    1  A    between atoms: C1_2  and  C2_3 
ROOT
ATOM      1  C2  UNL d   1      -0.022   0.048   0.179  0.00  0.00    -0.073 A 
ATOM      2  C3  UNL d   1      -0.491   0.124   1.496  0.00  0.00    -0.002 A 
ATOM      3  C4  UNL d   1      -0.830  -1.037   2.192  0.00  0.00     0.004 A 
ATOM      4  C5  UNL d   1      -0.697  -2.285   1.582  0.00  0.00    -0.004 A 
ATOM      5  C6  UNL d   1      -0.219  -2.382   0.272  0.00  0.00    -0.075 A 
ATOM      6  C7  UNL d   1      -0.072  -3.717  -0.399  0.00  0.00     0.076 C 
ATOM      7  C8  UNL d   1       0.117  -1.212  -0.422  0.00  0.00     0.001 A 
ENDROOT
BRANCH   1   8
ATOM      8  C1  UNL d   1       0.350   1.298  -0.574  0.00  0.00     0.053 C 
ATOM      9  C   UNL d   1       1.145   2.267   0.287  0.00  0.00     0.018 C 
ENDBRANCH   1   8
TORSDOF 1
ENDMDL
