MODEL 1
REMARK minimizedAffinity -4.35508871
REMARK minimizedRMSD -1
REMARK  0 active torsions:
REMARK  status: ('A' for Active; 'I' for Inactive)
ROOT
ATOM      1  O1  BZF d   1      -0.457   1.149  -0.135  0.00  0.00    -0.204 OA
ATOM      2  C2  BZF d   1      -1.244   0.197  -0.755  0.00  0.00     0.174 A 
ATOM      3  C3  BZF d   1      -0.549  -0.941  -0.957  0.00  0.00    -0.012 A 
ATOM      4  C3A BZF d   1       0.726  -0.716  -0.348  0.00  0.00    -0.107 A 
ATOM      5  C4  BZF d   1       1.846  -1.484  -0.204  0.00  0.00     0.055 A 
ATOM      6  C5  BZF d   1       2.948  -0.942   0.378  0.00  0.00    -0.016 A 
ATOM      7  C6  BZF d   1       2.966   0.364   0.823  0.00  0.00     0.022 A 
ATOM      8  C7  BZF d   1       1.878   1.163   0.707  0.00  0.00     0.029 A 
ATOM      9  C7A BZF d   1       0.752   0.608   0.149  0.00  0.00     0.058 A 
ENDROOT
TORSDOF 0
ENDMDL
