MODEL 1
REMARK minimizedAffinity 1.69481099
REMARK minimizedRMSD -1
REMARK  0 active torsions:
REMARK  status: ('A' for Active; 'I' for Inactive)
ROOT
ATOM      1  O1  BZF d   1       2.422  -0.973   1.070  0.00  0.00    -0.204 OA
ATOM      2  C2  BZF d   1       3.214   0.149   1.223  0.00  0.00     0.174 A 
ATOM      3  C3  BZF d   1       2.510   1.269   0.962  0.00  0.00    -0.012 A 
ATOM      4  C3A BZF d   1       1.172   0.825   0.715  0.00  0.00    -0.107 A 
ATOM      5  C4  BZF d   1       0.008   1.473   0.416  0.00  0.00     0.055 A 
ATOM      6  C5  BZF d   1      -1.109   0.741   0.163  0.00  0.00    -0.016 A 
ATOM      7  C6  BZF d   1      -1.096  -0.638   0.195  0.00  0.00     0.022 A 
ATOM      8  C7  BZF d   1       0.034  -1.325   0.493  0.00  0.00     0.029 A 
ATOM      9  C7A BZF d   1       1.156  -0.588   0.781  0.00  0.00     0.058 A 
ENDROOT
TORSDOF 0
ENDMDL
