MODEL 1
REMARK minimizedAffinity -4.09932041
REMARK minimizedRMSD -1
REMARK  0 active torsions:
REMARK  status: ('A' for Active; 'I' for Inactive)
ROOT
ATOM      1  O1  BZF d   1      -0.725  -0.639   0.002  0.00  0.00    -0.204 OA
ATOM      2  C2  BZF d   1      -1.141   0.647  -0.285  0.00  0.00     0.174 A 
ATOM      3  C3  BZF d   1      -0.122   1.520  -0.153  0.00  0.00    -0.012 A 
ATOM      4  C3A BZF d   1       1.024   0.718   0.150  0.00  0.00    -0.107 A 
ATOM      5  C4  BZF d   1       2.339   1.007   0.378  0.00  0.00     0.055 A 
ATOM      6  C5  BZF d   1       3.186   0.002   0.721  0.00  0.00    -0.016 A 
ATOM      7  C6  BZF d   1       2.753  -1.301   0.849  0.00  0.00     0.022 A 
ATOM      8  C7  BZF d   1       1.459  -1.638   0.628  0.00  0.00     0.029 A 
ATOM      9  C7A BZF d   1       0.606  -0.629   0.250  0.00  0.00     0.058 A 
ENDROOT
TORSDOF 0
ENDMDL
