MODEL 1
REMARK minimizedAffinity -3.55216646
REMARK minimizedRMSD -1
REMARK  0 active torsions:
REMARK  status: ('A' for Active; 'I' for Inactive)
ROOT
ATOM      1  O1  BZF d   1       2.279  -1.327   1.000  0.00  0.00    -0.204 OA
ATOM      2  C2  BZF d   1       3.207  -0.374   1.371  0.00  0.00     0.174 A 
ATOM      3  C3  BZF d   1       2.800   0.858   1.004  0.00  0.00    -0.012 A 
ATOM      4  C3A BZF d   1       1.496   0.673   0.446  0.00  0.00    -0.107 A 
ATOM      5  C4  BZF d   1       0.570   1.528  -0.081  0.00  0.00     0.055 A 
ATOM      6  C5  BZF d   1      -0.575   1.019  -0.608  0.00  0.00    -0.016 A 
ATOM      7  C6  BZF d   1      -0.824  -0.337  -0.628  0.00  0.00     0.022 A 
ATOM      8  C7  BZF d   1       0.062  -1.224  -0.112  0.00  0.00     0.029 A 
ATOM      9  C7A BZF d   1       1.205  -0.710   0.450  0.00  0.00     0.058 A 
ENDROOT
TORSDOF 0
ENDMDL
