MODEL 1
REMARK minimizedAffinity -4.65341187
REMARK minimizedRMSD -1
REMARK  0 active torsions:
REMARK  status: ('A' for Active; 'I' for Inactive)
ROOT
ATOM      1  O1  BZF d   1      -1.045  -1.066   0.486  0.00  0.00    -0.204 OA
ATOM      2  C2  BZF d   1      -1.126   0.131  -0.201  0.00  0.00     0.174 A 
ATOM      3  C3  BZF d   1      -0.011   0.866  -0.014  0.00  0.00    -0.012 A 
ATOM      4  C3A BZF d   1       0.858   0.040   0.768  0.00  0.00    -0.107 A 
ATOM      5  C4  BZF d   1       2.120   0.209   1.263  0.00  0.00     0.055 A 
ATOM      6  C5  BZF d   1       2.656  -0.761   2.049  0.00  0.00    -0.016 A 
ATOM      7  C6  BZF d   1       1.958  -1.908   2.365  0.00  0.00     0.022 A 
ATOM      8  C7  BZF d   1       0.705  -2.122   1.893  0.00  0.00     0.029 A 
ATOM      9  C7A BZF d   1       0.174  -1.159   1.071  0.00  0.00     0.058 A 
ENDROOT
TORSDOF 0
ENDMDL
