MODEL 1
REMARK minimizedAffinity -4.88009119
REMARK minimizedRMSD -1
REMARK  0 active torsions:
REMARK  status: ('A' for Active; 'I' for Inactive)
ROOT
ATOM      1  O1  BZF d   1       0.007  -1.358  -0.763  0.00  0.00    -0.204 OA
ATOM      2  C2  BZF d   1      -1.126  -0.575  -0.878  0.00  0.00     0.174 A 
ATOM      3  C3  BZF d   1      -1.003   0.554  -0.150  0.00  0.00    -0.012 A 
ATOM      4  C3A BZF d   1       0.324   0.514   0.385  0.00  0.00    -0.107 A 
ATOM      5  C4  BZF d   1       1.042   1.362   1.178  0.00  0.00     0.055 A 
ATOM      6  C5  BZF d   1       2.287   0.995   1.581  0.00  0.00    -0.016 A 
ATOM      7  C6  BZF d   1       2.841  -0.214   1.215  0.00  0.00     0.022 A 
ATOM      8  C7  BZF d   1       2.169  -1.086   0.425  0.00  0.00     0.029 A 
ATOM      9  C7A BZF d   1       0.924  -0.704  -0.011  0.00  0.00     0.058 A 
ENDROOT
TORSDOF 0
ENDMDL
