MODEL 1
REMARK minimizedAffinity -4.76490498
REMARK minimizedRMSD -1
REMARK  0 active torsions:
REMARK  status: ('A' for Active; 'I' for Inactive)
ROOT
ATOM      1  N1  IND d   1      -0.011  -0.182  -0.082  0.00  0.00    -0.196 N 
ATOM      2  C2  IND d   1       0.889  -0.645   0.836  0.00  0.00     0.054 A 
ATOM      3  C3  IND d   1       1.087   0.276   1.806  0.00  0.00    -0.031 A 
ATOM      4  C4  IND d   1      -0.038   2.567   2.140  0.00  0.00     0.051 A 
ATOM      5  C5  IND d   1      -0.901   3.441   1.541  0.00  0.00    -0.031 A 
ATOM      6  C6  IND d   1      -1.527   3.145   0.347  0.00  0.00     0.015 A 
ATOM      7  C7  IND d   1      -1.320   1.954  -0.289  0.00  0.00    -0.016 A 
ATOM      8  C8  IND d   1      -0.438   1.067   0.313  0.00  0.00    -0.047 A 
ATOM      9  C9  IND d   1       0.232   1.380   1.503  0.00  0.00    -0.096 A 
ATOM     10  HN1 IND d   1      -0.267  -0.600  -0.789  0.00  0.00     0.298 HD
ENDROOT
TORSDOF 0
ENDMDL
