MODEL 1
REMARK minimizedAffinity -3.0321691
REMARK minimizedRMSD -1
REMARK  0 active torsions:
REMARK  status: ('A' for Active; 'I' for Inactive)
ROOT
ATOM      1  N1  IND d   1       1.499   0.071   0.711  0.00  0.00    -0.196 N 
ATOM      2  C2  IND d   1       1.302  -0.599  -0.464  0.00  0.00     0.054 A 
ATOM      3  C3  IND d   1       0.092  -0.291  -0.984  0.00  0.00    -0.031 A 
ATOM      4  C4  IND d   1      -1.683   1.365  -0.127  0.00  0.00     0.051 A 
ATOM      5  C5  IND d   1      -1.970   2.186   0.927  0.00  0.00    -0.031 A 
ATOM      6  C6  IND d   1      -1.097   2.349   1.983  0.00  0.00     0.015 A 
ATOM      7  C7  IND d   1       0.107   1.704   2.019  0.00  0.00    -0.016 A 
ATOM      8  C8  IND d   1       0.399   0.864   0.953  0.00  0.00    -0.047 A 
ATOM      9  C9  IND d   1      -0.502   0.661  -0.100  0.00  0.00    -0.096 A 
ATOM     10  HN1 IND d   1       2.193   0.008   1.214  0.00  0.00     0.298 HD
ENDROOT
TORSDOF 0
ENDMDL
