MODEL 1
REMARK minimizedAffinity -4.55262804
REMARK minimizedRMSD -1
REMARK  0 active torsions:
REMARK  status: ('A' for Active; 'I' for Inactive)
ROOT
ATOM      1  N1  IND d   1      -0.329  -0.263  -0.791  0.00  0.00    -0.196 N 
ATOM      2  C2  IND d   1       0.182  -1.178   0.087  0.00  0.00     0.054 A 
ATOM      3  C3  IND d   1       0.319  -0.626   1.314  0.00  0.00    -0.031 A 
ATOM      4  C4  IND d   1      -0.327   1.729   2.130  0.00  0.00     0.051 A 
ATOM      5  C5  IND d   1      -0.796   2.932   1.683  0.00  0.00    -0.031 A 
ATOM      6  C6  IND d   1      -1.143   3.136   0.363  0.00  0.00     0.015 A 
ATOM      7  C7  IND d   1      -1.044   2.135  -0.561  0.00  0.00    -0.016 A 
ATOM      8  C8  IND d   1      -0.561   0.913  -0.113  0.00  0.00    -0.047 A 
ATOM      9  C9  IND d   1      -0.168   0.714   1.216  0.00  0.00    -0.096 A 
ATOM     10  HN1 IND d   1      -0.480  -0.400  -1.626  0.00  0.00     0.298 HD
ENDROOT
TORSDOF 0
ENDMDL
