MODEL 1
REMARK minimizedAffinity -6.40214014
REMARK minimizedRMSD -1
REMARK  0 active torsions:
REMARK  status: ('A' for Active; 'I' for Inactive)
ROOT
ATOM      1  N1  IND d   1       0.367  -0.378  -1.170  0.00  0.00    -0.196 N 
ATOM      2  C2  IND d   1       0.811  -1.090  -0.091  0.00  0.00     0.054 A 
ATOM      3  C3  IND d   1       0.604  -0.394   1.049  0.00  0.00    -0.031 A 
ATOM      4  C4  IND d   1      -0.540   1.887   1.388  0.00  0.00     0.051 A 
ATOM      5  C5  IND d   1      -1.077   2.936   0.697  0.00  0.00    -0.031 A 
ATOM      6  C6  IND d   1      -1.164   2.933  -0.681  0.00  0.00     0.015 A 
ATOM      7  C7  IND d   1      -0.726   1.871  -1.420  0.00  0.00    -0.016 A 
ATOM      8  C8  IND d   1      -0.174   0.807  -0.721  0.00  0.00    -0.047 A 
ATOM      9  C9  IND d   1      -0.044   0.823   0.674  0.00  0.00    -0.096 A 
ATOM     10  HN1 IND d   1       0.417  -0.627  -1.992  0.00  0.00     0.298 HD
ENDROOT
TORSDOF 0
ENDMDL
