MODEL 1
REMARK minimizedAffinity -4.1396718
REMARK minimizedRMSD -1
REMARK  0 active torsions:
REMARK  status: ('A' for Active; 'I' for Inactive)
ROOT
ATOM      1  N1  IND d   1       0.006  -0.452  -0.334  0.00  0.00    -0.196 N 
ATOM      2  C2  IND d   1       0.203  -0.942   0.927  0.00  0.00     0.054 A 
ATOM      3  C3  IND d   1       0.081   0.047   1.841  0.00  0.00    -0.031 A 
ATOM      4  C4  IND d   1      -0.539   2.522   1.499  0.00  0.00     0.051 A 
ATOM      5  C5  IND d   1      -0.776   3.448   0.523  0.00  0.00    -0.031 A 
ATOM      6  C6  IND d   1      -0.768   3.114  -0.816  0.00  0.00     0.015 A 
ATOM      7  C7  IND d   1      -0.532   1.834  -1.230  0.00  0.00    -0.016 A 
ATOM      8  C8  IND d   1      -0.283   0.892  -0.241  0.00  0.00    -0.047 A 
ATOM      9  C9  IND d   1      -0.248   1.234   1.117  0.00  0.00    -0.096 A 
ATOM     10  HN1 IND d   1       0.054  -0.906  -1.062  0.00  0.00     0.298 HD
ENDROOT
TORSDOF 0
ENDMDL
