MODEL 1
REMARK minimizedAffinity -5.73679972
REMARK minimizedRMSD -1
REMARK  0 active torsions:
REMARK  status: ('A' for Active; 'I' for Inactive)
ROOT
ATOM      1  N1  IND d   1       0.017   0.068  -0.901  0.00  0.00    -0.196 N 
ATOM      2  C2  IND d   1       0.619  -0.780  -0.013  0.00  0.00     0.054 A 
ATOM      3  C3  IND d   1       0.630  -0.235   1.224  0.00  0.00    -0.031 A 
ATOM      4  C4  IND d   1      -0.373   1.991   2.040  0.00  0.00     0.051 A 
ATOM      5  C5  IND d   1      -0.991   3.124   1.589  0.00  0.00    -0.031 A 
ATOM      6  C6  IND d   1      -1.313   3.298   0.259  0.00  0.00     0.015 A 
ATOM      7  C7  IND d   1      -1.039   2.337  -0.673  0.00  0.00    -0.016 A 
ATOM      8  C8  IND d   1      -0.405   1.188  -0.220  0.00  0.00    -0.047 A 
ATOM      9  C9  IND d   1      -0.038   1.024   1.122  0.00  0.00    -0.096 A 
ATOM     10  HN1 IND d   1      -0.082  -0.075  -1.743  0.00  0.00     0.298 HD
ENDROOT
TORSDOF 0
ENDMDL
