MODEL 1
REMARK minimizedAffinity -6.33532381
REMARK minimizedRMSD -1
REMARK  0 active torsions:
REMARK  status: ('A' for Active; 'I' for Inactive)
ROOT
ATOM      1  N1  IND d   1       0.058   0.043  -0.687  0.00  0.00    -0.196 N 
ATOM      2  C2  IND d   1       0.441  -0.787   0.330  0.00  0.00     0.054 A 
ATOM      3  C3  IND d   1       0.284  -0.171   1.523  0.00  0.00    -0.031 A 
ATOM      4  C4  IND d   1      -0.679   2.158   2.048  0.00  0.00     0.051 A 
ATOM      5  C5  IND d   1      -1.130   3.298   1.444  0.00  0.00    -0.031 A 
ATOM      6  C6  IND d   1      -1.212   3.413   0.072  0.00  0.00     0.015 A 
ATOM      7  C7  IND d   1      -0.855   2.383  -0.752  0.00  0.00    -0.016 A 
ATOM      8  C8  IND d   1      -0.390   1.226  -0.143  0.00  0.00    -0.047 A 
ATOM      9  C9  IND d   1      -0.265   1.119   1.248  0.00  0.00    -0.096 A 
ATOM     10  HN1 IND d   1       0.092  -0.144  -1.526  0.00  0.00     0.298 HD
ENDROOT
TORSDOF 0
ENDMDL
