MODEL 1
REMARK minimizedAffinity -4.64857292
REMARK minimizedRMSD -1
REMARK  0 active torsions:
REMARK  status: ('A' for Active; 'I' for Inactive)
ROOT
ATOM      1  N1  IND d   1       0.147  -0.100  -0.894  0.00  0.00    -0.196 N 
ATOM      2  C2  IND d   1       0.525  -0.856   0.181  0.00  0.00     0.054 A 
ATOM      3  C3  IND d   1       0.360  -0.159   1.327  0.00  0.00    -0.031 A 
ATOM      4  C4  IND d   1      -0.611   2.199   1.682  0.00  0.00     0.051 A 
ATOM      5  C5  IND d   1      -1.060   3.294   0.998  0.00  0.00    -0.031 A 
ATOM      6  C6  IND d   1      -1.133   3.312  -0.380  0.00  0.00     0.015 A 
ATOM      7  C7  IND d   1      -0.770   2.228  -1.127  0.00  0.00    -0.016 A 
ATOM      8  C8  IND d   1      -0.307   1.117  -0.436  0.00  0.00    -0.047 A 
ATOM      9  C9  IND d   1      -0.190   1.108   0.960  0.00  0.00    -0.096 A 
ATOM     10  HN1 IND d   1       0.186  -0.345  -1.717  0.00  0.00     0.298 HD
ENDROOT
TORSDOF 0
ENDMDL
