MODEL 1
REMARK minimizedAffinity -4.48804855
REMARK minimizedRMSD -1
REMARK  0 active torsions:
REMARK  status: ('A' for Active; 'I' for Inactive)
ROOT
ATOM      1  N1  IND d   1       0.205   1.379  -1.587  0.00  0.00    -0.196 N 
ATOM      2  C2  IND d   1      -0.038   2.640  -2.056  0.00  0.00     0.054 A 
ATOM      3  C3  IND d   1      -0.517   3.426  -1.065  0.00  0.00    -0.031 A 
ATOM      4  C4  IND d   1      -0.887   2.879   1.423  0.00  0.00     0.051 A 
ATOM      5  C5  IND d   1      -0.842   1.846   2.317  0.00  0.00    -0.031 A 
ATOM      6  C6  IND d   1      -0.436   0.580   1.948  0.00  0.00     0.015 A 
ATOM      7  C7  IND d   1      -0.046   0.301   0.669  0.00  0.00    -0.016 A 
ATOM      8  C8  IND d   1      -0.097   1.345  -0.243  0.00  0.00    -0.047 A 
ATOM      9  C9  IND d   1      -0.549   2.622   0.115  0.00  0.00    -0.096 A 
ATOM     10  HN1 IND d   1       0.496   0.718  -2.053  0.00  0.00     0.298 HD
ENDROOT
TORSDOF 0
ENDMDL
