MODEL 1
REMARK minimizedAffinity -5.66509628
REMARK minimizedRMSD -1
REMARK  0 active torsions:
REMARK  status: ('A' for Active; 'I' for Inactive)
ROOT
ATOM      1  N1  IND d   1       0.322   0.083  -0.877  0.00  0.00    -0.196 N 
ATOM      2  C2  IND d   1       0.646  -0.740   0.165  0.00  0.00     0.054 A 
ATOM      3  C3  IND d   1       0.458  -0.104   1.343  0.00  0.00    -0.031 A 
ATOM      4  C4  IND d   1      -0.471   2.254   1.798  0.00  0.00     0.051 A 
ATOM      5  C5  IND d   1      -0.871   3.395   1.162  0.00  0.00    -0.031 A 
ATOM      6  C6  IND d   1      -0.897   3.492  -0.214  0.00  0.00     0.015 A 
ATOM      7  C7  IND d   1      -0.533   2.442  -1.009  0.00  0.00    -0.016 A 
ATOM      8  C8  IND d   1      -0.119   1.284  -0.367  0.00  0.00    -0.047 A 
ATOM      9  C9  IND d   1      -0.050   1.194   1.030  0.00  0.00    -0.096 A 
ATOM     10  HN1 IND d   1       0.384  -0.116  -1.712  0.00  0.00     0.298 HD
ENDROOT
TORSDOF 0
ENDMDL
