MODEL 1
REMARK minimizedAffinity -2.36669111
REMARK minimizedRMSD -1
REMARK  0 active torsions:
REMARK  status: ('A' for Active; 'I' for Inactive)
ROOT
ATOM      1  C   UNL d   1       0.397  -1.095   1.527  0.00  0.00     0.023 A 
ATOM      2  C1  UNL d   1      -0.728  -0.281   1.661  0.00  0.00     0.003 A 
ATOM      3  C2  UNL d   1      -1.129   0.537   0.602  0.00  0.00     0.048 A 
ATOM      4  C3  UNL d   1      -0.401   0.535  -0.587  0.00  0.00     0.023 A 
ATOM      5  C4  UNL d   1       0.725  -0.279  -0.726  0.00  0.00     0.048 A 
ATOM      6  C5  UNL d   1       1.122  -1.094   0.336  0.00  0.00     0.003 A 
ATOM      7  I   UNL d   1      -0.995   1.752  -2.164  0.00  0.00    -0.146 I 
ENDROOT
TORSDOF 0
ENDMDL
