MODEL 1
REMARK minimizedAffinity -2.16441584
REMARK minimizedRMSD -1
REMARK  0 active torsions:
REMARK  status: ('A' for Active; 'I' for Inactive)
ROOT
ATOM      1  C   UNL d   1      -0.285  -0.444  -1.727  0.00  0.00     0.023 A 
ATOM      2  C1  UNL d   1      -1.116   0.063  -0.728  0.00  0.00     0.003 A 
ATOM      3  C2  UNL d   1      -0.674   0.101   0.596  0.00  0.00     0.048 A 
ATOM      4  C3  UNL d   1       0.601  -0.367   0.914  0.00  0.00     0.023 A 
ATOM      5  C4  UNL d   1       1.436  -0.874  -0.083  0.00  0.00     0.048 A 
ATOM      6  C5  UNL d   1       0.989  -0.912  -1.406  0.00  0.00     0.003 A 
ATOM      7  I   UNL d   1       1.261  -0.311   2.883  0.00  0.00    -0.146 I 
ENDROOT
TORSDOF 0
ENDMDL
