MODEL 1
REMARK minimizedAffinity -4.03804016
REMARK minimizedRMSD -1
REMARK  0 active torsions:
REMARK  status: ('A' for Active; 'I' for Inactive)
ROOT
ATOM      1  C   UNL d   1       1.822  -1.918   1.993  0.00  0.00     0.023 A 
ATOM      2  C1  UNL d   1       0.648  -1.291   2.411  0.00  0.00     0.003 A 
ATOM      3  C2  UNL d   1      -0.120  -0.565   1.498  0.00  0.00     0.048 A 
ATOM      4  C3  UNL d   1       0.291  -0.472   0.169  0.00  0.00     0.023 A 
ATOM      5  C4  UNL d   1       1.465  -1.099  -0.254  0.00  0.00     0.048 A 
ATOM      6  C5  UNL d   1       2.230  -1.823   0.663  0.00  0.00     0.003 A 
ATOM      7  I   UNL d   1      -0.851   0.607  -1.192  0.00  0.00    -0.146 I 
ENDROOT
TORSDOF 0
ENDMDL
