MODEL 1
REMARK minimizedAffinity -3.11182761
REMARK minimizedRMSD -1
REMARK  0 active torsions:
REMARK  status: ('A' for Active; 'I' for Inactive)
ROOT
ATOM      1  C   UNL d   1       0.438  -0.193  -1.477  0.00  0.00     0.023 A 
ATOM      2  C1  UNL d   1       1.395  -1.113  -1.048  0.00  0.00     0.003 A 
ATOM      3  C2  UNL d   1       1.494  -1.440   0.306  0.00  0.00     0.048 A 
ATOM      4  C3  UNL d   1       0.632  -0.844   1.225  0.00  0.00     0.023 A 
ATOM      5  C4  UNL d   1      -0.328   0.076   0.801  0.00  0.00     0.048 A 
ATOM      6  C5  UNL d   1      -0.423   0.400  -0.554  0.00  0.00     0.003 A 
ATOM      7  I   UNL d   1       0.778  -1.329   3.241  0.00  0.00    -0.146 I 
ENDROOT
TORSDOF 0
ENDMDL
