MODEL 1
REMARK minimizedAffinity -2.51837492
REMARK minimizedRMSD -1
REMARK  0 active torsions:
REMARK  status: ('A' for Active; 'I' for Inactive)
ROOT
ATOM      1  C   UNL d   1       0.093  -0.922   1.276  0.00  0.00     0.023 A 
ATOM      2  C1  UNL d   1       1.137  -0.577   0.417  0.00  0.00     0.003 A 
ATOM      3  C2  UNL d   1       0.903   0.285  -0.657  0.00  0.00     0.048 A 
ATOM      4  C3  UNL d   1      -0.376   0.798  -0.866  0.00  0.00     0.023 A 
ATOM      5  C4  UNL d   1      -1.423   0.456  -0.009  0.00  0.00     0.048 A 
ATOM      6  C5  UNL d   1      -1.185  -0.406   1.063  0.00  0.00     0.003 A 
ATOM      7  I   UNL d   1      -0.726   2.080  -2.464  0.00  0.00    -0.146 I 
ENDROOT
TORSDOF 0
ENDMDL
