MODEL 1
REMARK minimizedAffinity 15.5560989
REMARK minimizedRMSD -1
REMARK  2 active torsions:
REMARK  status: ('A' for Active; 'I' for Inactive)
REMARK    1  A    between atoms: C1_2  and  C2_3 
REMARK    2  A    between atoms: C2_3  and  C3_4 
ROOT
ATOM      1  C3  UNL d   1       0.763   2.331   0.738  0.00  0.00    -0.075 A 
ATOM      2  C4  UNL d   1       1.198   3.111  -0.343  0.00  0.00     0.002 A 
ATOM      3  C5  UNL d   1       0.279   3.805  -1.131  0.00  0.00     0.002 A 
ATOM      4  C6  UNL d   1      -1.084   3.720  -0.856  0.00  0.00    -0.004 A 
ATOM      5  C7  UNL d   1      -1.529   2.935   0.206  0.00  0.00     0.002 A 
ATOM      6  C8  UNL d   1      -0.611   2.243   0.999  0.00  0.00     0.002 A 
ENDROOT
BRANCH   1   7
ATOM      7  C2  UNL d   1       1.754   1.602   1.613  0.00  0.00     0.056 C 
BRANCH   7   8
ATOM      8  C1  UNL d   1       1.825   2.130   3.050  0.00  0.00     0.007 C 
ATOM      9  C   UNL d   1       3.104   2.903   3.343  0.00  0.00     0.009 C 
ENDBRANCH   7   8
ENDBRANCH   1   7
TORSDOF 2
ENDMDL
