MODEL 1
REMARK minimizedAffinity 5.64203978
REMARK minimizedRMSD -1
REMARK  2 active torsions:
REMARK  status: ('A' for Active; 'I' for Inactive)
REMARK    1  A    between atoms: C1_2  and  C2_3 
REMARK    2  A    between atoms: C2_3  and  C3_4 
ROOT
ATOM      1  C3  UNL d   1      -2.955  -4.947  -4.857  0.00  0.00    -0.075 A 
ATOM      2  C4  UNL d   1      -3.899  -5.985  -4.832  0.00  0.00     0.002 A 
ATOM      3  C5  UNL d   1      -5.162  -5.807  -5.398  0.00  0.00     0.002 A 
ATOM      4  C6  UNL d   1      -5.501  -4.590  -5.984  0.00  0.00    -0.004 A 
ATOM      5  C7  UNL d   1      -4.577  -3.547  -6.000  0.00  0.00     0.002 A 
ATOM      6  C8  UNL d   1      -3.311  -3.723  -5.439  0.00  0.00     0.002 A 
ENDROOT
BRANCH   1   7
ATOM      7  C2  UNL d   1      -1.576  -5.143  -4.274  0.00  0.00     0.056 C 
BRANCH   7   8
ATOM      8  C1  UNL d   1      -1.264  -4.221  -3.090  0.00  0.00     0.007 C 
ATOM      9  C   UNL d   1      -0.142  -4.744  -2.202  0.00  0.00     0.009 C 
ENDBRANCH   7   8
ENDBRANCH   1   7
TORSDOF 2
ENDMDL
