MODEL 1
REMARK minimizedAffinity 13.0047283
REMARK minimizedRMSD -1
REMARK  2 active torsions:
REMARK  status: ('A' for Active; 'I' for Inactive)
REMARK    1  A    between atoms: C1_2  and  C2_3 
REMARK    2  A    between atoms: C2_3  and  C3_4 
ROOT
ATOM      1  C3  UNL d   1      -1.285   3.136   0.949  0.00  0.00    -0.075 A 
ATOM      2  C4  UNL d   1      -1.675   4.450   0.650  0.00  0.00     0.002 A 
ATOM      3  C5  UNL d   1      -2.517   5.153   1.513  0.00  0.00     0.002 A 
ATOM      4  C6  UNL d   1      -2.986   4.550   2.678  0.00  0.00    -0.004 A 
ATOM      5  C7  UNL d   1      -2.617   3.240   2.977  0.00  0.00     0.002 A 
ATOM      6  C8  UNL d   1      -1.772   2.536   2.118  0.00  0.00     0.002 A 
ENDROOT
BRANCH   1   7
ATOM      7  C2  UNL d   1      -0.351   2.381   0.035  0.00  0.00     0.056 C 
BRANCH   7   8
ATOM      8  C1  UNL d   1      -0.259   2.961  -1.380  0.00  0.00     0.007 C 
ATOM      9  C   UNL d   1       0.784   4.063  -1.511  0.00  0.00     0.009 C 
ENDBRANCH   7   8
ENDBRANCH   1   7
TORSDOF 2
ENDMDL
