MODEL 1
REMARK minimizedAffinity 5.45558596
REMARK minimizedRMSD -1
REMARK  2 active torsions:
REMARK  status: ('A' for Active; 'I' for Inactive)
REMARK    1  A    between atoms: C1_2  and  C2_3 
REMARK    2  A    between atoms: C2_3  and  C3_4 
ROOT
ATOM      1  C3  UNL d   1       0.498   1.751   2.063  0.00  0.00    -0.075 A 
ATOM      2  C4  UNL d   1      -0.743   2.362   1.831  0.00  0.00     0.002 A 
ATOM      3  C5  UNL d   1      -1.104   2.767   0.546  0.00  0.00     0.002 A 
ATOM      4  C6  UNL d   1      -0.227   2.577  -0.520  0.00  0.00    -0.004 A 
ATOM      5  C7  UNL d   1       1.015   1.986  -0.298  0.00  0.00     0.002 A 
ATOM      6  C8  UNL d   1       1.377   1.576   0.986  0.00  0.00     0.002 A 
ENDROOT
BRANCH   1   7
ATOM      7  C2  UNL d   1       0.882   1.283   3.446  0.00  0.00     0.056 C 
BRANCH   7   8
ATOM      8  C1  UNL d   1      -0.070   0.239   4.039  0.00  0.00     0.007 C 
ATOM      9  C   UNL d   1       0.653  -0.948   4.662  0.00  0.00     0.009 C 
ENDBRANCH   7   8
ENDBRANCH   1   7
TORSDOF 2
ENDMDL
