MODEL 1
REMARK minimizedAffinity 3.44464254
REMARK minimizedRMSD -1
REMARK  2 active torsions:
REMARK  status: ('A' for Active; 'I' for Inactive)
REMARK    1  A    between atoms: C1_2  and  C2_3 
REMARK    2  A    between atoms: C2_3  and  C3_4 
ROOT
ATOM      1  C3  UNL d   1      -1.449   2.562  -2.128  0.00  0.00    -0.075 A 
ATOM      2  C4  UNL d   1      -0.206   3.208  -2.060  0.00  0.00     0.002 A 
ATOM      3  C5  UNL d   1       0.834   2.666  -1.304  0.00  0.00     0.002 A 
ATOM      4  C6  UNL d   1       0.642   1.479  -0.600  0.00  0.00    -0.004 A 
ATOM      5  C7  UNL d   1      -0.594   0.838  -0.647  0.00  0.00     0.002 A 
ATOM      6  C8  UNL d   1      -1.635   1.376  -1.406  0.00  0.00     0.002 A 
ENDROOT
BRANCH   1   7
ATOM      7  C2  UNL d   1      -2.569   3.128  -2.968  0.00  0.00     0.056 C 
BRANCH   7   8
ATOM      8  C1  UNL d   1      -2.103   4.111  -4.048  0.00  0.00     0.007 C 
ATOM      9  C   UNL d   1      -2.872   3.976  -5.355  0.00  0.00     0.009 C 
ENDBRANCH   7   8
ENDBRANCH   1   7
TORSDOF 2
ENDMDL
