MODEL 1
REMARK minimizedAffinity 9.7112236
REMARK minimizedRMSD -1
REMARK  2 active torsions:
REMARK  status: ('A' for Active; 'I' for Inactive)
REMARK    1  A    between atoms: C1_2  and  C2_3 
REMARK    2  A    between atoms: C2_3  and  C3_4 
ROOT
ATOM      1  C3  UNL d   1      -2.010   2.255  -0.263  0.00  0.00    -0.075 A 
ATOM      2  C4  UNL d   1      -2.900   3.102  -0.939  0.00  0.00     0.002 A 
ATOM      3  C5  UNL d   1      -4.012   2.579  -1.599  0.00  0.00     0.002 A 
ATOM      4  C6  UNL d   1      -4.243   1.205  -1.601  0.00  0.00    -0.004 A 
ATOM      5  C7  UNL d   1      -3.356   0.353  -0.946  0.00  0.00     0.002 A 
ATOM      6  C8  UNL d   1      -2.245   0.874  -0.281  0.00  0.00     0.002 A 
ENDROOT
BRANCH   1   7
ATOM      7  C2  UNL d   1      -0.821   2.818   0.479  0.00  0.00     0.056 C 
BRANCH   7   8
ATOM      8  C1  UNL d   1       0.532   2.345  -0.062  0.00  0.00     0.007 C 
ATOM      9  C   UNL d   1       1.104   3.261  -1.136  0.00  0.00     0.009 C 
ENDBRANCH   7   8
ENDBRANCH   1   7
TORSDOF 2
ENDMDL
