MODEL 1
REMARK minimizedAffinity 4.32377434
REMARK minimizedRMSD -1
REMARK  2 active torsions:
REMARK  status: ('A' for Active; 'I' for Inactive)
REMARK    1  A    between atoms: C1_2  and  C2_3 
REMARK    2  A    between atoms: C2_3  and  C3_4 
ROOT
ATOM      1  C3  UNL d   1      -0.149   2.833   0.232  0.00  0.00    -0.075 A 
ATOM      2  C4  UNL d   1       0.575   2.306   1.311  0.00  0.00     0.002 A 
ATOM      3  C5  UNL d   1      -0.025   2.156   2.561  0.00  0.00     0.002 A 
ATOM      4  C6  UNL d   1      -1.352   2.538   2.751  0.00  0.00    -0.004 A 
ATOM      5  C7  UNL d   1      -2.076   3.077   1.690  0.00  0.00     0.002 A 
ATOM      6  C8  UNL d   1      -1.479   3.225   0.437  0.00  0.00     0.002 A 
ENDROOT
BRANCH   1   7
ATOM      7  C2  UNL d   1       0.486   2.971  -1.131  0.00  0.00     0.056 C 
BRANCH   7   8
ATOM      8  C1  UNL d   1       1.439   4.164  -1.257  0.00  0.00     0.007 C 
ATOM      9  C   UNL d   1       2.266   4.406  -0.001  0.00  0.00     0.009 C 
ENDBRANCH   7   8
ENDBRANCH   1   7
TORSDOF 2
ENDMDL
