MODEL 1
REMARK minimizedAffinity 11.5083303
REMARK minimizedRMSD -1
REMARK  2 active torsions:
REMARK  status: ('A' for Active; 'I' for Inactive)
REMARK    1  A    between atoms: C1_2  and  C2_3 
REMARK    2  A    between atoms: C2_3  and  C3_4 
ROOT
ATOM      1  C3  UNL d   1       2.385  -5.124  -2.145  0.00  0.00    -0.075 A 
ATOM      2  C4  UNL d   1       1.924  -4.638  -3.377  0.00  0.00     0.002 A 
ATOM      3  C5  UNL d   1       0.735  -3.912  -3.452  0.00  0.00     0.002 A 
ATOM      4  C6  UNL d   1      -0.012  -3.673  -2.301  0.00  0.00    -0.004 A 
ATOM      5  C7  UNL d   1       0.428  -4.165  -1.074  0.00  0.00     0.002 A 
ATOM      6  C8  UNL d   1       1.620  -4.887  -0.995  0.00  0.00     0.002 A 
ENDROOT
BRANCH   1   7
ATOM      7  C2  UNL d   1       3.687  -5.884  -2.052  0.00  0.00     0.056 C 
BRANCH   7   8
ATOM      8  C1  UNL d   1       4.527  -5.840  -3.332  0.00  0.00     0.007 C 
ATOM      9  C   UNL d   1       5.904  -5.222  -3.125  0.00  0.00     0.009 C 
ENDBRANCH   7   8
ENDBRANCH   1   7
TORSDOF 2
ENDMDL
