MODEL 1
REMARK minimizedAffinity 3.4296248
REMARK minimizedRMSD -1
REMARK  0 active torsions:
REMARK  status: ('A' for Active; 'I' for Inactive)
ROOT
ATOM      1  C   UNL d   1       2.248   3.303  -1.555  0.00  0.00     0.172 C 
ATOM      2  N   UNL d   1       1.667   1.984  -1.470  0.00  0.00    -0.070 N 
ATOM      3  C1  UNL d   1       1.839   1.100  -0.438  0.00  0.00    -0.004 A 
ATOM      4  C2  UNL d   1       1.124  -0.040  -0.734  0.00  0.00    -0.047 A 
ATOM      5  C3  UNL d   1       0.500   0.165  -1.987  0.00  0.00    -0.047 A 
ATOM      6  C4  UNL d   1       0.853   1.426  -2.421  0.00  0.00    -0.004 A 
ENDROOT
TORSDOF 0
ENDMDL
