MODEL 1
REMARK minimizedAffinity -2.07980299
REMARK minimizedRMSD -1
REMARK  0 active torsions:
REMARK  status: ('A' for Active; 'I' for Inactive)
ROOT
ATOM      1  C   UNL d   1       1.913   3.844  -1.350  0.00  0.00     0.172 C 
ATOM      2  N   UNL d   1       1.539   2.483  -1.046  0.00  0.00    -0.070 N 
ATOM      3  C1  UNL d   1       1.463   1.937   0.208  0.00  0.00    -0.004 A 
ATOM      4  C2  UNL d   1       1.073   0.622   0.073  0.00  0.00    -0.047 A 
ATOM      5  C3  UNL d   1       0.910   0.368  -1.310  0.00  0.00    -0.047 A 
ATOM      6  C4  UNL d   1       1.206   1.537  -1.979  0.00  0.00    -0.004 A 
ENDROOT
TORSDOF 0
ENDMDL
