MODEL 1
REMARK minimizedAffinity 1.12791467
REMARK minimizedRMSD -1
REMARK  0 active torsions:
REMARK  status: ('A' for Active; 'I' for Inactive)
ROOT
ATOM      1  C   UNL d   1       1.551   1.517   2.113  0.00  0.00     0.172 C 
ATOM      2  N   UNL d   1       1.282   0.966   0.806  0.00  0.00    -0.070 N 
ATOM      3  C1  UNL d   1       0.615   1.602  -0.207  0.00  0.00    -0.004 A 
ATOM      4  C2  UNL d   1       0.566   0.743  -1.284  0.00  0.00    -0.047 A 
ATOM      5  C3  UNL d   1       1.226  -0.450  -0.905  0.00  0.00    -0.047 A 
ATOM      6  C4  UNL d   1       1.659  -0.285   0.393  0.00  0.00    -0.004 A 
ENDROOT
TORSDOF 0
ENDMDL
