MODEL 1
REMARK minimizedAffinity 4.68599224
REMARK minimizedRMSD -1
REMARK  0 active torsions:
REMARK  status: ('A' for Active; 'I' for Inactive)
ROOT
ATOM      1  C   UNL d   1       1.868   4.565  -1.231  0.00  0.00     0.172 C 
ATOM      2  N   UNL d   1       1.578   3.166  -1.435  0.00  0.00    -0.070 N 
ATOM      3  C1  UNL d   1       2.016   2.136  -0.646  0.00  0.00    -0.004 A 
ATOM      4  C2  UNL d   1       1.525   0.961  -1.174  0.00  0.00    -0.047 A 
ATOM      5  C3  UNL d   1       0.767   1.297  -2.320  0.00  0.00    -0.047 A 
ATOM      6  C4  UNL d   1       0.817   2.668  -2.459  0.00  0.00    -0.004 A 
ENDROOT
TORSDOF 0
ENDMDL
