MODEL 1
REMARK minimizedAffinity -0.869164765
REMARK minimizedRMSD -1
REMARK  0 active torsions:
REMARK  status: ('A' for Active; 'I' for Inactive)
ROOT
ATOM      1  C   UNL d   1       1.300  -0.057  -1.093  0.00  0.00     0.172 C 
ATOM      2  N   UNL d   1       0.938  -1.455  -1.125  0.00  0.00    -0.070 N 
ATOM      3  C1  UNL d   1       1.756  -2.499  -0.784  0.00  0.00    -0.004 A 
ATOM      4  C2  UNL d   1       1.041  -3.666  -0.949  0.00  0.00    -0.047 A 
ATOM      5  C3  UNL d   1      -0.250  -3.311  -1.406  0.00  0.00    -0.047 A 
ATOM      6  C4  UNL d   1      -0.286  -1.936  -1.507  0.00  0.00    -0.004 A 
ENDROOT
TORSDOF 0
ENDMDL
