MODEL 1
REMARK minimizedAffinity -0.581316292
REMARK minimizedRMSD -1
REMARK  0 active torsions:
REMARK  status: ('A' for Active; 'I' for Inactive)
ROOT
ATOM      1  C   UNL d   1       1.309   2.392  -2.279  0.00  0.00     0.172 C 
ATOM      2  N   UNL d   1       1.246   1.428  -1.206  0.00  0.00    -0.070 N 
ATOM      3  C1  UNL d   1       1.197   1.722   0.130  0.00  0.00    -0.004 A 
ATOM      4  C2  UNL d   1       1.144   0.532   0.823  0.00  0.00    -0.047 A 
ATOM      5  C3  UNL d   1       1.164  -0.514  -0.129  0.00  0.00    -0.047 A 
ATOM      6  C4  UNL d   1       1.227   0.069  -1.378  0.00  0.00    -0.004 A 
ENDROOT
TORSDOF 0
ENDMDL
