MODEL 1
REMARK minimizedAffinity 5.21379566
REMARK minimizedRMSD -1
REMARK  0 active torsions:
REMARK  status: ('A' for Active; 'I' for Inactive)
ROOT
ATOM      1  C   UNL d   1       2.092   1.527   1.548  0.00  0.00     0.172 C 
ATOM      2  N   UNL d   1       1.539   0.800   0.429  0.00  0.00    -0.070 N 
ATOM      3  C1  UNL d   1       1.501  -0.563   0.303  0.00  0.00    -0.004 A 
ATOM      4  C2  UNL d   1       0.896  -0.859  -0.899  0.00  0.00    -0.047 A 
ATOM      5  C3  UNL d   1       0.559   0.369  -1.517  0.00  0.00    -0.047 A 
ATOM      6  C4  UNL d   1       0.968   1.379  -0.673  0.00  0.00    -0.004 A 
ENDROOT
TORSDOF 0
ENDMDL
