MODEL 1
REMARK minimizedAffinity -1.09883475
REMARK minimizedRMSD -1
REMARK  0 active torsions:
REMARK  status: ('A' for Active; 'I' for Inactive)
ROOT
ATOM      1  C   UNL d   1       1.671   2.740  -2.314  0.00  0.00     0.172 C 
ATOM      2  N   UNL d   1       1.362   1.922  -1.165  0.00  0.00    -0.070 N 
ATOM      3  C1  UNL d   1       1.238   0.558  -1.166  0.00  0.00    -0.004 A 
ATOM      4  C2  UNL d   1       0.940   0.161   0.120  0.00  0.00    -0.047 A 
ATOM      5  C3  UNL d   1       0.883   1.326   0.921  0.00  0.00    -0.047 A 
ATOM      6  C4  UNL d   1       1.148   2.402   0.100  0.00  0.00    -0.004 A 
ENDROOT
TORSDOF 0
ENDMDL
