MODEL 1
REMARK minimizedAffinity 3.87545705
REMARK minimizedRMSD -1
REMARK  0 active torsions:
REMARK  status: ('A' for Active; 'I' for Inactive)
ROOT
ATOM      1  C   UNL d   1       1.602   5.241  -1.151  0.00  0.00     0.172 C 
ATOM      2  N   UNL d   1       1.440   3.828  -0.900  0.00  0.00    -0.070 N 
ATOM      3  C1  UNL d   1       1.198   3.256   0.320  0.00  0.00    -0.004 A 
ATOM      4  C2  UNL d   1       1.109   1.893   0.138  0.00  0.00    -0.047 A 
ATOM      5  C3  UNL d   1       1.305   1.636  -1.240  0.00  0.00    -0.047 A 
ATOM      6  C4  UNL d   1       1.507   2.852  -1.859  0.00  0.00    -0.004 A 
ENDROOT
TORSDOF 0
ENDMDL
