MODEL 1
REMARK minimizedAffinity -4.27621841
REMARK minimizedRMSD -1
REMARK  0 active torsions:
REMARK  status: ('A' for Active; 'I' for Inactive)
ROOT
ATOM      1  C   UNL d   1       1.256   3.975  -0.489  0.00  0.00     0.172 C 
ATOM      2  N   UNL d   1       0.999   2.554  -0.442  0.00  0.00    -0.070 N 
ATOM      3  C1  UNL d   1       0.742   1.826   0.688  0.00  0.00    -0.004 A 
ATOM      4  C2  UNL d   1       0.551   0.515   0.311  0.00  0.00    -0.047 A 
ATOM      5  C3  UNL d   1       0.699   0.452  -1.095  0.00  0.00    -0.047 A 
ATOM      6  C4  UNL d   1       0.976   1.729  -1.536  0.00  0.00    -0.004 A 
ENDROOT
TORSDOF 0
ENDMDL
