MODEL 1
REMARK minimizedAffinity 1.39875555
REMARK minimizedRMSD -1
REMARK  0 active torsions:
REMARK  status: ('A' for Active; 'I' for Inactive)
ROOT
ATOM      1  C   UNL d   1       1.862   5.348  -1.211  0.00  0.00     0.172 C 
ATOM      2  N   UNL d   1       1.616   3.925  -1.186  0.00  0.00    -0.070 N 
ATOM      3  C1  UNL d   1       1.473   3.120  -2.284  0.00  0.00    -0.004 A 
ATOM      4  C2  UNL d   1       1.251   1.835  -1.839  0.00  0.00    -0.047 A 
ATOM      5  C3  UNL d   1       1.260   1.868  -0.424  0.00  0.00    -0.047 A 
ATOM      6  C4  UNL d   1       1.488   3.175  -0.046  0.00  0.00    -0.004 A 
ENDROOT
TORSDOF 0
ENDMDL
