MODEL 1
REMARK minimizedAffinity -1.57733595
REMARK minimizedRMSD -1
REMARK  0 active torsions:
REMARK  status: ('A' for Active; 'I' for Inactive)
ROOT
ATOM      1  C   UNL d   1       1.862   4.025  -1.409  0.00  0.00     0.172 C 
ATOM      2  N   UNL d   1       1.503   2.647  -1.166  0.00  0.00    -0.070 N 
ATOM      3  C1  UNL d   1       1.703   1.965   0.005  0.00  0.00    -0.004 A 
ATOM      4  C2  UNL d   1       1.226   0.684  -0.167  0.00  0.00    -0.047 A 
ATOM      5  C3  UNL d   1       0.724   0.592  -1.486  0.00  0.00    -0.047 A 
ATOM      6  C4  UNL d   1       0.908   1.821  -2.082  0.00  0.00    -0.004 A 
ENDROOT
TORSDOF 0
ENDMDL
