MODEL 1
REMARK minimizedAffinity 2.24013424
REMARK minimizedRMSD -1
REMARK  0 active torsions:
REMARK  status: ('A' for Active; 'I' for Inactive)
ROOT
ATOM      1  C   UNL d   1       0.993   2.925  -1.637  0.00  0.00     0.172 C 
ATOM      2  N   UNL d   1       1.743   2.108  -0.711  0.00  0.00    -0.070 N 
ATOM      3  C1  UNL d   1       2.444   0.977  -1.032  0.00  0.00    -0.004 A 
ATOM      4  C2  UNL d   1       3.017   0.493   0.124  0.00  0.00    -0.047 A 
ATOM      5  C3  UNL d   1       2.646   1.363   1.177  0.00  0.00    -0.047 A 
ATOM      6  C4  UNL d   1       1.858   2.355   0.631  0.00  0.00    -0.004 A 
ENDROOT
TORSDOF 0
ENDMDL
