MODEL 1
REMARK minimizedAffinity -1.96352983
REMARK minimizedRMSD -1
REMARK  0 active torsions:
REMARK  status: ('A' for Active; 'I' for Inactive)
ROOT
ATOM      1  C   UNL d   1       1.297   3.715  -1.197  0.00  0.00     0.172 C 
ATOM      2  N   UNL d   1       1.253   2.277  -1.323  0.00  0.00    -0.070 N 
ATOM      3  C1  UNL d   1       0.890   1.585  -2.448  0.00  0.00    -0.004 A 
ATOM      4  C2  UNL d   1       0.978   0.240  -2.163  0.00  0.00    -0.047 A 
ATOM      5  C3  UNL d   1       1.409   0.119  -0.820  0.00  0.00    -0.047 A 
ATOM      6  C4  UNL d   1       1.571   1.396  -0.324  0.00  0.00    -0.004 A 
ENDROOT
TORSDOF 0
ENDMDL
