MODEL 1
REMARK minimizedAffinity 1.73619688
REMARK minimizedRMSD -1
REMARK  0 active torsions:
REMARK  status: ('A' for Active; 'I' for Inactive)
ROOT
ATOM      1  C   UNL d   1       1.087   3.439  -1.615  0.00  0.00     0.172 C 
ATOM      2  N   UNL d   1       1.066   2.011  -1.399  0.00  0.00    -0.070 N 
ATOM      3  C1  UNL d   1       1.547   1.363  -0.292  0.00  0.00    -0.004 A 
ATOM      4  C2  UNL d   1       1.340   0.013  -0.471  0.00  0.00    -0.047 A 
ATOM      5  C3  UNL d   1       0.715  -0.158  -1.729  0.00  0.00    -0.047 A 
ATOM      6  C4  UNL d   1       0.557   1.096  -2.282  0.00  0.00    -0.004 A 
ENDROOT
TORSDOF 0
ENDMDL
