MODEL 1
REMARK minimizedAffinity -0.94449544
REMARK minimizedRMSD -1
REMARK  0 active torsions:
REMARK  status: ('A' for Active; 'I' for Inactive)
ROOT
ATOM      1  C   UNL d   1       0.757   3.099   1.105  0.00  0.00     0.172 C 
ATOM      2  N   UNL d   1       0.939   1.843   0.416  0.00  0.00    -0.070 N 
ATOM      3  C1  UNL d   1       1.529   0.724   0.938  0.00  0.00    -0.004 A 
ATOM      4  C2  UNL d   1       1.508  -0.256  -0.030  0.00  0.00    -0.047 A 
ATOM      5  C3  UNL d   1       0.884   0.294  -1.176  0.00  0.00    -0.047 A 
ATOM      6  C4  UNL d   1       0.542   1.595  -0.872  0.00  0.00    -0.004 A 
ENDROOT
TORSDOF 0
ENDMDL
