MODEL 1
REMARK minimizedAffinity 3.32649469
REMARK minimizedRMSD -1
REMARK  0 active torsions:
REMARK  status: ('A' for Active; 'I' for Inactive)
ROOT
ATOM      1  C   UNL d   1       1.015   4.635  -0.316  0.00  0.00     0.172 C 
ATOM      2  N   UNL d   1       0.855   3.401  -1.049  0.00  0.00    -0.070 N 
ATOM      3  C1  UNL d   1       1.578   2.255  -0.852  0.00  0.00    -0.004 A 
ATOM      4  C2  UNL d   1       1.124   1.310  -1.747  0.00  0.00    -0.047 A 
ATOM      5  C3  UNL d   1       0.093   1.909  -2.509  0.00  0.00    -0.047 A 
ATOM      6  C4  UNL d   1      -0.053   3.204  -2.057  0.00  0.00    -0.004 A 
ENDROOT
TORSDOF 0
ENDMDL
