MODEL 1
REMARK minimizedAffinity 1.98922372
REMARK minimizedRMSD -1
REMARK  0 active torsions:
REMARK  status: ('A' for Active; 'I' for Inactive)
ROOT
ATOM      1  C   UNL d   1       1.401   4.054  -0.696  0.00  0.00     0.172 C 
ATOM      2  N   UNL d   1       1.217   2.631  -0.851  0.00  0.00    -0.070 N 
ATOM      3  C1  UNL d   1       1.815   1.661  -0.091  0.00  0.00    -0.004 A 
ATOM      4  C2  UNL d   1       1.382   0.436  -0.553  0.00  0.00    -0.047 A 
ATOM      5  C3  UNL d   1       0.494   0.679  -1.628  0.00  0.00    -0.047 A 
ATOM      6  C4  UNL d   1       0.410   2.045  -1.791  0.00  0.00    -0.004 A 
ENDROOT
TORSDOF 0
ENDMDL
