MODEL 1
REMARK minimizedAffinity 4.85369158
REMARK minimizedRMSD -1
REMARK  2 active torsions:
REMARK  status: ('A' for Active; 'I' for Inactive)
REMARK    1  A    between atoms: C2'_3  and  C1'_4 
REMARK    2  A    between atoms: C1'_4  and  C1_5 
ROOT
ATOM      1  C1  I4B d   1      -1.220  -0.444   0.534  0.00  0.00    -0.075 A 
ATOM      2  C2  I4B d   1      -0.443  -0.769  -0.550  0.00  0.00     0.003 A 
ATOM      3  C3  I4B d   1       0.915  -1.126  -0.373  0.00  0.00     0.002 A 
ATOM      4  C4  I4B d   1       1.467  -1.095   0.892  0.00  0.00    -0.004 A 
ATOM      5  C5  I4B d   1       0.672  -0.787   1.993  0.00  0.00     0.002 A 
ATOM      6  C6  I4B d   1      -0.682  -0.471   1.815  0.00  0.00     0.003 A 
ENDROOT
BRANCH   1   7
ATOM      7  C1' I4B d   1      -2.642  -0.040   0.307  0.00  0.00     0.060 C 
BRANCH   7   8
ATOM      8  C2' I4B d   1      -3.476  -0.618   1.432  0.00  0.00    -0.013 C 
ATOM      9  C4' I4B d   1      -3.729   0.407   2.506  0.00  0.00     0.013 C 
ATOM     10  C3' I4B d   1      -4.763  -1.116   0.845  0.00  0.00     0.013 C 
ENDBRANCH   7   8
ENDBRANCH   1   7
TORSDOF 2
ENDMDL
