MODEL 1
REMARK minimizedAffinity 9.68253708
REMARK minimizedRMSD -1
REMARK  2 active torsions:
REMARK  status: ('A' for Active; 'I' for Inactive)
REMARK    1  A    between atoms: C2'_3  and  C1'_4 
REMARK    2  A    between atoms: C1'_4  and  C1_5 
ROOT
ATOM      1  C1  I4B d   1      -0.682  -0.319   0.767  0.00  0.00    -0.075 A 
ATOM      2  C2  I4B d   1      -1.495   0.473  -0.004  0.00  0.00     0.003 A 
ATOM      3  C3  I4B d   1      -2.900   0.297   0.028  0.00  0.00     0.002 A 
ATOM      4  C4  I4B d   1      -3.441  -0.710   0.802  0.00  0.00    -0.004 A 
ATOM      5  C5  I4B d   1      -2.616  -1.496   1.601  0.00  0.00     0.002 A 
ATOM      6  C6  I4B d   1      -1.229  -1.292   1.594  0.00  0.00     0.003 A 
ENDROOT
BRANCH   1   7
ATOM      7  C1' I4B d   1       0.799  -0.127   0.684  0.00  0.00     0.060 C 
BRANCH   7   8
ATOM      8  C2' I4B d   1       1.206  -0.255  -0.770  0.00  0.00    -0.013 C 
ATOM      9  C4' I4B d   1       2.104   0.880  -1.187  0.00  0.00     0.013 C 
ATOM     10  C3' I4B d   1       1.888  -1.579  -0.945  0.00  0.00     0.013 C 
ENDBRANCH   7   8
ENDBRANCH   1   7
TORSDOF 2
ENDMDL
