MODEL 1
REMARK minimizedAffinity 3.08323646
REMARK minimizedRMSD -1
REMARK  2 active torsions:
REMARK  status: ('A' for Active; 'I' for Inactive)
REMARK    1  A    between atoms: C2'_3  and  C1'_4 
REMARK    2  A    between atoms: C1'_4  and  C1_5 
ROOT
ATOM      1  C1  I4B d   1       2.157  -0.422  -0.648  0.00  0.00    -0.075 A 
ATOM      2  C2  I4B d   1       1.829   0.267  -1.788  0.00  0.00     0.003 A 
ATOM      3  C3  I4B d   1       2.773   1.129  -2.396  0.00  0.00     0.002 A 
ATOM      4  C4  I4B d   1       4.007   1.310  -1.806  0.00  0.00    -0.004 A 
ATOM      5  C5  I4B d   1       4.346   0.593  -0.662  0.00  0.00     0.002 A 
ATOM      6  C6  I4B d   1       3.420  -0.288  -0.086  0.00  0.00     0.003 A 
ENDROOT
BRANCH   1   7
ATOM      7  C1' I4B d   1       1.124  -1.299  -0.013  0.00  0.00     0.060 C 
BRANCH   7   8
ATOM      8  C2' I4B d   1      -0.090  -0.446   0.290  0.00  0.00    -0.013 C 
ATOM      9  C4' I4B d   1      -1.231  -0.771  -0.638  0.00  0.00     0.013 C 
ATOM     10  C3' I4B d   1      -0.473  -0.678   1.722  0.00  0.00     0.013 C 
ENDBRANCH   7   8
ENDBRANCH   1   7
TORSDOF 2
ENDMDL
