MODEL 1
REMARK minimizedAffinity 4.21919155
REMARK minimizedRMSD -1
REMARK  2 active torsions:
REMARK  status: ('A' for Active; 'I' for Inactive)
REMARK    1  A    between atoms: C2'_3  and  C1'_4 
REMARK    2  A    between atoms: C1'_4  and  C1_5 
ROOT
ATOM      1  C1  I4B d   1       0.356  -1.102   1.108  0.00  0.00    -0.075 A 
ATOM      2  C2  I4B d   1      -0.617  -0.405   0.436  0.00  0.00     0.003 A 
ATOM      3  C3  I4B d   1      -1.766   0.056   1.122  0.00  0.00     0.002 A 
ATOM      4  C4  I4B d   1      -1.925  -0.244   2.460  0.00  0.00    -0.004 A 
ATOM      5  C5  I4B d   1      -0.927  -0.930   3.145  0.00  0.00     0.002 A 
ATOM      6  C6  I4B d   1       0.227  -1.352   2.468  0.00  0.00     0.003 A 
ENDROOT
BRANCH   1   7
ATOM      7  C1' I4B d   1       1.542  -1.602   0.345  0.00  0.00     0.060 C 
BRANCH   7   8
ATOM      8  C2' I4B d   1       2.021  -2.876   1.010  0.00  0.00    -0.013 C 
ATOM      9  C4' I4B d   1       0.899  -3.870   1.158  0.00  0.00     0.013 C 
ATOM     10  C3' I4B d   1       3.137  -3.439   0.182  0.00  0.00     0.013 C 
ENDBRANCH   7   8
ENDBRANCH   1   7
TORSDOF 2
ENDMDL
