MODEL 1
REMARK minimizedAffinity -2.58770823
REMARK minimizedRMSD -1
REMARK  2 active torsions:
REMARK  status: ('A' for Active; 'I' for Inactive)
REMARK    1  A    between atoms: C2'_3  and  C1'_4 
REMARK    2  A    between atoms: C1'_4  and  C1_5 
ROOT
ATOM      1  C1  I4B d   1       2.586   5.946   3.507  0.00  0.00    -0.075 A 
ATOM      2  C2  I4B d   1       3.343   6.000   4.650  0.00  0.00     0.003 A 
ATOM      3  C3  I4B d   1       2.717   5.996   5.920  0.00  0.00     0.002 A 
ATOM      4  C4  I4B d   1       1.340   5.989   5.999  0.00  0.00    -0.004 A 
ATOM      5  C5  I4B d   1       0.574   5.912   4.839  0.00  0.00     0.002 A 
ATOM      6  C6  I4B d   1       1.201   5.878   3.585  0.00  0.00     0.003 A 
ENDROOT
BRANCH   1   7
ATOM      7  C1' I4B d   1       3.279   5.985   2.181  0.00  0.00     0.060 C 
BRANCH   7   8
ATOM      8  C2' I4B d   1       4.483   5.068   2.257  0.00  0.00    -0.013 C 
ATOM      9  C4' I4B d   1       5.656   5.760   2.897  0.00  0.00     0.013 C 
ATOM     10  C3' I4B d   1       4.086   3.846   3.031  0.00  0.00     0.013 C 
ENDBRANCH   7   8
ENDBRANCH   1   7
TORSDOF 2
ENDMDL
