MODEL 1
REMARK minimizedAffinity -2.46513939
REMARK minimizedRMSD -1
REMARK  0 active torsions:
REMARK  status: ('A' for Active; 'I' for Inactive)
ROOT
ATOM      1  C   UNL d   1      -0.098   0.162  -6.000  0.00  0.00     0.020 A 
ATOM      2  C1  UNL d   1      -0.714  -0.777  -5.172  0.00  0.00     0.020 A 
ATOM      3  C2  UNL d   1      -0.460  -0.770  -3.799  0.00  0.00     0.034 A 
ATOM      4  C3  UNL d   1       0.412   0.177  -3.249  0.00  0.00     0.017 A 
ATOM      5  C4  UNL d   1       1.029   1.119  -4.081  0.00  0.00     0.017 A 
ATOM      6  C5  UNL d   1       0.771   1.107  -5.455  0.00  0.00     0.034 A 
ATOM      7 Cl   UNL d   1       2.116   2.318  -3.475  0.00  0.00    -0.070 Cl
ATOM      8 Cl1  UNL d   1       0.679   0.128  -1.543  0.00  0.00    -0.070 Cl
ENDROOT
TORSDOF 0
ENDMDL
