MODEL 1
REMARK minimizedAffinity -2.34294939
REMARK minimizedRMSD -1
REMARK  0 active torsions:
REMARK  status: ('A' for Active; 'I' for Inactive)
ROOT
ATOM      1  C   UNL d   1      -0.412   0.957  -4.342  0.00  0.00     0.020 A 
ATOM      2  C1  UNL d   1      -1.192   0.299  -3.392  0.00  0.00     0.020 A 
ATOM      3  C2  UNL d   1      -0.582  -0.388  -2.341  0.00  0.00     0.034 A 
ATOM      4  C3  UNL d   1       0.814  -0.420  -2.237  0.00  0.00     0.017 A 
ATOM      5  C4  UNL d   1       1.596   0.241  -3.190  0.00  0.00     0.017 A 
ATOM      6  C5  UNL d   1       0.980   0.927  -4.241  0.00  0.00     0.034 A 
ATOM      7 Cl   UNL d   1       3.324   0.247  -3.128  0.00  0.00    -0.070 Cl
ATOM      8 Cl1  UNL d   1       1.501  -1.288  -0.911  0.00  0.00    -0.070 Cl
ENDROOT
TORSDOF 0
ENDMDL
