MODEL 1
REMARK minimizedAffinity 1.21283424
REMARK minimizedRMSD -1
REMARK  0 active torsions:
REMARK  status: ('A' for Active; 'I' for Inactive)
ROOT
ATOM      1  C   UNL d   1      -1.339   0.119   0.224  0.00  0.00     0.020 A 
ATOM      2  C1  UNL d   1      -0.513   1.220   0.448  0.00  0.00     0.020 A 
ATOM      3  C2  UNL d   1      -0.397   1.756   1.732  0.00  0.00     0.034 A 
ATOM      4  C3  UNL d   1      -1.109   1.193   2.797  0.00  0.00     0.017 A 
ATOM      5  C4  UNL d   1      -1.938   0.088   2.571  0.00  0.00     0.017 A 
ATOM      6  C5  UNL d   1      -2.050  -0.446   1.283  0.00  0.00     0.034 A 
ATOM      7 Cl   UNL d   1      -2.848  -0.662   3.835  0.00  0.00    -0.070 Cl
ATOM      8 Cl1  UNL d   1      -0.919   1.908   4.358  0.00  0.00    -0.070 Cl
ENDROOT
TORSDOF 0
ENDMDL
