MODEL 1
REMARK minimizedAffinity -0.815083325
REMARK minimizedRMSD -1
REMARK  0 active torsions:
REMARK  status: ('A' for Active; 'I' for Inactive)
ROOT
ATOM      1  C   UNL d   1      -0.715  -0.756  -4.983  0.00  0.00     0.020 A 
ATOM      2  C1  UNL d   1       0.021   0.159  -5.734  0.00  0.00     0.020 A 
ATOM      3  C2  UNL d   1       1.047   0.891  -5.133  0.00  0.00     0.034 A 
ATOM      4  C3  UNL d   1       1.339   0.710  -3.776  0.00  0.00     0.017 A 
ATOM      5  C4  UNL d   1       0.599  -0.209  -3.023  0.00  0.00     0.017 A 
ATOM      6  C5  UNL d   1      -0.427  -0.939  -3.630  0.00  0.00     0.034 A 
ATOM      7 Cl   UNL d   1       0.900  -0.487  -1.344  0.00  0.00    -0.070 Cl
ATOM      8 Cl1  UNL d   1       2.621   1.648  -3.097  0.00  0.00    -0.070 Cl
ENDROOT
TORSDOF 0
ENDMDL
