MODEL 1
REMARK minimizedAffinity -0.978998899
REMARK minimizedRMSD -1
REMARK  0 active torsions:
REMARK  status: ('A' for Active; 'I' for Inactive)
ROOT
ATOM      1  C   UNL d   1       0.599  -0.295  -0.317  0.00  0.00     0.020 A 
ATOM      2  C1  UNL d   1       1.806  -0.920  -0.003  0.00  0.00     0.020 A 
ATOM      3  C2  UNL d   1       2.425  -0.666   1.222  0.00  0.00     0.034 A 
ATOM      4  C3  UNL d   1       1.839   0.215   2.138  0.00  0.00     0.017 A 
ATOM      5  C4  UNL d   1       0.628   0.842   1.822  0.00  0.00     0.017 A 
ATOM      6  C5  UNL d   1       0.012   0.584   0.594  0.00  0.00     0.034 A 
ATOM      7 Cl   UNL d   1      -0.156   1.941   2.901  0.00  0.00    -0.070 Cl
ATOM      8 Cl1  UNL d   1       2.660   0.482   3.635  0.00  0.00    -0.070 Cl
ENDROOT
TORSDOF 0
ENDMDL
