MODEL 1
REMARK minimizedAffinity -3.00566912
REMARK minimizedRMSD -1
REMARK  0 active torsions:
REMARK  status: ('A' for Active; 'I' for Inactive)
ROOT
ATOM      1  C   UNL d   1      -1.234   1.462   2.642  0.00  0.00     0.020 A 
ATOM      2  C1  UNL d   1      -1.608   0.777   1.487  0.00  0.00     0.020 A 
ATOM      3  C2  UNL d   1      -0.654   0.059   0.761  0.00  0.00     0.034 A 
ATOM      4  C3  UNL d   1       0.677   0.025   1.190  0.00  0.00     0.017 A 
ATOM      5  C4  UNL d   1       1.052   0.713   2.350  0.00  0.00     0.017 A 
ATOM      6  C5  UNL d   1       0.093   1.429   3.073  0.00  0.00     0.034 A 
ATOM      7 Cl   UNL d   1       2.676   0.717   2.942  0.00  0.00    -0.070 Cl
ATOM      8 Cl1  UNL d   1       1.803  -0.883   0.244  0.00  0.00    -0.070 Cl
ENDROOT
TORSDOF 0
ENDMDL
