MODEL 1
REMARK minimizedAffinity -3.66198015
REMARK minimizedRMSD -1
REMARK  0 active torsions:
REMARK  status: ('A' for Active; 'I' for Inactive)
ROOT
ATOM      1  C   UNL d   1      -1.196  -0.184  -4.742  0.00  0.00     0.020 A 
ATOM      2  C1  UNL d   1      -0.180  -0.176  -5.696  0.00  0.00     0.020 A 
ATOM      3  C2  UNL d   1       1.157  -0.197  -5.292  0.00  0.00     0.034 A 
ATOM      4  C3  UNL d   1       1.481  -0.225  -3.931  0.00  0.00     0.017 A 
ATOM      5  C4  UNL d   1       0.460  -0.233  -2.974  0.00  0.00     0.017 A 
ATOM      6  C5  UNL d   1      -0.877  -0.212  -3.384  0.00  0.00     0.034 A 
ATOM      7 Cl   UNL d   1       0.781  -0.267  -1.276  0.00  0.00    -0.070 Cl
ATOM      8 Cl1  UNL d   1       3.155  -0.249  -3.504  0.00  0.00    -0.070 Cl
ENDROOT
TORSDOF 0
ENDMDL
