MODEL 1
REMARK minimizedAffinity 2.53065705
REMARK minimizedRMSD -1
REMARK  0 active torsions:
REMARK  status: ('A' for Active; 'I' for Inactive)
ROOT
ATOM      1  C   UNL d   1      -1.302  -0.669  -4.979  0.00  0.00     0.020 A 
ATOM      2  C1  UNL d   1      -0.394  -0.196  -5.925  0.00  0.00     0.020 A 
ATOM      3  C2  UNL d   1       0.750   0.490  -5.513  0.00  0.00     0.034 A 
ATOM      4  C3  UNL d   1       0.990   0.706  -4.151  0.00  0.00     0.017 A 
ATOM      5  C4  UNL d   1       0.078   0.231  -3.202  0.00  0.00     0.017 A 
ATOM      6  C5  UNL d   1      -1.066  -0.456  -3.620  0.00  0.00     0.034 A 
ATOM      7 Cl   UNL d   1       0.305   0.459  -1.504  0.00  0.00    -0.070 Cl
ATOM      8 Cl1  UNL d   1       2.425   1.562  -3.714  0.00  0.00    -0.070 Cl
ENDROOT
TORSDOF 0
ENDMDL
