MODEL 1
REMARK minimizedAffinity -3.22917867
REMARK minimizedRMSD -1
REMARK  0 active torsions:
REMARK  status: ('A' for Active; 'I' for Inactive)
ROOT
ATOM      1  C   UNL d   1      -0.490  -0.044  -5.915  0.00  0.00     0.020 A 
ATOM      2  C1  UNL d   1      -1.343  -0.843  -5.153  0.00  0.00     0.020 A 
ATOM      3  C2  UNL d   1      -1.054  -1.089  -3.809  0.00  0.00     0.034 A 
ATOM      4  C3  UNL d   1       0.091  -0.536  -3.223  0.00  0.00     0.017 A 
ATOM      5  C4  UNL d   1       0.946   0.265  -3.988  0.00  0.00     0.017 A 
ATOM      6  C5  UNL d   1       0.652   0.508  -5.333  0.00  0.00     0.034 A 
ATOM      7 Cl   UNL d   1       2.376   0.982  -3.334  0.00  0.00    -0.070 Cl
ATOM      8 Cl1  UNL d   1       0.386  -0.882  -1.556  0.00  0.00    -0.070 Cl
ENDROOT
TORSDOF 0
ENDMDL
