MODEL 1
REMARK minimizedAffinity -0.14557144
REMARK minimizedRMSD -1
REMARK  0 active torsions:
REMARK  status: ('A' for Active; 'I' for Inactive)
ROOT
ATOM      1  C   UNL d   1       1.207  -0.738   0.294  0.00  0.00     0.020 A 
ATOM      2  C1  UNL d   1       2.034   0.127   1.010  0.00  0.00     0.020 A 
ATOM      3  C2  UNL d   1       1.493   0.949   2.001  0.00  0.00     0.034 A 
ATOM      4  C3  UNL d   1       0.122   0.908   2.279  0.00  0.00     0.017 A 
ATOM      5  C4  UNL d   1      -0.707   0.040   1.560  0.00  0.00     0.017 A 
ATOM      6  C5  UNL d   1      -0.161  -0.781   0.568  0.00  0.00     0.034 A 
ATOM      7 Cl   UNL d   1      -2.408  -0.067   1.846  0.00  0.00    -0.070 Cl
ATOM      8 Cl1  UNL d   1      -0.477   1.952   3.518  0.00  0.00    -0.070 Cl
ENDROOT
TORSDOF 0
ENDMDL
