MODEL 1
REMARK minimizedAffinity -5.13060331
REMARK minimizedRMSD -1
REMARK  0 active torsions:
REMARK  status: ('A' for Active; 'I' for Inactive)
ROOT
ATOM      1  C1  BNZ d   1      -2.624  -0.948  -0.089  0.00  0.00     0.000 A 
ATOM      2  C2  BNZ d   1      -2.383  -1.927   0.839  0.00  0.00     0.000 A 
ATOM      3  C3  BNZ d   1      -1.191  -1.982   1.505  0.00  0.00     0.000 A 
ATOM      4  C4  BNZ d   1      -0.227  -1.084   1.214  0.00  0.00     0.000 A 
ATOM      5  C5  BNZ d   1      -0.451  -0.098   0.274  0.00  0.00     0.000 A 
ATOM      6  C6  BNZ d   1      -1.667  -0.022  -0.366  0.00  0.00     0.000 A 
ENDROOT
TORSDOF 0
ENDMDL
