MODEL 1
REMARK minimizedAffinity -1.92855775
REMARK minimizedRMSD -1
REMARK  0 active torsions:
REMARK  status: ('A' for Active; 'I' for Inactive)
ROOT
ATOM      1  C1  BNZ d   1      -0.296  -1.165   1.667  0.00  0.00     0.000 A 
ATOM      2  C2  BNZ d   1       1.015  -0.778   1.590  0.00  0.00     0.000 A 
ATOM      3  C3  BNZ d   1       1.418   0.151   0.672  0.00  0.00     0.000 A 
ATOM      4  C4  BNZ d   1       0.518   0.662  -0.193  0.00  0.00     0.000 A 
ATOM      5  C5  BNZ d   1      -0.806   0.275  -0.134  0.00  0.00     0.000 A 
ATOM      6  C6  BNZ d   1      -1.215  -0.631   0.817  0.00  0.00     0.000 A 
ENDROOT
TORSDOF 0
ENDMDL
