MODEL 1
REMARK minimizedAffinity -2.75054121
REMARK minimizedRMSD -1
REMARK  0 active torsions:
REMARK  status: ('A' for Active; 'I' for Inactive)
ROOT
ATOM      1  C1  BNZ d   1       1.219   0.161  -0.011  0.00  0.00     0.000 A 
ATOM      2  C2  BNZ d   1       2.328   0.916   0.264  0.00  0.00     0.000 A 
ATOM      3  C3  BNZ d   1       2.221   2.258   0.499  0.00  0.00     0.000 A 
ATOM      4  C4  BNZ d   1       1.012   2.850   0.419  0.00  0.00     0.000 A 
ATOM      5  C5  BNZ d   1      -0.114   2.105   0.134  0.00  0.00     0.000 A 
ATOM      6  C6  BNZ d   1      -0.008   0.747  -0.064  0.00  0.00     0.000 A 
ENDROOT
TORSDOF 0
ENDMDL
