MODEL 1
REMARK minimizedAffinity -4.63546562
REMARK minimizedRMSD -1
REMARK  0 active torsions:
REMARK  status: ('A' for Active; 'I' for Inactive)
ROOT
ATOM      1  C1  BNZ d   1      -0.926  -0.424   0.057  0.00  0.00     0.000 A 
ATOM      2  C2  BNZ d   1      -0.208  -0.379  -1.109  0.00  0.00     0.000 A 
ATOM      3  C3  BNZ d   1      -0.828  -0.530  -2.318  0.00  0.00     0.000 A 
ATOM      4  C4  BNZ d   1      -2.155  -0.765  -2.358  0.00  0.00     0.000 A 
ATOM      5  C5  BNZ d   1      -2.891  -0.822  -1.191  0.00  0.00     0.000 A 
ATOM      6  C6  BNZ d   1      -2.270  -0.631   0.022  0.00  0.00     0.000 A 
ENDROOT
TORSDOF 0
ENDMDL
