MODEL 1
REMARK minimizedAffinity -4.18069601
REMARK minimizedRMSD -1
REMARK  0 active torsions:
REMARK  status: ('A' for Active; 'I' for Inactive)
ROOT
ATOM      1  C1  BNZ d   1      -1.756  -1.033   0.618  0.00  0.00     0.000 A 
ATOM      2  C2  BNZ d   1      -2.457  -1.388  -0.504  0.00  0.00     0.000 A 
ATOM      3  C3  BNZ d   1      -2.052  -0.973  -1.742  0.00  0.00     0.000 A 
ATOM      4  C4  BNZ d   1      -0.972  -0.173  -1.853  0.00  0.00     0.000 A 
ATOM      5  C5  BNZ d   1      -0.260   0.200  -0.730  0.00  0.00     0.000 A 
ATOM      6  C6  BNZ d   1      -0.648  -0.251   0.510  0.00  0.00     0.000 A 
ENDROOT
TORSDOF 0
ENDMDL
