MODEL 1
REMARK minimizedAffinity -2.59673595
REMARK minimizedRMSD -1
REMARK  0 active torsions:
REMARK  status: ('A' for Active; 'I' for Inactive)
ROOT
ATOM      1  C1  BNZ d   1       0.022   0.355  -0.476  0.00  0.00     0.000 A 
ATOM      2  C2  BNZ d   1      -1.142  -0.219  -0.038  0.00  0.00     0.000 A 
ATOM      3  C3  BNZ d   1      -1.134  -1.121   0.989  0.00  0.00     0.000 A 
ATOM      4  C4  BNZ d   1       0.040  -1.478   1.548  0.00  0.00     0.000 A 
ATOM      5  C5  BNZ d   1       1.223  -0.915   1.111  0.00  0.00     0.000 A 
ATOM      6  C6  BNZ d   1       1.207   0.022   0.104  0.00  0.00     0.000 A 
ENDROOT
TORSDOF 0
ENDMDL
