MODEL 1
REMARK minimizedAffinity -4.85887861
REMARK minimizedRMSD -1
REMARK  0 active torsions:
REMARK  status: ('A' for Active; 'I' for Inactive)
ROOT
ATOM      1  C1  BNZ d   1      -1.188   0.032  -1.732  0.00  0.00     0.000 A 
ATOM      2  C2  BNZ d   1      -0.199  -0.034  -0.786  0.00  0.00     0.000 A 
ATOM      3  C3  BNZ d   1      -0.455  -0.532   0.460  0.00  0.00     0.000 A 
ATOM      4  C4  BNZ d   1      -1.706  -0.927   0.773  0.00  0.00     0.000 A 
ATOM      5  C5  BNZ d   1      -2.716  -0.858  -0.166  0.00  0.00     0.000 A 
ATOM      6  C6  BNZ d   1      -2.446  -0.392  -1.433  0.00  0.00     0.000 A 
ENDROOT
TORSDOF 0
ENDMDL
