MODEL 1
REMARK minimizedAffinity -4.07708168
REMARK minimizedRMSD -1
REMARK  0 active torsions:
REMARK  status: ('A' for Active; 'I' for Inactive)
ROOT
ATOM      1  C1  BNZ d   1      -2.795  -1.358  -1.836  0.00  0.00     0.000 A 
ATOM      2  C2  BNZ d   1      -1.519  -0.860  -1.817  0.00  0.00     0.000 A 
ATOM      3  C3  BNZ d   1      -1.069  -0.128  -0.754  0.00  0.00     0.000 A 
ATOM      4  C4  BNZ d   1      -1.907   0.139   0.269  0.00  0.00     0.000 A 
ATOM      5  C5  BNZ d   1      -3.199  -0.347   0.260  0.00  0.00     0.000 A 
ATOM      6  C6  BNZ d   1      -3.636  -1.117  -0.794  0.00  0.00     0.000 A 
ENDROOT
TORSDOF 0
ENDMDL
