MODEL 1
REMARK minimizedAffinity -0.975925624
REMARK minimizedRMSD -1
REMARK  0 active torsions:
REMARK  status: ('A' for Active; 'I' for Inactive)
ROOT
ATOM      1  C1  BNZ d   1      -0.156   0.319  -0.398  0.00  0.00     0.000 A 
ATOM      2  C2  BNZ d   1      -1.236  -0.341   0.123  0.00  0.00     0.000 A 
ATOM      3  C3  BNZ d   1      -1.093  -1.184   1.190  0.00  0.00     0.000 A 
ATOM      4  C4  BNZ d   1       0.134  -1.396   1.708  0.00  0.00     0.000 A 
ATOM      5  C5  BNZ d   1       1.234  -0.745   1.187  0.00  0.00     0.000 A 
ATOM      6  C6  BNZ d   1       1.081   0.132   0.138  0.00  0.00     0.000 A 
ENDROOT
TORSDOF 0
ENDMDL
