MODEL 1
REMARK minimizedAffinity -4.09617805
REMARK minimizedRMSD -1
REMARK  0 active torsions:
REMARK  status: ('A' for Active; 'I' for Inactive)
ROOT
ATOM      1  C1  BNZ d   1      -0.035   0.478  -0.449  0.00  0.00     0.000 A 
ATOM      2  C2  BNZ d   1      -0.561  -0.077   0.687  0.00  0.00     0.000 A 
ATOM      3  C3  BNZ d   1      -1.763  -0.726   0.657  0.00  0.00     0.000 A 
ATOM      4  C4  BNZ d   1      -2.457  -0.784  -0.498  0.00  0.00     0.000 A 
ATOM      5  C5  BNZ d   1      -1.944  -0.222  -1.650  0.00  0.00     0.000 A 
ATOM      6  C6  BNZ d   1      -0.715   0.397  -1.625  0.00  0.00     0.000 A 
ENDROOT
TORSDOF 0
ENDMDL
