MODEL 1
REMARK minimizedAffinity -2.38730764
REMARK minimizedRMSD -1
REMARK  0 active torsions:
REMARK  status: ('A' for Active; 'I' for Inactive)
ROOT
ATOM      1  C1  BNZ d   1      -0.044   0.126  -1.382  0.00  0.00     0.000 A 
ATOM      2  C2  BNZ d   1      -1.399  -0.054  -1.298  0.00  0.00     0.000 A 
ATOM      3  C3  BNZ d   1      -1.978  -0.482  -0.136  0.00  0.00     0.000 A 
ATOM      4  C4  BNZ d   1      -1.198  -0.767   0.927  0.00  0.00     0.000 A 
ATOM      5  C5  BNZ d   1       0.170  -0.599   0.855  0.00  0.00     0.000 A 
ATOM      6  C6  BNZ d   1       0.745  -0.132  -0.305  0.00  0.00     0.000 A 
ENDROOT
TORSDOF 0
ENDMDL
