MODEL 1
REMARK minimizedAffinity -3.85084963
REMARK minimizedRMSD -1
REMARK  0 active torsions:
REMARK  status: ('A' for Active; 'I' for Inactive)
ROOT
ATOM      1  C1  BNZ d   1      -1.226  -0.688   0.806  0.00  0.00     0.000 A 
ATOM      2  C2  BNZ d   1       0.089  -0.305   0.786  0.00  0.00     0.000 A 
ATOM      3  C3  BNZ d   1       0.695   0.053  -0.386  0.00  0.00     0.000 A 
ATOM      4  C4  BNZ d   1      -0.000  -0.011  -1.539  0.00  0.00     0.000 A 
ATOM      5  C5  BNZ d   1      -1.324  -0.404  -1.537  0.00  0.00     0.000 A 
ATOM      6  C6  BNZ d   1      -1.942  -0.727  -0.351  0.00  0.00     0.000 A 
ENDROOT
TORSDOF 0
ENDMDL
