MODEL 1
REMARK minimizedAffinity -3.91044044
REMARK minimizedRMSD -1
REMARK  0 active torsions:
REMARK  status: ('A' for Active; 'I' for Inactive)
ROOT
ATOM      1  C1  BNZ d   1      -0.550   0.064   0.066  0.00  0.00     0.000 A 
ATOM      2  C2  BNZ d   1      -1.802  -0.455   0.262  0.00  0.00     0.000 A 
ATOM      3  C3  BNZ d   1      -2.662  -0.624  -0.787  0.00  0.00     0.000 A 
ATOM      4  C4  BNZ d   1      -2.285  -0.235  -2.023  0.00  0.00     0.000 A 
ATOM      5  C5  BNZ d   1      -1.030   0.300  -2.234  0.00  0.00     0.000 A 
ATOM      6  C6  BNZ d   1      -0.152   0.431  -1.182  0.00  0.00     0.000 A 
ENDROOT
TORSDOF 0
ENDMDL
