MODEL 1
REMARK minimizedAffinity -2.00843668
REMARK minimizedRMSD -1
REMARK  0 active torsions:
REMARK  status: ('A' for Active; 'I' for Inactive)
ROOT
ATOM      1  C1  BNZ d   1       2.205   1.050   1.760  0.00  0.00     0.000 A 
ATOM      2  C2  BNZ d   1       2.600   2.238   2.316  0.00  0.00     0.000 A 
ATOM      3  C3  BNZ d   1       2.615   3.386   1.575  0.00  0.00     0.000 A 
ATOM      4  C4  BNZ d   1       2.276   3.339   0.271  0.00  0.00     0.000 A 
ATOM      5  C5  BNZ d   1       1.885   2.147  -0.307  0.00  0.00     0.000 A 
ATOM      6  C6  BNZ d   1       1.833   1.000   0.452  0.00  0.00     0.000 A 
ENDROOT
TORSDOF 0
ENDMDL
