MODEL 1
REMARK minimizedAffinity -4.19753265
REMARK minimizedRMSD -1
REMARK  0 active torsions:
REMARK  status: ('A' for Active; 'I' for Inactive)
ROOT
ATOM      1  C1  BNZ d   1      -1.454   0.267  -1.550  0.00  0.00     0.000 A 
ATOM      2  C2  BNZ d   1      -2.698   0.051  -1.019  0.00  0.00     0.000 A 
ATOM      3  C3  BNZ d   1      -2.842  -0.405   0.262  0.00  0.00     0.000 A 
ATOM      4  C4  BNZ d   1      -1.745  -0.682   0.995  0.00  0.00     0.000 A 
ATOM      5  C5  BNZ d   1      -0.484  -0.478   0.470  0.00  0.00     0.000 A 
ATOM      6  C6  BNZ d   1      -0.342   0.018  -0.806  0.00  0.00     0.000 A 
ENDROOT
TORSDOF 0
ENDMDL
