MODEL 1
REMARK minimizedAffinity -4.54408073
REMARK minimizedRMSD -1
REMARK  0 active torsions:
REMARK  status: ('A' for Active; 'I' for Inactive)
ROOT
ATOM      1  C1  BNZ d   1      -0.004  -1.421   1.667  0.00  0.00     0.000 A 
ATOM      2  C2  BNZ d   1       1.101  -0.936   1.019  0.00  0.00     0.000 A 
ATOM      3  C3  BNZ d   1       0.990   0.076   0.107  0.00  0.00     0.000 A 
ATOM      4  C4  BNZ d   1      -0.229   0.575  -0.184  0.00  0.00     0.000 A 
ATOM      5  C5  BNZ d   1      -1.354   0.091   0.454  0.00  0.00     0.000 A 
ATOM      6  C6  BNZ d   1      -1.233  -0.902   1.400  0.00  0.00     0.000 A 
ENDROOT
TORSDOF 0
ENDMDL
