MODEL 1
REMARK minimizedAffinity 7.27905416
REMARK minimizedRMSD -1
REMARK  0 active torsions:
REMARK  status: ('A' for Active; 'I' for Inactive)
ROOT
ATOM      1  N1  IND d   1       2.180  -1.727   3.151  0.00  0.00    -0.196 N 
ATOM      2  C2  IND d   1       1.776  -2.233   4.355  0.00  0.00     0.054 A 
ATOM      3  C3  IND d   1       0.456  -2.006   4.541  0.00  0.00    -0.031 A 
ATOM      4  C4  IND d   1      -1.255  -0.912   2.959  0.00  0.00     0.051 A 
ATOM      5  C5  IND d   1      -1.351  -0.261   1.761  0.00  0.00    -0.031 A 
ATOM      6  C6  IND d   1      -0.254  -0.064   0.947  0.00  0.00     0.015 A 
ATOM      7  C7  IND d   1       0.984  -0.523   1.298  0.00  0.00    -0.016 A 
ATOM      8  C8  IND d   1       1.087  -1.178   2.517  0.00  0.00    -0.047 A 
ATOM      9  C9  IND d   1      -0.014  -1.343   3.366  0.00  0.00    -0.096 A 
ATOM     10  HN1 IND d   1       2.982  -1.748   2.842  0.00  0.00     0.298 HD
ENDROOT
TORSDOF 0
ENDMDL
