MODEL 1
REMARK minimizedAffinity 1.09554958
REMARK minimizedRMSD -1
REMARK  0 active torsions:
REMARK  status: ('A' for Active; 'I' for Inactive)
ROOT
ATOM      1  N1  IND d   1      -1.956  -0.388   2.232  0.00  0.00    -0.196 N 
ATOM      2  C2  IND d   1      -1.805   0.480   1.187  0.00  0.00     0.054 A 
ATOM      3  C3  IND d   1      -0.493   0.671   0.920  0.00  0.00    -0.031 A 
ATOM      4  C4  IND d   1       1.572  -0.418   2.005  0.00  0.00     0.051 A 
ATOM      5  C5  IND d   1       1.940  -1.250   3.025  0.00  0.00    -0.031 A 
ATOM      6  C6  IND d   1       1.010  -1.851   3.848  0.00  0.00     0.015 A 
ATOM      7  C7  IND d   1      -0.330  -1.651   3.673  0.00  0.00    -0.016 A 
ATOM      8  C8  IND d   1      -0.708  -0.802   2.643  0.00  0.00    -0.047 A 
ATOM      9  C9  IND d   1       0.234  -0.155   1.831  0.00  0.00    -0.096 A 
ATOM     10  HN1 IND d   1      -2.705  -0.635   2.575  0.00  0.00     0.298 HD
ENDROOT
TORSDOF 0
ENDMDL
