MODEL 1
REMARK minimizedAffinity 0.325110853
REMARK minimizedRMSD -1
REMARK  0 active torsions:
REMARK  status: ('A' for Active; 'I' for Inactive)
ROOT
ATOM      1  N1  IND d   1       0.924  -4.965  -2.181  0.00  0.00    -0.196 N 
ATOM      2  C2  IND d   1      -0.421  -5.203  -2.240  0.00  0.00     0.054 A 
ATOM      3  C3  IND d   1      -0.775  -5.591  -3.486  0.00  0.00    -0.031 A 
ATOM      4  C4  IND d   1       0.702  -6.000  -5.554  0.00  0.00     0.051 A 
ATOM      5  C5  IND d   1       1.989  -5.881  -5.999  0.00  0.00    -0.031 A 
ATOM      6  C6  IND d   1       3.007  -5.445  -5.177  0.00  0.00     0.015 A 
ATOM      7  C7  IND d   1       2.778  -5.120  -3.870  0.00  0.00    -0.016 A 
ATOM      8  C8  IND d   1       1.471  -5.233  -3.416  0.00  0.00    -0.047 A 
ATOM      9  C9  IND d   1       0.426  -5.634  -4.258  0.00  0.00    -0.096 A 
ATOM     10  HN1 IND d   1       1.355  -4.693  -1.488  0.00  0.00     0.298 HD
ENDROOT
TORSDOF 0
ENDMDL
