MODEL 1
REMARK minimizedAffinity 2.10032177
REMARK minimizedRMSD -1
REMARK  0 active torsions:
REMARK  status: ('A' for Active; 'I' for Inactive)
ROOT
ATOM      1  N1  IND d   1      -0.949   1.081   2.425  0.00  0.00    -0.196 N 
ATOM      2  C2  IND d   1      -0.961  -0.045   3.201  0.00  0.00     0.054 A 
ATOM      3  C3  IND d   1      -1.481  -1.085   2.513  0.00  0.00    -0.031 A 
ATOM      4  C4  IND d   1      -2.282  -1.193   0.069  0.00  0.00     0.051 A 
ATOM      5  C5  IND d   1      -2.500  -0.409  -1.029  0.00  0.00    -0.031 A 
ATOM      6  C6  IND d   1      -2.203   0.939  -1.033  0.00  0.00     0.015 A 
ATOM      7  C7  IND d   1      -1.664   1.552   0.063  0.00  0.00    -0.016 A 
ATOM      8  C8  IND d   1      -1.449   0.761   1.181  0.00  0.00    -0.047 A 
ATOM      9  C9  IND d   1      -1.788  -0.598   1.205  0.00  0.00    -0.096 A 
ATOM     10  HN1 IND d   1      -0.675   1.857   2.671  0.00  0.00     0.298 HD
ENDROOT
TORSDOF 0
ENDMDL
