MODEL 1
REMARK minimizedAffinity -3.21849537
REMARK minimizedRMSD -1
REMARK  0 active torsions:
REMARK  status: ('A' for Active; 'I' for Inactive)
ROOT
ATOM      1  N1  IND d   1      -1.954  -0.101   1.765  0.00  0.00    -0.196 N 
ATOM      2  C2  IND d   1      -1.095   0.797   1.196  0.00  0.00     0.054 A 
ATOM      3  C3  IND d   1       0.180   0.518   1.550  0.00  0.00    -0.031 A 
ATOM      4  C4  IND d   1       1.094  -1.425   2.971  0.00  0.00     0.051 A 
ATOM      5  C5  IND d   1       0.691  -2.481   3.738  0.00  0.00    -0.031 A 
ATOM      6  C6  IND d   1      -0.642  -2.807   3.887  0.00  0.00     0.015 A 
ATOM      7  C7  IND d   1      -1.624  -2.091   3.263  0.00  0.00    -0.016 A 
ATOM      8  C8  IND d   1      -1.218  -1.013   2.489  0.00  0.00    -0.047 A 
ATOM      9  C9  IND d   1       0.130  -0.652   2.368  0.00  0.00    -0.096 A 
ATOM     10  HN1 IND d   1      -2.810  -0.097   1.685  0.00  0.00     0.298 HD
ENDROOT
TORSDOF 0
ENDMDL
