MODEL 1
REMARK minimizedAffinity -1.08555579
REMARK minimizedRMSD -1
REMARK  0 active torsions:
REMARK  status: ('A' for Active; 'I' for Inactive)
ROOT
ATOM      1  N1  IND d   1       2.189  -1.614   3.668  0.00  0.00    -0.196 N 
ATOM      2  C2  IND d   1       1.618  -2.060   4.828  0.00  0.00     0.054 A 
ATOM      3  C3  IND d   1       0.285  -1.834   4.813  0.00  0.00    -0.031 A 
ATOM      4  C4  IND d   1      -1.185  -0.838   2.949  0.00  0.00     0.051 A 
ATOM      5  C5  IND d   1      -1.111  -0.252   1.717  0.00  0.00    -0.031 A 
ATOM      6  C6  IND d   1       0.090  -0.089   1.057  0.00  0.00     0.015 A 
ATOM      7  C7  IND d   1       1.267  -0.518   1.604  0.00  0.00    -0.016 A 
ATOM      8  C8  IND d   1       1.196  -1.108   2.858  0.00  0.00    -0.047 A 
ATOM      9  C9  IND d   1      -0.014  -1.237   3.550  0.00  0.00    -0.096 A 
ATOM     10  HN1 IND d   1       3.026  -1.645   3.477  0.00  0.00     0.298 HD
ENDROOT
TORSDOF 0
ENDMDL
