MODEL 1
REMARK minimizedAffinity 2.84799099
REMARK minimizedRMSD -1
REMARK  0 active torsions:
REMARK  status: ('A' for Active; 'I' for Inactive)
ROOT
ATOM      1  N1  IND d   1       2.826  -4.473  -5.693  0.00  0.00    -0.196 N 
ATOM      2  C2  IND d   1       3.668  -3.772  -4.875  0.00  0.00     0.054 A 
ATOM      3  C3  IND d   1       3.187  -3.753  -3.612  0.00  0.00    -0.031 A 
ATOM      4  C4  IND d   1       1.092  -4.892  -2.641  0.00  0.00     0.051 A 
ATOM      5  C5  IND d   1      -0.010  -5.612  -3.008  0.00  0.00    -0.031 A 
ATOM      6  C6  IND d   1      -0.225  -6.000  -4.315  0.00  0.00     0.015 A 
ATOM      7  C7  IND d   1       0.662  -5.690  -5.306  0.00  0.00    -0.016 A 
ATOM      8  C8  IND d   1       1.779  -4.952  -4.938  0.00  0.00    -0.047 A 
ATOM      9  C9  IND d   1       1.982  -4.519  -3.621  0.00  0.00    -0.096 A 
ATOM     10  HN1 IND d   1       2.933  -4.593  -6.538  0.00  0.00     0.298 HD
ENDROOT
TORSDOF 0
ENDMDL
