MODEL 1
REMARK minimizedAffinity -0.604517579
REMARK minimizedRMSD -1
REMARK  0 active torsions:
REMARK  status: ('A' for Active; 'I' for Inactive)
ROOT
ATOM      1  N1  IND d   1      -2.110  -0.552   1.995  0.00  0.00    -0.196 N 
ATOM      2  C2  IND d   1      -2.905  -1.246   2.863  0.00  0.00     0.054 A 
ATOM      3  C3  IND d   1      -2.150  -1.892   3.780  0.00  0.00    -0.031 A 
ATOM      4  C4  IND d   1       0.404  -1.866   4.105  0.00  0.00     0.051 A 
ATOM      5  C5  IND d   1       1.558  -1.404   3.536  0.00  0.00    -0.031 A 
ATOM      6  C6  IND d   1       1.547  -0.616   2.403  0.00  0.00     0.015 A 
ATOM      7  C7  IND d   1       0.377  -0.250   1.801  0.00  0.00    -0.016 A 
ATOM      8  C8  IND d   1      -0.796  -0.723   2.372  0.00  0.00    -0.047 A 
ATOM      9  C9  IND d   1      -0.790  -1.558   3.496  0.00  0.00    -0.096 A 
ATOM     10  HN1 IND d   1      -2.384  -0.086   1.326  0.00  0.00     0.298 HD
ENDROOT
TORSDOF 0
ENDMDL
