MODEL 1
REMARK minimizedAffinity -0.720514059
REMARK minimizedRMSD -1
REMARK  0 active torsions:
REMARK  status: ('A' for Active; 'I' for Inactive)
ROOT
ATOM      1  N1  IND d   1       2.006  -1.486   3.167  0.00  0.00    -0.196 N 
ATOM      2  C2  IND d   1       1.602  -1.797   4.436  0.00  0.00     0.054 A 
ATOM      3  C3  IND d   1       0.337  -1.367   4.645  0.00  0.00    -0.031 A 
ATOM      4  C4  IND d   1      -1.292  -0.222   3.014  0.00  0.00     0.051 A 
ATOM      5  C5  IND d   1      -1.364   0.302   1.754  0.00  0.00    -0.031 A 
ATOM      6  C6  IND d   1      -0.296   0.253   0.882  0.00  0.00     0.015 A 
ATOM      7  C7  IND d   1       0.886  -0.334   1.235  0.00  0.00    -0.016 A 
ATOM      8  C8  IND d   1       0.965  -0.861   2.516  0.00  0.00    -0.047 A 
ATOM      9  C9  IND d   1      -0.102  -0.777   3.421  0.00  0.00    -0.096 A 
ATOM     10  HN1 IND d   1       2.780  -1.653   2.832  0.00  0.00     0.298 HD
ENDROOT
TORSDOF 0
ENDMDL
