MODEL 1
REMARK minimizedAffinity 8.85109806
REMARK minimizedRMSD -1
REMARK  0 active torsions:
REMARK  status: ('A' for Active; 'I' for Inactive)
ROOT
ATOM      1  N1  IND d   1       3.068  -2.189   4.129  0.00  0.00    -0.196 N 
ATOM      2  C2  IND d   1       2.812  -1.960   5.453  0.00  0.00     0.054 A 
ATOM      3  C3  IND d   1       1.786  -1.091   5.590  0.00  0.00    -0.031 A 
ATOM      4  C4  IND d   1       0.315   0.002   3.782  0.00  0.00     0.051 A 
ATOM      5  C5  IND d   1       0.189   0.126   2.426  0.00  0.00    -0.031 A 
ATOM      6  C6  IND d   1       1.030  -0.530   1.552  0.00  0.00     0.015 A 
ATOM      7  C7  IND d   1       2.028  -1.348   2.002  0.00  0.00    -0.016 A 
ATOM      8  C8  IND d   1       2.164  -1.471   3.378  0.00  0.00    -0.047 A 
ATOM      9  C9  IND d   1       1.340  -0.774   4.270  0.00  0.00    -0.096 A 
ATOM     10  HN1 IND d   1       3.690  -2.695   3.819  0.00  0.00     0.298 HD
ENDROOT
TORSDOF 0
ENDMDL
