MODEL 1
REMARK minimizedAffinity 2.98397684
REMARK minimizedRMSD -1
REMARK  0 active torsions:
REMARK  status: ('A' for Active; 'I' for Inactive)
ROOT
ATOM      1  N1  IND d   1       2.247  -1.641   3.246  0.00  0.00    -0.196 N 
ATOM      2  C2  IND d   1       1.706  -2.269   4.333  0.00  0.00     0.054 A 
ATOM      3  C3  IND d   1       0.364  -2.101   4.353  0.00  0.00    -0.031 A 
ATOM      4  C4  IND d   1      -1.162  -0.919   2.650  0.00  0.00     0.051 A 
ATOM      5  C5  IND d   1      -1.123  -0.164   1.511  0.00  0.00    -0.031 A 
ATOM      6  C6  IND d   1       0.064   0.142   0.879  0.00  0.00     0.015 A 
ATOM      7  C7  IND d   1       1.262  -0.309   1.357  0.00  0.00    -0.016 A 
ATOM      8  C8  IND d   1       1.228  -1.070   2.516  0.00  0.00    -0.047 A 
ATOM      9  C9  IND d   1       0.029  -1.348   3.186  0.00  0.00    -0.096 A 
ATOM     10  HN1 IND d   1       3.084  -1.609   3.051  0.00  0.00     0.298 HD
ENDROOT
TORSDOF 0
ENDMDL
