MODEL 1
REMARK minimizedAffinity -0.473300785
REMARK minimizedRMSD -1
REMARK  1 active torsions:
REMARK  status: ('A' for Active; 'I' for Inactive)
REMARK    1  A    between atoms: N_2  and  C1_3 
ROOT
ATOM      1  C1  UNL d   1      -1.542   0.496  -0.836  0.00  0.00     0.143 A 
ATOM      2  C2  UNL d   1      -2.228   1.346  -1.709  0.00  0.00    -0.057 A 
ATOM      3  C3  UNL d   1      -2.718   0.883  -2.937  0.00  0.00     0.033 A 
ATOM      4  C4  UNL d   1      -2.504  -0.435  -3.326  0.00  0.00    -0.042 A 
ATOM      5  C5  UNL d   1      -1.803  -1.291  -2.485  0.00  0.00     0.033 A 
ATOM      6  C6  UNL d   1      -1.322  -0.825  -1.258  0.00  0.00    -0.057 A 
ENDROOT
BRANCH   1   7
ATOM      7  N   UNL d   1      -0.945   0.920   0.354  0.00  0.00    -0.732 N 
ATOM      8  C   UNL d   1       0.385   1.491   0.348  0.00  0.00     0.284 C 
ATOM      9  H3  UNL d   1      -1.600   1.399   0.968  0.00  0.00     0.395 HD
ENDBRANCH   1   7
TORSDOF 1
ENDMDL
