MODEL 1
REMARK minimizedAffinity -4.89284468
REMARK minimizedRMSD -1
REMARK  1 active torsions:
REMARK  status: ('A' for Active; 'I' for Inactive)
REMARK    1  A    between atoms: N_2  and  C1_3 
ROOT
ATOM      1  C1  UNL d   1       0.324   0.388   0.096  0.00  0.00     0.143 A 
ATOM      2  C2  UNL d   1       0.883  -0.891   0.191  0.00  0.00    -0.057 A 
ATOM      3  C3  UNL d   1       2.247  -1.070   0.450  0.00  0.00     0.033 A 
ATOM      4  C4  UNL d   1       3.085   0.031   0.590  0.00  0.00    -0.042 A 
ATOM      5  C5  UNL d   1       2.556   1.312   0.474  0.00  0.00     0.033 A 
ATOM      6  C6  UNL d   1       1.192   1.484   0.222  0.00  0.00    -0.057 A 
ENDROOT
BRANCH   1   7
ATOM      7  N   UNL d   1      -1.005   0.632  -0.258  0.00  0.00    -0.732 N 
ATOM      8  C   UNL d   1      -1.769  -0.361  -0.983  0.00  0.00     0.284 C 
ATOM      9  H3  UNL d   1      -1.525   1.097   0.483  0.00  0.00     0.395 HD
ENDBRANCH   1   7
TORSDOF 1
ENDMDL
