MODEL 1
REMARK minimizedAffinity -4.56991053
REMARK minimizedRMSD -1
REMARK  1 active torsions:
REMARK  status: ('A' for Active; 'I' for Inactive)
REMARK    1  A    between atoms: N_2  and  C1_3 
ROOT
ATOM      1  C1  UNL d   1      -0.300  -0.325  -0.017  0.00  0.00     0.143 A 
ATOM      2  C2  UNL d   1       0.473  -1.474   0.185  0.00  0.00    -0.057 A 
ATOM      3  C3  UNL d   1       1.847  -1.389   0.444  0.00  0.00     0.033 A 
ATOM      4  C4  UNL d   1       2.479  -0.150   0.477  0.00  0.00    -0.042 A 
ATOM      5  C5  UNL d   1       1.735   1.003   0.254  0.00  0.00     0.033 A 
ATOM      6  C6  UNL d   1       0.363   0.912   0.002  0.00  0.00    -0.057 A 
ENDROOT
BRANCH   1   7
ATOM      7  N   UNL d   1      -1.649  -0.350  -0.377  0.00  0.00    -0.732 N 
ATOM      8  C   UNL d   1      -2.041  -0.488  -1.763  0.00  0.00     0.284 C 
ATOM      9  H3  UNL d   1      -2.214  -0.895   0.271  0.00  0.00     0.395 HD
ENDBRANCH   1   7
TORSDOF 1
ENDMDL
