MODEL 1
REMARK minimizedAffinity -4.47636414
REMARK minimizedRMSD -1
REMARK  1 active torsions:
REMARK  status: ('A' for Active; 'I' for Inactive)
REMARK    1  A    between atoms: N_2  and  C1_3 
ROOT
ATOM      1  C1  UNL d   1       0.029   0.217   0.066  0.00  0.00     0.143 A 
ATOM      2  C2  UNL d   1       0.489   1.524   0.258  0.00  0.00    -0.057 A 
ATOM      3  C3  UNL d   1       1.849   1.794   0.449  0.00  0.00     0.033 A 
ATOM      4  C4  UNL d   1       2.773   0.755   0.481  0.00  0.00    -0.042 A 
ATOM      5  C5  UNL d   1       2.336  -0.555   0.317  0.00  0.00     0.033 A 
ATOM      6  C6  UNL d   1       0.977  -0.818   0.120  0.00  0.00    -0.057 A 
ENDROOT
BRANCH   1   7
ATOM      7  N   UNL d   1      -1.322  -0.126  -0.031  0.00  0.00    -0.732 N 
ATOM      8  C   UNL d   1      -1.954  -0.275  -1.324  0.00  0.00     0.284 C 
ATOM      9  H3  UNL d   1      -1.592  -0.835   0.648  0.00  0.00     0.395 HD
ENDBRANCH   1   7
TORSDOF 1
ENDMDL
