MODEL 1
REMARK minimizedAffinity -5.0826025
REMARK minimizedRMSD -1
REMARK  1 active torsions:
REMARK  status: ('A' for Active; 'I' for Inactive)
REMARK    1  A    between atoms: N_2  and  C1_3 
ROOT
ATOM      1  C1  UNL d   1      -0.023  -0.023  -0.230  0.00  0.00     0.143 A 
ATOM      2  C2  UNL d   1       1.109  -0.764   0.123  0.00  0.00    -0.057 A 
ATOM      3  C3  UNL d   1       2.249  -0.143   0.648  0.00  0.00     0.033 A 
ATOM      4  C4  UNL d   1       2.287   1.239   0.801  0.00  0.00    -0.042 A 
ATOM      5  C5  UNL d   1       1.181   1.999   0.433  0.00  0.00     0.033 A 
ATOM      6  C6  UNL d   1       0.044   1.371  -0.084  0.00  0.00    -0.057 A 
ENDROOT
BRANCH   1   7
ATOM      7  N   UNL d   1      -1.150  -0.572  -0.848  0.00  0.00    -0.732 N 
ATOM      8  C   UNL d   1      -1.844   0.152  -1.892  0.00  0.00     0.284 C 
ATOM      9  H3  UNL d   1      -1.046  -1.567  -1.032  0.00  0.00     0.395 HD
ENDBRANCH   1   7
TORSDOF 1
ENDMDL
