MODEL 1
REMARK minimizedAffinity 2.67154503
REMARK minimizedRMSD -1
REMARK  1 active torsions:
REMARK  status: ('A' for Active; 'I' for Inactive)
REMARK    1  A    between atoms: N_2  and  C1_3 
ROOT
ATOM      1  C1  UNL d   1       2.968   0.292   0.303  0.00  0.00     0.143 A 
ATOM      2  C2  UNL d   1       1.740   0.618   0.889  0.00  0.00    -0.057 A 
ATOM      3  C3  UNL d   1       0.949  -0.356   1.509  0.00  0.00     0.033 A 
ATOM      4  C4  UNL d   1       1.360  -1.685   1.528  0.00  0.00    -0.042 A 
ATOM      5  C5  UNL d   1       2.565  -2.037   0.930  0.00  0.00     0.033 A 
ATOM      6  C6  UNL d   1       3.354  -1.058   0.319  0.00  0.00    -0.057 A 
ENDROOT
BRANCH   1   7
ATOM      7  N   UNL d   1       3.753   1.197  -0.415  0.00  0.00    -0.732 N 
ATOM      8  C   UNL d   1       3.250   2.515  -0.737  0.00  0.00     0.284 C 
ATOM      9  H3  UNL d   1       4.727   1.185  -0.121  0.00  0.00     0.395 HD
ENDBRANCH   1   7
TORSDOF 1
ENDMDL
