MODEL 1
REMARK minimizedAffinity -2.26591253
REMARK minimizedRMSD -1
REMARK  1 active torsions:
REMARK  status: ('A' for Active; 'I' for Inactive)
REMARK    1  A    between atoms: N_2  and  C1_3 
ROOT
ATOM      1  C1  UNL d   1       0.245   0.171   0.471  0.00  0.00     0.143 A 
ATOM      2  C2  UNL d   1       1.388  -0.447   0.989  0.00  0.00    -0.057 A 
ATOM      3  C3  UNL d   1       2.596   0.249   1.113  0.00  0.00     0.033 A 
ATOM      4  C4  UNL d   1       2.691   1.572   0.692  0.00  0.00    -0.042 A 
ATOM      5  C5  UNL d   1       1.574   2.198   0.151  0.00  0.00     0.033 A 
ATOM      6  C6  UNL d   1       0.368   1.500   0.036  0.00  0.00    -0.057 A 
ENDROOT
BRANCH   1   7
ATOM      7  N   UNL d   1      -0.959  -0.496   0.231  0.00  0.00    -0.732 N 
ATOM      8  C   UNL d   1      -1.518  -0.553  -1.103  0.00  0.00     0.284 C 
ATOM      9  H3  UNL d   1      -1.029  -1.370   0.748  0.00  0.00     0.395 HD
ENDBRANCH   1   7
TORSDOF 1
ENDMDL
