MODEL 1
REMARK minimizedAffinity -4.6731472
REMARK minimizedRMSD -1
REMARK  1 active torsions:
REMARK  status: ('A' for Active; 'I' for Inactive)
REMARK    1  A    between atoms: N_2  and  C1_3 
ROOT
ATOM      1  C1  UNL d   1       0.416   0.446   0.088  0.00  0.00     0.143 A 
ATOM      2  C2  UNL d   1       1.123  -0.732  -0.175  0.00  0.00    -0.057 A 
ATOM      3  C3  UNL d   1       2.387  -0.960   0.382  0.00  0.00     0.033 A 
ATOM      4  C4  UNL d   1       2.981   0.003   1.192  0.00  0.00    -0.042 A 
ATOM      5  C5  UNL d   1       2.307   1.192   1.447  0.00  0.00     0.033 A 
ATOM      6  C6  UNL d   1       1.042   1.410   0.893  0.00  0.00    -0.057 A 
ENDROOT
BRANCH   1   7
ATOM      7  N   UNL d   1      -0.801   0.773  -0.514  0.00  0.00    -0.732 N 
ATOM      8  C   UNL d   1      -1.818  -0.236  -0.718  0.00  0.00     0.284 C 
ATOM      9  H3  UNL d   1      -1.163   1.670  -0.197  0.00  0.00     0.395 HD
ENDBRANCH   1   7
TORSDOF 1
ENDMDL
