MODEL 1
REMARK minimizedAffinity 8.8839817
REMARK minimizedRMSD -1
REMARK  0 active torsions:
REMARK  status: ('A' for Active; 'I' for Inactive)
ROOT
ATOM      1  C2' OXE d   1       3.290  -1.869   0.382  0.00  0.00     0.078 C 
ATOM      2  C1' OXE d   1       1.733   0.221  -0.661  0.00  0.00     0.078 C 
ATOM      3  C1  OXE d   1       3.229   0.408  -0.626  0.00  0.00    -0.078 A 
ATOM      4  C2  OXE d   1       3.980  -0.601  -0.071  0.00  0.00    -0.078 A 
ATOM      5  C3  OXE d   1       5.369  -0.503  -0.065  0.00  0.00     0.003 A 
ATOM      6  C4  OXE d   1       5.998   0.678  -0.477  0.00  0.00    -0.002 A 
ATOM      7  C5  OXE d   1       5.249   1.733  -1.008  0.00  0.00    -0.002 A 
ATOM      8  C6  OXE d   1       3.870   1.598  -1.129  0.00  0.00     0.003 A 
ENDROOT
TORSDOF 0
ENDMDL
