MODEL 1
REMARK minimizedAffinity 9.50021076
REMARK minimizedRMSD -1
REMARK  0 active torsions:
REMARK  status: ('A' for Active; 'I' for Inactive)
ROOT
ATOM      1  C2' OXE d   1       3.351  -1.859   0.419  0.00  0.00     0.078 C 
ATOM      2  C1' OXE d   1       5.999  -1.266   1.139  0.00  0.00     0.078 C 
ATOM      3  C1  OXE d   1       5.334  -0.381   0.115  0.00  0.00    -0.078 A 
ATOM      4  C2  OXE d   1       4.054  -0.707  -0.266  0.00  0.00    -0.078 A 
ATOM      5  C3  OXE d   1       3.375   0.108  -1.167  0.00  0.00     0.003 A 
ATOM      6  C4  OXE d   1       4.035   1.166  -1.804  0.00  0.00    -0.002 A 
ATOM      7  C5  OXE d   1       5.352   1.490  -1.460  0.00  0.00    -0.002 A 
ATOM      8  C6  OXE d   1       6.000   0.754  -0.474  0.00  0.00     0.003 A 
ENDROOT
TORSDOF 0
ENDMDL
