MODEL 1
REMARK minimizedAffinity 8.43579102
REMARK minimizedRMSD -1
REMARK  0 active torsions:
REMARK  status: ('A' for Active; 'I' for Inactive)
ROOT
ATOM      1  C2' OXE d   1       1.686   0.374  -0.748  0.00  0.00     0.078 C 
ATOM      2  C1' OXE d   1       3.218  -1.768   0.223  0.00  0.00     0.078 C 
ATOM      3  C1  OXE d   1       3.949  -0.530  -0.232  0.00  0.00    -0.078 A 
ATOM      4  C2  OXE d   1       3.194   0.495  -0.750  0.00  0.00    -0.078 A 
ATOM      5  C3  OXE d   1       3.814   1.681  -1.134  0.00  0.00     0.003 A 
ATOM      6  C4  OXE d   1       5.211   1.781  -1.141  0.00  0.00    -0.002 A 
ATOM      7  C5  OXE d   1       6.000   0.733  -0.655  0.00  0.00    -0.002 A 
ATOM      8  C6  OXE d   1       5.384  -0.410  -0.158  0.00  0.00     0.003 A 
ENDROOT
TORSDOF 0
ENDMDL
