MODEL 1
REMARK minimizedAffinity 4.74517584
REMARK minimizedRMSD -1
REMARK  0 active torsions:
REMARK  status: ('A' for Active; 'I' for Inactive)
ROOT
ATOM      1  C2' OXE d   1       4.647   0.186  -1.228  0.00  0.00     0.078 C 
ATOM      2  C1' OXE d   1       2.369   1.129   0.114  0.00  0.00     0.078 C 
ATOM      3  C1  OXE d   1       2.369  -0.307  -0.349  0.00  0.00    -0.078 A 
ATOM      4  C2  OXE d   1       3.469  -0.746  -1.045  0.00  0.00    -0.078 A 
ATOM      5  C3  OXE d   1       3.544  -2.077  -1.447  0.00  0.00     0.003 A 
ATOM      6  C4  OXE d   1       2.446  -2.930  -1.284  0.00  0.00    -0.002 A 
ATOM      7  C5  OXE d   1       1.300  -2.491  -0.612  0.00  0.00    -0.002 A 
ATOM      8  C6  OXE d   1       1.262  -1.198  -0.101  0.00  0.00     0.003 A 
ENDROOT
TORSDOF 0
ENDMDL
