MODEL 1
REMARK minimizedAffinity 7.23365355
REMARK minimizedRMSD -1
REMARK  0 active torsions:
REMARK  status: ('A' for Active; 'I' for Inactive)
ROOT
ATOM      1  C2' OXE d   1       3.706  -2.432  -3.395  0.00  0.00     0.078 C 
ATOM      2  C1' OXE d   1       2.587  -2.937  -0.871  0.00  0.00     0.078 C 
ATOM      3  C1  OXE d   1       3.257  -1.604  -1.089  0.00  0.00    -0.078 A 
ATOM      4  C2  OXE d   1       3.843  -1.383  -2.313  0.00  0.00    -0.078 A 
ATOM      5  C3  OXE d   1       4.426  -0.149  -2.586  0.00  0.00     0.003 A 
ATOM      6  C4  OXE d   1       4.557   0.811  -1.576  0.00  0.00    -0.002 A 
ATOM      7  C5  OXE d   1       4.003   0.591  -0.310  0.00  0.00    -0.002 A 
ATOM      8  C6  OXE d   1       3.314  -0.591  -0.064  0.00  0.00     0.003 A 
ENDROOT
TORSDOF 0
ENDMDL
