MODEL 1
REMARK minimizedAffinity 17.2268867
REMARK minimizedRMSD -1
REMARK  0 active torsions:
REMARK  status: ('A' for Active; 'I' for Inactive)
ROOT
ATOM      1  C2' OXE d   1      -0.756  -4.768  -1.450  0.00  0.00     0.078 C 
ATOM      2  C1' OXE d   1      -2.936  -3.051  -1.874  0.00  0.00     0.078 C 
ATOM      3  C1  OXE d   1      -2.639  -4.086  -2.931  0.00  0.00    -0.078 A 
ATOM      4  C2  OXE d   1      -1.542  -4.891  -2.737  0.00  0.00    -0.078 A 
ATOM      5  C3  OXE d   1      -1.256  -5.898  -3.654  0.00  0.00     0.003 A 
ATOM      6  C4  OXE d   1      -1.983  -5.998  -4.847  0.00  0.00    -0.002 A 
ATOM      7  C5  OXE d   1      -3.079  -5.162  -5.082  0.00  0.00    -0.002 A 
ATOM      8  C6  OXE d   1      -3.446  -4.231  -4.117  0.00  0.00     0.003 A 
ENDROOT
TORSDOF 0
ENDMDL
