MODEL 1
REMARK minimizedAffinity 9.60077381
REMARK minimizedRMSD -1
REMARK  0 active torsions:
REMARK  status: ('A' for Active; 'I' for Inactive)
ROOT
ATOM      1  C2' OXE d   1       0.009  -4.300  -1.167  0.00  0.00     0.078 C 
ATOM      2  C1' OXE d   1       1.342  -3.146  -3.352  0.00  0.00     0.078 C 
ATOM      3  C1  OXE d   1       1.847  -2.821  -1.968  0.00  0.00    -0.078 A 
ATOM      4  C2  OXE d   1       1.160  -3.353  -0.903  0.00  0.00    -0.078 A 
ATOM      5  C3  OXE d   1       1.616  -3.129   0.393  0.00  0.00     0.003 A 
ATOM      6  C4  OXE d   1       2.675  -2.244   0.628  0.00  0.00    -0.002 A 
ATOM      7  C5  OXE d   1       3.364  -1.660  -0.441  0.00  0.00    -0.002 A 
ATOM      8  C6  OXE d   1       2.990  -1.971  -1.743  0.00  0.00     0.003 A 
ENDROOT
TORSDOF 0
ENDMDL
