MODEL 1
REMARK minimizedAffinity 10.6827517
REMARK minimizedRMSD -1
REMARK  0 active torsions:
REMARK  status: ('A' for Active; 'I' for Inactive)
ROOT
ATOM      1  C2' OXE d   1       6.000  -2.281   1.499  0.00  0.00     0.078 C 
ATOM      2  C1' OXE d   1       3.283  -2.850   1.082  0.00  0.00     0.078 C 
ATOM      3  C1  OXE d   1       3.876  -1.674   0.347  0.00  0.00    -0.078 A 
ATOM      4  C2  OXE d   1       5.194  -1.374   0.594  0.00  0.00    -0.078 A 
ATOM      5  C3  OXE d   1       5.806  -0.333  -0.099  0.00  0.00     0.003 A 
ATOM      6  C4  OXE d   1       5.051   0.507  -0.927  0.00  0.00    -0.002 A 
ATOM      7  C5  OXE d   1       3.697   0.244  -1.161  0.00  0.00    -0.002 A 
ATOM      8  C6  OXE d   1       3.106  -0.865  -0.566  0.00  0.00     0.003 A 
ENDROOT
TORSDOF 0
ENDMDL
