MODEL 1
REMARK minimizedAffinity 2.15771699
REMARK minimizedRMSD -1
REMARK  0 active torsions:
REMARK  status: ('A' for Active; 'I' for Inactive)
ROOT
ATOM      1  C2' OXE d   1       6.000  -1.881   1.189  0.00  0.00     0.078 C 
ATOM      2  C1' OXE d   1       3.368  -2.300   0.307  0.00  0.00     0.078 C 
ATOM      3  C1  OXE d   1       4.041  -1.006  -0.077  0.00  0.00    -0.078 A 
ATOM      4  C2  OXE d   1       5.312  -0.789   0.398  0.00  0.00    -0.078 A 
ATOM      5  C3  OXE d   1       5.999   0.364   0.028  0.00  0.00     0.003 A 
ATOM      6  C4  OXE d   1       5.352   1.373  -0.696  0.00  0.00    -0.002 A 
ATOM      7  C5  OXE d   1       4.044   1.190  -1.156  0.00  0.00    -0.002 A 
ATOM      8  C6  OXE d   1       3.390  -0.009  -0.892  0.00  0.00     0.003 A 
ENDROOT
TORSDOF 0
ENDMDL
