MODEL 1
REMARK minimizedAffinity 8.64509201
REMARK minimizedRMSD -1
REMARK  0 active torsions:
REMARK  status: ('A' for Active; 'I' for Inactive)
ROOT
ATOM      1  C2' OXE d   1       3.352  -2.013  -0.022  0.00  0.00     0.078 C 
ATOM      2  C1' OXE d   1       1.789   0.133  -0.934  0.00  0.00     0.078 C 
ATOM      3  C1  OXE d   1       3.267   0.368  -0.752  0.00  0.00    -0.078 A 
ATOM      4  C2  OXE d   1       4.017  -0.674  -0.261  0.00  0.00    -0.078 A 
ATOM      5  C3  OXE d   1       5.395  -0.528  -0.125  0.00  0.00     0.003 A 
ATOM      6  C4  OXE d   1       6.000   0.716  -0.339  0.00  0.00    -0.002 A 
ATOM      7  C5  OXE d   1       5.248   1.802  -0.801  0.00  0.00    -0.002 A 
ATOM      8  C6  OXE d   1       3.891   1.632  -1.053  0.00  0.00     0.003 A 
ENDROOT
TORSDOF 0
ENDMDL
