MODEL 1
REMARK minimizedAffinity 8.58713818
REMARK minimizedRMSD -1
REMARK  0 active torsions:
REMARK  status: ('A' for Active; 'I' for Inactive)
ROOT
ATOM      1  C2' OXE d   1       5.939   5.860   0.362  0.00  0.00     0.078 C 
ATOM      2  C1' OXE d   1       5.995   5.595  -2.432  0.00  0.00     0.078 C 
ATOM      3  C1  OXE d   1       5.750   4.353  -1.612  0.00  0.00    -0.078 A 
ATOM      4  C2  OXE d   1       5.771   4.484  -0.244  0.00  0.00    -0.078 A 
ATOM      5  C3  OXE d   1       5.498   3.380   0.559  0.00  0.00     0.003 A 
ATOM      6  C4  OXE d   1       5.353   2.109  -0.010  0.00  0.00    -0.002 A 
ATOM      7  C5  OXE d   1       5.368   1.946  -1.399  0.00  0.00    -0.002 A 
ATOM      8  C6  OXE d   1       5.523   3.062  -2.214  0.00  0.00     0.003 A 
ENDROOT
TORSDOF 0
ENDMDL
