MODEL 1
REMARK minimizedAffinity 7.21983719
REMARK minimizedRMSD -1
REMARK  0 active torsions:
REMARK  status: ('A' for Active; 'I' for Inactive)
ROOT
ATOM      1  C2' OXE d   1       3.360  -2.789  -3.749  0.00  0.00     0.078 C 
ATOM      2  C1' OXE d   1       6.000  -1.881  -4.041  0.00  0.00     0.078 C 
ATOM      3  C1  OXE d   1       5.134  -1.206  -3.007  0.00  0.00    -0.078 A 
ATOM      4  C2  OXE d   1       3.830  -1.625  -2.903  0.00  0.00    -0.078 A 
ATOM      5  C3  OXE d   1       3.004  -1.074  -1.928  0.00  0.00     0.003 A 
ATOM      6  C4  OXE d   1       3.444   0.009  -1.156  0.00  0.00    -0.002 A 
ATOM      7  C5  OXE d   1       4.757   0.477  -1.273  0.00  0.00    -0.002 A 
ATOM      8  C6  OXE d   1       5.626  -0.146  -2.162  0.00  0.00     0.003 A 
ENDROOT
TORSDOF 0
ENDMDL
