MODEL 1
REMARK minimizedAffinity 9.27950478
REMARK minimizedRMSD -1
REMARK  0 active torsions:
REMARK  status: ('A' for Active; 'I' for Inactive)
ROOT
ATOM      1  C2' OXE d   1      -3.608  -0.924  -2.343  0.00  0.00     0.078 C 
ATOM      2  C1' OXE d   1      -1.155   0.230  -3.074  0.00  0.00     0.078 C 
ATOM      3  C1  OXE d   1      -2.370   0.578  -3.898  0.00  0.00    -0.078 A 
ATOM      4  C2  OXE d   1      -3.557  -0.027  -3.561  0.00  0.00    -0.078 A 
ATOM      5  C3  OXE d   1      -4.719   0.301  -4.254  0.00  0.00     0.003 A 
ATOM      6  C4  OXE d   1      -4.661   1.124  -5.386  0.00  0.00    -0.002 A 
ATOM      7  C5  OXE d   1      -3.455   1.720  -5.770  0.00  0.00    -0.002 A 
ATOM      8  C6  OXE d   1      -2.311   1.491  -5.012  0.00  0.00     0.003 A 
ENDROOT
TORSDOF 0
ENDMDL
