MODEL 1
REMARK minimizedAffinity -3.39923954
REMARK minimizedRMSD -1
REMARK  0 active torsions:
REMARK  status: ('A' for Active; 'I' for Inactive)
ROOT
ATOM      1  C   UNL d   1      -2.102   0.636  -1.173  0.00  0.00     0.077 C 
ATOM      2  C1  UNL d   1      -1.031   0.007  -0.332  0.00  0.00    -0.074 A 
ATOM      3  C2  UNL d   1      -1.286  -1.152   0.408  0.00  0.00    -0.005 A 
ATOM      4  C3  UNL d   1      -0.277  -1.730   1.178  0.00  0.00     0.006 A 
ATOM      5  C4  UNL d   1       0.995  -1.157   1.216  0.00  0.00    -0.005 A 
ATOM      6  C5  UNL d   1       1.269   0.001   0.481  0.00  0.00    -0.074 A 
ATOM      7  C6  UNL d   1       2.633   0.625   0.503  0.00  0.00     0.077 C 
ATOM      8  C7  UNL d   1       0.252   0.573  -0.296  0.00  0.00    -0.001 A 
ENDROOT
TORSDOF 0
ENDMDL
