MODEL 1
REMARK minimizedAffinity -5.87433195
REMARK minimizedRMSD -1
REMARK  0 active torsions:
REMARK  status: ('A' for Active; 'I' for Inactive)
ROOT
ATOM      1  C   UNL d   1       1.173  -2.948   2.445  0.00  0.00     0.077 C 
ATOM      2  C1  UNL d   1       1.515  -1.719   1.656  0.00  0.00    -0.074 A 
ATOM      3  C2  UNL d   1       2.839  -1.286   1.537  0.00  0.00    -0.005 A 
ATOM      4  C3  UNL d   1       3.142  -0.147   0.792  0.00  0.00     0.006 A 
ATOM      5  C4  UNL d   1       2.126   0.571   0.160  0.00  0.00    -0.005 A 
ATOM      6  C5  UNL d   1       0.796   0.153   0.268  0.00  0.00    -0.074 A 
ATOM      7  C6  UNL d   1      -0.308   0.907  -0.413  0.00  0.00     0.077 C 
ATOM      8  C7  UNL d   1       0.500  -0.997   1.012  0.00  0.00    -0.001 A 
ENDROOT
TORSDOF 0
ENDMDL
