MODEL 1
REMARK minimizedAffinity -2.88606787
REMARK minimizedRMSD -1
REMARK  0 active torsions:
REMARK  status: ('A' for Active; 'I' for Inactive)
ROOT
ATOM      1  C   UNL d   1       1.776   2.307   0.301  0.00  0.00     0.077 C 
ATOM      2  C1  UNL d   1       1.705   0.809   0.268  0.00  0.00    -0.074 A 
ATOM      3  C2  UNL d   1       2.803   0.047  -0.144  0.00  0.00    -0.005 A 
ATOM      4  C3  UNL d   1       2.726  -1.346  -0.161  0.00  0.00     0.006 A 
ATOM      5  C4  UNL d   1       1.553  -1.989   0.233  0.00  0.00    -0.005 A 
ATOM      6  C5  UNL d   1       0.445  -1.244   0.649  0.00  0.00    -0.074 A 
ATOM      7  C6  UNL d   1      -0.821  -1.920   1.085  0.00  0.00     0.077 C 
ATOM      8  C7  UNL d   1       0.532   0.155   0.670  0.00  0.00    -0.001 A 
ENDROOT
TORSDOF 0
ENDMDL
