MODEL 1
REMARK minimizedAffinity -2.90596843
REMARK minimizedRMSD -1
REMARK  0 active torsions:
REMARK  status: ('A' for Active; 'I' for Inactive)
ROOT
ATOM      1  C   UNL d   1       3.013  -0.939   1.549  0.00  0.00     0.077 C 
ATOM      2  C1  UNL d   1       1.600  -0.599   1.178  0.00  0.00    -0.074 A 
ATOM      3  C2  UNL d   1       0.620  -1.593   1.095  0.00  0.00    -0.005 A 
ATOM      4  C3  UNL d   1      -0.692  -1.261   0.758  0.00  0.00     0.006 A 
ATOM      5  C4  UNL d   1      -1.037   0.066   0.501  0.00  0.00    -0.005 A 
ATOM      6  C5  UNL d   1      -0.070   1.074   0.580  0.00  0.00    -0.074 A 
ATOM      7  C6  UNL d   1      -0.426   2.507   0.316  0.00  0.00     0.077 C 
ATOM      8  C7  UNL d   1       1.244   0.733   0.926  0.00  0.00    -0.001 A 
ENDROOT
TORSDOF 0
ENDMDL
