MODEL 1
REMARK minimizedAffinity -5.29715872
REMARK minimizedRMSD -1
REMARK  0 active torsions:
REMARK  status: ('A' for Active; 'I' for Inactive)
ROOT
ATOM      1  C   UNL d   1      -0.016   1.611  -0.017  0.00  0.00     0.077 C 
ATOM      2  C1  UNL d   1       0.969   0.608   0.509  0.00  0.00    -0.074 A 
ATOM      3  C2  UNL d   1       2.343   0.864   0.474  0.00  0.00    -0.005 A 
ATOM      4  C3  UNL d   1       3.246  -0.074   0.975  0.00  0.00     0.006 A 
ATOM      5  C4  UNL d   1       2.784  -1.274   1.516  0.00  0.00    -0.005 A 
ATOM      6  C5  UNL d   1       1.413  -1.547   1.561  0.00  0.00    -0.074 A 
ATOM      7  C6  UNL d   1       0.900  -2.828   2.148  0.00  0.00     0.077 C 
ATOM      8  C7  UNL d   1       0.512  -0.597   1.061  0.00  0.00    -0.001 A 
ENDROOT
TORSDOF 0
ENDMDL
