MODEL 1
REMARK minimizedAffinity -3.04211712
REMARK minimizedRMSD -1
REMARK  0 active torsions:
REMARK  status: ('A' for Active; 'I' for Inactive)
ROOT
ATOM      1  C   UNL d   1       2.918  -1.432  -0.101  0.00  0.00     0.077 C 
ATOM      2  C1  UNL d   1       1.653  -0.628  -0.059  0.00  0.00    -0.074 A 
ATOM      3  C2  UNL d   1       1.566   0.535   0.713  0.00  0.00    -0.005 A 
ATOM      4  C3  UNL d   1       0.386   1.279   0.735  0.00  0.00     0.006 A 
ATOM      5  C4  UNL d   1      -0.718   0.867  -0.013  0.00  0.00    -0.005 A 
ATOM      6  C5  UNL d   1      -0.649  -0.293  -0.792  0.00  0.00    -0.074 A 
ATOM      7  C6  UNL d   1      -1.823  -0.744  -1.609  0.00  0.00     0.077 C 
ATOM      8  C7  UNL d   1       0.542  -1.031  -0.814  0.00  0.00    -0.001 A 
ENDROOT
TORSDOF 0
ENDMDL
