MODEL 1
REMARK minimizedAffinity -2.83054018
REMARK minimizedRMSD -1
REMARK  0 active torsions:
REMARK  status: ('A' for Active; 'I' for Inactive)
ROOT
ATOM      1  C   UNL d   1       3.338  -0.748   0.394  0.00  0.00     0.077 C 
ATOM      2  C1  UNL d   1       1.901  -0.318   0.422  0.00  0.00    -0.074 A 
ATOM      3  C2  UNL d   1       0.868  -1.253   0.302  0.00  0.00    -0.005 A 
ATOM      4  C3  UNL d   1      -0.463  -0.839   0.339  0.00  0.00     0.006 A 
ATOM      5  C4  UNL d   1      -0.775   0.512   0.497  0.00  0.00    -0.005 A 
ATOM      6  C5  UNL d   1       0.244   1.461   0.619  0.00  0.00    -0.074 A 
ATOM      7  C6  UNL d   1      -0.073   2.916   0.798  0.00  0.00     0.077 C 
ATOM      8  C7  UNL d   1       1.580   1.037   0.587  0.00  0.00    -0.001 A 
ENDROOT
TORSDOF 0
ENDMDL
