MODEL 1
REMARK minimizedAffinity 12.7028332
REMARK minimizedRMSD -1
REMARK  1 active torsions:
REMARK  status: ('A' for Active; 'I' for Inactive)
REMARK    1  A    between atoms: N_2  and  C1_3 
ROOT
ATOM      1  C1  UNL d   1      -0.082   2.251   3.382  0.00  0.00     0.143 A 
ATOM      2  C2  UNL d   1       0.671   2.385   2.210  0.00  0.00    -0.057 A 
ATOM      3  C3  UNL d   1       0.072   2.755   1.000  0.00  0.00     0.033 A 
ATOM      4  C4  UNL d   1      -1.300   2.970   0.934  0.00  0.00    -0.042 A 
ATOM      5  C5  UNL d   1      -2.073   2.818   2.080  0.00  0.00     0.033 A 
ATOM      6  C6  UNL d   1      -1.468   2.455   3.287  0.00  0.00    -0.057 A 
ENDROOT
BRANCH   1   7
ATOM      7  N   UNL d   1       0.439   1.791   4.593  0.00  0.00    -0.732 N 
ATOM      8  C   UNL d   1       0.877   0.419   4.734  0.00  0.00     0.284 C 
ATOM      9  H3  UNL d   1       1.055   2.471   5.035  0.00  0.00     0.395 HD
ENDBRANCH   1   7
TORSDOF 1
ENDMDL
