MODEL 1
REMARK minimizedAffinity 1.92956305
REMARK minimizedRMSD -1
REMARK  1 active torsions:
REMARK  status: ('A' for Active; 'I' for Inactive)
REMARK    1  A    between atoms: N_2  and  C1_3 
ROOT
ATOM      1  C1  UNL d   1       5.119   1.787  -2.041  0.00  0.00     0.143 A 
ATOM      2  C2  UNL d   1       4.351   0.744  -2.569  0.00  0.00    -0.057 A 
ATOM      3  C3  UNL d   1       3.744  -0.205  -1.736  0.00  0.00     0.033 A 
ATOM      4  C4  UNL d   1       3.919  -0.143  -0.358  0.00  0.00    -0.042 A 
ATOM      5  C5  UNL d   1       4.700   0.870   0.187  0.00  0.00     0.033 A 
ATOM      6  C6  UNL d   1       5.298   1.818  -0.649  0.00  0.00    -0.057 A 
ENDROOT
BRANCH   1   7
ATOM      7  N   UNL d   1       5.829   2.702  -2.821  0.00  0.00    -0.732 N 
ATOM      8  C   UNL d   1       5.547   4.119  -2.735  0.00  0.00     0.284 C 
ATOM      9  H3  UNL d   1       6.820   2.478  -2.878  0.00  0.00     0.395 HD
ENDBRANCH   1   7
TORSDOF 1
ENDMDL
