MODEL 1
REMARK minimizedAffinity 8.14857006
REMARK minimizedRMSD -1
REMARK  1 active torsions:
REMARK  status: ('A' for Active; 'I' for Inactive)
REMARK    1  A    between atoms: N_2  and  C1_3 
ROOT
ATOM      1  C1  UNL d   1       4.963   1.797  -1.911  0.00  0.00     0.143 A 
ATOM      2  C2  UNL d   1       4.107   0.918  -2.584  0.00  0.00    -0.057 A 
ATOM      3  C3  UNL d   1       3.216   0.095  -1.886  0.00  0.00     0.033 A 
ATOM      4  C4  UNL d   1       3.185   0.115  -0.495  0.00  0.00    -0.042 A 
ATOM      5  C5  UNL d   1       4.045   0.962   0.196  0.00  0.00     0.033 A 
ATOM      6  C6  UNL d   1       4.928   1.787  -0.508  0.00  0.00    -0.057 A 
ENDROOT
BRANCH   1   7
ATOM      7  N   UNL d   1       5.940   2.568  -2.545  0.00  0.00    -0.732 N 
ATOM      8  C   UNL d   1       5.759   3.994  -2.713  0.00  0.00     0.284 C 
ATOM      9  H3  UNL d   1       6.883   2.298  -2.275  0.00  0.00     0.395 HD
ENDBRANCH   1   7
TORSDOF 1
ENDMDL
