MODEL 1
REMARK minimizedAffinity 3.53395438
REMARK minimizedRMSD -1
REMARK  1 active torsions:
REMARK  status: ('A' for Active; 'I' for Inactive)
REMARK    1  A    between atoms: N_2  and  C1_3 
ROOT
ATOM      1  C1  UNL d   1       3.792  -0.561  -2.783  0.00  0.00     0.143 A 
ATOM      2  C2  UNL d   1       2.738  -0.712  -1.875  0.00  0.00    -0.057 A 
ATOM      3  C3  UNL d   1       2.771  -0.100  -0.616  0.00  0.00     0.033 A 
ATOM      4  C4  UNL d   1       3.876   0.652  -0.230  0.00  0.00    -0.042 A 
ATOM      5  C5  UNL d   1       4.946   0.794  -1.106  0.00  0.00     0.033 A 
ATOM      6  C6  UNL d   1       4.904   0.187  -2.365  0.00  0.00    -0.057 A 
ENDROOT
BRANCH   1   7
ATOM      7  N   UNL d   1       3.861  -1.224  -4.010  0.00  0.00    -0.732 N 
ATOM      8  C   UNL d   1       5.113  -1.309  -4.732  0.00  0.00     0.284 C 
ATOM      9  H3  UNL d   1       3.317  -2.083  -4.019  0.00  0.00     0.395 HD
ENDBRANCH   1   7
TORSDOF 1
ENDMDL
