MODEL 1
REMARK minimizedAffinity -1.0328033
REMARK minimizedRMSD -1
REMARK  0 active torsions:
REMARK  status: ('A' for Active; 'I' for Inactive)
ROOT
ATOM      1  N1  IND d   1      -0.476   0.923  -0.281  0.00  0.00    -0.196 N 
ATOM      2  C2  IND d   1      -1.158  -0.261  -0.289  0.00  0.00     0.054 A 
ATOM      3  C3  IND d   1      -0.298  -1.298  -0.410  0.00  0.00    -0.031 A 
ATOM      4  C4  IND d   1       2.274  -1.287  -0.507  0.00  0.00     0.051 A 
ATOM      5  C5  IND d   1       3.346  -0.442  -0.569  0.00  0.00    -0.031 A 
ATOM      6  C6  IND d   1       3.196   0.929  -0.535  0.00  0.00     0.015 A 
ATOM      7  C7  IND d   1       1.964   1.509  -0.426  0.00  0.00    -0.016 A 
ATOM      8  C8  IND d   1       0.872   0.654  -0.369  0.00  0.00    -0.047 A 
ATOM      9  C9  IND d   1       1.015  -0.738  -0.446  0.00  0.00    -0.096 A 
ATOM     10  HN1 IND d   1      -0.829   1.706  -0.230  0.00  0.00     0.298 HD
ENDROOT
TORSDOF 0
ENDMDL
