MODEL 1
REMARK minimizedAffinity -0.430266201
REMARK minimizedRMSD -1
REMARK  0 active torsions:
REMARK  status: ('A' for Active; 'I' for Inactive)
ROOT
ATOM      1  N1  IND d   1       2.252   1.694  -0.527  0.00  0.00    -0.196 N 
ATOM      2  C2  IND d   1       3.549   1.265  -0.479  0.00  0.00     0.054 A 
ATOM      3  C3  IND d   1       3.597  -0.085  -0.446  0.00  0.00    -0.031 A 
ATOM      4  C4  IND d   1       1.674  -1.794  -0.565  0.00  0.00     0.051 A 
ATOM      5  C5  IND d   1       0.311  -1.881  -0.580  0.00  0.00    -0.031 A 
ATOM      6  C6  IND d   1      -0.492  -0.758  -0.582  0.00  0.00     0.015 A 
ATOM      7  C7  IND d   1       0.042   0.499  -0.579  0.00  0.00    -0.016 A 
ATOM      8  C8  IND d   1       1.426   0.592  -0.556  0.00  0.00    -0.047 A 
ATOM      9  C9  IND d   1       2.245  -0.544  -0.512  0.00  0.00    -0.096 A 
ATOM     10  HN1 IND d   1       1.995   2.515  -0.537  0.00  0.00     0.298 HD
ENDROOT
TORSDOF 0
ENDMDL
