MODEL 1
REMARK minimizedAffinity -5.45423555
REMARK minimizedRMSD -1
REMARK  0 active torsions:
REMARK  status: ('A' for Active; 'I' for Inactive)
ROOT
ATOM      1  N1  IND d   1      -0.044   1.315  -0.385  0.00  0.00    -0.196 N 
ATOM      2  C2  IND d   1      -0.916   0.308  -0.689  0.00  0.00     0.054 A 
ATOM      3  C3  IND d   1      -0.275  -0.883  -0.697  0.00  0.00    -0.031 A 
ATOM      4  C4  IND d   1       2.179  -1.423  -0.138  0.00  0.00     0.051 A 
ATOM      5  C5  IND d   1       3.372  -0.826   0.162  0.00  0.00    -0.031 A 
ATOM      6  C6  IND d   1       3.489   0.541   0.301  0.00  0.00     0.015 A 
ATOM      7  C7  IND d   1       2.410   1.367   0.155  0.00  0.00    -0.016 A 
ATOM      8  C8  IND d   1       1.199   0.766  -0.157  0.00  0.00    -0.047 A 
ATOM      9  C9  IND d   1       1.083  -0.618  -0.341  0.00  0.00    -0.096 A 
ATOM     10  HN1 IND d   1      -0.239   2.152  -0.343  0.00  0.00     0.298 HD
ENDROOT
TORSDOF 0
ENDMDL
