MODEL 1
REMARK minimizedAffinity -3.31329393
REMARK minimizedRMSD -1
REMARK  0 active torsions:
REMARK  status: ('A' for Active; 'I' for Inactive)
ROOT
ATOM      1  N1  IND d   1      -0.295  -0.628  -1.446  0.00  0.00    -0.196 N 
ATOM      2  C2  IND d   1      -1.124   0.372  -1.019  0.00  0.00     0.054 A 
ATOM      3  C3  IND d   1      -0.663   0.903   0.136  0.00  0.00    -0.031 A 
ATOM      4  C4  IND d   1       1.483   0.356   1.447  0.00  0.00     0.051 A 
ATOM      5  C5  IND d   1       2.541  -0.510   1.470  0.00  0.00    -0.031 A 
ATOM      6  C6  IND d   1       2.712  -1.477   0.500  0.00  0.00     0.015 A 
ATOM      7  C7  IND d   1       1.834  -1.607  -0.539  0.00  0.00    -0.016 A 
ATOM      8  C8  IND d   1       0.755  -0.734  -0.561  0.00  0.00    -0.047 A 
ATOM      9  C9  IND d   1       0.553   0.221   0.444  0.00  0.00    -0.096 A 
ATOM     10  HN1 IND d   1      -0.410  -1.109  -2.149  0.00  0.00     0.298 HD
ENDROOT
TORSDOF 0
ENDMDL
