MODEL 1
REMARK minimizedAffinity -2.71119857
REMARK minimizedRMSD -1
REMARK  0 active torsions:
REMARK  status: ('A' for Active; 'I' for Inactive)
ROOT
ATOM      1  N1  IND d   1       2.753  -0.020   1.126  0.00  0.00    -0.196 N 
ATOM      2  C2  IND d   1       3.205  -1.278   1.412  0.00  0.00     0.054 A 
ATOM      3  C3  IND d   1       2.306  -2.204   1.008  0.00  0.00    -0.031 A 
ATOM      4  C4  IND d   1       0.075  -1.883  -0.236  0.00  0.00     0.051 A 
ATOM      5  C5  IND d   1      -0.779  -0.915  -0.683  0.00  0.00    -0.031 A 
ATOM      6  C6  IND d   1      -0.492   0.429  -0.551  0.00  0.00     0.015 A 
ATOM      7  C7  IND d   1       0.670   0.855   0.027  0.00  0.00    -0.016 A 
ATOM      8  C8  IND d   1       1.536  -0.125   0.490  0.00  0.00    -0.047 A 
ATOM      9  C9  IND d   1       1.231  -1.489   0.396  0.00  0.00    -0.096 A 
ATOM     10  HN1 IND d   1       3.161   0.714   1.313  0.00  0.00     0.298 HD
ENDROOT
TORSDOF 0
ENDMDL
