MODEL 1
REMARK minimizedAffinity -3.52534342
REMARK minimizedRMSD -1
REMARK  0 active torsions:
REMARK  status: ('A' for Active; 'I' for Inactive)
ROOT
ATOM      1  N1  IND d   1      -0.438   1.150   0.657  0.00  0.00    -0.196 N 
ATOM      2  C2  IND d   1      -1.527   0.754  -0.068  0.00  0.00     0.054 A 
ATOM      3  C3  IND d   1      -1.245  -0.369  -0.765  0.00  0.00    -0.031 A 
ATOM      4  C4  IND d   1       0.906  -1.784  -0.787  0.00  0.00     0.051 A 
ATOM      5  C5  IND d   1       2.188  -1.802  -0.312  0.00  0.00    -0.031 A 
ATOM      6  C6  IND d   1       2.669  -0.820   0.529  0.00  0.00     0.015 A 
ATOM      7  C7  IND d   1       1.878   0.217   0.937  0.00  0.00    -0.016 A 
ATOM      8  C8  IND d   1       0.579   0.243   0.452  0.00  0.00    -0.047 A 
ATOM      9  C9  IND d   1       0.098  -0.728  -0.435  0.00  0.00    -0.096 A 
ATOM     10  HN1 IND d   1      -0.395   1.848   1.158  0.00  0.00     0.298 HD
ENDROOT
TORSDOF 0
ENDMDL
