MODEL 1
REMARK minimizedAffinity -4.89538431
REMARK minimizedRMSD -1
REMARK  0 active torsions:
REMARK  status: ('A' for Active; 'I' for Inactive)
ROOT
ATOM      1  N1  IND d   1       1.225   1.566   0.071  0.00  0.00    -0.196 N 
ATOM      2  C2  IND d   1      -0.088   1.486  -0.299  0.00  0.00     0.054 A 
ATOM      3  C3  IND d   1      -0.448   0.195  -0.481  0.00  0.00    -0.031 A 
ATOM      4  C4  IND d   1       0.929  -1.952  -0.129  0.00  0.00     0.051 A 
ATOM      5  C5  IND d   1       2.189  -2.386   0.171  0.00  0.00    -0.031 A 
ATOM      6  C6  IND d   1       3.213  -1.507   0.461  0.00  0.00     0.015 A 
ATOM      7  C7  IND d   1       3.010  -0.156   0.474  0.00  0.00    -0.016 A 
ATOM      8  C8  IND d   1       1.733   0.288   0.163  0.00  0.00    -0.047 A 
ATOM      9  C9  IND d   1       0.701  -0.596  -0.174  0.00  0.00    -0.096 A 
ATOM     10  HN1 IND d   1       1.661   2.292   0.221  0.00  0.00     0.298 HD
ENDROOT
TORSDOF 0
ENDMDL
