MODEL 1
REMARK minimizedAffinity -3.24374914
REMARK minimizedRMSD -1
REMARK  0 active torsions:
REMARK  status: ('A' for Active; 'I' for Inactive)
ROOT
ATOM      1  N1  IND d   1       0.561  -0.474  -1.225  0.00  0.00    -0.196 N 
ATOM      2  C2  IND d   1      -0.161   0.685  -1.155  0.00  0.00     0.054 A 
ATOM      3  C3  IND d   1       0.537   1.634  -0.490  0.00  0.00    -0.031 A 
ATOM      4  C4  IND d   1       2.920   1.534   0.478  0.00  0.00     0.051 A 
ATOM      5  C5  IND d   1       3.961   0.674   0.690  0.00  0.00    -0.031 A 
ATOM      6  C6  IND d   1       3.923  -0.637   0.264  0.00  0.00     0.015 A 
ATOM      7  C7  IND d   1       2.841  -1.138  -0.404  0.00  0.00    -0.016 A 
ATOM      8  C8  IND d   1       1.779  -0.270  -0.615  0.00  0.00    -0.047 A 
ATOM      9  C9  IND d   1       1.795   1.050  -0.147  0.00  0.00    -0.096 A 
ATOM     10  HN1 IND d   1       0.298  -1.207  -1.589  0.00  0.00     0.298 HD
ENDROOT
TORSDOF 0
ENDMDL
