MODEL 1
REMARK minimizedAffinity -2.42901468
REMARK minimizedRMSD -1
REMARK  0 active torsions:
REMARK  status: ('A' for Active; 'I' for Inactive)
ROOT
ATOM      1  N1  IND d   1       3.336  -0.873   0.813  0.00  0.00    -0.196 N 
ATOM      2  C2  IND d   1       3.525   0.328   1.437  0.00  0.00     0.054 A 
ATOM      3  C3  IND d   1       2.431   1.109   1.296  0.00  0.00    -0.031 A 
ATOM      4  C4  IND d   1       0.178   0.580   0.168  0.00  0.00     0.051 A 
ATOM      5  C5  IND d   1      -0.457  -0.377  -0.572  0.00  0.00    -0.031 A 
ATOM      6  C6  IND d   1       0.151  -1.574  -0.893  0.00  0.00     0.015 A 
ATOM      7  C7  IND d   1       1.418  -1.864  -0.473  0.00  0.00    -0.016 A 
ATOM      8  C8  IND d   1       2.069  -0.892   0.273  0.00  0.00    -0.047 A 
ATOM      9  C9  IND d   1       1.473   0.342   0.565  0.00  0.00    -0.096 A 
ATOM     10  HN1 IND d   1       3.911  -1.511   0.767  0.00  0.00     0.298 HD
ENDROOT
TORSDOF 0
ENDMDL
