MODEL 1
REMARK minimizedAffinity 0.974659979
REMARK minimizedRMSD -1
REMARK  0 active torsions:
REMARK  status: ('A' for Active; 'I' for Inactive)
ROOT
ATOM      1  C   UNL d   1      -4.342   1.049  -0.946  0.00  0.00     0.078 C 
ATOM      2  C1  UNL d   1      -4.502  -0.117  -1.875  0.00  0.00    -0.077 A 
ATOM      3  C2  UNL d   1      -3.856  -1.333  -1.624  0.00  0.00    -0.001 A 
ATOM      4  C3  UNL d   1      -4.006  -2.407  -2.503  0.00  0.00     0.003 A 
ATOM      5  C4  UNL d   1      -4.801  -2.275  -3.640  0.00  0.00    -0.005 A 
ATOM      6  C5  UNL d   1      -5.446  -1.067  -3.900  0.00  0.00     0.003 A 
ATOM      7  C6  UNL d   1      -5.297   0.008  -3.022  0.00  0.00    -0.001 A 
ENDROOT
TORSDOF 0
ENDMDL
