MODEL 1
REMARK minimizedAffinity 7.66109848
REMARK minimizedRMSD -1
REMARK  0 active torsions:
REMARK  status: ('A' for Active; 'I' for Inactive)
ROOT
ATOM      1  C   UNL d   1       2.345  -4.255   1.500  0.00  0.00     0.078 C 
ATOM      2  C1  UNL d   1       3.595  -4.667   0.781  0.00  0.00    -0.077 A 
ATOM      3  C2  UNL d   1       3.555  -5.610  -0.253  0.00  0.00    -0.001 A 
ATOM      4  C3  UNL d   1       4.728  -5.992  -0.907  0.00  0.00     0.003 A 
ATOM      5  C4  UNL d   1       5.950  -5.436  -0.533  0.00  0.00    -0.005 A 
ATOM      6  C5  UNL d   1       6.000  -4.498   0.496  0.00  0.00     0.003 A 
ATOM      7  C6  UNL d   1       4.828  -4.116   1.151  0.00  0.00    -0.001 A 
ENDROOT
TORSDOF 0
ENDMDL
