MODEL 1
REMARK minimizedAffinity 3.13742685
REMARK minimizedRMSD -1
REMARK  0 active torsions:
REMARK  status: ('A' for Active; 'I' for Inactive)
ROOT
ATOM      1  C   UNL d   1       4.943  -4.506   1.146  0.00  0.00     0.078 C 
ATOM      2  C1  UNL d   1       3.707  -3.732   1.494  0.00  0.00    -0.077 A 
ATOM      3  C2  UNL d   1       2.575  -3.774   0.671  0.00  0.00    -0.001 A 
ATOM      4  C3  UNL d   1       1.434  -3.041   1.002  0.00  0.00     0.003 A 
ATOM      5  C4  UNL d   1       1.414  -2.260   2.156  0.00  0.00    -0.005 A 
ATOM      6  C5  UNL d   1       2.537  -2.211   2.980  0.00  0.00     0.003 A 
ATOM      7  C6  UNL d   1       3.679  -2.943   2.651  0.00  0.00    -0.001 A 
ENDROOT
TORSDOF 0
ENDMDL
