MODEL 1
REMARK minimizedAffinity 8.05181408
REMARK minimizedRMSD -1
REMARK  0 active torsions:
REMARK  status: ('A' for Active; 'I' for Inactive)
ROOT
ATOM      1  C   UNL d   1       6.000  -5.996  -0.968  0.00  0.00     0.078 C 
ATOM      2  C1  UNL d   1       5.204  -5.236   0.050  0.00  0.00    -0.077 A 
ATOM      3  C2  UNL d   1       3.861  -5.547   0.296  0.00  0.00    -0.001 A 
ATOM      4  C3  UNL d   1       3.130  -4.825   1.240  0.00  0.00     0.003 A 
ATOM      5  C4  UNL d   1       3.732  -3.786   1.946  0.00  0.00    -0.005 A 
ATOM      6  C5  UNL d   1       5.068  -3.467   1.707  0.00  0.00     0.003 A 
ATOM      7  C6  UNL d   1       5.801  -4.188   0.763  0.00  0.00    -0.001 A 
ENDROOT
TORSDOF 0
ENDMDL
