MODEL 1
REMARK minimizedAffinity 5.89004898
REMARK minimizedRMSD -1
REMARK  0 active torsions:
REMARK  status: ('A' for Active; 'I' for Inactive)
ROOT
ATOM      1  C   UNL d   1      -1.400  -1.459  -1.882  0.00  0.00     0.078 C 
ATOM      2  C1  UNL d   1      -2.750  -1.466  -2.533  0.00  0.00    -0.077 A 
ATOM      3  C2  UNL d   1      -2.974  -2.169  -3.723  0.00  0.00    -0.001 A 
ATOM      4  C3  UNL d   1      -4.234  -2.159  -4.323  0.00  0.00     0.003 A 
ATOM      5  C4  UNL d   1      -5.280  -1.446  -3.741  0.00  0.00    -0.005 A 
ATOM      6  C5  UNL d   1      -5.067  -0.742  -2.558  0.00  0.00     0.003 A 
ATOM      7  C6  UNL d   1      -3.808  -0.751  -1.956  0.00  0.00    -0.001 A 
ENDROOT
TORSDOF 0
ENDMDL
