MODEL 1
REMARK minimizedAffinity 0.528303444
REMARK minimizedRMSD -1
REMARK  0 active torsions:
REMARK  status: ('A' for Active; 'I' for Inactive)
ROOT
ATOM      1  C   UNL d   1       2.900  -3.031   1.442  0.00  0.00     0.078 C 
ATOM      2  C1  UNL d   1       1.499  -3.180   1.957  0.00  0.00    -0.077 A 
ATOM      3  C2  UNL d   1       0.842  -2.112   2.579  0.00  0.00    -0.001 A 
ATOM      4  C3  UNL d   1      -0.458  -2.268   3.063  0.00  0.00     0.003 A 
ATOM      5  C4  UNL d   1      -1.111  -3.492   2.931  0.00  0.00    -0.005 A 
ATOM      6  C5  UNL d   1      -0.464  -4.562   2.315  0.00  0.00     0.003 A 
ATOM      7  C6  UNL d   1       0.836  -4.407   1.831  0.00  0.00    -0.001 A 
ENDROOT
TORSDOF 0
ENDMDL
