MODEL 1
REMARK minimizedAffinity 3.79330063
REMARK minimizedRMSD -1
REMARK  0 active torsions:
REMARK  status: ('A' for Active; 'I' for Inactive)
ROOT
ATOM      1  C   UNL d   1       1.909  -3.558   1.428  0.00  0.00     0.078 C 
ATOM      2  C1  UNL d   1       3.204  -3.935   0.772  0.00  0.00    -0.077 A 
ATOM      3  C2  UNL d   1       3.226  -4.761  -0.359  0.00  0.00    -0.001 A 
ATOM      4  C3  UNL d   1       4.439  -5.112  -0.953  0.00  0.00     0.003 A 
ATOM      5  C4  UNL d   1       5.639  -4.641  -0.424  0.00  0.00    -0.005 A 
ATOM      6  C5  UNL d   1       5.627  -3.820   0.702  0.00  0.00     0.003 A 
ATOM      7  C6  UNL d   1       4.415  -3.469   1.298  0.00  0.00    -0.001 A 
ENDROOT
TORSDOF 0
ENDMDL
