MODEL 1
REMARK minimizedAffinity 3.62597847
REMARK minimizedRMSD -1
REMARK  1 active torsions:
REMARK  status: ('A' for Active; 'I' for Inactive)
REMARK    1  A    between atoms: N_2  and  C1_3 
ROOT
ATOM      1  C1  UNL d   1       3.522  -4.442  -1.236  0.00  0.00     0.143 A 
ATOM      2  C2  UNL d   1       3.360  -4.853  -2.563  0.00  0.00    -0.057 A 
ATOM      3  C3  UNL d   1       2.252  -5.613  -2.958  0.00  0.00     0.033 A 
ATOM      4  C4  UNL d   1       1.298  -6.000  -2.023  0.00  0.00    -0.042 A 
ATOM      5  C5  UNL d   1       1.451  -5.623  -0.693  0.00  0.00     0.033 A 
ATOM      6  C6  UNL d   1       2.556  -4.859  -0.307  0.00  0.00    -0.057 A 
ENDROOT
BRANCH   1   7
ATOM      7  N   UNL d   1       4.651  -3.770  -0.762  0.00  0.00    -0.732 N 
ATOM      8  C   UNL d   1       4.517  -2.529  -0.029  0.00  0.00     0.284 C 
ATOM      9  H3  UNL d   1       5.349  -4.404  -0.380  0.00  0.00     0.395 HD
ENDBRANCH   1   7
TORSDOF 1
ENDMDL
