MODEL 1
REMARK minimizedAffinity 6.73746204
REMARK minimizedRMSD -1
REMARK  1 active torsions:
REMARK  status: ('A' for Active; 'I' for Inactive)
REMARK    1  A    between atoms: N_2  and  C1_3 
ROOT
ATOM      1  C1  UNL d   1      -2.320   0.358  -1.403  0.00  0.00     0.143 A 
ATOM      2  C2  UNL d   1      -1.362  -0.604  -1.067  0.00  0.00    -0.057 A 
ATOM      3  C3  UNL d   1      -0.526  -1.167  -2.039  0.00  0.00     0.033 A 
ATOM      4  C4  UNL d   1      -0.654  -0.798  -3.374  0.00  0.00    -0.042 A 
ATOM      5  C5  UNL d   1      -1.617   0.139  -3.735  0.00  0.00     0.033 A 
ATOM      6  C6  UNL d   1      -2.444   0.702  -2.758  0.00  0.00    -0.057 A 
ENDROOT
BRANCH   1   7
ATOM      7  N   UNL d   1      -3.247   0.882  -0.499  0.00  0.00    -0.732 N 
ATOM      8  C   UNL d   1      -3.360   0.340   0.838  0.00  0.00     0.284 C 
ATOM      9  H3  UNL d   1      -3.299   1.897  -0.541  0.00  0.00     0.395 HD
ENDBRANCH   1   7
TORSDOF 1
ENDMDL
