MODEL 1
REMARK minimizedAffinity 6.46676397
REMARK minimizedRMSD -1
REMARK  1 active torsions:
REMARK  status: ('A' for Active; 'I' for Inactive)
REMARK    1  A    between atoms: N_2  and  C1_3 
ROOT
ATOM      1  C1  UNL d   1      -0.368   3.719   1.539  0.00  0.00     0.143 A 
ATOM      2  C2  UNL d   1       0.371   3.490   0.373  0.00  0.00    -0.057 A 
ATOM      3  C3  UNL d   1       0.563   4.502  -0.575  0.00  0.00     0.033 A 
ATOM      4  C4  UNL d   1      -0.007   5.757  -0.387  0.00  0.00    -0.042 A 
ATOM      5  C5  UNL d   1      -0.766   5.999   0.752  0.00  0.00     0.033 A 
ATOM      6  C6  UNL d   1      -0.949   4.987   1.699  0.00  0.00    -0.057 A 
ENDROOT
BRANCH   1   7
ATOM      7  N   UNL d   1      -0.677   2.726   2.472  0.00  0.00    -0.732 N 
ATOM      8  C   UNL d   1       0.372   2.059   3.214  0.00  0.00     0.284 C 
ATOM      9  H3  UNL d   1      -1.497   2.957   3.028  0.00  0.00     0.395 HD
ENDBRANCH   1   7
TORSDOF 1
ENDMDL
