MODEL 1
REMARK minimizedAffinity 4.115345
REMARK minimizedRMSD -1
REMARK  1 active torsions:
REMARK  status: ('A' for Active; 'I' for Inactive)
REMARK    1  A    between atoms: N_2  and  C1_3 
ROOT
ATOM      1  C1  UNL d   1       0.768   1.615   2.821  0.00  0.00     0.143 A 
ATOM      2  C2  UNL d   1       1.360   1.110   1.658  0.00  0.00    -0.057 A 
ATOM      3  C3  UNL d   1       1.042   1.630   0.398  0.00  0.00     0.033 A 
ATOM      4  C4  UNL d   1       0.101   2.648   0.275  0.00  0.00    -0.042 A 
ATOM      5  C5  UNL d   1      -0.518   3.147   1.415  0.00  0.00     0.033 A 
ATOM      6  C6  UNL d   1      -0.192   2.629   2.672  0.00  0.00    -0.057 A 
ENDROOT
BRANCH   1   7
ATOM      7  N   UNL d   1       0.968   1.074   4.094  0.00  0.00    -0.732 N 
ATOM      8  C   UNL d   1       1.600  -0.218   4.254  0.00  0.00     0.284 C 
ATOM      9  H3  UNL d   1       1.272   1.772   4.769  0.00  0.00     0.395 HD
ENDBRANCH   1   7
TORSDOF 1
ENDMDL
