MODEL 1
REMARK minimizedAffinity 4.08737135
REMARK minimizedRMSD -1
REMARK  1 active torsions:
REMARK  status: ('A' for Active; 'I' for Inactive)
REMARK    1  A    between atoms: N_2  and  C1_3 
ROOT
ATOM      1  C1  UNL d   1      -0.246   5.789  -2.931  0.00  0.00     0.143 A 
ATOM      2  C2  UNL d   1      -1.502   5.999  -2.353  0.00  0.00    -0.057 A 
ATOM      3  C3  UNL d   1      -1.749   5.674  -1.014  0.00  0.00     0.033 A 
ATOM      4  C4  UNL d   1      -0.747   5.105  -0.234  0.00  0.00    -0.042 A 
ATOM      5  C5  UNL d   1       0.503   4.864  -0.795  0.00  0.00     0.033 A 
ATOM      6  C6  UNL d   1       0.744   5.197  -2.131  0.00  0.00    -0.057 A 
ENDROOT
BRANCH   1   7
ATOM      7  N   UNL d   1       0.033   6.000  -4.284  0.00  0.00    -0.732 N 
ATOM      8  C   UNL d   1      -1.031   6.000  -5.265  0.00  0.00     0.284 C 
ATOM      9  H3  UNL d   1       0.731   6.725  -4.428  0.00  0.00     0.395 HD
ENDBRANCH   1   7
TORSDOF 1
ENDMDL
