MODEL 1
REMARK minimizedAffinity 6.85789776
REMARK minimizedRMSD -1
REMARK  1 active torsions:
REMARK  status: ('A' for Active; 'I' for Inactive)
REMARK    1  A    between atoms: N_2  and  C1_3 
ROOT
ATOM      1  C1  UNL d   1      -0.295   3.011   1.878  0.00  0.00     0.143 A 
ATOM      2  C2  UNL d   1      -1.232   2.194   2.520  0.00  0.00    -0.057 A 
ATOM      3  C3  UNL d   1      -0.841   1.267   3.494  0.00  0.00     0.033 A 
ATOM      4  C4  UNL d   1       0.502   1.120   3.824  0.00  0.00    -0.042 A 
ATOM      5  C5  UNL d   1       1.454   1.904   3.180  0.00  0.00     0.033 A 
ATOM      6  C6  UNL d   1       1.056   2.832   2.213  0.00  0.00    -0.057 A 
ENDROOT
BRANCH   1   7
ATOM      7  N   UNL d   1      -0.610   3.881   0.832  0.00  0.00    -0.732 N 
ATOM      8  C   UNL d   1       0.307   4.068  -0.272  0.00  0.00     0.284 C 
ATOM      9  H3  UNL d   1      -1.587   3.819   0.555  0.00  0.00     0.395 HD
ENDBRANCH   1   7
TORSDOF 1
ENDMDL
