MODEL 1
REMARK minimizedAffinity 18.2222805
REMARK minimizedRMSD -1
REMARK  0 active torsions:
REMARK  status: ('A' for Active; 'I' for Inactive)
ROOT
ATOM      1  C   UNL d   1      -0.648  -1.112   1.704  0.00  0.00     0.124 A 
ATOM      2  C1  UNL d   1       0.076  -0.936   0.533  0.00  0.00     0.062 A 
ATOM      3  C2  UNL d   1       1.410  -0.543   0.588  0.00  0.00     0.162 A 
ATOM      4  C3  UNL d   1       2.029  -0.324   1.819  0.00  0.00    -0.034 A 
ATOM      5  C4  UNL d   1       1.294  -0.503   2.992  0.00  0.00     0.162 A 
ATOM      6  C5  UNL d   1      -0.039  -0.896   2.932  0.00  0.00     0.062 A 
ATOM      7  F   UNL d   1      -0.738  -1.066   4.064  0.00  0.00    -0.097 F 
ATOM      8  F1  UNL d   1       1.858  -0.301   4.192  0.00  0.00    -0.096 F 
ATOM      9  I   UNL d   1       4.024   0.263   1.906  0.00  0.00    -0.060 I 
ATOM     10  F2  UNL d   1       2.086  -0.380  -0.559  0.00  0.00    -0.096 F 
ATOM     11  F3  UNL d   1      -0.510  -1.143  -0.655  0.00  0.00    -0.097 F 
ATOM     12  F4  UNL d   1      -1.932  -1.489   1.648  0.00  0.00    -0.092 F 
ENDROOT
TORSDOF 0
ENDMDL
