MODEL 1
REMARK minimizedAffinity 8.51874352
REMARK minimizedRMSD -1
REMARK  0 active torsions:
REMARK  status: ('A' for Active; 'I' for Inactive)
ROOT
ATOM      1  C   UNL d   1       1.755   0.197   0.300  0.00  0.00     0.124 A 
ATOM      2  C1  UNL d   1       2.775   0.830  -0.397  0.00  0.00     0.062 A 
ATOM      3  C2  UNL d   1       2.534   2.037  -1.047  0.00  0.00     0.162 A 
ATOM      4  C3  UNL d   1       1.267   2.620  -1.001  0.00  0.00    -0.034 A 
ATOM      5  C4  UNL d   1       0.247   1.977  -0.299  0.00  0.00     0.162 A 
ATOM      6  C5  UNL d   1       0.493   0.771   0.349  0.00  0.00     0.062 A 
ATOM      7  F   UNL d   1      -0.494   0.160   1.022  0.00  0.00    -0.097 F 
ATOM      8  F1  UNL d   1      -0.983   2.510  -0.235  0.00  0.00    -0.096 F 
ATOM      9  I   UNL d   1       0.903   4.425  -1.971  0.00  0.00    -0.060 I 
ATOM     10  F2  UNL d   1       3.538   2.627  -1.713  0.00  0.00    -0.096 F 
ATOM     11  F3  UNL d   1       3.995   0.278  -0.446  0.00  0.00    -0.097 F 
ATOM     12  F4  UNL d   1       1.990  -0.965   0.923  0.00  0.00    -0.092 F 
ENDROOT
TORSDOF 0
ENDMDL
