MODEL 1
REMARK minimizedAffinity 23.1896076
REMARK minimizedRMSD -1
REMARK  0 active torsions:
REMARK  status: ('A' for Active; 'I' for Inactive)
ROOT
ATOM      1  C   UNL d   1      -2.059  -2.860  -1.132  0.00  0.00     0.124 A 
ATOM      2  C1  UNL d   1      -2.840  -4.004  -1.216  0.00  0.00     0.062 A 
ATOM      3  C2  UNL d   1      -2.656  -4.902  -2.264  0.00  0.00     0.162 A 
ATOM      4  C3  UNL d   1      -1.686  -4.659  -3.236  0.00  0.00    -0.034 A 
ATOM      5  C4  UNL d   1      -0.905  -3.506  -3.146  0.00  0.00     0.162 A 
ATOM      6  C5  UNL d   1      -1.092  -2.612  -2.097  0.00  0.00     0.062 A 
ATOM      7  F   UNL d   1      -0.337  -1.507  -2.017  0.00  0.00    -0.097 F 
ATOM      8  F1  UNL d   1       0.037  -3.242  -4.064  0.00  0.00    -0.096 F 
ATOM      9  I   UNL d   1      -1.408  -5.999  -4.805  0.00  0.00    -0.060 I 
ATOM     10  F2  UNL d   1      -3.425  -6.000  -2.320  0.00  0.00    -0.096 F 
ATOM     11  F3  UNL d   1      -3.775  -4.246  -0.286  0.00  0.00    -0.097 F 
ATOM     12  F4  UNL d   1      -2.238  -1.998  -0.124  0.00  0.00    -0.092 F 
ENDROOT
TORSDOF 0
ENDMDL
