MODEL 1
REMARK minimizedAffinity 25.983572
REMARK minimizedRMSD -1
REMARK  0 active torsions:
REMARK  status: ('A' for Active; 'I' for Inactive)
ROOT
ATOM      1  C   UNL d   1       0.341  -0.825   3.068  0.00  0.00     0.124 A 
ATOM      2  C1  UNL d   1       1.629  -0.307   3.107  0.00  0.00     0.062 A 
ATOM      3  C2  UNL d   1       2.292   0.009   1.925  0.00  0.00     0.162 A 
ATOM      4  C3  UNL d   1       1.669  -0.190   0.693  0.00  0.00    -0.034 A 
ATOM      5  C4  UNL d   1       0.374  -0.712   0.662  0.00  0.00     0.162 A 
ATOM      6  C5  UNL d   1      -0.284  -1.026   1.846  0.00  0.00     0.062 A 
ATOM      7  F   UNL d   1      -1.528  -1.526   1.806  0.00  0.00    -0.097 F 
ATOM      8  F1  UNL d   1      -0.254  -0.916  -0.505  0.00  0.00    -0.096 F 
ATOM      9  I   UNL d   1       2.658   0.282  -1.076  0.00  0.00    -0.060 I 
ATOM     10  F2  UNL d   1       3.535   0.508   1.993  0.00  0.00    -0.096 F 
ATOM     11  F3  UNL d   1       2.236  -0.113   4.287  0.00  0.00    -0.097 F 
ATOM     12  F4  UNL d   1      -0.295  -1.129   4.207  0.00  0.00    -0.092 F 
ENDROOT
TORSDOF 0
ENDMDL
