MODEL 1
REMARK minimizedAffinity 14.3174124
REMARK minimizedRMSD -1
REMARK  0 active torsions:
REMARK  status: ('A' for Active; 'I' for Inactive)
ROOT
ATOM      1  C   UNL d   1       0.568   3.538  -1.383  0.00  0.00     0.124 A 
ATOM      2  C1  UNL d   1      -0.640   3.091  -0.865  0.00  0.00     0.062 A 
ATOM      3  C2  UNL d   1      -0.692   1.908  -0.134  0.00  0.00     0.162 A 
ATOM      4  C3  UNL d   1       0.467   1.163   0.084  0.00  0.00    -0.034 A 
ATOM      5  C4  UNL d   1       1.677   1.619  -0.441  0.00  0.00     0.162 A 
ATOM      6  C5  UNL d   1       1.725   2.802  -1.171  0.00  0.00     0.062 A 
ATOM      7  F   UNL d   1       2.892   3.233  -1.671  0.00  0.00    -0.097 F 
ATOM      8  F1  UNL d   1       2.811   0.928  -0.250  0.00  0.00    -0.096 F 
ATOM      9  I   UNL d   1       0.392  -0.606   1.177  0.00  0.00    -0.060 I 
ATOM     10  F2  UNL d   1      -1.873   1.500   0.355  0.00  0.00    -0.096 F 
ATOM     11  F3  UNL d   1      -1.759   3.800  -1.070  0.00  0.00    -0.097 F 
ATOM     12  F4  UNL d   1       0.616   4.677  -2.087  0.00  0.00    -0.092 F 
ENDROOT
TORSDOF 0
ENDMDL
