MODEL 1
REMARK minimizedAffinity 14.7011223
REMARK minimizedRMSD -1
REMARK  0 active torsions:
REMARK  status: ('A' for Active; 'I' for Inactive)
ROOT
ATOM      1  C   UNL d   1      -2.035  -4.454  -1.336  0.00  0.00     0.124 A 
ATOM      2  C1  UNL d   1      -0.765  -4.479  -0.778  0.00  0.00     0.062 A 
ATOM      3  C2  UNL d   1      -0.419  -3.571   0.218  0.00  0.00     0.162 A 
ATOM      4  C3  UNL d   1      -1.346  -2.629   0.663  0.00  0.00    -0.034 A 
ATOM      5  C4  UNL d   1      -2.622  -2.609   0.097  0.00  0.00     0.162 A 
ATOM      6  C5  UNL d   1      -2.962  -3.519  -0.898  0.00  0.00     0.062 A 
ATOM      7  F   UNL d   1      -4.191  -3.492  -1.436  0.00  0.00    -0.097 F 
ATOM      8  F1  UNL d   1      -3.538  -1.716   0.502  0.00  0.00    -0.096 F 
ATOM      9  I   UNL d   1      -0.833  -1.268   2.153  0.00  0.00    -0.060 I 
ATOM     10  F2  UNL d   1       0.816  -3.619   0.739  0.00  0.00    -0.096 F 
ATOM     11  F3  UNL d   1       0.133  -5.381  -1.201  0.00  0.00    -0.097 F 
ATOM     12  F4  UNL d   1      -2.365  -5.329  -2.295  0.00  0.00    -0.092 F 
ENDROOT
TORSDOF 0
ENDMDL
