MODEL 1
REMARK minimizedAffinity -0.648284733
REMARK minimizedRMSD -1
REMARK  0 active torsions:
REMARK  status: ('A' for Active; 'I' for Inactive)
ROOT
ATOM      1  C   UNL d   1       0.234  -1.921   0.495  0.00  0.00     0.124 A 
ATOM      2  C1  UNL d   1      -0.239  -1.890  -0.809  0.00  0.00     0.062 A 
ATOM      3  C2  UNL d   1      -0.974  -0.798  -1.262  0.00  0.00     0.162 A 
ATOM      4  C3  UNL d   1      -1.238   0.274  -0.409  0.00  0.00    -0.034 A 
ATOM      5  C4  UNL d   1      -0.760   0.235   0.902  0.00  0.00     0.162 A 
ATOM      6  C5  UNL d   1      -0.026  -0.859   1.349  0.00  0.00     0.062 A 
ATOM      7  F   UNL d   1       0.430  -0.887   2.610  0.00  0.00    -0.097 F 
ATOM      8  F1  UNL d   1      -0.996   1.249   1.748  0.00  0.00    -0.096 F 
ATOM      9  I   UNL d   1      -2.336   1.909  -1.081  0.00  0.00    -0.060 I 
ATOM     10  F2  UNL d   1      -1.419  -0.795  -2.527  0.00  0.00    -0.096 F 
ATOM     11  F3  UNL d   1       0.010  -2.916  -1.636  0.00  0.00    -0.097 F 
ATOM     12  F4  UNL d   1       0.940  -2.974   0.928  0.00  0.00    -0.092 F 
ENDROOT
TORSDOF 0
ENDMDL
