MODEL 1
REMARK minimizedAffinity 16.0436707
REMARK minimizedRMSD -1
REMARK  0 active torsions:
REMARK  status: ('A' for Active; 'I' for Inactive)
ROOT
ATOM      1  C   UNL d   1      -0.258   4.053  -3.075  0.00  0.00     0.124 A 
ATOM      2  C1  UNL d   1      -0.645   4.571  -4.303  0.00  0.00     0.062 A 
ATOM      3  C2  UNL d   1      -1.924   4.328  -4.794  0.00  0.00     0.162 A 
ATOM      4  C3  UNL d   1      -2.827   3.562  -4.057  0.00  0.00    -0.034 A 
ATOM      5  C4  UNL d   1      -2.431   3.043  -2.823  0.00  0.00     0.162 A 
ATOM      6  C5  UNL d   1      -1.151   3.290  -2.336  0.00  0.00     0.062 A 
ATOM      7  F   UNL d   1      -0.779   2.788  -1.150  0.00  0.00    -0.097 F 
ATOM      8  F1  UNL d   1      -3.274   2.303  -2.088  0.00  0.00    -0.096 F 
ATOM      9  I   UNL d   1      -4.741   3.195  -4.788  0.00  0.00    -0.060 I 
ATOM     10  F2  UNL d   1      -2.271   4.841  -5.984  0.00  0.00    -0.096 F 
ATOM     11  F3  UNL d   1       0.216   5.308  -5.019  0.00  0.00    -0.097 F 
ATOM     12  F4  UNL d   1       0.974   4.288  -2.605  0.00  0.00    -0.092 F 
ENDROOT
TORSDOF 0
ENDMDL
