MODEL 1
REMARK minimizedAffinity 22.2793865
REMARK minimizedRMSD -1
REMARK  0 active torsions:
REMARK  status: ('A' for Active; 'I' for Inactive)
ROOT
ATOM      1  C   UNL d   1       1.888   0.055   0.665  0.00  0.00     0.124 A 
ATOM      2  C1  UNL d   1       0.616  -0.401   0.345  0.00  0.00     0.062 A 
ATOM      3  C2  UNL d   1      -0.258  -0.799   1.353  0.00  0.00     0.162 A 
ATOM      4  C3  UNL d   1       0.135  -0.741   2.690  0.00  0.00    -0.034 A 
ATOM      5  C4  UNL d   1       1.416  -0.282   3.003  0.00  0.00     0.162 A 
ATOM      6  C5  UNL d   1       2.286   0.114   1.993  0.00  0.00     0.062 A 
ATOM      7  F   UNL d   1       3.514   0.555   2.303  0.00  0.00    -0.097 F 
ATOM      8  F1  UNL d   1       1.826  -0.213   4.278  0.00  0.00    -0.096 F 
ATOM      9  I   UNL d   1      -1.170  -1.334   4.199  0.00  0.00    -0.060 I 
ATOM     10  F2  UNL d   1      -1.481  -1.235   1.015  0.00  0.00    -0.096 F 
ATOM     11  F3  UNL d   1       0.229  -0.460  -0.937  0.00  0.00    -0.097 F 
ATOM     12  F4  UNL d   1       2.727   0.436  -0.307  0.00  0.00    -0.092 F 
ENDROOT
TORSDOF 0
ENDMDL
