MODEL 1
REMARK minimizedAffinity 19.7288876
REMARK minimizedRMSD -1
REMARK  0 active torsions:
REMARK  status: ('A' for Active; 'I' for Inactive)
ROOT
ATOM      1  C   UNL d   1       1.733  -0.772   1.046  0.00  0.00     0.124 A 
ATOM      2  C1  UNL d   1       0.416  -1.159   0.844  0.00  0.00     0.062 A 
ATOM      3  C2  UNL d   1      -0.456  -1.264   1.924  0.00  0.00     0.162 A 
ATOM      4  C3  UNL d   1      -0.014  -0.981   3.216  0.00  0.00    -0.034 A 
ATOM      5  C4  UNL d   1       1.313  -0.593   3.411  0.00  0.00     0.162 A 
ATOM      6  C5  UNL d   1       2.180  -0.490   2.329  0.00  0.00     0.062 A 
ATOM      7  F   UNL d   1       3.453  -0.116   2.526  0.00  0.00    -0.097 F 
ATOM      8  F1  UNL d   1       1.771  -0.313   4.641  0.00  0.00    -0.096 F 
ATOM      9  I   UNL d   1      -1.315  -1.136   4.833  0.00  0.00    -0.060 I 
ATOM     10  F2  UNL d   1      -1.724  -1.640   1.699  0.00  0.00    -0.096 F 
ATOM     11  F3  UNL d   1      -0.019  -1.434  -0.394  0.00  0.00    -0.097 F 
ATOM     12  F4  UNL d   1       2.571  -0.673   0.006  0.00  0.00    -0.092 F 
ENDROOT
TORSDOF 0
ENDMDL
