MODEL 1
REMARK minimizedAffinity 18.7465248
REMARK minimizedRMSD -1
REMARK  0 active torsions:
REMARK  status: ('A' for Active; 'I' for Inactive)
ROOT
ATOM      1  C   UNL d   1       0.075  -1.462   1.936  0.00  0.00     0.124 A 
ATOM      2  C1  UNL d   1       0.514  -2.597   1.268  0.00  0.00     0.062 A 
ATOM      3  C2  UNL d   1      -0.316  -3.235   0.351  0.00  0.00     0.162 A 
ATOM      4  C3  UNL d   1      -1.595  -2.739   0.096  0.00  0.00    -0.034 A 
ATOM      5  C4  UNL d   1      -2.029  -1.597   0.772  0.00  0.00     0.162 A 
ATOM      6  C5  UNL d   1      -1.196  -0.963   1.687  0.00  0.00     0.062 A 
ATOM      7  F   UNL d   1      -1.622   0.133   2.331  0.00  0.00    -0.097 F 
ATOM      8  F1  UNL d   1      -3.253  -1.094   0.550  0.00  0.00    -0.096 F 
ATOM      9  I   UNL d   1      -2.839  -3.690  -1.275  0.00  0.00    -0.060 I 
ATOM     10  F2  UNL d   1       0.134  -4.330  -0.279  0.00  0.00    -0.096 F 
ATOM     11  F3  UNL d   1       1.742  -3.081   1.507  0.00  0.00    -0.097 F 
ATOM     12  F4  UNL d   1       0.876  -0.851   2.818  0.00  0.00    -0.092 F 
ENDROOT
TORSDOF 0
ENDMDL
