MODEL 1
REMARK minimizedAffinity 12.009388
REMARK minimizedRMSD -1
REMARK  0 active torsions:
REMARK  status: ('A' for Active; 'I' for Inactive)
ROOT
ATOM      1  C   UNL d   1       0.148  -2.282  -0.462  0.00  0.00     0.124 A 
ATOM      2  C1  UNL d   1       1.356  -2.033  -1.099  0.00  0.00     0.062 A 
ATOM      3  C2  UNL d   1       2.363  -1.332  -0.441  0.00  0.00     0.162 A 
ATOM      4  C3  UNL d   1       2.166  -0.875   0.862  0.00  0.00    -0.034 A 
ATOM      5  C4  UNL d   1       0.949  -1.129   1.496  0.00  0.00     0.162 A 
ATOM      6  C5  UNL d   1      -0.054  -1.830   0.835  0.00  0.00     0.062 A 
ATOM      7  F   UNL d   1      -1.221  -2.070   1.452  0.00  0.00    -0.097 F 
ATOM      8  F1  UNL d   1       0.727  -0.704   2.749  0.00  0.00    -0.096 F 
ATOM      9  I   UNL d   1       3.669   0.173   1.849  0.00  0.00    -0.060 I 
ATOM     10  F2  UNL d   1       3.520  -1.106  -1.081  0.00  0.00    -0.096 F 
ATOM     11  F3  UNL d   1       1.554  -2.468  -2.351  0.00  0.00    -0.097 F 
ATOM     12  F4  UNL d   1      -0.819  -2.956  -1.097  0.00  0.00    -0.092 F 
ENDROOT
TORSDOF 0
ENDMDL
