MODEL 1
REMARK minimizedAffinity 13.1727915
REMARK minimizedRMSD -1
REMARK  0 active torsions:
REMARK  status: ('A' for Active; 'I' for Inactive)
ROOT
ATOM      1  C   UNL d   1       1.645  -0.514   2.202  0.00  0.00     0.124 A 
ATOM      2  C1  UNL d   1       3.031  -0.441   2.208  0.00  0.00     0.062 A 
ATOM      3  C2  UNL d   1       3.727  -0.261   1.016  0.00  0.00     0.162 A 
ATOM      4  C3  UNL d   1       3.038  -0.151  -0.192  0.00  0.00    -0.034 A 
ATOM      5  C4  UNL d   1       1.644  -0.226  -0.189  0.00  0.00     0.162 A 
ATOM      6  C5  UNL d   1       0.953  -0.407   1.004  0.00  0.00     0.062 A 
ATOM      7  F   UNL d   1      -0.386  -0.477   0.997  0.00  0.00    -0.097 F 
ATOM      8  F1  UNL d   1       0.950  -0.125  -1.333  0.00  0.00    -0.096 F 
ATOM      9  I   UNL d   1       4.075   0.119  -1.976  0.00  0.00    -0.060 I 
ATOM     10  F2  UNL d   1       5.066  -0.194   1.051  0.00  0.00    -0.096 F 
ATOM     11  F3  UNL d   1       3.702  -0.545   3.364  0.00  0.00    -0.097 F 
ATOM     12  F4  UNL d   1       0.978  -0.689   3.350  0.00  0.00    -0.092 F 
ENDROOT
TORSDOF 0
ENDMDL
