MODEL 1
REMARK minimizedAffinity 24.2345333
REMARK minimizedRMSD -1
REMARK  0 active torsions:
REMARK  status: ('A' for Active; 'I' for Inactive)
ROOT
ATOM      1  C   UNL d   1       0.571  -0.054  -0.548  0.00  0.00     0.124 A 
ATOM      2  C1  UNL d   1       0.274  -0.299  -1.881  0.00  0.00     0.062 A 
ATOM      3  C2  UNL d   1       0.578  -1.532  -2.451  0.00  0.00     0.162 A 
ATOM      4  C3  UNL d   1       1.183  -2.530  -1.687  0.00  0.00    -0.034 A 
ATOM      5  C4  UNL d   1       1.479  -2.276  -0.347  0.00  0.00     0.162 A 
ATOM      6  C5  UNL d   1       1.173  -1.042   0.218  0.00  0.00     0.062 A 
ATOM      7  F   UNL d   1       1.461  -0.808   1.507  0.00  0.00    -0.097 F 
ATOM      8  F1  UNL d   1       2.060  -3.214   0.416  0.00  0.00    -0.096 F 
ATOM      9  I   UNL d   1       1.639  -4.375  -2.536  0.00  0.00    -0.060 I 
ATOM     10  F2  UNL d   1       0.280  -1.741  -3.742  0.00  0.00    -0.096 F 
ATOM     11  F3  UNL d   1      -0.307   0.655  -2.623  0.00  0.00    -0.097 F 
ATOM     12  F4  UNL d   1       0.278   1.134  -0.002  0.00  0.00    -0.092 F 
ENDROOT
TORSDOF 0
ENDMDL
