MODEL 1
REMARK minimizedAffinity 8.91037178
REMARK minimizedRMSD -1
REMARK  0 active torsions:
REMARK  status: ('A' for Active; 'I' for Inactive)
ROOT
ATOM      1  C   UNL d   1      -2.332  -4.214   0.230  0.00  0.00     0.124 A 
ATOM      2  C1  UNL d   1      -1.450  -4.862  -0.625  0.00  0.00     0.062 A 
ATOM      3  C2  UNL d   1      -1.900  -5.371  -1.840  0.00  0.00     0.162 A 
ATOM      4  C3  UNL d   1      -3.238  -5.234  -2.209  0.00  0.00    -0.034 A 
ATOM      5  C4  UNL d   1      -4.119  -4.582  -1.344  0.00  0.00     0.162 A 
ATOM      6  C5  UNL d   1      -3.665  -4.075  -0.131  0.00  0.00     0.062 A 
ATOM      7  F   UNL d   1      -4.518  -3.449   0.693  0.00  0.00    -0.097 F 
ATOM      8  F1  UNL d   1      -5.412  -4.432  -1.667  0.00  0.00    -0.096 F 
ATOM      9  I   UNL d   1      -3.913  -5.993  -4.025  0.00  0.00    -0.060 I 
ATOM     10  F2  UNL d   1      -1.025  -5.992  -2.645  0.00  0.00    -0.096 F 
ATOM     11  F3  UNL d   1      -0.162  -4.999  -0.279  0.00  0.00    -0.097 F 
ATOM     12  F4  UNL d   1      -1.897  -3.726   1.399  0.00  0.00    -0.092 F 
ENDROOT
TORSDOF 0
ENDMDL
