MODEL 1
REMARK minimizedAffinity -4.88078737
REMARK minimizedRMSD -1
REMARK  0 active torsions:
REMARK  status: ('A' for Active; 'I' for Inactive)
ROOT
ATOM      1  C   UNL d   1      -0.822   2.952   0.787  0.00  0.00     0.124 A 
ATOM      2  C1  UNL d   1      -0.867   1.913   1.706  0.00  0.00     0.062 A 
ATOM      3  C2  UNL d   1      -0.443   0.638   1.343  0.00  0.00     0.162 A 
ATOM      4  C3  UNL d   1       0.031   0.395   0.054  0.00  0.00    -0.034 A 
ATOM      5  C4  UNL d   1       0.073   1.445  -0.866  0.00  0.00     0.162 A 
ATOM      6  C5  UNL d   1      -0.352   2.717  -0.498  0.00  0.00     0.062 A 
ATOM      7  F   UNL d   1      -0.308   3.720  -1.387  0.00  0.00    -0.097 F 
ATOM      8  F1  UNL d   1       0.523   1.246  -2.113  0.00  0.00    -0.096 F 
ATOM      9  I   UNL d   1       0.666  -1.510  -0.493  0.00  0.00    -0.060 I 
ATOM     10  F2  UNL d   1      -0.497  -0.347   2.252  0.00  0.00    -0.096 F 
ATOM     11  F3  UNL d   1      -1.321   2.137   2.948  0.00  0.00    -0.097 F 
ATOM     12  F4  UNL d   1      -1.232   4.178   1.139  0.00  0.00    -0.092 F 
ENDROOT
TORSDOF 0
ENDMDL
