MODEL 1
REMARK minimizedAffinity 0.845340133
REMARK minimizedRMSD -1
REMARK  0 active torsions:
REMARK  status: ('A' for Active; 'I' for Inactive)
ROOT
ATOM      1  C   UNL d   1      -1.426   1.723  -1.026  0.00  0.00     0.124 A 
ATOM      2  C1  UNL d   1      -0.432   1.323  -1.908  0.00  0.00     0.062 A 
ATOM      3  C2  UNL d   1       0.140   0.060  -1.792  0.00  0.00     0.162 A 
ATOM      4  C3  UNL d   1      -0.282  -0.814  -0.790  0.00  0.00    -0.034 A 
ATOM      5  C4  UNL d   1      -1.281  -0.405   0.094  0.00  0.00     0.162 A 
ATOM      6  C5  UNL d   1      -1.850   0.859  -0.026  0.00  0.00     0.062 A 
ATOM      7  F   UNL d   1      -2.810   1.244   0.828  0.00  0.00    -0.097 F 
ATOM      8  F1  UNL d   1      -1.710  -1.220   1.069  0.00  0.00    -0.096 F 
ATOM      9  I   UNL d   1       0.571  -2.705  -0.613  0.00  0.00    -0.060 I 
ATOM     10  F2  UNL d   1       1.098  -0.300  -2.659  0.00  0.00    -0.096 F 
ATOM     11  F3  UNL d   1      -0.021   2.156  -2.874  0.00  0.00    -0.097 F 
ATOM     12  F4  UNL d   1      -1.974   2.940  -1.139  0.00  0.00    -0.092 F 
ENDROOT
TORSDOF 0
ENDMDL
