MODEL 1
REMARK minimizedAffinity 2.11923575
REMARK minimizedRMSD -1
REMARK  0 active torsions:
REMARK  status: ('A' for Active; 'I' for Inactive)
ROOT
ATOM      1  C   UNL d   1       0.198  -4.197  -0.361  0.00  0.00     0.124 A 
ATOM      2  C1  UNL d   1      -0.844  -3.787  -1.181  0.00  0.00     0.062 A 
ATOM      3  C2  UNL d   1      -0.857  -2.498  -1.705  0.00  0.00     0.162 A 
ATOM      4  C3  UNL d   1       0.178  -1.609  -1.412  0.00  0.00    -0.034 A 
ATOM      5  C4  UNL d   1       1.222  -2.028  -0.587  0.00  0.00     0.162 A 
ATOM      6  C5  UNL d   1       1.230  -3.318  -0.065  0.00  0.00     0.062 A 
ATOM      7  F   UNL d   1       2.238  -3.712   0.727  0.00  0.00    -0.097 F 
ATOM      8  F1  UNL d   1       2.233  -1.199  -0.285  0.00  0.00    -0.096 F 
ATOM      9  I   UNL d   1       0.163   0.320  -2.195  0.00  0.00    -0.060 I 
ATOM     10  F2  UNL d   1      -1.877  -2.129  -2.494  0.00  0.00    -0.096 F 
ATOM     11  F3  UNL d   1      -1.843  -4.635  -1.468  0.00  0.00    -0.097 F 
ATOM     12  F4  UNL d   1       0.207  -5.438   0.143  0.00  0.00    -0.092 F 
ENDROOT
TORSDOF 0
ENDMDL
