MODEL 1
REMARK minimizedAffinity -2.29004836
REMARK minimizedRMSD -1
REMARK  0 active torsions:
REMARK  status: ('A' for Active; 'I' for Inactive)
ROOT
ATOM      1  C   UNL d   1       0.503   0.177  -1.759  0.00  0.00     0.124 A 
ATOM      2  C1  UNL d   1       0.390  -0.265  -0.449  0.00  0.00     0.062 A 
ATOM      3  C2  UNL d   1      -0.127   0.577   0.532  0.00  0.00     0.162 A 
ATOM      4  C3  UNL d   1      -0.535   1.870   0.205  0.00  0.00    -0.034 A 
ATOM      5  C4  UNL d   1      -0.417   2.308  -1.116  0.00  0.00     0.162 A 
ATOM      6  C5  UNL d   1       0.100   1.462  -2.092  0.00  0.00     0.062 A 
ATOM      7  F   UNL d   1       0.209   1.891  -3.358  0.00  0.00    -0.097 F 
ATOM      8  F1  UNL d   1      -0.800   3.545  -1.465  0.00  0.00    -0.096 F 
ATOM      9  I   UNL d   1      -1.308   3.133   1.668  0.00  0.00    -0.060 I 
ATOM     10  F2  UNL d   1      -0.225   0.124   1.790  0.00  0.00    -0.096 F 
ATOM     11  F3  UNL d   1       0.780  -1.507  -0.125  0.00  0.00    -0.097 F 
ATOM     12  F4  UNL d   1       1.001  -0.636  -2.701  0.00  0.00    -0.092 F 
ENDROOT
TORSDOF 0
ENDMDL
