MODEL 1
REMARK minimizedAffinity -4.81688166
REMARK minimizedRMSD -1
REMARK  0 active torsions:
REMARK  status: ('A' for Active; 'I' for Inactive)
ROOT
ATOM      1  C   UNL d   1      -1.321   3.229   0.421  0.00  0.00     0.124 A 
ATOM      2  C1  UNL d   1      -0.919   2.265   1.336  0.00  0.00     0.062 A 
ATOM      3  C2  UNL d   1      -0.259   1.120   0.900  0.00  0.00     0.162 A 
ATOM      4  C3  UNL d   1       0.005   0.932  -0.457  0.00  0.00    -0.034 A 
ATOM      5  C4  UNL d   1      -0.404   1.905  -1.370  0.00  0.00     0.162 A 
ATOM      6  C5  UNL d   1      -1.063   3.048  -0.930  0.00  0.00     0.062 A 
ATOM      7  F   UNL d   1      -1.450   3.979  -1.815  0.00  0.00    -0.097 F 
ATOM      8  F1  UNL d   1      -0.166   1.757  -2.682  0.00  0.00    -0.096 F 
ATOM      9  I   UNL d   1       0.991  -0.780  -1.111  0.00  0.00    -0.060 I 
ATOM     10  F2  UNL d   1       0.118   0.205   1.806  0.00  0.00    -0.096 F 
ATOM     11  F3  UNL d   1      -1.168   2.437   2.642  0.00  0.00    -0.097 F 
ATOM     12  F4  UNL d   1      -1.956   4.330   0.843  0.00  0.00    -0.092 F 
ENDROOT
TORSDOF 0
ENDMDL
