MODEL 1
REMARK minimizedAffinity -3.35309196
REMARK minimizedRMSD -1
REMARK  0 active torsions:
REMARK  status: ('A' for Active; 'I' for Inactive)
ROOT
ATOM      1  C   UNL d   1      -0.193   2.685   0.268  0.00  0.00     0.124 A 
ATOM      2  C1  UNL d   1      -0.192   1.635   1.176  0.00  0.00     0.062 A 
ATOM      3  C2  UNL d   1       0.114   0.345   0.753  0.00  0.00     0.162 A 
ATOM      4  C3  UNL d   1       0.422   0.097  -0.585  0.00  0.00    -0.034 A 
ATOM      5  C4  UNL d   1       0.418   1.158  -1.492  0.00  0.00     0.162 A 
ATOM      6  C5  UNL d   1       0.112   2.446  -1.064  0.00  0.00     0.062 A 
ATOM      7  F   UNL d   1       0.111   3.460  -1.942  0.00  0.00    -0.097 F 
ATOM      8  F1  UNL d   1       0.710   0.956  -2.785  0.00  0.00    -0.096 F 
ATOM      9  I   UNL d   1       0.880  -1.831  -1.221  0.00  0.00    -0.060 I 
ATOM     10  F2  UNL d   1       0.107  -0.651   1.652  0.00  0.00    -0.096 F 
ATOM     11  F3  UNL d   1      -0.487   1.864   2.464  0.00  0.00    -0.097 F 
ATOM     12  F4  UNL d   1      -0.489   3.926   0.678  0.00  0.00    -0.092 F 
ENDROOT
TORSDOF 0
ENDMDL
