MODEL 1
REMARK minimizedAffinity 3.05817723
REMARK minimizedRMSD -1
REMARK  0 active torsions:
REMARK  status: ('A' for Active; 'I' for Inactive)
ROOT
ATOM      1  C   UNL d   1       0.791   0.058  -1.456  0.00  0.00     0.124 A 
ATOM      2  C1  UNL d   1       0.790  -0.144  -0.083  0.00  0.00     0.062 A 
ATOM      3  C2  UNL d   1       0.093   0.724   0.752  0.00  0.00     0.162 A 
ATOM      4  C3  UNL d   1      -0.609   1.804   0.216  0.00  0.00    -0.034 A 
ATOM      5  C4  UNL d   1      -0.603   2.001  -1.166  0.00  0.00     0.162 A 
ATOM      6  C5  UNL d   1       0.095   1.130  -1.996  0.00  0.00     0.062 A 
ATOM      7  F   UNL d   1       0.095   1.327  -3.323  0.00  0.00    -0.097 F 
ATOM      8  F1  UNL d   1      -1.268   3.029  -1.715  0.00  0.00    -0.096 F 
ATOM      9  I   UNL d   1      -1.652   3.105   1.461  0.00  0.00    -0.060 I 
ATOM     10  F2  UNL d   1       0.109   0.505   2.075  0.00  0.00    -0.096 F 
ATOM     11  F3  UNL d   1       1.462  -1.179   0.441  0.00  0.00    -0.097 F 
ATOM     12  F4  UNL d   1       1.463  -0.779  -2.257  0.00  0.00    -0.092 F 
ENDROOT
TORSDOF 0
ENDMDL
