MODEL 1
REMARK minimizedAffinity 2.49754429
REMARK minimizedRMSD -1
REMARK  0 active torsions:
REMARK  status: ('A' for Active; 'I' for Inactive)
ROOT
ATOM      1  C   UNL d   1       0.193   1.811   0.370  0.00  0.00     0.124 A 
ATOM      2  C1  UNL d   1       0.435   1.546  -0.971  0.00  0.00     0.062 A 
ATOM      3  C2  UNL d   1       0.462   0.233  -1.432  0.00  0.00     0.162 A 
ATOM      4  C3  UNL d   1       0.246  -0.827  -0.551  0.00  0.00    -0.034 A 
ATOM      5  C4  UNL d   1       0.005  -0.553   0.797  0.00  0.00     0.162 A 
ATOM      6  C5  UNL d   1      -0.021   0.761   1.252  0.00  0.00     0.062 A 
ATOM      7  F   UNL d   1      -0.254   1.015   2.548  0.00  0.00    -0.097 F 
ATOM      8  F1  UNL d   1      -0.207  -1.548   1.671  0.00  0.00    -0.096 F 
ATOM      9  I   UNL d   1       0.286  -2.791  -1.236  0.00  0.00    -0.060 I 
ATOM     10  F2  UNL d   1       0.697   0.007  -2.733  0.00  0.00    -0.096 F 
ATOM     11  F3  UNL d   1       0.643   2.558  -1.825  0.00  0.00    -0.097 F 
ATOM     12  F4  UNL d   1       0.169   3.075   0.811  0.00  0.00    -0.092 F 
ENDROOT
TORSDOF 0
ENDMDL
