MODEL 1
REMARK minimizedAffinity 6.96382713
REMARK minimizedRMSD -1
REMARK  0 active torsions:
REMARK  status: ('A' for Active; 'I' for Inactive)
ROOT
ATOM      1  C   UNL d   1       0.474   2.847   0.513  0.00  0.00     0.124 A 
ATOM      2  C1  UNL d   1       0.149   2.258  -0.701  0.00  0.00     0.062 A 
ATOM      3  C2  UNL d   1      -0.038   0.881  -0.784  0.00  0.00     0.162 A 
ATOM      4  C3  UNL d   1       0.100   0.083   0.351  0.00  0.00    -0.034 A 
ATOM      5  C4  UNL d   1       0.428   0.682   1.569  0.00  0.00     0.162 A 
ATOM      6  C5  UNL d   1       0.613   2.058   1.646  0.00  0.00     0.062 A 
ATOM      7  F   UNL d   1       0.928   2.625   2.820  0.00  0.00    -0.097 F 
ATOM      8  F1  UNL d   1       0.568  -0.056   2.680  0.00  0.00    -0.096 F 
ATOM      9  I   UNL d   1      -0.178  -1.976   0.232  0.00  0.00    -0.060 I 
ATOM     10  F2  UNL d   1      -0.351   0.340  -1.970  0.00  0.00    -0.096 F 
ATOM     11  F3  UNL d   1       0.014   3.018  -1.798  0.00  0.00    -0.097 F 
ATOM     12  F4  UNL d   1       0.654   4.172   0.590  0.00  0.00    -0.092 F 
ENDROOT
TORSDOF 0
ENDMDL
