MODEL 1
REMARK minimizedAffinity 7.94877148
REMARK minimizedRMSD -1
REMARK  0 active torsions:
REMARK  status: ('A' for Active; 'I' for Inactive)
ROOT
ATOM      1  C   UNL d   1       0.070  -0.866   2.485  0.00  0.00     0.020 A 
ATOM      2  C1  UNL d   1       0.158   0.004   1.399  0.00  0.00     0.020 A 
ATOM      3  C2  UNL d   1      -0.429  -0.340   0.179  0.00  0.00     0.034 A 
ATOM      4  C3  UNL d   1      -1.106  -1.557   0.043  0.00  0.00     0.017 A 
ATOM      5  C4  UNL d   1      -1.194  -2.429   1.133  0.00  0.00     0.017 A 
ATOM      6  C5  UNL d   1      -0.605  -2.080   2.352  0.00  0.00     0.034 A 
ATOM      7 Cl   UNL d   1      -2.014  -3.948   1.041  0.00  0.00    -0.070 Cl
ATOM      8 Cl1  UNL d   1      -1.808  -1.917  -1.494  0.00  0.00    -0.070 Cl
ENDROOT
TORSDOF 0
ENDMDL
