MODEL 1
REMARK minimizedAffinity 10.0895748
REMARK minimizedRMSD -1
REMARK  0 active torsions:
REMARK  status: ('A' for Active; 'I' for Inactive)
ROOT
ATOM      1  C   UNL d   1       5.999  -0.733   0.392  0.00  0.00     0.020 A 
ATOM      2  C1  UNL d   1       5.240  -1.070   1.512  0.00  0.00     0.020 A 
ATOM      3  C2  UNL d   1       3.989  -0.480   1.710  0.00  0.00     0.034 A 
ATOM      4  C3  UNL d   1       3.495   0.450   0.788  0.00  0.00     0.017 A 
ATOM      5  C4  UNL d   1       4.259   0.787  -0.336  0.00  0.00     0.017 A 
ATOM      6  C5  UNL d   1       5.510   0.193  -0.530  0.00  0.00     0.034 A 
ATOM      7 Cl   UNL d   1       3.716   1.926  -1.517  0.00  0.00    -0.070 Cl
ATOM      8 Cl1  UNL d   1       1.941   1.139   1.096  0.00  0.00    -0.070 Cl
ENDROOT
TORSDOF 0
ENDMDL
