MODEL 1
REMARK minimizedAffinity 9.53338718
REMARK minimizedRMSD -1
REMARK  0 active torsions:
REMARK  status: ('A' for Active; 'I' for Inactive)
ROOT
ATOM      1  C   UNL d   1       1.082   1.814   1.293  0.00  0.00     0.020 A 
ATOM      2  C1  UNL d   1       1.412   0.676   2.029  0.00  0.00     0.020 A 
ATOM      3  C2  UNL d   1       2.633   0.034   1.813  0.00  0.00     0.034 A 
ATOM      4  C3  UNL d   1       3.529   0.529   0.859  0.00  0.00     0.017 A 
ATOM      5  C4  UNL d   1       3.198   1.671   0.120  0.00  0.00     0.017 A 
ATOM      6  C5  UNL d   1       1.974   2.310   0.341  0.00  0.00     0.034 A 
ATOM      7 Cl   UNL d   1       4.252   2.340  -1.074  0.00  0.00    -0.070 Cl
ATOM      8 Cl1  UNL d   1       5.021  -0.316   0.644  0.00  0.00    -0.070 Cl
ENDROOT
TORSDOF 0
ENDMDL
