MODEL 1
REMARK minimizedAffinity 5.81628466
REMARK minimizedRMSD -1
REMARK  0 active torsions:
REMARK  status: ('A' for Active; 'I' for Inactive)
ROOT
ATOM      1  C   UNL d   1       5.998  -1.130  -0.478  0.00  0.00     0.020 A 
ATOM      2  C1  UNL d   1       4.882  -0.614  -1.135  0.00  0.00     0.020 A 
ATOM      3  C2  UNL d   1       3.751  -0.243  -0.405  0.00  0.00     0.034 A 
ATOM      4  C3  UNL d   1       3.734  -0.389   0.987  0.00  0.00     0.017 A 
ATOM      5  C4  UNL d   1       4.855  -0.907   1.646  0.00  0.00     0.017 A 
ATOM      6  C5  UNL d   1       5.984  -1.276   0.909  0.00  0.00     0.034 A 
ATOM      7 Cl   UNL d   1       4.908  -1.116   3.361  0.00  0.00    -0.070 Cl
ATOM      8 Cl1  UNL d   1       2.302   0.090   1.827  0.00  0.00    -0.070 Cl
ENDROOT
TORSDOF 0
ENDMDL
