MODEL 1
REMARK minimizedAffinity 9.71304703
REMARK minimizedRMSD -1
REMARK  0 active torsions:
REMARK  status: ('A' for Active; 'I' for Inactive)
ROOT
ATOM      1  C   UNL d   1      -6.000   6.000   3.007  0.00  0.00     0.020 A 
ATOM      2  C1  UNL d   1      -5.999   5.227   1.847  0.00  0.00     0.020 A 
ATOM      3  C2  UNL d   1      -5.518   3.916   1.881  0.00  0.00     0.034 A 
ATOM      4  C3  UNL d   1      -5.036   3.375   3.078  0.00  0.00     0.017 A 
ATOM      5  C4  UNL d   1      -5.037   4.152   4.242  0.00  0.00     0.017 A 
ATOM      6  C5  UNL d   1      -5.520   5.463   4.202  0.00  0.00     0.034 A 
ATOM      7 Cl   UNL d   1      -4.457   3.553   5.757  0.00  0.00    -0.070 Cl
ATOM      8 Cl1  UNL d   1      -4.457   1.747   3.048  0.00  0.00    -0.070 Cl
ENDROOT
TORSDOF 0
ENDMDL
