MODEL 1
REMARK minimizedAffinity 2.62688327
REMARK minimizedRMSD -1
REMARK  0 active torsions:
REMARK  status: ('A' for Active; 'I' for Inactive)
ROOT
ATOM      1  C   UNL d   1      -5.654   0.154   4.864  0.00  0.00     0.020 A 
ATOM      2  C1  UNL d   1      -5.999   0.886   6.000  0.00  0.00     0.020 A 
ATOM      3  C2  UNL d   1      -5.889   2.278   5.993  0.00  0.00     0.034 A 
ATOM      4  C3  UNL d   1      -5.433   2.943   4.849  0.00  0.00     0.017 A 
ATOM      5  C4  UNL d   1      -5.087   2.207   3.710  0.00  0.00     0.017 A 
ATOM      6  C5  UNL d   1      -5.199   0.813   3.722  0.00  0.00     0.034 A 
ATOM      7 Cl   UNL d   1      -4.516   2.956   2.261  0.00  0.00    -0.070 Cl
ATOM      8 Cl1  UNL d   1      -5.322   4.666   4.912  0.00  0.00    -0.070 Cl
ENDROOT
TORSDOF 0
ENDMDL
