MODEL 1
REMARK minimizedAffinity 1.51899564
REMARK minimizedRMSD -1
REMARK  0 active torsions:
REMARK  status: ('A' for Active; 'I' for Inactive)
ROOT
ATOM      1  C   UNL d   1      -5.999  -0.038   5.519  0.00  0.00     0.020 A 
ATOM      2  C1  UNL d   1      -5.926  -0.339   4.159  0.00  0.00     0.020 A 
ATOM      3  C2  UNL d   1      -5.304   0.549   3.279  0.00  0.00     0.034 A 
ATOM      4  C3  UNL d   1      -4.753   1.743   3.758  0.00  0.00     0.017 A 
ATOM      5  C4  UNL d   1      -4.826   2.045   5.123  0.00  0.00     0.017 A 
ATOM      6  C5  UNL d   1      -5.450   1.152   5.999  0.00  0.00     0.034 A 
ATOM      7 Cl   UNL d   1      -4.169   3.499   5.787  0.00  0.00    -0.070 Cl
ATOM      8 Cl1  UNL d   1      -3.999   2.796   2.613  0.00  0.00    -0.070 Cl
ENDROOT
TORSDOF 0
ENDMDL
