MODEL 1
REMARK minimizedAffinity 4.22721004
REMARK minimizedRMSD -1
REMARK  0 active torsions:
REMARK  status: ('A' for Active; 'I' for Inactive)
ROOT
ATOM      1  C   UNL d   1      -5.708   3.333   5.585  0.00  0.00     0.020 A 
ATOM      2  C1  UNL d   1      -5.374   3.605   4.259  0.00  0.00     0.020 A 
ATOM      3  C2  UNL d   1      -5.228   2.558   3.347  0.00  0.00     0.034 A 
ATOM      4  C3  UNL d   1      -5.416   1.234   3.759  0.00  0.00     0.017 A 
ATOM      5  C4  UNL d   1      -5.752   0.962   5.091  0.00  0.00     0.017 A 
ATOM      6  C5  UNL d   1      -5.896   2.014   6.000  0.00  0.00     0.034 A 
ATOM      7 Cl   UNL d   1      -6.000  -0.646   5.674  0.00  0.00    -0.070 Cl
ATOM      8 Cl1  UNL d   1      -5.221  -0.012   2.578  0.00  0.00    -0.070 Cl
ENDROOT
TORSDOF 0
ENDMDL
