MODEL 1
REMARK minimizedAffinity 12.8246851
REMARK minimizedRMSD -1
REMARK  0 active torsions:
REMARK  status: ('A' for Active; 'I' for Inactive)
ROOT
ATOM      1  C   UNL d   1       0.524  -0.132   4.531  0.00  0.00     0.020 A 
ATOM      2  C1  UNL d   1      -0.054   1.113   4.288  0.00  0.00     0.020 A 
ATOM      3  C2  UNL d   1       0.307   1.840   3.152  0.00  0.00     0.034 A 
ATOM      4  C3  UNL d   1       1.249   1.323   2.255  0.00  0.00     0.017 A 
ATOM      5  C4  UNL d   1       1.829   0.073   2.500  0.00  0.00     0.017 A 
ATOM      6  C5  UNL d   1       1.464  -0.651   3.639  0.00  0.00     0.034 A 
ATOM      7 Cl   UNL d   1       2.998  -0.630   1.439  0.00  0.00    -0.070 Cl
ATOM      8 Cl1  UNL d   1       1.647   2.277   0.870  0.00  0.00    -0.070 Cl
ENDROOT
TORSDOF 0
ENDMDL
