MODEL 1
REMARK minimizedAffinity 17.4613781
REMARK minimizedRMSD -1
REMARK  0 active torsions:
REMARK  status: ('A' for Active; 'I' for Inactive)
ROOT
ATOM      1  C   UNL d   1       1.632   1.985   1.065  0.00  0.00     0.020 A 
ATOM      2  C1  UNL d   1       1.856   0.927   1.945  0.00  0.00     0.020 A 
ATOM      3  C2  UNL d   1       3.015   0.157   1.829  0.00  0.00     0.034 A 
ATOM      4  C3  UNL d   1       3.955   0.444   0.832  0.00  0.00     0.017 A 
ATOM      5  C4  UNL d   1       3.729   1.506  -0.051  0.00  0.00     0.017 A 
ATOM      6  C5  UNL d   1       2.566   2.274   0.069  0.00  0.00     0.034 A 
ATOM      7 Cl   UNL d   1       4.841   1.920  -1.307  0.00  0.00    -0.070 Cl
ATOM      8 Cl1  UNL d   1       5.366  -0.550   0.747  0.00  0.00    -0.070 Cl
ENDROOT
TORSDOF 0
ENDMDL
