MODEL 1
REMARK minimizedAffinity 15.8964729
REMARK minimizedRMSD -1
REMARK  0 active torsions:
REMARK  status: ('A' for Active; 'I' for Inactive)
ROOT
ATOM      1  C   UNL d   1      -1.488  -1.818  -3.179  0.00  0.00     0.020 A 
ATOM      2  C1  UNL d   1      -2.535  -2.024  -2.282  0.00  0.00     0.020 A 
ATOM      3  C2  UNL d   1      -2.916  -3.323  -1.938  0.00  0.00     0.034 A 
ATOM      4  C3  UNL d   1      -2.249  -4.421  -2.493  0.00  0.00     0.017 A 
ATOM      5  C4  UNL d   1      -1.198  -4.214  -3.394  0.00  0.00     0.017 A 
ATOM      6  C5  UNL d   1      -0.821  -2.911  -3.734  0.00  0.00     0.034 A 
ATOM      7 Cl   UNL d   1      -0.328  -5.519  -4.119  0.00  0.00    -0.070 Cl
ATOM      8 Cl1  UNL d   1      -2.772  -6.000  -2.023  0.00  0.00    -0.070 Cl
ENDROOT
TORSDOF 0
ENDMDL
