MODEL 1
REMARK minimizedAffinity 11.3795462
REMARK minimizedRMSD -1
REMARK  0 active torsions:
REMARK  status: ('A' for Active; 'I' for Inactive)
ROOT
ATOM      1  C   UNL d   1      -4.881  -1.039   4.399  0.00  0.00     0.020 A 
ATOM      2  C1  UNL d   1      -5.673  -0.817   5.525  0.00  0.00     0.020 A 
ATOM      3  C2  UNL d   1      -5.864   0.482   6.000  0.00  0.00     0.034 A 
ATOM      4  C3  UNL d   1      -5.263   1.565   5.347  0.00  0.00     0.017 A 
ATOM      5  C4  UNL d   1      -4.469   1.342   4.217  0.00  0.00     0.017 A 
ATOM      6  C5  UNL d   1      -4.281   0.039   3.746  0.00  0.00     0.034 A 
ATOM      7 Cl   UNL d   1      -3.696   2.627   3.359  0.00  0.00    -0.070 Cl
ATOM      8 Cl1  UNL d   1      -5.543   3.145   5.988  0.00  0.00    -0.070 Cl
ENDROOT
TORSDOF 0
ENDMDL
