MODEL 1
REMARK minimizedAffinity 10.5093622
REMARK minimizedRMSD -1
REMARK  0 active torsions:
REMARK  status: ('A' for Active; 'I' for Inactive)
ROOT
ATOM      1  C   UNL d   1      -4.138  -5.676  -1.261  0.00  0.00     0.020 A 
ATOM      2  C1  UNL d   1      -5.463  -5.787  -1.682  0.00  0.00     0.020 A 
ATOM      3  C2  UNL d   1      -5.998  -4.841  -2.558  0.00  0.00     0.034 A 
ATOM      4  C3  UNL d   1      -5.209  -3.779  -3.015  0.00  0.00     0.017 A 
ATOM      5  C4  UNL d   1      -3.880  -3.669  -2.592  0.00  0.00     0.017 A 
ATOM      6  C5  UNL d   1      -3.349  -4.619  -1.715  0.00  0.00     0.034 A 
ATOM      7 Cl   UNL d   1      -2.844  -2.387  -3.113  0.00  0.00    -0.070 Cl
ATOM      8 Cl1  UNL d   1      -5.937  -2.645  -4.097  0.00  0.00    -0.070 Cl
ENDROOT
TORSDOF 0
ENDMDL
