MODEL 1
REMARK minimizedAffinity 12.1379528
REMARK minimizedRMSD -1
REMARK  0 active torsions:
REMARK  status: ('A' for Active; 'I' for Inactive)
ROOT
ATOM      1  C   UNL d   1       1.121   4.040  -5.986  0.00  0.00     0.020 A 
ATOM      2  C1  UNL d   1       1.250   5.427  -5.917  0.00  0.00     0.020 A 
ATOM      3  C2  UNL d   1       2.176   5.999  -5.043  0.00  0.00     0.034 A 
ATOM      4  C3  UNL d   1       2.978   5.185  -4.235  0.00  0.00     0.017 A 
ATOM      5  C4  UNL d   1       2.849   3.793  -4.305  0.00  0.00     0.017 A 
ATOM      6  C5  UNL d   1       1.919   3.225  -5.182  0.00  0.00     0.034 A 
ATOM      7 Cl   UNL d   1       3.803   2.723  -3.339  0.00  0.00    -0.070 Cl
ATOM      8 Cl1  UNL d   1       4.103   5.961  -3.177  0.00  0.00    -0.070 Cl
ENDROOT
TORSDOF 0
ENDMDL
