MODEL 1
REMARK minimizedAffinity 13.9739113
REMARK minimizedRMSD -1
REMARK  0 active torsions:
REMARK  status: ('A' for Active; 'I' for Inactive)
ROOT
ATOM      1  C   UNL d   1      -5.145   5.105   5.998  0.00  0.00     0.020 A 
ATOM      2  C1  UNL d   1      -5.745   5.995   5.107  0.00  0.00     0.020 A 
ATOM      3  C2  UNL d   1      -5.999   5.602   3.792  0.00  0.00     0.034 A 
ATOM      4  C3  UNL d   1      -5.654   4.315   3.363  0.00  0.00     0.017 A 
ATOM      5  C4  UNL d   1      -5.053   3.422   4.258  0.00  0.00     0.017 A 
ATOM      6  C5  UNL d   1      -4.800   3.822   5.574  0.00  0.00     0.034 A 
ATOM      7 Cl   UNL d   1      -4.599   1.818   3.802  0.00  0.00    -0.070 Cl
ATOM      8 Cl1  UNL d   1      -5.999   3.895   1.723  0.00  0.00    -0.070 Cl
ENDROOT
TORSDOF 0
ENDMDL
