MODEL 1
REMARK minimizedAffinity 17.5378551
REMARK minimizedRMSD -1
REMARK  0 active torsions:
REMARK  status: ('A' for Active; 'I' for Inactive)
ROOT
ATOM      1  C   UNL d   1      -0.723  -1.393  -0.396  0.00  0.00     0.020 A 
ATOM      2  C1  UNL d   1      -1.857  -1.845   0.277  0.00  0.00     0.020 A 
ATOM      3  C2  UNL d   1      -2.863  -2.516  -0.421  0.00  0.00     0.034 A 
ATOM      4  C3  UNL d   1      -2.737  -2.737  -1.797  0.00  0.00     0.017 A 
ATOM      5  C4  UNL d   1      -1.598  -2.284  -2.473  0.00  0.00     0.017 A 
ATOM      6  C5  UNL d   1      -0.594  -1.613  -1.768  0.00  0.00     0.034 A 
ATOM      7 Cl   UNL d   1      -1.371  -2.521  -4.170  0.00  0.00    -0.070 Cl
ATOM      8 Cl1  UNL d   1      -4.019  -3.575  -2.597  0.00  0.00    -0.070 Cl
ENDROOT
TORSDOF 0
ENDMDL
