MODEL 1
REMARK minimizedAffinity 16.1397781
REMARK minimizedRMSD -1
REMARK  0 active torsions:
REMARK  status: ('A' for Active; 'I' for Inactive)
ROOT
ATOM      1  C   UNL d   1      -5.481  -5.995  -2.315  0.00  0.00     0.020 A 
ATOM      2  C1  UNL d   1      -4.219  -5.967  -1.723  0.00  0.00     0.020 A 
ATOM      3  C2  UNL d   1      -3.347  -4.908  -1.988  0.00  0.00     0.034 A 
ATOM      4  C3  UNL d   1      -3.736  -3.873  -2.846  0.00  0.00     0.017 A 
ATOM      5  C4  UNL d   1      -5.004  -3.902  -3.439  0.00  0.00     0.017 A 
ATOM      6  C5  UNL d   1      -5.873  -4.964  -3.170  0.00  0.00     0.034 A 
ATOM      7 Cl   UNL d   1      -5.555  -2.661  -4.508  0.00  0.00    -0.070 Cl
ATOM      8 Cl1  UNL d   1      -2.608  -2.596  -3.127  0.00  0.00    -0.070 Cl
ENDROOT
TORSDOF 0
ENDMDL
