MODEL 1
REMARK minimizedAffinity 7.6174674
REMARK minimizedRMSD -1
REMARK  0 active torsions:
REMARK  status: ('A' for Active; 'I' for Inactive)
ROOT
ATOM      1  C   UNL d   1      -1.750  -5.999   1.950  0.00  0.00     0.020 A 
ATOM      2  C1  UNL d   1      -3.016  -5.495   1.656  0.00  0.00     0.020 A 
ATOM      3  C2  UNL d   1      -3.150  -4.407   0.791  0.00  0.00     0.034 A 
ATOM      4  C3  UNL d   1      -2.016  -3.819   0.218  0.00  0.00     0.017 A 
ATOM      5  C4  UNL d   1      -0.745  -4.326   0.514  0.00  0.00     0.017 A 
ATOM      6  C5  UNL d   1      -0.617  -5.416   1.381  0.00  0.00     0.034 A 
ATOM      7 Cl   UNL d   1       0.700  -3.655  -0.154  0.00  0.00    -0.070 Cl
ATOM      8 Cl1  UNL d   1      -2.255  -2.477  -0.843  0.00  0.00    -0.070 Cl
ENDROOT
TORSDOF 0
ENDMDL
