MODEL 1
REMARK minimizedAffinity 10.915946
REMARK minimizedRMSD -1
REMARK  0 active torsions:
REMARK  status: ('A' for Active; 'I' for Inactive)
ROOT
ATOM      1  C   UNL d   1       2.412   1.208   0.156  0.00  0.00     0.020 A 
ATOM      2  C1  UNL d   1       1.930   1.354   1.456  0.00  0.00     0.020 A 
ATOM      3  C2  UNL d   1       2.605   0.755   2.522  0.00  0.00     0.034 A 
ATOM      4  C3  UNL d   1       3.765   0.006   2.289  0.00  0.00     0.017 A 
ATOM      5  C4  UNL d   1       4.247  -0.140   0.983  0.00  0.00     0.017 A 
ATOM      6  C5  UNL d   1       3.568   0.462  -0.080  0.00  0.00     0.034 A 
ATOM      7 Cl   UNL d   1       5.672  -1.048   0.618  0.00  0.00    -0.070 Cl
ATOM      8 Cl1  UNL d   1       4.548  -0.707   3.654  0.00  0.00    -0.070 Cl
ENDROOT
TORSDOF 0
ENDMDL
