MODEL 1
REMARK minimizedAffinity 18.3869057
REMARK minimizedRMSD -1
REMARK  0 active torsions:
REMARK  status: ('A' for Active; 'I' for Inactive)
ROOT
ATOM      1  C   UNL d   1      -1.695  -2.083  -3.831  0.00  0.00     0.020 A 
ATOM      2  C1  UNL d   1      -2.869  -2.703  -3.406  0.00  0.00     0.020 A 
ATOM      3  C2  UNL d   1      -3.192  -2.730  -2.048  0.00  0.00     0.034 A 
ATOM      4  C3  UNL d   1      -2.341  -2.135  -1.110  0.00  0.00     0.017 A 
ATOM      5  C4  UNL d   1      -1.163  -1.512  -1.537  0.00  0.00     0.017 A 
ATOM      6  C5  UNL d   1      -0.844  -1.488  -2.899  0.00  0.00     0.034 A 
ATOM      7 Cl   UNL d   1      -0.062  -0.756  -0.439  0.00  0.00    -0.070 Cl
ATOM      8 Cl1  UNL d   1      -2.803  -2.205   0.554  0.00  0.00    -0.070 Cl
ENDROOT
TORSDOF 0
ENDMDL
