MODEL 1
REMARK minimizedAffinity 11.8338156
REMARK minimizedRMSD -1
REMARK  3 active torsions:
REMARK  status: ('A' for Active; 'I' for Inactive)
REMARK    1  A    between atoms: C3'_2  and  C2'_3 
REMARK    2  A    between atoms: C2'_3  and  C1'_4 
REMARK    3  A    between atoms: C1'_4  and  C1_5 
ROOT
ATOM      1  C1  N4B d   1       1.413  -3.402   4.221  0.00  0.00    -0.075 A 
ATOM      2  C2  N4B d   1       0.713  -2.176   4.186  0.00  0.00     0.002 A 
ATOM      3  C3  N4B d   1       0.551  -1.512   2.995  0.00  0.00     0.002 A 
ATOM      4  C4  N4B d   1       1.094  -2.043   1.834  0.00  0.00    -0.004 A 
ATOM      5  C5  N4B d   1       1.746  -3.240   1.873  0.00  0.00     0.002 A 
ATOM      6  C6  N4B d   1       1.913  -3.921   3.062  0.00  0.00     0.002 A 
ENDROOT
BRANCH   1   7
ATOM      7  C1' N4B d   1       1.690  -4.122   5.513  0.00  0.00     0.057 C 
BRANCH   7   8
ATOM      8  C2' N4B d   1       3.091  -3.759   5.998  0.00  0.00     0.009 C 
BRANCH   8   9
ATOM      9  C3' N4B d   1       4.020  -4.961   5.999  0.00  0.00     0.004 C 
ATOM     10  C4' N4B d   1       5.469  -4.574   5.999  0.00  0.00     0.003 C 
ENDBRANCH   8   9
ENDBRANCH   7   8
ENDBRANCH   1   7
TORSDOF 3
ENDMDL
