MODEL 1
REMARK minimizedAffinity 1.90017676
REMARK minimizedRMSD -1
REMARK  3 active torsions:
REMARK  status: ('A' for Active; 'I' for Inactive)
REMARK    1  A    between atoms: C3'_2  and  C2'_3 
REMARK    2  A    between atoms: C2'_3  and  C1'_4 
REMARK    3  A    between atoms: C1'_4  and  C1_5 
ROOT
ATOM      1  C1  N4B d   1      -0.972  -2.883   0.570  0.00  0.00    -0.075 A 
ATOM      2  C2  N4B d   1      -2.230  -3.495   0.764  0.00  0.00     0.002 A 
ATOM      3  C3  N4B d   1      -2.409  -4.817   0.437  0.00  0.00     0.002 A 
ATOM      4  C4  N4B d   1      -1.354  -5.539  -0.100  0.00  0.00    -0.004 A 
ATOM      5  C5  N4B d   1      -0.135  -4.948  -0.261  0.00  0.00     0.002 A 
ATOM      6  C6  N4B d   1       0.060  -3.622   0.067  0.00  0.00     0.002 A 
ENDROOT
BRANCH   1   7
ATOM      7  C1' N4B d   1      -0.752  -1.419   0.831  0.00  0.00     0.057 C 
BRANCH   7   8
ATOM      8  C2' N4B d   1      -1.866  -0.618   0.163  0.00  0.00     0.009 C 
BRANCH   8   9
ATOM      9  C3' N4B d   1      -1.332   0.614  -0.548  0.00  0.00     0.004 C 
ATOM     10  C4' N4B d   1      -2.067   0.914  -1.820  0.00  0.00     0.003 C 
ENDBRANCH   8   9
ENDBRANCH   7   8
ENDBRANCH   1   7
TORSDOF 3
ENDMDL
