MODEL 1
REMARK minimizedAffinity 8.3718586
REMARK minimizedRMSD -1
REMARK  3 active torsions:
REMARK  status: ('A' for Active; 'I' for Inactive)
REMARK    1  A    between atoms: C3'_2  and  C2'_3 
REMARK    2  A    between atoms: C2'_3  and  C1'_4 
REMARK    3  A    between atoms: C1'_4  and  C1_5 
ROOT
ATOM      1  C1  N4B d   1      -3.682   2.123  -3.086  0.00  0.00    -0.075 A 
ATOM      2  C2  N4B d   1      -3.462   2.375  -4.458  0.00  0.00     0.002 A 
ATOM      3  C3  N4B d   1      -3.729   3.617  -4.980  0.00  0.00     0.002 A 
ATOM      4  C4  N4B d   1      -4.232   4.613  -4.157  0.00  0.00    -0.004 A 
ATOM      5  C5  N4B d   1      -4.418   4.369  -2.828  0.00  0.00     0.002 A 
ATOM      6  C6  N4B d   1      -4.150   3.127  -2.289  0.00  0.00     0.002 A 
ENDROOT
BRANCH   1   7
ATOM      7  C1' N4B d   1      -3.486   0.757  -2.488  0.00  0.00     0.057 C 
BRANCH   7   8
ATOM      8  C2' N4B d   1      -2.223   0.762  -1.631  0.00  0.00     0.009 C 
BRANCH   8   9
ATOM      9  C3' N4B d   1      -2.525   0.463  -0.173  0.00  0.00     0.004 C 
ATOM     10  C4' N4B d   1      -2.227  -0.958   0.203  0.00  0.00     0.003 C 
ENDBRANCH   8   9
ENDBRANCH   7   8
ENDBRANCH   1   7
TORSDOF 3
ENDMDL
