MODEL 1
REMARK minimizedAffinity 1.36099899
REMARK minimizedRMSD -1
REMARK  3 active torsions:
REMARK  status: ('A' for Active; 'I' for Inactive)
REMARK    1  A    between atoms: C3'_2  and  C2'_3 
REMARK    2  A    between atoms: C2'_3  and  C1'_4 
REMARK    3  A    between atoms: C1'_4  and  C1_5 
ROOT
ATOM      1  C1  N4B d   1       1.717  -2.204   3.643  0.00  0.00    -0.075 A 
ATOM      2  C2  N4B d   1       1.048  -1.818   4.825  0.00  0.00     0.002 A 
ATOM      3  C3  N4B d   1       1.265  -2.507   5.993  0.00  0.00     0.002 A 
ATOM      4  C4  N4B d   1       2.129  -3.591   5.999  0.00  0.00    -0.004 A 
ATOM      5  C5  N4B d   1       2.792  -3.942   4.859  0.00  0.00     0.002 A 
ATOM      6  C6  N4B d   1       2.586  -3.256   3.679  0.00  0.00     0.002 A 
ENDROOT
BRANCH   1   7
ATOM      7  C1' N4B d   1       1.447  -1.535   2.323  0.00  0.00     0.057 C 
BRANCH   7   8
ATOM      8  C2' N4B d   1       2.029  -2.389   1.200  0.00  0.00     0.009 C 
BRANCH   8   9
ATOM      9  C3' N4B d   1       3.039  -1.619   0.366  0.00  0.00     0.004 C 
ATOM     10  C4' N4B d   1       4.408  -2.228   0.405  0.00  0.00     0.003 C 
ENDBRANCH   8   9
ENDBRANCH   7   8
ENDBRANCH   1   7
TORSDOF 3
ENDMDL
