MODEL 1
REMARK minimizedAffinity 8.15455151
REMARK minimizedRMSD -1
REMARK  3 active torsions:
REMARK  status: ('A' for Active; 'I' for Inactive)
REMARK    1  A    between atoms: C3'_2  and  C2'_3 
REMARK    2  A    between atoms: C2'_3  and  C1'_4 
REMARK    3  A    between atoms: C1'_4  and  C1_5 
ROOT
ATOM      1  C1  N4B d   1       1.261  -2.709   2.527  0.00  0.00    -0.075 A 
ATOM      2  C2  N4B d   1       1.014  -1.340   2.286  0.00  0.00     0.002 A 
ATOM      3  C3  N4B d   1       0.714  -0.502   3.332  0.00  0.00     0.002 A 
ATOM      4  C4  N4B d   1       0.637  -1.012   4.619  0.00  0.00    -0.004 A 
ATOM      5  C5  N4B d   1       0.902  -2.331   4.847  0.00  0.00     0.002 A 
ATOM      6  C6  N4B d   1       1.209  -3.184   3.806  0.00  0.00     0.002 A 
ENDROOT
BRANCH   1   7
ATOM      7  C1' N4B d   1       1.509  -3.681   1.406  0.00  0.00     0.057 C 
BRANCH   7   8
ATOM      8  C2' N4B d   1       0.479  -3.447   0.304  0.00  0.00     0.009 C 
BRANCH   8   9
ATOM      9  C3' N4B d   1       0.448  -4.590  -0.697  0.00  0.00     0.004 C 
ATOM     10  C4' N4B d   1       1.391  -4.382  -1.844  0.00  0.00     0.003 C 
ENDBRANCH   8   9
ENDBRANCH   7   8
ENDBRANCH   1   7
TORSDOF 3
ENDMDL
