MODEL 1
REMARK minimizedAffinity 10.4403114
REMARK minimizedRMSD -1
REMARK  3 active torsions:
REMARK  status: ('A' for Active; 'I' for Inactive)
REMARK    1  A    between atoms: C3'_2  and  C2'_3 
REMARK    2  A    between atoms: C2'_3  and  C1'_4 
REMARK    3  A    between atoms: C1'_4  and  C1_5 
ROOT
ATOM      1  C1  N4B d   1      -3.471   2.299  -2.968  0.00  0.00    -0.075 A 
ATOM      2  C2  N4B d   1      -3.198   2.563  -4.329  0.00  0.00     0.002 A 
ATOM      3  C3  N4B d   1      -3.471   3.801  -4.856  0.00  0.00     0.002 A 
ATOM      4  C4  N4B d   1      -4.032   4.781  -4.051  0.00  0.00    -0.004 A 
ATOM      5  C5  N4B d   1      -4.269   4.526  -2.732  0.00  0.00     0.002 A 
ATOM      6  C6  N4B d   1      -3.996   3.287  -2.187  0.00  0.00     0.002 A 
ENDROOT
BRANCH   1   7
ATOM      7  C1' N4B d   1      -3.269   0.934  -2.368  0.00  0.00     0.057 C 
BRANCH   7   8
ATOM      8  C2' N4B d   1      -2.067   0.973  -1.429  0.00  0.00     0.009 C 
BRANCH   8   9
ATOM      9  C3' N4B d   1      -2.428   0.524  -0.024  0.00  0.00     0.004 C 
ATOM     10  C4' N4B d   1      -2.278  -0.956   0.169  0.00  0.00     0.003 C 
ENDBRANCH   8   9
ENDBRANCH   7   8
ENDBRANCH   1   7
TORSDOF 3
ENDMDL
