MODEL 1
REMARK minimizedAffinity 9.14388561
REMARK minimizedRMSD -1
REMARK  3 active torsions:
REMARK  status: ('A' for Active; 'I' for Inactive)
REMARK    1  A    between atoms: C3'_2  and  C2'_3 
REMARK    2  A    between atoms: C2'_3  and  C1'_4 
REMARK    3  A    between atoms: C1'_4  and  C1_5 
ROOT
ATOM      1  C1  N4B d   1       1.619  -2.293   3.289  0.00  0.00    -0.075 A 
ATOM      2  C2  N4B d   1       2.381  -3.403   3.714  0.00  0.00     0.002 A 
ATOM      3  C3  N4B d   1       2.417  -3.743   5.044  0.00  0.00     0.002 A 
ATOM      4  C4  N4B d   1       1.717  -2.979   5.966  0.00  0.00    -0.004 A 
ATOM      5  C5  N4B d   1       0.963  -1.924   5.545  0.00  0.00     0.002 A 
ATOM      6  C6  N4B d   1       0.914  -1.573   4.210  0.00  0.00     0.002 A 
ENDROOT
BRANCH   1   7
ATOM      7  C1' N4B d   1       1.618  -1.832   1.858  0.00  0.00     0.057 C 
BRANCH   7   8
ATOM      8  C2' N4B d   1       0.944  -0.466   1.772  0.00  0.00     0.009 C 
BRANCH   8   9
ATOM      9  C3' N4B d   1       1.389   0.312   0.546  0.00  0.00     0.004 C 
ATOM     10  C4' N4B d   1       0.383   1.336   0.110  0.00  0.00     0.003 C 
ENDBRANCH   8   9
ENDBRANCH   7   8
ENDBRANCH   1   7
TORSDOF 3
ENDMDL
