MODEL 1
REMARK minimizedAffinity 15.3422308
REMARK minimizedRMSD -1
REMARK  0 active torsions:
REMARK  status: ('A' for Active; 'I' for Inactive)
ROOT
ATOM      1  O1  BZF d   1       5.841   5.684  -1.607  0.00  0.00    -0.204 OA
ATOM      2  C2  BZF d   1       5.838   5.826  -2.981  0.00  0.00     0.174 A 
ATOM      3  C3  BZF d   1       5.907   4.623  -3.587  0.00  0.00    -0.012 A 
ATOM      4  C3A BZF d   1       5.863   3.664  -2.525  0.00  0.00    -0.107 A 
ATOM      5  C4  BZF d   1       5.880   2.299  -2.491  0.00  0.00     0.055 A 
ATOM      6  C5  BZF d   1       5.898   1.668  -1.288  0.00  0.00    -0.016 A 
ATOM      7  C6  BZF d   1       5.906   2.370  -0.100  0.00  0.00     0.022 A 
ATOM      8  C7  BZF d   1       5.884   3.725  -0.083  0.00  0.00     0.029 A 
ATOM      9  C7A BZF d   1       5.832   4.365  -1.297  0.00  0.00     0.058 A 
ENDROOT
TORSDOF 0
ENDMDL
