MODEL 1
REMARK minimizedAffinity 12.608572
REMARK minimizedRMSD -1
REMARK  0 active torsions:
REMARK  status: ('A' for Active; 'I' for Inactive)
ROOT
ATOM      1  O1  BZF d   1      -0.859  -1.576  -3.307  0.00  0.00    -0.204 OA
ATOM      2  C2  BZF d   1      -0.213  -2.534  -2.550  0.00  0.00     0.174 A 
ATOM      3  C3  BZF d   1      -0.766  -3.749  -2.744  0.00  0.00    -0.012 A 
ATOM      4  C3A BZF d   1      -1.764  -3.553  -3.750  0.00  0.00    -0.107 A 
ATOM      5  C4  BZF d   1      -2.641  -4.390  -4.378  0.00  0.00     0.055 A 
ATOM      6  C5  BZF d   1      -3.534  -3.869  -5.260  0.00  0.00    -0.016 A 
ATOM      7  C6  BZF d   1      -3.581  -2.518  -5.534  0.00  0.00     0.022 A 
ATOM      8  C7  BZF d   1      -2.727  -1.649  -4.940  0.00  0.00     0.029 A 
ATOM      9  C7A BZF d   1      -1.802  -2.176  -4.073  0.00  0.00     0.058 A 
ENDROOT
TORSDOF 0
ENDMDL
