MODEL 1
REMARK minimizedAffinity 8.13899231
REMARK minimizedRMSD -1
REMARK  0 active torsions:
REMARK  status: ('A' for Active; 'I' for Inactive)
ROOT
ATOM      1  O1  BZF d   1       4.643   1.928  -2.743  0.00  0.00    -0.204 OA
ATOM      2  C2  BZF d   1       5.784   2.699  -2.628  0.00  0.00     0.174 A 
ATOM      3  C3  BZF d   1       5.995   3.053  -1.344  0.00  0.00    -0.012 A 
ATOM      4  C3A BZF d   1       4.970   2.390  -0.598  0.00  0.00    -0.107 A 
ATOM      5  C4  BZF d   1       4.661   2.339   0.731  0.00  0.00     0.055 A 
ATOM      6  C5  BZF d   1       3.552   1.659   1.126  0.00  0.00    -0.016 A 
ATOM      7  C6  BZF d   1       2.728   1.025   0.219  0.00  0.00     0.022 A 
ATOM      8  C7  BZF d   1       2.997   1.044  -1.110  0.00  0.00     0.029 A 
ATOM      9  C7A BZF d   1       4.135   1.702  -1.508  0.00  0.00     0.058 A 
ENDROOT
TORSDOF 0
ENDMDL
