MODEL 1
REMARK minimizedAffinity 6.70880222
REMARK minimizedRMSD -1
REMARK  0 active torsions:
REMARK  status: ('A' for Active; 'I' for Inactive)
ROOT
ATOM      1  O1  BZF d   1       2.733   2.193   2.856  0.00  0.00    -0.204 OA
ATOM      2  C2  BZF d   1       2.034   3.197   3.496  0.00  0.00     0.174 A 
ATOM      3  C3  BZF d   1       1.130   3.755   2.666  0.00  0.00    -0.012 A 
ATOM      4  C3A BZF d   1       1.209   2.994   1.457  0.00  0.00    -0.107 A 
ATOM      5  C4  BZF d   1       0.547   3.054   0.264  0.00  0.00     0.055 A 
ATOM      6  C5  BZF d   1       0.913   2.213  -0.738  0.00  0.00    -0.016 A 
ATOM      7  C6  BZF d   1       1.939   1.303  -0.584  0.00  0.00     0.022 A 
ATOM      8  C7  BZF d   1       2.621   1.203   0.582  0.00  0.00     0.029 A 
ATOM      9  C7A BZF d   1       2.232   2.029   1.608  0.00  0.00     0.058 A 
ENDROOT
TORSDOF 0
ENDMDL
