MODEL 1
REMARK minimizedAffinity 5.00015783
REMARK minimizedRMSD -1
REMARK  0 active torsions:
REMARK  status: ('A' for Active; 'I' for Inactive)
ROOT
ATOM      1  O1  BZF d   1       4.570   2.246  -2.932  0.00  0.00    -0.204 OA
ATOM      2  C2  BZF d   1       5.736   2.972  -2.783  0.00  0.00     0.174 A 
ATOM      3  C3  BZF d   1       6.000   3.190  -1.479  0.00  0.00    -0.012 A 
ATOM      4  C3A BZF d   1       4.982   2.482  -0.765  0.00  0.00    -0.107 A 
ATOM      5  C4  BZF d   1       4.717   2.305   0.563  0.00  0.00     0.055 A 
ATOM      6  C5  BZF d   1       3.603   1.617   0.928  0.00  0.00    -0.016 A 
ATOM      7  C6  BZF d   1       2.731   1.098  -0.007  0.00  0.00     0.022 A 
ATOM      8  C7  BZF d   1       2.955   1.244  -1.336  0.00  0.00     0.029 A 
ATOM      9  C7A BZF d   1       4.097   1.910  -1.708  0.00  0.00     0.058 A 
ENDROOT
TORSDOF 0
ENDMDL
