MODEL 1
REMARK minimizedAffinity 10.1276579
REMARK minimizedRMSD -1
REMARK  0 active torsions:
REMARK  status: ('A' for Active; 'I' for Inactive)
ROOT
ATOM      1  O1  BZF d   1      -2.981  -0.213  -4.196  0.00  0.00    -0.204 OA
ATOM      2  C2  BZF d   1      -3.252  -1.218  -5.105  0.00  0.00     0.174 A 
ATOM      3  C3  BZF d   1      -2.534  -2.324  -4.822  0.00  0.00    -0.012 A 
ATOM      4  C3A BZF d   1      -1.836  -2.021  -3.610  0.00  0.00    -0.107 A 
ATOM      5  C4  BZF d   1      -0.974  -2.727  -2.821  0.00  0.00     0.055 A 
ATOM      6  C5  BZF d   1      -0.412  -2.116  -1.745  0.00  0.00    -0.016 A 
ATOM      7  C6  BZF d   1      -0.684  -0.800  -1.433  0.00  0.00     0.022 A 
ATOM      8  C7  BZF d   1      -1.537  -0.061  -2.184  0.00  0.00     0.029 A 
ATOM      9  C7A BZF d   1      -2.132  -0.685  -3.252  0.00  0.00     0.058 A 
ENDROOT
TORSDOF 0
ENDMDL
