MODEL 1
REMARK minimizedAffinity 1.67075777
REMARK minimizedRMSD -1
REMARK  0 active torsions:
REMARK  status: ('A' for Active; 'I' for Inactive)
ROOT
ATOM      1  O1  BZF d   1       2.736   0.841  -1.380  0.00  0.00    -0.204 OA
ATOM      2  C2  BZF d   1       2.411   0.805  -0.038  0.00  0.00     0.174 A 
ATOM      3  C3  BZF d   1       3.311   1.496   0.691  0.00  0.00    -0.012 A 
ATOM      4  C3A BZF d   1       4.207   2.072  -0.264  0.00  0.00    -0.107 A 
ATOM      5  C4  BZF d   1       5.303   2.879  -0.156  0.00  0.00     0.055 A 
ATOM      6  C5  BZF d   1       5.998   3.203  -1.278  0.00  0.00    -0.016 A 
ATOM      7  C6  BZF d   1       5.629   2.734  -2.521  0.00  0.00     0.022 A 
ATOM      8  C7  BZF d   1       4.547   1.934  -2.680  0.00  0.00     0.029 A 
ATOM      9  C7A BZF d   1       3.823   1.632  -1.552  0.00  0.00     0.058 A 
ENDROOT
TORSDOF 0
ENDMDL
