MODEL 1
REMARK minimizedAffinity 7.67887402
REMARK minimizedRMSD -1
REMARK  0 active torsions:
REMARK  status: ('A' for Active; 'I' for Inactive)
ROOT
ATOM      1  O1  BZF d   1       2.432   0.152  -1.046  0.00  0.00    -0.204 OA
ATOM      2  C2  BZF d   1       2.114  -0.281   0.227  0.00  0.00     0.174 A 
ATOM      3  C3  BZF d   1       2.935   0.274   1.141  0.00  0.00    -0.012 A 
ATOM      4  C3A BZF d   1       3.764   1.177   0.403  0.00  0.00    -0.107 A 
ATOM      5  C4  BZF d   1       4.767   2.033   0.757  0.00  0.00     0.055 A 
ATOM      6  C5  BZF d   1       5.423   2.720  -0.215  0.00  0.00    -0.016 A 
ATOM      7  C6  BZF d   1       5.106   2.572  -1.549  0.00  0.00     0.022 A 
ATOM      8  C7  BZF d   1       4.114   1.738  -1.949  0.00  0.00     0.029 A 
ATOM      9  C7A BZF d   1       3.428   1.067  -0.966  0.00  0.00     0.058 A 
ENDROOT
TORSDOF 0
ENDMDL
