MODEL 1
REMARK minimizedAffinity 5.92798042
REMARK minimizedRMSD -1
REMARK  0 active torsions:
REMARK  status: ('A' for Active; 'I' for Inactive)
ROOT
ATOM      1  O1  BZF d   1       4.035  -1.273   2.117  0.00  0.00    -0.204 OA
ATOM      2  C2  BZF d   1       2.655  -1.287   2.170  0.00  0.00     0.174 A 
ATOM      3  C3  BZF d   1       2.223  -1.146   3.440  0.00  0.00    -0.012 A 
ATOM      4  C3A BZF d   1       3.406  -0.944   4.219  0.00  0.00    -0.107 A 
ATOM      5  C4  BZF d   1       3.628  -0.728   5.549  0.00  0.00     0.055 A 
ATOM      6  C5  BZF d   1       4.907  -0.645   6.000  0.00  0.00    -0.016 A 
ATOM      7  C6  BZF d   1       5.987  -0.778   5.151  0.00  0.00     0.022 A 
ATOM      8  C7  BZF d   1       5.816  -0.988   3.823  0.00  0.00     0.029 A 
ATOM      9  C7A BZF d   1       4.524  -1.040   3.359  0.00  0.00     0.058 A 
ENDROOT
TORSDOF 0
ENDMDL
