MODEL 1
REMARK minimizedAffinity 0.715468585
REMARK minimizedRMSD -1
REMARK  0 active torsions:
REMARK  status: ('A' for Active; 'I' for Inactive)
ROOT
ATOM      1  O1  BZF d   1       3.984   1.500  -2.977  0.00  0.00    -0.204 OA
ATOM      2  C2  BZF d   1       5.224   1.861  -3.467  0.00  0.00     0.174 A 
ATOM      3  C3  BZF d   1       5.999   2.364  -2.485  0.00  0.00    -0.012 A 
ATOM      4  C3A BZF d   1       5.225   2.228  -1.289  0.00  0.00    -0.107 A 
ATOM      5  C4  BZF d   1       5.461   2.535   0.021  0.00  0.00     0.055 A 
ATOM      6  C5  BZF d   1       4.470   2.345   0.932  0.00  0.00    -0.016 A 
ATOM      7  C6  BZF d   1       3.233   1.856   0.568  0.00  0.00     0.022 A 
ATOM      8  C7  BZF d   1       2.954   1.532  -0.719  0.00  0.00     0.029 A 
ATOM      9  C7A BZF d   1       3.964   1.692  -1.636  0.00  0.00     0.058 A 
ENDROOT
TORSDOF 0
ENDMDL
