MODEL 1
REMARK minimizedAffinity -0.798432887
REMARK minimizedRMSD -1
REMARK  0 active torsions:
REMARK  status: ('A' for Active; 'I' for Inactive)
ROOT
ATOM      1  O1  BZF d   1       2.582   0.567  -0.786  0.00  0.00    -0.204 OA
ATOM      2  C2  BZF d   1       2.662   0.273   0.561  0.00  0.00     0.174 A 
ATOM      3  C3  BZF d   1       3.803   0.759   1.090  0.00  0.00    -0.012 A 
ATOM      4  C3A BZF d   1       4.435   1.478   0.027  0.00  0.00    -0.107 A 
ATOM      5  C4  BZF d   1       5.592   2.197  -0.063  0.00  0.00     0.055 A 
ATOM      6  C5  BZF d   1       5.959   2.711  -1.266  0.00  0.00    -0.016 A 
ATOM      7  C6  BZF d   1       5.195   2.523  -2.400  0.00  0.00     0.022 A 
ATOM      8  C7  BZF d   1       4.036   1.821  -2.359  0.00  0.00     0.029 A 
ATOM      9  C7A BZF d   1       3.647   1.328  -1.138  0.00  0.00     0.058 A 
ENDROOT
TORSDOF 0
ENDMDL
