MODEL 1
REMARK minimizedAffinity 5.28493452
REMARK minimizedRMSD -1
REMARK  0 active torsions:
REMARK  status: ('A' for Active; 'I' for Inactive)
ROOT
ATOM      1  O1  BZF d   1       0.255   2.251   4.938  0.00  0.00    -0.204 OA
ATOM      2  C2  BZF d   1       1.282   1.745   5.711  0.00  0.00     0.174 A 
ATOM      3  C3  BZF d   1       2.465   1.864   5.074  0.00  0.00    -0.012 A 
ATOM      4  C3A BZF d   1       2.170   2.566   3.862  0.00  0.00    -0.107 A 
ATOM      5  C4  BZF d   1       2.936   2.997   2.817  0.00  0.00     0.055 A 
ATOM      6  C5  BZF d   1       2.331   3.587   1.754  0.00  0.00    -0.016 A 
ATOM      7  C6  BZF d   1       0.963   3.757   1.700  0.00  0.00     0.022 A 
ATOM      8  C7  BZF d   1       0.162   3.351   2.714  0.00  0.00     0.029 A 
ATOM      9  C7A BZF d   1       0.774   2.784   3.805  0.00  0.00     0.058 A 
ENDROOT
TORSDOF 0
ENDMDL
