MODEL 1
REMARK minimizedAffinity 15.6936855
REMARK minimizedRMSD -1
REMARK  0 active torsions:
REMARK  status: ('A' for Active; 'I' for Inactive)
ROOT
ATOM      1  O1  BZF d   1       3.057   0.599  -1.470  0.00  0.00    -0.204 OA
ATOM      2  C2  BZF d   1       2.422   0.117  -0.341  0.00  0.00     0.174 A 
ATOM      3  C3  BZF d   1       3.063   0.519   0.776  0.00  0.00    -0.012 A 
ATOM      4  C3A BZF d   1       4.113   1.376   0.320  0.00  0.00    -0.107 A 
ATOM      5  C4  BZF d   1       5.083   2.094   0.959  0.00  0.00     0.055 A 
ATOM      6  C5  BZF d   1       6.000   2.771   0.218  0.00  0.00    -0.016 A 
ATOM      7  C6  BZF d   1       5.980   2.748  -1.161  0.00  0.00     0.022 A 
ATOM      8  C7  BZF d   1       5.034   2.054  -1.839  0.00  0.00     0.029 A 
ATOM      9  C7A BZF d   1       4.086   1.395  -1.094  0.00  0.00     0.058 A 
ENDROOT
TORSDOF 0
ENDMDL
