MODEL 1
REMARK minimizedAffinity 7.03210163
REMARK minimizedRMSD -1
REMARK  1 active torsions:
REMARK  status: ('A' for Active; 'I' for Inactive)
REMARK    1  A    between atoms: C1_2  and  C2_3 
ROOT
ATOM      1  C2  UNL d   1       4.497  -0.447   1.774  0.00  0.00    -0.076 A 
ATOM      2  C3  UNL d   1       5.147  -0.537   0.532  0.00  0.00     0.004 A 
ATOM      3  C4  UNL d   1       4.420  -0.643  -0.653  0.00  0.00    -0.003 A 
ATOM      4  C5  UNL d   1       3.030  -0.659  -0.614  0.00  0.00     0.000 A 
ATOM      5  C6  UNL d   1       2.368  -0.553   0.609  0.00  0.00     0.000 A 
ATOM      6  C7  UNL d   1       3.086  -0.430   1.811  0.00  0.00    -0.073 A 
ATOM      7  C8  UNL d   1       2.320  -0.325   3.101  0.00  0.00     0.078 C 
ENDROOT
BRANCH   1   8
ATOM      8  C1  UNL d   1       5.338  -0.362   3.028  0.00  0.00     0.053 C 
ATOM      9  C   UNL d   1       5.343  -1.663   3.816  0.00  0.00     0.018 C 
ENDBRANCH   1   8
TORSDOF 1
ENDMDL
