MODEL 1
REMARK minimizedAffinity -3.25054908
REMARK minimizedRMSD -1
REMARK  1 active torsions:
REMARK  status: ('A' for Active; 'I' for Inactive)
REMARK    1  A    between atoms: C1_2  and  C2_3 
ROOT
ATOM      1  C2  UNL d   1      -0.602   0.867   0.053  0.00  0.00    -0.076 A 
ATOM      2  C3  UNL d   1      -1.639   1.746  -0.308  0.00  0.00     0.004 A 
ATOM      3  C4  UNL d   1      -2.051   2.761   0.554  0.00  0.00    -0.003 A 
ATOM      4  C5  UNL d   1      -1.434   2.914   1.790  0.00  0.00     0.000 A 
ATOM      5  C6  UNL d   1      -0.392   2.063   2.157  0.00  0.00     0.000 A 
ATOM      6  C7  UNL d   1       0.047   1.045   1.293  0.00  0.00    -0.073 A 
ATOM      7  C8  UNL d   1       1.171   0.152   1.743  0.00  0.00     0.078 C 
ENDROOT
BRANCH   1   8
ATOM      8  C1  UNL d   1      -0.216  -0.232  -0.911  0.00  0.00     0.053 C 
ATOM      9  C   UNL d   1       0.216   0.307  -2.266  0.00  0.00     0.018 C 
ENDBRANCH   1   8
TORSDOF 1
ENDMDL
