MODEL 1
REMARK minimizedAffinity -3.22031641
REMARK minimizedRMSD -1
REMARK  1 active torsions:
REMARK  status: ('A' for Active; 'I' for Inactive)
REMARK    1  A    between atoms: C1_2  and  C2_3 
ROOT
ATOM      1  C2  UNL d   1       0.263   0.623   0.118  0.00  0.00    -0.076 A 
ATOM      2  C3  UNL d   1      -0.508   1.069   1.205  0.00  0.00     0.004 A 
ATOM      3  C4  UNL d   1      -1.489   2.044   1.037  0.00  0.00    -0.003 A 
ATOM      4  C5  UNL d   1      -1.716   2.589  -0.222  0.00  0.00     0.000 A 
ATOM      5  C6  UNL d   1      -0.973   2.146  -1.315  0.00  0.00     0.000 A 
ATOM      6  C7  UNL d   1       0.009   1.152  -1.166  0.00  0.00    -0.073 A 
ATOM      7  C8  UNL d   1       0.785   0.716  -2.379  0.00  0.00     0.078 C 
ENDROOT
BRANCH   1   8
ATOM      8  C1  UNL d   1       1.332  -0.417   0.365  0.00  0.00     0.053 C 
ATOM      9  C   UNL d   1       1.790  -0.448   1.815  0.00  0.00     0.018 C 
ENDBRANCH   1   8
TORSDOF 1
ENDMDL
