MODEL 1
REMARK minimizedAffinity 13.3268967
REMARK minimizedRMSD -1
REMARK  0 active torsions:
REMARK  status: ('A' for Active; 'I' for Inactive)
ROOT
ATOM      1  C   UNL d   1      -1.318  -5.211   0.787  0.00  0.00     0.020 A 
ATOM      2  C1  UNL d   1      -1.047  -5.409  -0.566  0.00  0.00     0.020 A 
ATOM      3  C2  UNL d   1      -1.169  -4.347  -1.465  0.00  0.00     0.034 A 
ATOM      4  C3  UNL d   1      -1.564  -3.083  -1.012  0.00  0.00     0.017 A 
ATOM      5  C4  UNL d   1      -1.836  -2.885   0.346  0.00  0.00     0.017 A 
ATOM      6  C5  UNL d   1      -1.712  -3.952   1.242  0.00  0.00     0.034 A 
ATOM      7 Cl   UNL d   1      -2.327  -1.354   0.980  0.00  0.00    -0.070 Cl
ATOM      8 Cl1  UNL d   1      -1.693  -1.816  -2.180  0.00  0.00    -0.070 Cl
ENDROOT
TORSDOF 0
ENDMDL
