MODEL 1
REMARK minimizedAffinity 6.688591
REMARK minimizedRMSD -1
REMARK  0 active torsions:
REMARK  status: ('A' for Active; 'I' for Inactive)
ROOT
ATOM      1  C   UNL d   1      -3.282  -0.830   1.105  0.00  0.00     0.020 A 
ATOM      2  C1  UNL d   1      -2.980  -1.886   1.964  0.00  0.00     0.020 A 
ATOM      3  C2  UNL d   1      -2.359  -3.034   1.468  0.00  0.00     0.034 A 
ATOM      4  C3  UNL d   1      -2.038  -3.129   0.109  0.00  0.00     0.017 A 
ATOM      5  C4  UNL d   1      -2.341  -2.069  -0.753  0.00  0.00     0.017 A 
ATOM      6  C5  UNL d   1      -2.963  -0.922  -0.251  0.00  0.00     0.034 A 
ATOM      7 Cl   UNL d   1      -1.976  -2.113  -2.441  0.00  0.00    -0.070 Cl
ATOM      8 Cl1  UNL d   1      -1.270  -4.578  -0.436  0.00  0.00    -0.070 Cl
ENDROOT
TORSDOF 0
ENDMDL
