MODEL 1
REMARK minimizedAffinity 16.9074974
REMARK minimizedRMSD -1
REMARK  0 active torsions:
REMARK  status: ('A' for Active; 'I' for Inactive)
ROOT
ATOM      1  C   UNL d   1      -3.973   0.754   1.241  0.00  0.00     0.020 A 
ATOM      2  C1  UNL d   1      -4.406  -0.569   1.170  0.00  0.00     0.020 A 
ATOM      3  C2  UNL d   1      -5.030  -1.039   0.012  0.00  0.00     0.034 A 
ATOM      4  C3  UNL d   1      -5.222  -0.185  -1.079  0.00  0.00     0.017 A 
ATOM      5  C4  UNL d   1      -4.787   1.143  -1.008  0.00  0.00     0.017 A 
ATOM      6  C5  UNL d   1      -4.164   1.609   0.154  0.00  0.00     0.034 A 
ATOM      7 Cl   UNL d   1      -4.990   2.257  -2.314  0.00  0.00    -0.070 Cl
ATOM      8 Cl1  UNL d   1      -6.000  -0.833  -2.480  0.00  0.00    -0.070 Cl
ENDROOT
TORSDOF 0
ENDMDL
