MODEL 1
REMARK minimizedAffinity 14.8167057
REMARK minimizedRMSD -1
REMARK  0 active torsions:
REMARK  status: ('A' for Active; 'I' for Inactive)
ROOT
ATOM      1  C   UNL d   1      -5.995  -1.334  -0.042  0.00  0.00     0.020 A 
ATOM      2  C1  UNL d   1      -5.792  -1.369  -1.421  0.00  0.00     0.020 A 
ATOM      3  C2  UNL d   1      -4.580  -0.932  -1.959  0.00  0.00     0.034 A 
ATOM      4  C3  UNL d   1      -3.566  -0.460  -1.119  0.00  0.00     0.017 A 
ATOM      5  C4  UNL d   1      -3.770  -0.426   0.266  0.00  0.00     0.017 A 
ATOM      6  C5  UNL d   1      -4.986  -0.864   0.799  0.00  0.00     0.034 A 
ATOM      7 Cl   UNL d   1      -2.566   0.143   1.367  0.00  0.00    -0.070 Cl
ATOM      8 Cl1  UNL d   1      -2.092   0.063  -1.853  0.00  0.00    -0.070 Cl
ENDROOT
TORSDOF 0
ENDMDL
