MODEL 1
REMARK minimizedAffinity 17.4180145
REMARK minimizedRMSD -1
REMARK  0 active torsions:
REMARK  status: ('A' for Active; 'I' for Inactive)
ROOT
ATOM      1  C   UNL d   1      -5.649  -1.119  -2.096  0.00  0.00     0.020 A 
ATOM      2  C1  UNL d   1      -5.999   0.228  -2.176  0.00  0.00     0.020 A 
ATOM      3  C2  UNL d   1      -5.421   1.153  -1.304  0.00  0.00     0.034 A 
ATOM      4  C3  UNL d   1      -4.489   0.732  -0.348  0.00  0.00     0.017 A 
ATOM      5  C4  UNL d   1      -4.138  -0.621  -0.269  0.00  0.00     0.017 A 
ATOM      6  C5  UNL d   1      -4.720  -1.542  -1.144  0.00  0.00     0.034 A 
ATOM      7 Cl   UNL d   1      -2.995  -1.215   0.884  0.00  0.00    -0.070 Cl
ATOM      8 Cl1  UNL d   1      -3.814   1.930   0.698  0.00  0.00    -0.070 Cl
ENDROOT
TORSDOF 0
ENDMDL
