MODEL 1
REMARK minimizedAffinity 7.30707169
REMARK minimizedRMSD -1
REMARK  0 active torsions:
REMARK  status: ('A' for Active; 'I' for Inactive)
ROOT
ATOM      1  C   UNL d   1       5.508   1.183   2.334  0.00  0.00     0.020 A 
ATOM      2  C1  UNL d   1       4.370   0.379   2.358  0.00  0.00     0.020 A 
ATOM      3  C2  UNL d   1       3.715   0.060   1.166  0.00  0.00     0.034 A 
ATOM      4  C3  UNL d   1       4.199   0.545  -0.054  0.00  0.00     0.017 A 
ATOM      5  C4  UNL d   1       5.343   1.352  -0.077  0.00  0.00     0.017 A 
ATOM      6  C5  UNL d   1       5.994   1.669   1.119  0.00  0.00     0.034 A 
ATOM      7 Cl   UNL d   1       5.999   1.989  -1.544  0.00  0.00    -0.070 Cl
ATOM      8 Cl1  UNL d   1       3.341   0.111  -1.490  0.00  0.00    -0.070 Cl
ENDROOT
TORSDOF 0
ENDMDL
