MODEL 1
REMARK minimizedAffinity 15.0710087
REMARK minimizedRMSD -1
REMARK  0 active torsions:
REMARK  status: ('A' for Active; 'I' for Inactive)
ROOT
ATOM      1  C   UNL d   1      -4.854  -0.491  -0.679  0.00  0.00     0.020 A 
ATOM      2  C1  UNL d   1      -4.739   0.105   0.576  0.00  0.00     0.020 A 
ATOM      3  C2  UNL d   1      -3.485   0.485   1.057  0.00  0.00     0.034 A 
ATOM      4  C3  UNL d   1      -2.339   0.270   0.282  0.00  0.00     0.017 A 
ATOM      5  C4  UNL d   1      -2.455  -0.328  -0.978  0.00  0.00     0.017 A 
ATOM      6  C5  UNL d   1      -3.714  -0.707  -1.455  0.00  0.00     0.034 A 
ATOM      7 Cl   UNL d   1      -1.087  -0.626  -1.992  0.00  0.00    -0.070 Cl
ATOM      8 Cl1  UNL d   1      -0.820   0.765   0.939  0.00  0.00    -0.070 Cl
ENDROOT
TORSDOF 0
ENDMDL
