MODEL 1
REMARK minimizedAffinity 8.05954647
REMARK minimizedRMSD -1
REMARK  0 active torsions:
REMARK  status: ('A' for Active; 'I' for Inactive)
ROOT
ATOM      1  C   UNL d   1      -1.404  -1.007  -1.875  0.00  0.00     0.020 A 
ATOM      2  C1  UNL d   1      -0.890  -0.345  -0.760  0.00  0.00     0.020 A 
ATOM      3  C2  UNL d   1      -1.756   0.231   0.171  0.00  0.00     0.034 A 
ATOM      4  C3  UNL d   1      -3.141   0.148  -0.011  0.00  0.00     0.017 A 
ATOM      5  C4  UNL d   1      -3.657  -0.516  -1.130  0.00  0.00     0.017 A 
ATOM      6  C5  UNL d   1      -2.785  -1.092  -2.059  0.00  0.00     0.034 A 
ATOM      7 Cl   UNL d   1      -5.354  -0.661  -1.422  0.00  0.00    -0.070 Cl
ATOM      8 Cl1  UNL d   1      -4.154   0.884   1.181  0.00  0.00    -0.070 Cl
ENDROOT
TORSDOF 0
ENDMDL
