MODEL 1
REMARK minimizedAffinity 7.43688107
REMARK minimizedRMSD -1
REMARK  0 active torsions:
REMARK  status: ('A' for Active; 'I' for Inactive)
ROOT
ATOM      1  C   UNL d   1       5.346   0.122   2.174  0.00  0.00     0.020 A 
ATOM      2  C1  UNL d   1       6.000   1.340   2.352  0.00  0.00     0.020 A 
ATOM      3  C2  UNL d   1       5.350   2.393   2.999  0.00  0.00     0.034 A 
ATOM      4  C3  UNL d   1       4.042   2.230   3.470  0.00  0.00     0.017 A 
ATOM      5  C4  UNL d   1       3.387   1.007   3.291  0.00  0.00     0.017 A 
ATOM      6  C5  UNL d   1       4.042  -0.044   2.642  0.00  0.00     0.034 A 
ATOM      7 Cl   UNL d   1       1.773   0.730   3.845  0.00  0.00    -0.070 Cl
ATOM      8 Cl1  UNL d   1       3.300   3.575   4.261  0.00  0.00    -0.070 Cl
ENDROOT
TORSDOF 0
ENDMDL
