MODEL 1
REMARK minimizedAffinity 18.8285961
REMARK minimizedRMSD -1
REMARK  0 active torsions:
REMARK  status: ('A' for Active; 'I' for Inactive)
ROOT
ATOM      1  C   UNL d   1       0.178  -1.191   6.000  0.00  0.00     0.020 A 
ATOM      2  C1  UNL d   1       0.003  -1.878   4.800  0.00  0.00     0.020 A 
ATOM      3  C2  UNL d   1      -0.066  -1.175   3.596  0.00  0.00     0.034 A 
ATOM      4  C3  UNL d   1       0.040   0.221   3.589  0.00  0.00     0.017 A 
ATOM      5  C4  UNL d   1       0.216   0.910   4.794  0.00  0.00     0.017 A 
ATOM      6  C5  UNL d   1       0.285   0.201   5.997  0.00  0.00     0.034 A 
ATOM      7 Cl   UNL d   1       0.355   2.632   4.866  0.00  0.00    -0.070 Cl
ATOM      8 Cl1  UNL d   1      -0.054   1.026   2.063  0.00  0.00    -0.070 Cl
ENDROOT
TORSDOF 0
ENDMDL
