MODEL 1
REMARK minimizedAffinity 0.0377566926
REMARK minimizedRMSD -1
REMARK  1 active torsions:
REMARK  status: ('A' for Active; 'I' for Inactive)
REMARK    1  A    between atoms: C1_2  and  C2_3 
ROOT
ATOM      1  C2  UNL d   1      -4.478  -3.569  -1.674  0.00  0.00    -0.076 A 
ATOM      2  C3  UNL d   1      -3.299  -3.185  -2.337  0.00  0.00     0.004 A 
ATOM      3  C4  UNL d   1      -2.433  -2.249  -1.776  0.00  0.00    -0.003 A 
ATOM      4  C5  UNL d   1      -2.730  -1.681  -0.542  0.00  0.00     0.000 A 
ATOM      5  C6  UNL d   1      -3.886  -2.064   0.138  0.00  0.00     0.000 A 
ATOM      6  C7  UNL d   1      -4.762  -3.019  -0.406  0.00  0.00    -0.073 A 
ATOM      7  C8  UNL d   1      -5.997  -3.390   0.369  0.00  0.00     0.078 C 
ENDROOT
BRANCH   1   8
ATOM      8  C1  UNL d   1      -5.393  -4.569  -2.343  0.00  0.00     0.053 C 
ATOM      9  C   UNL d   1      -5.107  -6.000  -1.914  0.00  0.00     0.018 C 
ENDBRANCH   1   8
TORSDOF 1
ENDMDL
