MODEL 1
REMARK minimizedAffinity 9.31373024
REMARK minimizedRMSD -1
REMARK  1 active torsions:
REMARK  status: ('A' for Active; 'I' for Inactive)
REMARK    1  A    between atoms: C1_2  and  C2_3 
ROOT
ATOM      1  C2  UNL d   1      -1.676  -3.282  -2.044  0.00  0.00    -0.076 A 
ATOM      2  C3  UNL d   1      -1.059  -4.541  -1.934  0.00  0.00     0.004 A 
ATOM      3  C4  UNL d   1      -0.146  -4.805  -0.915  0.00  0.00    -0.003 A 
ATOM      4  C5  UNL d   1       0.166  -3.816   0.010  0.00  0.00     0.000 A 
ATOM      5  C6  UNL d   1      -0.449  -2.567  -0.073  0.00  0.00     0.000 A 
ATOM      6  C7  UNL d   1      -1.385  -2.289  -1.085  0.00  0.00    -0.073 A 
ATOM      7  C8  UNL d   1      -2.014  -0.924  -1.131  0.00  0.00     0.078 C 
ENDROOT
BRANCH   1   8
ATOM      8  C1  UNL d   1      -2.638  -3.045  -3.186  0.00  0.00     0.053 C 
ATOM      9  C   UNL d   1      -1.935  -2.594  -4.457  0.00  0.00     0.018 C 
ENDBRANCH   1   8
TORSDOF 1
ENDMDL
