MODEL 1
REMARK minimizedAffinity 0.175344244
REMARK minimizedRMSD -1
REMARK  1 active torsions:
REMARK  status: ('A' for Active; 'I' for Inactive)
REMARK    1  A    between atoms: C1_2  and  C2_3 
ROOT
ATOM      1  C2  UNL d   1       3.767   3.444  -5.951  0.00  0.00    -0.076 A 
ATOM      2  C3  UNL d   1       3.220   2.149  -5.999  0.00  0.00     0.004 A 
ATOM      3  C4  UNL d   1       4.041   1.023  -5.989  0.00  0.00    -0.003 A 
ATOM      4  C5  UNL d   1       5.422   1.173  -5.929  0.00  0.00     0.000 A 
ATOM      5  C6  UNL d   1       5.981   2.449  -5.862  0.00  0.00     0.000 A 
ATOM      6  C7  UNL d   1       5.167   3.594  -5.856  0.00  0.00    -0.073 A 
ATOM      7  C8  UNL d   1       5.823   4.946  -5.789  0.00  0.00     0.078 C 
ENDROOT
BRANCH   1   8
ATOM      8  C1  UNL d   1       2.828   4.628  -5.993  0.00  0.00     0.053 C 
ATOM      9  C   UNL d   1       1.372   4.224  -5.820  0.00  0.00     0.018 C 
ENDBRANCH   1   8
TORSDOF 1
ENDMDL
