MODEL 1
REMARK minimizedAffinity 5.7952261
REMARK minimizedRMSD -1
REMARK  1 active torsions:
REMARK  status: ('A' for Active; 'I' for Inactive)
REMARK    1  A    between atoms: C1_2  and  C2_3 
ROOT
ATOM      1  C2  UNL d   1      -1.670  -3.151  -2.343  0.00  0.00    -0.076 A 
ATOM      2  C3  UNL d   1      -2.067  -1.849  -1.993  0.00  0.00     0.004 A 
ATOM      3  C4  UNL d   1      -1.660  -1.274  -0.790  0.00  0.00    -0.003 A 
ATOM      4  C5  UNL d   1      -0.849  -1.991   0.082  0.00  0.00     0.000 A 
ATOM      5  C6  UNL d   1      -0.431  -3.278  -0.257  0.00  0.00     0.000 A 
ATOM      6  C7  UNL d   1      -0.819  -3.866  -1.473  0.00  0.00    -0.073 A 
ATOM      7  C8  UNL d   1      -0.344  -5.259  -1.785  0.00  0.00     0.078 C 
ENDROOT
BRANCH   1   8
ATOM      8  C1  UNL d   1      -2.164  -3.732  -3.648  0.00  0.00     0.053 C 
ATOM      9  C   UNL d   1      -1.752  -2.898  -4.851  0.00  0.00     0.018 C 
ENDBRANCH   1   8
TORSDOF 1
ENDMDL
