MODEL 1
REMARK minimizedAffinity 3.84594917
REMARK minimizedRMSD -1
REMARK  1 active torsions:
REMARK  status: ('A' for Active; 'I' for Inactive)
REMARK    1  A    between atoms: C1_2  and  C2_3 
ROOT
ATOM      1  C2  UNL d   1       3.882   1.337   0.690  0.00  0.00    -0.076 A 
ATOM      2  C3  UNL d   1       4.878   0.995  -0.241  0.00  0.00     0.004 A 
ATOM      3  C4  UNL d   1       5.036   1.720  -1.421  0.00  0.00    -0.003 A 
ATOM      4  C5  UNL d   1       4.201   2.800  -1.688  0.00  0.00     0.000 A 
ATOM      5  C6  UNL d   1       3.220   3.164  -0.767  0.00  0.00     0.000 A 
ATOM      6  C7  UNL d   1       3.058   2.454   0.435  0.00  0.00    -0.073 A 
ATOM      7  C8  UNL d   1       1.979   2.887   1.389  0.00  0.00     0.078 C 
ENDROOT
BRANCH   1   8
ATOM      8  C1  UNL d   1       3.740   0.497   1.940  0.00  0.00     0.053 C 
ATOM      9  C   UNL d   1       5.066   0.285   2.653  0.00  0.00     0.018 C 
ENDBRANCH   1   8
TORSDOF 1
ENDMDL
