MODEL 1
REMARK minimizedAffinity 7.32578135
REMARK minimizedRMSD -1
REMARK  1 active torsions:
REMARK  status: ('A' for Active; 'I' for Inactive)
REMARK    1  A    between atoms: C1_2  and  C2_3 
ROOT
ATOM      1  C2  UNL d   1      -1.111  -2.581  -1.406  0.00  0.00    -0.076 A 
ATOM      2  C3  UNL d   1      -2.240  -1.820  -1.057  0.00  0.00     0.004 A 
ATOM      3  C4  UNL d   1      -2.488  -1.473   0.270  0.00  0.00    -0.003 A 
ATOM      4  C5  UNL d   1      -1.611  -1.881   1.269  0.00  0.00     0.000 A 
ATOM      5  C6  UNL d   1      -0.477  -2.622   0.938  0.00  0.00     0.000 A 
ATOM      6  C7  UNL d   1      -0.203  -2.966  -0.397  0.00  0.00    -0.073 A 
ATOM      7  C8  UNL d   1       1.032  -3.771  -0.696  0.00  0.00     0.078 C 
ENDROOT
BRANCH   1   8
ATOM      8  C1  UNL d   1      -0.908  -2.950  -2.859  0.00  0.00     0.053 C 
ATOM      9  C   UNL d   1      -2.117  -3.653  -3.456  0.00  0.00     0.018 C 
ENDBRANCH   1   8
TORSDOF 1
ENDMDL
