MODEL 1
REMARK minimizedAffinity 6.96312809
REMARK minimizedRMSD -1
REMARK  1 active torsions:
REMARK  status: ('A' for Active; 'I' for Inactive)
REMARK    1  A    between atoms: C1_2  and  C2_3 
ROOT
ATOM      1  C2  UNL d   1      -0.925  -3.006   2.554  0.00  0.00    -0.076 A 
ATOM      2  C3  UNL d   1      -0.383  -2.312   1.459  0.00  0.00     0.004 A 
ATOM      3  C4  UNL d   1       0.322  -2.983   0.461  0.00  0.00    -0.003 A 
ATOM      4  C5  UNL d   1       0.496  -4.360   0.543  0.00  0.00     0.000 A 
ATOM      5  C6  UNL d   1      -0.050  -5.068   1.614  0.00  0.00     0.000 A 
ATOM      6  C7  UNL d   1      -0.777  -4.408   2.619  0.00  0.00    -0.073 A 
ATOM      7  C8  UNL d   1      -1.339  -5.220   3.754  0.00  0.00     0.078 C 
ENDROOT
BRANCH   1   8
ATOM      8  C1  UNL d   1      -1.656  -2.221   3.619  0.00  0.00     0.053 C 
ATOM      9  C   UNL d   1      -0.812  -1.095   4.196  0.00  0.00     0.018 C 
ENDBRANCH   1   8
TORSDOF 1
ENDMDL
