MODEL 1
REMARK minimizedAffinity 10.8613329
REMARK minimizedRMSD -1
REMARK  1 active torsions:
REMARK  status: ('A' for Active; 'I' for Inactive)
REMARK    1  A    between atoms: C1_2  and  C2_3 
ROOT
ATOM      1  C2  UNL d   1      -1.240  -2.397  -0.856  0.00  0.00    -0.076 A 
ATOM      2  C3  UNL d   1      -2.443  -1.737  -0.552  0.00  0.00     0.004 A 
ATOM      3  C4  UNL d   1      -2.831  -1.527   0.771  0.00  0.00    -0.003 A 
ATOM      4  C5  UNL d   1      -2.021  -1.973   1.810  0.00  0.00     0.000 A 
ATOM      5  C6  UNL d   1      -0.816  -2.614   1.526  0.00  0.00     0.000 A 
ATOM      6  C7  UNL d   1      -0.402  -2.819   0.199  0.00  0.00    -0.073 A 
ATOM      7  C8  UNL d   1       0.905  -3.522  -0.050  0.00  0.00     0.078 C 
ENDROOT
BRANCH   1   8
ATOM      8  C1  UNL d   1      -0.884  -2.621  -2.309  0.00  0.00     0.053 C 
ATOM      9  C   UNL d   1      -2.112  -2.799  -3.188  0.00  0.00     0.018 C 
ENDBRANCH   1   8
TORSDOF 1
ENDMDL
