MODEL 1
REMARK minimizedAffinity 11.0644703
REMARK minimizedRMSD -1
REMARK  1 active torsions:
REMARK  status: ('A' for Active; 'I' for Inactive)
REMARK    1  A    between atoms: C1_2  and  C2_3 
ROOT
ATOM      1  C2  UNL d   1      -1.271  -2.196  -0.821  0.00  0.00    -0.076 A 
ATOM      2  C3  UNL d   1      -2.478  -1.708  -0.291  0.00  0.00     0.004 A 
ATOM      3  C4  UNL d   1      -2.671  -1.613   1.086  0.00  0.00    -0.003 A 
ATOM      4  C5  UNL d   1      -1.660  -2.005   1.956  0.00  0.00     0.000 A 
ATOM      5  C6  UNL d   1      -0.449  -2.475   1.448  0.00  0.00     0.000 A 
ATOM      6  C7  UNL d   1      -0.233  -2.562   0.062  0.00  0.00    -0.073 A 
ATOM      7  C8  UNL d   1       1.090  -3.082  -0.431  0.00  0.00     0.078 C 
ENDROOT
BRANCH   1   8
ATOM      8  C1  UNL d   1      -1.129  -2.302  -2.322  0.00  0.00     0.053 C 
ATOM      9  C   UNL d   1      -1.989  -3.409  -2.913  0.00  0.00     0.018 C 
ENDBRANCH   1   8
TORSDOF 1
ENDMDL
