MODEL 1
REMARK minimizedAffinity 10.4429502
REMARK minimizedRMSD -1
REMARK  1 active torsions:
REMARK  status: ('A' for Active; 'I' for Inactive)
REMARK    1  A    between atoms: C1_2  and  C2_3 
ROOT
ATOM      1  C2  UNL d   1      -1.317  -3.535  -2.141  0.00  0.00    -0.076 A 
ATOM      2  C3  UNL d   1      -0.508  -4.656  -1.890  0.00  0.00     0.004 A 
ATOM      3  C4  UNL d   1       0.268  -4.737  -0.735  0.00  0.00    -0.003 A 
ATOM      4  C5  UNL d   1       0.247  -3.698   0.188  0.00  0.00     0.000 A 
ATOM      5  C6  UNL d   1      -0.564  -2.586  -0.035  0.00  0.00     0.000 A 
ATOM      6  C7  UNL d   1      -1.365  -2.496  -1.187  0.00  0.00    -0.073 A 
ATOM      7  C8  UNL d   1      -2.215  -1.270  -1.380  0.00  0.00     0.078 C 
ENDROOT
BRANCH   1   8
ATOM      8  C1  UNL d   1      -2.117  -3.490  -3.423  0.00  0.00     0.053 C 
ATOM      9  C   UNL d   1      -1.393  -2.747  -4.536  0.00  0.00     0.018 C 
ENDBRANCH   1   8
TORSDOF 1
ENDMDL
