MODEL 1
REMARK minimizedAffinity 7.52681684
REMARK minimizedRMSD -1
REMARK  1 active torsions:
REMARK  status: ('A' for Active; 'I' for Inactive)
REMARK    1  A    between atoms: C1_2  and  C2_3 
ROOT
ATOM      1  C2  UNL d   1      -2.115  -3.208  -3.308  0.00  0.00    -0.076 A 
ATOM      2  C3  UNL d   1      -1.256  -2.807  -4.346  0.00  0.00     0.004 A 
ATOM      3  C4  UNL d   1      -1.588  -3.038  -5.680  0.00  0.00    -0.003 A 
ATOM      4  C5  UNL d   1      -2.783  -3.673  -5.998  0.00  0.00     0.000 A 
ATOM      5  C6  UNL d   1      -3.655  -4.062  -4.981  0.00  0.00     0.000 A 
ATOM      6  C7  UNL d   1      -3.344  -3.822  -3.632  0.00  0.00    -0.073 A 
ATOM      7  C8  UNL d   1      -4.318  -4.267  -2.576  0.00  0.00     0.078 C 
ENDROOT
BRANCH   1   8
ATOM      8  C1  UNL d   1      -1.690  -2.955  -1.879  0.00  0.00     0.053 C 
ATOM      9  C   UNL d   1      -2.091  -1.573  -1.387  0.00  0.00     0.018 C 
ENDBRANCH   1   8
TORSDOF 1
ENDMDL
