MODEL 1
REMARK minimizedAffinity 6.43308687
REMARK minimizedRMSD -1
REMARK  1 active torsions:
REMARK  status: ('A' for Active; 'I' for Inactive)
REMARK    1  A    between atoms: C1_2  and  C2_3 
ROOT
ATOM      1  C2  UNL d   1       3.549  -1.922  -5.588  0.00  0.00    -0.076 A 
ATOM      2  C3  UNL d   1       3.753  -0.594  -6.000  0.00  0.00     0.004 A 
ATOM      3  C4  UNL d   1       4.944   0.071  -5.713  0.00  0.00    -0.003 A 
ATOM      4  C5  UNL d   1       5.951  -0.582  -5.010  0.00  0.00     0.000 A 
ATOM      5  C6  UNL d   1       5.772  -1.905  -4.609  0.00  0.00     0.000 A 
ATOM      6  C7  UNL d   1       4.584  -2.595  -4.904  0.00  0.00    -0.073 A 
ATOM      7  C8  UNL d   1       4.443  -4.020  -4.442  0.00  0.00     0.078 C 
ENDROOT
BRANCH   1   8
ATOM      8  C1  UNL d   1       2.226  -2.583  -5.904  0.00  0.00     0.053 C 
ATOM      9  C   UNL d   1       1.083  -1.585  -5.997  0.00  0.00     0.018 C 
ENDBRANCH   1   8
TORSDOF 1
ENDMDL
