MODEL 1
REMARK minimizedAffinity 7.32023048
REMARK minimizedRMSD -1
REMARK  1 active torsions:
REMARK  status: ('A' for Active; 'I' for Inactive)
REMARK    1  A    between atoms: C1_2  and  C2_3 
ROOT
ATOM      1  C2  UNL d   1      -1.517  -2.630  -3.422  0.00  0.00    -0.076 A 
ATOM      2  C3  UNL d   1      -0.550  -2.249  -4.368  0.00  0.00     0.004 A 
ATOM      3  C4  UNL d   1      -0.540  -2.803  -5.647  0.00  0.00    -0.003 A 
ATOM      4  C5  UNL d   1      -1.497  -3.748  -6.000  0.00  0.00     0.000 A 
ATOM      5  C6  UNL d   1      -2.475  -4.124  -5.079  0.00  0.00     0.000 A 
ATOM      6  C7  UNL d   1      -2.509  -3.563  -3.792  0.00  0.00    -0.073 A 
ATOM      7  C8  UNL d   1      -3.582  -4.010  -2.837  0.00  0.00     0.078 C 
ENDROOT
BRANCH   1   8
ATOM      8  C1  UNL d   1      -1.462  -2.014  -2.042  0.00  0.00     0.053 C 
ATOM      9  C   UNL d   1      -0.375  -2.627  -1.173  0.00  0.00     0.018 C 
ENDBRANCH   1   8
TORSDOF 1
ENDMDL
