MODEL 1
REMARK minimizedAffinity -3.88139439
REMARK minimizedRMSD -1
REMARK  0 active torsions:
REMARK  status: ('A' for Active; 'I' for Inactive)
ROOT
ATOM      1  C   UNL d   1       0.306   1.682   1.648  0.00  0.00     0.023 A 
ATOM      2  C1  UNL d   1       1.041   1.369   0.505  0.00  0.00     0.003 A 
ATOM      3  C2  UNL d   1       0.466   0.597  -0.507  0.00  0.00     0.048 A 
ATOM      4  C3  UNL d   1      -0.844   0.142  -0.369  0.00  0.00     0.023 A 
ATOM      5  C4  UNL d   1      -1.584   0.454   0.773  0.00  0.00     0.048 A 
ATOM      6  C5  UNL d   1      -1.005   1.225   1.782  0.00  0.00     0.003 A 
ATOM      7  I   UNL d   1      -1.702  -1.007  -1.874  0.00  0.00    -0.146 I 
ENDROOT
TORSDOF 0
ENDMDL
