MODEL 1
REMARK minimizedAffinity -4.90981102
REMARK minimizedRMSD -1
REMARK  0 active torsions:
REMARK  status: ('A' for Active; 'I' for Inactive)
ROOT
ATOM      1  C   UNL d   1       1.848   2.017   0.847  0.00  0.00     0.023 A 
ATOM      2  C1  UNL d   1       0.528   1.892   1.280  0.00  0.00     0.003 A 
ATOM      3  C2  UNL d   1      -0.268   0.848   0.805  0.00  0.00     0.048 A 
ATOM      4  C3  UNL d   1       0.263  -0.068  -0.103  0.00  0.00     0.023 A 
ATOM      5  C4  UNL d   1       1.583   0.053  -0.539  0.00  0.00     0.048 A 
ATOM      6  C5  UNL d   1       2.375   1.099  -0.061  0.00  0.00     0.003 A 
ATOM      7  I   UNL d   1      -0.920  -1.623  -0.812  0.00  0.00    -0.146 I 
ENDROOT
TORSDOF 0
ENDMDL
