MODEL 1
REMARK minimizedAffinity -4.41882801
REMARK minimizedRMSD -1
REMARK  0 active torsions:
REMARK  status: ('A' for Active; 'I' for Inactive)
ROOT
ATOM      1  C   UNL d   1       1.421   2.597   0.842  0.00  0.00     0.023 A 
ATOM      2  C1  UNL d   1       0.392   1.957   1.533  0.00  0.00     0.003 A 
ATOM      3  C2  UNL d   1      -0.189   0.800   1.010  0.00  0.00     0.048 A 
ATOM      4  C3  UNL d   1       0.265   0.287  -0.204  0.00  0.00     0.023 A 
ATOM      5  C4  UNL d   1       1.295   0.923  -0.899  0.00  0.00     0.048 A 
ATOM      6  C5  UNL d   1       1.872   2.080  -0.373  0.00  0.00     0.003 A 
ATOM      7  I   UNL d   1      -0.597  -1.436  -0.985  0.00  0.00    -0.146 I 
ENDROOT
TORSDOF 0
ENDMDL
