MODEL 1
REMARK minimizedAffinity -1.8532865
REMARK minimizedRMSD -1
REMARK  0 active torsions:
REMARK  status: ('A' for Active; 'I' for Inactive)
ROOT
ATOM      1  C   UNL d   1       1.075   2.632   0.611  0.00  0.00     0.023 A 
ATOM      2  C1  UNL d   1       0.162   2.253   1.595  0.00  0.00     0.003 A 
ATOM      3  C2  UNL d   1      -0.381   0.967   1.588  0.00  0.00     0.048 A 
ATOM      4  C3  UNL d   1      -0.006   0.064   0.595  0.00  0.00     0.023 A 
ATOM      5  C4  UNL d   1       0.908   0.437  -0.392  0.00  0.00     0.048 A 
ATOM      6  C5  UNL d   1       1.447   1.725  -0.381  0.00  0.00     0.003 A 
ATOM      7  I   UNL d   1      -0.813  -1.852   0.583  0.00  0.00    -0.146 I 
ENDROOT
TORSDOF 0
ENDMDL
