MODEL 1
REMARK minimizedAffinity -1.93896449
REMARK minimizedRMSD -1
REMARK  0 active torsions:
REMARK  status: ('A' for Active; 'I' for Inactive)
ROOT
ATOM      1  C   UNL d   1       0.810   1.968   1.411  0.00  0.00     0.023 A 
ATOM      2  C1  UNL d   1      -0.367   1.306   1.764  0.00  0.00     0.003 A 
ATOM      3  C2  UNL d   1      -0.875   0.298   0.943  0.00  0.00     0.048 A 
ATOM      4  C3  UNL d   1      -0.201  -0.045  -0.229  0.00  0.00     0.023 A 
ATOM      5  C4  UNL d   1       0.977   0.613  -0.585  0.00  0.00     0.048 A 
ATOM      6  C5  UNL d   1       1.481   1.621   0.238  0.00  0.00     0.003 A 
ATOM      7  I   UNL d   1      -0.956  -1.546  -1.452  0.00  0.00    -0.146 I 
ENDROOT
TORSDOF 0
ENDMDL
