MODEL 1
REMARK minimizedAffinity -3.10546589
REMARK minimizedRMSD -1
REMARK  0 active torsions:
REMARK  status: ('A' for Active; 'I' for Inactive)
ROOT
ATOM      1  C   UNL d   1      -0.383  -1.769   0.745  0.00  0.00     0.023 A 
ATOM      2  C1  UNL d   1       0.719  -1.436  -0.043  0.00  0.00     0.003 A 
ATOM      3  C2  UNL d   1       1.095  -0.100  -0.191  0.00  0.00     0.048 A 
ATOM      4  C3  UNL d   1       0.365   0.899   0.452  0.00  0.00     0.023 A 
ATOM      5  C4  UNL d   1      -0.737   0.571   1.243  0.00  0.00     0.048 A 
ATOM      6  C5  UNL d   1      -1.110  -0.767   1.387  0.00  0.00     0.003 A 
ATOM      7  I   UNL d   1       0.923   2.889   0.234  0.00  0.00    -0.146 I 
ENDROOT
TORSDOF 0
ENDMDL
