MODEL 1
REMARK minimizedAffinity -2.63345122
REMARK minimizedRMSD -1
REMARK  0 active torsions:
REMARK  status: ('A' for Active; 'I' for Inactive)
ROOT
ATOM      1  C   UNL d   1       0.984   2.868   1.614  0.00  0.00     0.023 A 
ATOM      2  C1  UNL d   1       0.294   1.894   2.336  0.00  0.00     0.003 A 
ATOM      3  C2  UNL d   1      -0.082   0.699   1.718  0.00  0.00     0.048 A 
ATOM      4  C3  UNL d   1       0.237   0.485   0.377  0.00  0.00     0.023 A 
ATOM      5  C4  UNL d   1       0.928   1.456  -0.349  0.00  0.00     0.048 A 
ATOM      6  C5  UNL d   1       1.301   2.649   0.273  0.00  0.00     0.003 A 
ATOM      7  I   UNL d   1      -0.320  -1.292  -0.546  0.00  0.00    -0.146 I 
ENDROOT
TORSDOF 0
ENDMDL
