MODEL 1
REMARK minimizedAffinity -4.71106958
REMARK minimizedRMSD -1
REMARK  0 active torsions:
REMARK  status: ('A' for Active; 'I' for Inactive)
ROOT
ATOM      1  C   UNL d   1       0.650   2.655   1.360  0.00  0.00     0.023 A 
ATOM      2  C1  UNL d   1       1.322   2.209   0.222  0.00  0.00     0.003 A 
ATOM      3  C2  UNL d   1       0.934   1.019  -0.398  0.00  0.00     0.048 A 
ATOM      4  C3  UNL d   1      -0.128   0.282   0.125  0.00  0.00     0.023 A 
ATOM      5  C4  UNL d   1      -0.804   0.725   1.263  0.00  0.00     0.048 A 
ATOM      6  C5  UNL d   1      -0.411   1.914   1.880  0.00  0.00     0.003 A 
ATOM      7  I   UNL d   1      -0.707  -1.489  -0.797  0.00  0.00    -0.146 I 
ENDROOT
TORSDOF 0
ENDMDL
