MODEL 1
REMARK minimizedAffinity -3.5418539
REMARK minimizedRMSD -1
REMARK  0 active torsions:
REMARK  status: ('A' for Active; 'I' for Inactive)
ROOT
ATOM      1  C   UNL d   1       1.495   2.251   1.425  0.00  0.00     0.023 A 
ATOM      2  C1  UNL d   1       1.842   2.026   0.092  0.00  0.00     0.003 A 
ATOM      3  C2  UNL d   1       1.085   1.151  -0.690  0.00  0.00     0.048 A 
ATOM      4  C3  UNL d   1      -0.019   0.506  -0.133  0.00  0.00     0.023 A 
ATOM      5  C4  UNL d   1      -0.370   0.728   1.199  0.00  0.00     0.048 A 
ATOM      6  C5  UNL d   1       0.391   1.603   1.978  0.00  0.00     0.003 A 
ATOM      7  I   UNL d   1      -1.148  -0.796  -1.295  0.00  0.00    -0.146 I 
ENDROOT
TORSDOF 0
ENDMDL
