MODEL 1
REMARK minimizedAffinity -4.03857899
REMARK minimizedRMSD -1
REMARK  0 active torsions:
REMARK  status: ('A' for Active; 'I' for Inactive)
ROOT
ATOM      1  C   UNL d   1       0.913   2.828   1.248  0.00  0.00     0.023 A 
ATOM      2  C1  UNL d   1       1.531   2.452   0.056  0.00  0.00     0.003 A 
ATOM      3  C2  UNL d   1       1.110   1.305  -0.619  0.00  0.00     0.048 A 
ATOM      4  C3  UNL d   1       0.069   0.538  -0.097  0.00  0.00     0.023 A 
ATOM      5  C4  UNL d   1      -0.553   0.910   1.096  0.00  0.00     0.048 A 
ATOM      6  C5  UNL d   1      -0.128   2.058   1.768  0.00  0.00     0.003 A 
ATOM      7  I   UNL d   1      -0.559  -1.170  -1.100  0.00  0.00    -0.146 I 
ENDROOT
TORSDOF 0
ENDMDL
