MODEL 1
REMARK minimizedAffinity -4.83168554
REMARK minimizedRMSD -1
REMARK  0 active torsions:
REMARK  status: ('A' for Active; 'I' for Inactive)
ROOT
ATOM      1  C   UNL d   1       1.181   2.559   1.398  0.00  0.00     0.023 A 
ATOM      2  C1  UNL d   1       1.955   1.887   0.452  0.00  0.00     0.003 A 
ATOM      3  C2  UNL d   1       1.442   0.767  -0.204  0.00  0.00     0.048 A 
ATOM      4  C3  UNL d   1       0.153   0.324   0.090  0.00  0.00     0.023 A 
ATOM      5  C4  UNL d   1      -0.626   0.993   1.035  0.00  0.00     0.048 A 
ATOM      6  C5  UNL d   1      -0.108   2.112   1.690  0.00  0.00     0.003 A 
ATOM      7  I   UNL d   1      -0.614  -1.344  -0.886  0.00  0.00    -0.146 I 
ENDROOT
TORSDOF 0
ENDMDL
