MODEL 1
REMARK minimizedAffinity -0.52276355
REMARK minimizedRMSD -1
REMARK  0 active torsions:
REMARK  status: ('A' for Active; 'I' for Inactive)
ROOT
ATOM      1  C   UNL d   1      -1.192   1.213   1.898  0.00  0.00     0.023 A 
ATOM      2  C1  UNL d   1       0.003   1.913   1.732  0.00  0.00     0.003 A 
ATOM      3  C2  UNL d   1       0.983   1.427   0.864  0.00  0.00     0.048 A 
ATOM      4  C3  UNL d   1       0.762   0.241   0.166  0.00  0.00     0.023 A 
ATOM      5  C4  UNL d   1      -0.432  -0.463   0.329  0.00  0.00     0.048 A 
ATOM      6  C5  UNL d   1      -1.409   0.026   1.198  0.00  0.00     0.003 A 
ATOM      7  I   UNL d   1       2.220  -0.484  -1.126  0.00  0.00    -0.146 I 
ENDROOT
TORSDOF 0
ENDMDL
