MODEL 1
REMARK minimizedAffinity -4.15568066
REMARK minimizedRMSD -1
REMARK  0 active torsions:
REMARK  status: ('A' for Active; 'I' for Inactive)
ROOT
ATOM      1  C   UNL d   1       0.422   1.869   2.040  0.00  0.00     0.023 A 
ATOM      2  C1  UNL d   1       1.180   1.675   0.885  0.00  0.00     0.003 A 
ATOM      3  C2  UNL d   1       0.794   0.715  -0.052  0.00  0.00     0.048 A 
ATOM      4  C3  UNL d   1      -0.353  -0.047   0.171  0.00  0.00     0.023 A 
ATOM      5  C4  UNL d   1      -1.115   0.144   1.325  0.00  0.00     0.048 A 
ATOM      6  C5  UNL d   1      -0.724   1.105   2.260  0.00  0.00     0.003 A 
ATOM      7  I   UNL d   1      -0.930  -1.477  -1.222  0.00  0.00    -0.146 I 
ENDROOT
TORSDOF 0
ENDMDL
