MODEL 1
REMARK minimizedAffinity -2.2761364
REMARK minimizedRMSD -1
REMARK  0 active torsions:
REMARK  status: ('A' for Active; 'I' for Inactive)
ROOT
ATOM      1  C   UNL d   1      -2.990   2.642  -3.997  0.00  0.00     0.077 C 
ATOM      2  C1  UNL d   1      -3.269   1.235  -4.435  0.00  0.00    -0.074 A 
ATOM      3  C2  UNL d   1      -2.554   0.656  -5.488  0.00  0.00    -0.005 A 
ATOM      4  C3  UNL d   1      -2.818  -0.657  -5.879  0.00  0.00     0.006 A 
ATOM      5  C4  UNL d   1      -3.798  -1.402  -5.222  0.00  0.00    -0.005 A 
ATOM      6  C5  UNL d   1      -4.522  -0.840  -4.166  0.00  0.00    -0.074 A 
ATOM      7  C6  UNL d   1      -5.572  -1.630  -3.442  0.00  0.00     0.077 C 
ATOM      8  C7  UNL d   1      -4.246   0.478  -3.775  0.00  0.00    -0.001 A 
ENDROOT
TORSDOF 0
ENDMDL
