MODEL 1
REMARK minimizedAffinity 1.2313875
REMARK minimizedRMSD -1
REMARK  0 active torsions:
REMARK  status: ('A' for Active; 'I' for Inactive)
ROOT
ATOM      1  C   UNL d   1       2.338  -2.727   1.299  0.00  0.00     0.077 C 
ATOM      2  C1  UNL d   1       3.429  -3.488   1.993  0.00  0.00    -0.074 A 
ATOM      3  C2  UNL d   1       4.078  -4.552   1.359  0.00  0.00    -0.005 A 
ATOM      4  C3  UNL d   1       5.098  -5.244   2.013  0.00  0.00     0.006 A 
ATOM      5  C4  UNL d   1       5.478  -4.879   3.305  0.00  0.00    -0.005 A 
ATOM      6  C5  UNL d   1       4.841  -3.817   3.954  0.00  0.00    -0.074 A 
ATOM      7  C6  UNL d   1       5.243  -3.406   5.339  0.00  0.00     0.077 C 
ATOM      8  C7  UNL d   1       3.822  -3.122   3.288  0.00  0.00    -0.001 A 
ENDROOT
TORSDOF 0
ENDMDL
