MODEL 1
REMARK minimizedAffinity -0.0744432285
REMARK minimizedRMSD -1
REMARK  0 active torsions:
REMARK  status: ('A' for Active; 'I' for Inactive)
ROOT
ATOM      1  C   UNL d   1      -3.399  -1.504  -2.478  0.00  0.00     0.077 C 
ATOM      2  C1  UNL d   1      -3.705  -0.705  -3.710  0.00  0.00    -0.074 A 
ATOM      3  C2  UNL d   1      -4.970  -0.758  -4.305  0.00  0.00    -0.005 A 
ATOM      4  C3  UNL d   1      -5.243  -0.002  -5.444  0.00  0.00     0.006 A 
ATOM      5  C4  UNL d   1      -4.256   0.813  -6.000  0.00  0.00    -0.005 A 
ATOM      6  C5  UNL d   1      -2.986   0.879  -5.419  0.00  0.00    -0.074 A 
ATOM      7  C6  UNL d   1      -1.917   1.758  -5.997  0.00  0.00     0.077 C 
ATOM      8  C7  UNL d   1      -2.721   0.122  -4.269  0.00  0.00    -0.001 A 
ENDROOT
TORSDOF 0
ENDMDL
