MODEL 1
REMARK minimizedAffinity 3.92449164
REMARK minimizedRMSD -1
REMARK  0 active torsions:
REMARK  status: ('A' for Active; 'I' for Inactive)
ROOT
ATOM      1  C   UNL d   1      -1.875  -2.238  -5.998  0.00  0.00     0.077 C 
ATOM      2  C1  UNL d   1      -2.629  -1.303  -5.100  0.00  0.00    -0.074 A 
ATOM      3  C2  UNL d   1      -2.370  -1.262  -3.726  0.00  0.00    -0.005 A 
ATOM      4  C3  UNL d   1      -3.072  -0.381  -2.904  0.00  0.00     0.006 A 
ATOM      5  C4  UNL d   1      -4.039   0.467  -3.446  0.00  0.00    -0.005 A 
ATOM      6  C5  UNL d   1      -4.311   0.440  -4.818  0.00  0.00    -0.074 A 
ATOM      7  C6  UNL d   1      -5.340   1.351  -5.419  0.00  0.00     0.077 C 
ATOM      8  C7  UNL d   1      -3.596  -0.443  -5.638  0.00  0.00    -0.001 A 
ENDROOT
TORSDOF 0
ENDMDL
