MODEL 1
REMARK minimizedAffinity 9.0577755
REMARK minimizedRMSD -1
REMARK  0 active torsions:
REMARK  status: ('A' for Active; 'I' for Inactive)
ROOT
ATOM      1  C   UNL d   1      -2.996   3.005  -2.692  0.00  0.00     0.077 C 
ATOM      2  C1  UNL d   1      -3.368   1.960  -3.702  0.00  0.00    -0.074 A 
ATOM      3  C2  UNL d   1      -3.332   2.240  -5.072  0.00  0.00    -0.005 A 
ATOM      4  C3  UNL d   1      -3.671   1.255  -6.000  0.00  0.00     0.006 A 
ATOM      5  C4  UNL d   1      -4.049  -0.017  -5.568  0.00  0.00    -0.005 A 
ATOM      6  C5  UNL d   1      -4.089  -0.315  -4.203  0.00  0.00    -0.074 A 
ATOM      7  C6  UNL d   1      -4.484  -1.680  -3.722  0.00  0.00     0.077 C 
ATOM      8  C7  UNL d   1      -3.740   0.677  -3.277  0.00  0.00    -0.001 A 
ENDROOT
TORSDOF 0
ENDMDL
