MODEL 1
REMARK minimizedAffinity -2.96189141
REMARK minimizedRMSD -1
REMARK  0 active torsions:
REMARK  status: ('A' for Active; 'I' for Inactive)
ROOT
ATOM      1  C   UNL d   1       4.900  -3.752   3.525  0.00  0.00     0.077 C 
ATOM      2  C1  UNL d   1       3.880  -3.042   2.685  0.00  0.00    -0.074 A 
ATOM      3  C2  UNL d   1       4.023  -2.963   1.296  0.00  0.00    -0.005 A 
ATOM      4  C3  UNL d   1       3.061  -2.308   0.527  0.00  0.00     0.006 A 
ATOM      5  C4  UNL d   1       1.949  -1.727   1.137  0.00  0.00    -0.005 A 
ATOM      6  C5  UNL d   1       1.789  -1.797   2.525  0.00  0.00    -0.074 A 
ATOM      7  C6  UNL d   1       0.595  -1.187   3.196  0.00  0.00     0.077 C 
ATOM      8  C7  UNL d   1       2.756  -2.463   3.290  0.00  0.00    -0.001 A 
ENDROOT
TORSDOF 0
ENDMDL
