MODEL 1
REMARK minimizedAffinity 1.50448287
REMARK minimizedRMSD -1
REMARK  0 active torsions:
REMARK  status: ('A' for Active; 'I' for Inactive)
ROOT
ATOM      1  C   UNL d   1      -2.712  -0.976  -0.548  0.00  0.00     0.077 C 
ATOM      2  C1  UNL d   1      -3.420  -0.721  -1.846  0.00  0.00    -0.074 A 
ATOM      3  C2  UNL d   1      -4.130  -1.740  -2.489  0.00  0.00    -0.005 A 
ATOM      4  C3  UNL d   1      -4.792  -1.486  -3.690  0.00  0.00     0.006 A 
ATOM      5  C4  UNL d   1      -4.750  -0.212  -4.260  0.00  0.00    -0.005 A 
ATOM      6  C5  UNL d   1      -4.046   0.819  -3.630  0.00  0.00    -0.074 A 
ATOM      7  C6  UNL d   1      -3.999   2.196  -4.224  0.00  0.00     0.077 C 
ATOM      8  C7  UNL d   1      -3.389   0.557  -2.420  0.00  0.00    -0.001 A 
ENDROOT
TORSDOF 0
ENDMDL
