MODEL 1
REMARK minimizedAffinity 3.58138728
REMARK minimizedRMSD -1
REMARK  0 active torsions:
REMARK  status: ('A' for Active; 'I' for Inactive)
ROOT
ATOM      1  C   UNL d   1      -4.558   1.184  -5.967  0.00  0.00     0.077 C 
ATOM      2  C1  UNL d   1      -3.721   0.289  -5.102  0.00  0.00    -0.074 A 
ATOM      3  C2  UNL d   1      -2.851  -0.649  -5.667  0.00  0.00    -0.005 A 
ATOM      4  C3  UNL d   1      -2.072  -1.467  -4.850  0.00  0.00     0.006 A 
ATOM      5  C4  UNL d   1      -2.154  -1.357  -3.461  0.00  0.00    -0.005 A 
ATOM      6  C5  UNL d   1      -3.017  -0.424  -2.878  0.00  0.00    -0.074 A 
ATOM      7  C6  UNL d   1      -3.111  -0.285  -1.387  0.00  0.00     0.077 C 
ATOM      8  C7  UNL d   1      -3.792   0.400  -3.706  0.00  0.00    -0.001 A 
ENDROOT
TORSDOF 0
ENDMDL
