MODEL 1
REMARK minimizedAffinity 0.82199651
REMARK minimizedRMSD -1
REMARK  0 active torsions:
REMARK  status: ('A' for Active; 'I' for Inactive)
ROOT
ATOM      1  C   UNL d   1      -6.000   0.358  -4.869  0.00  0.00     0.077 C 
ATOM      2  C1  UNL d   1      -4.546  -0.000  -4.789  0.00  0.00    -0.074 A 
ATOM      3  C2  UNL d   1      -4.130  -1.185  -4.174  0.00  0.00    -0.005 A 
ATOM      4  C3  UNL d   1      -2.774  -1.510  -4.116  0.00  0.00     0.006 A 
ATOM      5  C4  UNL d   1      -1.823  -0.654  -4.672  0.00  0.00    -0.005 A 
ATOM      6  C5  UNL d   1      -2.220   0.535  -5.292  0.00  0.00    -0.074 A 
ATOM      7  C6  UNL d   1      -1.211   1.461  -5.904  0.00  0.00     0.077 C 
ATOM      8  C7  UNL d   1      -3.584   0.850  -5.353  0.00  0.00    -0.001 A 
ENDROOT
TORSDOF 0
ENDMDL
