MODEL 1
REMARK minimizedAffinity -1.01157534
REMARK minimizedRMSD -1
REMARK  0 active torsions:
REMARK  status: ('A' for Active; 'I' for Inactive)
ROOT
ATOM      1  C   UNL d   1      -3.730  -1.537  -2.152  0.00  0.00     0.077 C 
ATOM      2  C1  UNL d   1      -3.615  -0.874  -3.492  0.00  0.00    -0.074 A 
ATOM      3  C2  UNL d   1      -2.523  -1.127  -4.328  0.00  0.00    -0.005 A 
ATOM      4  C3  UNL d   1      -2.434  -0.511  -5.576  0.00  0.00     0.006 A 
ATOM      5  C4  UNL d   1      -3.435   0.364  -6.000  0.00  0.00    -0.005 A 
ATOM      6  C5  UNL d   1      -4.535   0.629  -5.178  0.00  0.00    -0.074 A 
ATOM      7  C6  UNL d   1      -5.625   1.558  -5.623  0.00  0.00     0.077 C 
ATOM      8  C7  UNL d   1      -4.621  -0.000  -3.929  0.00  0.00    -0.001 A 
ENDROOT
TORSDOF 0
ENDMDL
