MODEL 1
REMARK minimizedAffinity -2.8998754
REMARK minimizedRMSD -1
REMARK  0 active torsions:
REMARK  status: ('A' for Active; 'I' for Inactive)
ROOT
ATOM      1  C   UNL d   1      -2.984  -1.127  -0.799  0.00  0.00    -0.002 A 
ATOM      2  C1  UNL d   1      -2.395  -0.030  -1.410  0.00  0.00     0.010 A 
ATOM      3  C2  UNL d   1      -1.067   0.306  -1.139  0.00  0.00     0.041 A 
ATOM      4  C3  UNL d   1      -0.333  -0.489  -0.237  0.00  0.00    -0.075 A 
ATOM      5  S   UNL d   1       1.307  -0.269   0.247  0.00  0.00     0.015 SA
ATOM      6  C4  UNL d   1       1.264  -1.627   1.275  0.00  0.00     0.022 A 
ATOM      7  C5  UNL d   1       0.036  -2.245   1.262  0.00  0.00     0.026 A 
ATOM      8  C6  UNL d   1      -0.905  -1.600   0.391  0.00  0.00    -0.082 A 
ATOM      9  C7  UNL d   1      -2.253  -1.913   0.096  0.00  0.00     0.045 A 
ENDROOT
TORSDOF 0
ENDMDL
