MODEL 1
REMARK minimizedAffinity -1.78142774
REMARK minimizedRMSD -1
REMARK  0 active torsions:
REMARK  status: ('A' for Active; 'I' for Inactive)
ROOT
ATOM      1  C   UNL d   1      -2.357  -0.418  -1.503  0.00  0.00    -0.002 A 
ATOM      2  C1  UNL d   1      -2.559  -1.099  -0.312  0.00  0.00     0.010 A 
ATOM      3  C2  UNL d   1      -1.570  -1.117   0.673  0.00  0.00     0.041 A 
ATOM      4  C3  UNL d   1      -0.363  -0.430   0.438  0.00  0.00    -0.075 A 
ATOM      5  S   UNL d   1       0.990  -0.313   1.501  0.00  0.00     0.015 SA
ATOM      6  C4  UNL d   1       1.868   0.646   0.398  0.00  0.00     0.022 A 
ATOM      7  C5  UNL d   1       1.161   0.880  -0.758  0.00  0.00     0.026 A 
ATOM      8  C6  UNL d   1      -0.136   0.265  -0.753  0.00  0.00    -0.082 A 
ATOM      9  C7  UNL d   1      -1.159   0.263  -1.733  0.00  0.00     0.045 A 
ENDROOT
TORSDOF 0
ENDMDL
