MODEL 1
REMARK minimizedAffinity -3.16234565
REMARK minimizedRMSD -1
REMARK  0 active torsions:
REMARK  status: ('A' for Active; 'I' for Inactive)
ROOT
ATOM      1  C   UNL d   1      -2.065   0.027  -1.295  0.00  0.00    -0.002 A 
ATOM      2  C1  UNL d   1      -2.198  -0.624  -0.077  0.00  0.00     0.010 A 
ATOM      3  C2  UNL d   1      -1.166  -0.590   0.864  0.00  0.00     0.041 A 
ATOM      4  C3  UNL d   1       0.012   0.119   0.557  0.00  0.00    -0.075 A 
ATOM      5  S   UNL d   1       1.406   0.299   1.554  0.00  0.00     0.015 SA
ATOM      6  C4  UNL d   1       2.211   1.246   0.387  0.00  0.00     0.022 A 
ATOM      7  C5  UNL d   1       1.449   1.429  -0.742  0.00  0.00     0.026 A 
ATOM      8  C6  UNL d   1       0.169   0.783  -0.663  0.00  0.00    -0.082 A 
ATOM      9  C7  UNL d   1      -0.895   0.728  -1.596  0.00  0.00     0.045 A 
ENDROOT
TORSDOF 0
ENDMDL
