MODEL 1
REMARK minimizedAffinity -4.16863394
REMARK minimizedRMSD -1
REMARK  0 active torsions:
REMARK  status: ('A' for Active; 'I' for Inactive)
ROOT
ATOM      1  C   UNL d   1      -2.811  -0.648  -0.351  0.00  0.00    -0.002 A 
ATOM      2  C1  UNL d   1      -2.152   0.180  -1.250  0.00  0.00     0.010 A 
ATOM      3  C2  UNL d   1      -0.774   0.383  -1.148  0.00  0.00     0.041 A 
ATOM      4  C3  UNL d   1      -0.063  -0.266  -0.121  0.00  0.00    -0.075 A 
ATOM      5  S   UNL d   1       1.629  -0.166   0.196  0.00  0.00     0.015 SA
ATOM      6  C4  UNL d   1       1.517  -1.220   1.531  0.00  0.00     0.022 A 
ATOM      7  C5  UNL d   1       0.228  -1.647   1.744  0.00  0.00     0.026 A 
ATOM      8  C6  UNL d   1      -0.704  -1.105   0.796  0.00  0.00    -0.082 A 
ATOM      9  C7  UNL d   1      -2.101  -1.290   0.667  0.00  0.00     0.045 A 
ENDROOT
TORSDOF 0
ENDMDL
