MODEL 1
REMARK minimizedAffinity -3.13178277
REMARK minimizedRMSD -1
REMARK  0 active torsions:
REMARK  status: ('A' for Active; 'I' for Inactive)
ROOT
ATOM      1  C   UNL d   1      -2.269  -2.690   0.756  0.00  0.00    -0.002 A 
ATOM      2  C1  UNL d   1      -1.118  -2.625   1.528  0.00  0.00     0.010 A 
ATOM      3  C2  UNL d   1      -0.126  -1.684   1.245  0.00  0.00     0.041 A 
ATOM      4  C3  UNL d   1      -0.313  -0.800   0.164  0.00  0.00    -0.075 A 
ATOM      5  S   UNL d   1       0.766   0.434  -0.369  0.00  0.00     0.015 SA
ATOM      6  C4  UNL d   1      -0.277   0.904  -1.632  0.00  0.00     0.022 A 
ATOM      7  C5  UNL d   1      -1.424   0.148  -1.662  0.00  0.00     0.026 A 
ATOM      8  C6  UNL d   1      -1.465  -0.846  -0.627  0.00  0.00    -0.082 A 
ATOM      9  C7  UNL d   1      -2.452  -1.812  -0.315  0.00  0.00     0.045 A 
ENDROOT
TORSDOF 0
ENDMDL
