MODEL 1
REMARK minimizedAffinity -3.80525517
REMARK minimizedRMSD -1
REMARK  0 active torsions:
REMARK  status: ('A' for Active; 'I' for Inactive)
ROOT
ATOM      1  C   UNL d   1      -3.252  -0.992  -0.128  0.00  0.00    -0.002 A 
ATOM      2  C1  UNL d   1      -2.852  -2.037   0.693  0.00  0.00     0.010 A 
ATOM      3  C2  UNL d   1      -1.525  -2.141   1.115  0.00  0.00     0.041 A 
ATOM      4  C3  UNL d   1      -0.598  -1.167   0.694  0.00  0.00    -0.075 A 
ATOM      5  S   UNL d   1       1.079  -1.091   1.086  0.00  0.00     0.015 SA
ATOM      6  C4  UNL d   1       1.304   0.331   0.173  0.00  0.00     0.022 A 
ATOM      7  C5  UNL d   1       0.139   0.751  -0.423  0.00  0.00     0.026 A 
ATOM      8  C6  UNL d   1      -0.977  -0.105  -0.132  0.00  0.00    -0.082 A 
ATOM      9  C7  UNL d   1      -2.330  -0.028  -0.543  0.00  0.00     0.045 A 
ENDROOT
TORSDOF 0
ENDMDL
