MODEL 1
REMARK minimizedAffinity -0.806349516
REMARK minimizedRMSD -1
REMARK  0 active torsions:
REMARK  status: ('A' for Active; 'I' for Inactive)
ROOT
ATOM      1  C   UNL d   1      -2.790  -2.396   0.115  0.00  0.00    -0.002 A 
ATOM      2  C1  UNL d   1      -1.920  -2.712   1.149  0.00  0.00     0.010 A 
ATOM      3  C2  UNL d   1      -0.715  -2.022   1.299  0.00  0.00     0.041 A 
ATOM      4  C3  UNL d   1      -0.397  -0.999   0.384  0.00  0.00    -0.075 A 
ATOM      5  S   UNL d   1       1.022  -0.020   0.372  0.00  0.00     0.015 SA
ATOM      6  C4  UNL d   1       0.506   0.842  -1.005  0.00  0.00     0.022 A 
ATOM      7  C5  UNL d   1      -0.717   0.405  -1.458  0.00  0.00     0.026 A 
ATOM      8  C6  UNL d   1      -1.257  -0.662  -0.665  0.00  0.00    -0.082 A 
ATOM      9  C7  UNL d   1      -2.471  -1.381  -0.790  0.00  0.00     0.045 A 
ENDROOT
TORSDOF 0
ENDMDL
