MODEL 1
REMARK minimizedAffinity -3.66477823
REMARK minimizedRMSD -1
REMARK  0 active torsions:
REMARK  status: ('A' for Active; 'I' for Inactive)
ROOT
ATOM      1  C   UNL d   1      -3.040  -1.143   0.968  0.00  0.00    -0.002 A 
ATOM      2  C1  UNL d   1      -3.437  -1.259  -0.356  0.00  0.00     0.010 A 
ATOM      3  C2  UNL d   1      -2.574  -0.890  -1.391  0.00  0.00     0.041 A 
ATOM      4  C3  UNL d   1      -1.294  -0.399  -1.068  0.00  0.00    -0.075 A 
ATOM      5  S   UNL d   1      -0.069   0.113  -2.168  0.00  0.00     0.015 SA
ATOM      6  C4  UNL d   1       1.009   0.497  -0.906  0.00  0.00     0.022 A 
ATOM      7  C5  UNL d   1       0.465   0.247   0.331  0.00  0.00     0.026 A 
ATOM      8  C6  UNL d   1      -0.872  -0.274   0.258  0.00  0.00    -0.082 A 
ATOM      9  C7  UNL d   1      -1.769  -0.656   1.284  0.00  0.00     0.045 A 
ENDROOT
TORSDOF 0
ENDMDL
