MODEL 1
REMARK minimizedAffinity -3.63149476
REMARK minimizedRMSD -1
REMARK  0 active torsions:
REMARK  status: ('A' for Active; 'I' for Inactive)
ROOT
ATOM      1  C   UNL d   1      -3.055  -1.944  -0.621  0.00  0.00    -0.002 A 
ATOM      2  C1  UNL d   1      -2.545  -2.709   0.419  0.00  0.00     0.010 A 
ATOM      3  C2  UNL d   1      -1.311  -2.395   0.993  0.00  0.00     0.041 A 
ATOM      4  C3  UNL d   1      -0.593  -1.288   0.501  0.00  0.00    -0.075 A 
ATOM      5  S   UNL d   1       0.938  -0.715   1.050  0.00  0.00     0.015 SA
ATOM      6  C4  UNL d   1       0.951   0.559  -0.082  0.00  0.00     0.022 A 
ATOM      7  C5  UNL d   1      -0.177   0.562  -0.868  0.00  0.00     0.026 A 
ATOM      8  C6  UNL d   1      -1.086  -0.502  -0.545  0.00  0.00    -0.082 A 
ATOM      9  C7  UNL d   1      -2.339  -0.847  -1.106  0.00  0.00     0.045 A 
ENDROOT
TORSDOF 0
ENDMDL
