MODEL 1
REMARK minimizedAffinity 0.340663135
REMARK minimizedRMSD -1
REMARK  0 active torsions:
REMARK  status: ('A' for Active; 'I' for Inactive)
ROOT
ATOM      1  C   UNL d   1      -2.632  -0.001  -1.501  0.00  0.00    -0.002 A 
ATOM      2  C1  UNL d   1      -2.686  -0.943  -0.483  0.00  0.00     0.010 A 
ATOM      3  C2  UNL d   1      -1.582  -1.157   0.345  0.00  0.00     0.041 A 
ATOM      4  C3  UNL d   1      -0.413  -0.400   0.133  0.00  0.00    -0.075 A 
ATOM      5  S   UNL d   1       1.060  -0.491   1.024  0.00  0.00     0.015 SA
ATOM      6  C4  UNL d   1       1.795   0.719   0.074  0.00  0.00     0.022 A 
ATOM      7  C5  UNL d   1       0.952   1.191  -0.903  0.00  0.00     0.026 A 
ATOM      8  C6  UNL d   1      -0.335   0.554  -0.885  0.00  0.00    -0.082 A 
ATOM      9  C7  UNL d   1      -1.470   0.748  -1.709  0.00  0.00     0.045 A 
ENDROOT
TORSDOF 0
ENDMDL
