MODEL 1
REMARK minimizedAffinity 11.4118681
REMARK minimizedRMSD -1
REMARK  0 active torsions:
REMARK  status: ('A' for Active; 'I' for Inactive)
ROOT
ATOM      1  C   UNL d   1      -1.809  -2.171   0.468  0.00  0.00     0.124 A 
ATOM      2  C1  UNL d   1      -1.075  -1.569   1.481  0.00  0.00     0.062 A 
ATOM      3  C2  UNL d   1      -0.423  -0.361   1.249  0.00  0.00     0.162 A 
ATOM      4  C3  UNL d   1      -0.501   0.252  -0.001  0.00  0.00    -0.034 A 
ATOM      5  C4  UNL d   1      -1.240  -0.360  -1.015  0.00  0.00     0.162 A 
ATOM      6  C5  UNL d   1      -1.890  -1.567  -0.779  0.00  0.00     0.062 A 
ATOM      7  F   UNL d   1      -2.598  -2.147  -1.758  0.00  0.00    -0.097 F 
ATOM      8  F1  UNL d   1      -1.336   0.203  -2.229  0.00  0.00    -0.096 F 
ATOM      9  I   UNL d   1       0.474   2.058  -0.352  0.00  0.00    -0.060 I 
ATOM     10  F2  UNL d   1       0.279   0.198   2.246  0.00  0.00    -0.096 F 
ATOM     11  F3  UNL d   1      -0.994  -2.151   2.685  0.00  0.00    -0.097 F 
ATOM     12  F4  UNL d   1      -2.435  -3.333   0.693  0.00  0.00    -0.092 F 
ENDROOT
TORSDOF 0
ENDMDL
