MODEL 1
REMARK minimizedAffinity 23.5479412
REMARK minimizedRMSD -1
REMARK  0 active torsions:
REMARK  status: ('A' for Active; 'I' for Inactive)
ROOT
ATOM      1  C   UNL d   1       3.716   4.492   0.281  0.00  0.00     0.124 A 
ATOM      2  C1  UNL d   1       2.543   4.141  -0.373  0.00  0.00     0.062 A 
ATOM      3  C2  UNL d   1       2.517   3.035  -1.218  0.00  0.00     0.162 A 
ATOM      4  C3  UNL d   1       3.667   2.271  -1.413  0.00  0.00    -0.034 A 
ATOM      5  C4  UNL d   1       4.844   2.631  -0.753  0.00  0.00     0.162 A 
ATOM      6  C5  UNL d   1       4.865   3.737   0.091  0.00  0.00     0.062 A 
ATOM      7  F   UNL d   1       5.999   4.075   0.722  0.00  0.00    -0.097 F 
ATOM      8  F1  UNL d   1       5.968   1.918  -0.918  0.00  0.00    -0.096 F 
ATOM      9  I   UNL d   1       3.632   0.617  -2.675  0.00  0.00    -0.060 I 
ATOM     10  F2  UNL d   1       1.370   2.720  -1.837  0.00  0.00    -0.096 F 
ATOM     11  F3  UNL d   1       1.433   4.870  -0.191  0.00  0.00    -0.097 F 
ATOM     12  F4  UNL d   1       3.739   5.557   1.092  0.00  0.00    -0.092 F 
ENDROOT
TORSDOF 0
ENDMDL
