MODEL 1
REMARK minimizedAffinity 5.83421135
REMARK minimizedRMSD -1
REMARK  0 active torsions:
REMARK  status: ('A' for Active; 'I' for Inactive)
ROOT
ATOM      1  C   UNL d   1       4.253   2.406  -5.999  0.00  0.00     0.124 A 
ATOM      2  C1  UNL d   1       4.525   3.767  -5.998  0.00  0.00     0.062 A 
ATOM      3  C2  UNL d   1       3.482   4.689  -5.998  0.00  0.00     0.162 A 
ATOM      4  C3  UNL d   1       2.157   4.253  -5.998  0.00  0.00    -0.034 A 
ATOM      5  C4  UNL d   1       1.892   2.882  -5.999  0.00  0.00     0.162 A 
ATOM      6  C5  UNL d   1       2.938   1.965  -5.999  0.00  0.00     0.062 A 
ATOM      7  F   UNL d   1       2.673   0.650  -6.000  0.00  0.00    -0.097 F 
ATOM      8  F1  UNL d   1       0.630   2.428  -5.999  0.00  0.00    -0.096 F 
ATOM      9  I   UNL d   1       0.595   5.628  -5.998  0.00  0.00    -0.060 I 
ATOM     10  F2  UNL d   1       3.774   5.998  -5.998  0.00  0.00    -0.096 F 
ATOM     11  F3  UNL d   1       5.796   4.196  -5.999  0.00  0.00    -0.097 F 
ATOM     12  F4  UNL d   1       5.259   1.521  -6.000  0.00  0.00    -0.092 F 
ENDROOT
TORSDOF 0
ENDMDL
