MODEL 1
REMARK minimizedAffinity 18.3541012
REMARK minimizedRMSD -1
REMARK  0 active torsions:
REMARK  status: ('A' for Active; 'I' for Inactive)
ROOT
ATOM      1  C   UNL d   1       3.748  -2.466  -2.996  0.00  0.00     0.124 A 
ATOM      2  C1  UNL d   1       2.861  -3.099  -3.855  0.00  0.00     0.062 A 
ATOM      3  C2  UNL d   1       1.521  -3.235  -3.501  0.00  0.00     0.162 A 
ATOM      4  C3  UNL d   1       1.061  -2.737  -2.283  0.00  0.00    -0.034 A 
ATOM      5  C4  UNL d   1       1.960  -2.103  -1.423  0.00  0.00     0.162 A 
ATOM      6  C5  UNL d   1       3.297  -1.969  -1.781  0.00  0.00     0.062 A 
ATOM      7  F   UNL d   1       4.154  -1.357  -0.950  0.00  0.00    -0.097 F 
ATOM      8  F1  UNL d   1       1.551  -1.613  -0.244  0.00  0.00    -0.096 F 
ATOM      9  I   UNL d   1      -0.941  -2.940  -1.750  0.00  0.00    -0.060 I 
ATOM     10  F2  UNL d   1       0.686  -3.851  -4.351  0.00  0.00    -0.096 F 
ATOM     11  F3  UNL d   1       3.294  -3.581  -5.029  0.00  0.00    -0.097 F 
ATOM     12  F4  UNL d   1       5.037  -2.336  -3.338  0.00  0.00    -0.092 F 
ENDROOT
TORSDOF 0
ENDMDL
