MODEL 1
REMARK minimizedAffinity 12.9174652
REMARK minimizedRMSD -1
REMARK  0 active torsions:
REMARK  status: ('A' for Active; 'I' for Inactive)
ROOT
ATOM      1  C   UNL d   1       0.180   4.730  -5.995  0.00  0.00     0.124 A 
ATOM      2  C1  UNL d   1      -0.709   3.664  -5.995  0.00  0.00     0.062 A 
ATOM      3  C2  UNL d   1      -0.234   2.356  -5.994  0.00  0.00     0.162 A 
ATOM      4  C3  UNL d   1       1.139   2.106  -5.993  0.00  0.00    -0.034 A 
ATOM      5  C4  UNL d   1       2.027   3.183  -5.995  0.00  0.00     0.162 A 
ATOM      6  C5  UNL d   1       1.546   4.488  -5.995  0.00  0.00     0.062 A 
ATOM      7  F   UNL d   1       2.407   5.517  -5.995  0.00  0.00    -0.097 F 
ATOM      8  F1  UNL d   1       3.352   2.978  -5.994  0.00  0.00    -0.096 F 
ATOM      9  I   UNL d   1       1.854   0.151  -5.993  0.00  0.00    -0.060 I 
ATOM     10  F2  UNL d   1      -1.116   1.345  -5.994  0.00  0.00    -0.096 F 
ATOM     11  F3  UNL d   1      -2.030   3.894  -5.996  0.00  0.00    -0.097 F 
ATOM     12  F4  UNL d   1      -0.280   5.987  -5.996  0.00  0.00    -0.092 F 
ENDROOT
TORSDOF 0
ENDMDL
