MODEL 1
REMARK minimizedAffinity 12.6616726
REMARK minimizedRMSD -1
REMARK  0 active torsions:
REMARK  status: ('A' for Active; 'I' for Inactive)
ROOT
ATOM      1  C   UNL d   1       3.018   1.649  -2.191  0.00  0.00     0.124 A 
ATOM      2  C1  UNL d   1       1.890   2.403  -1.901  0.00  0.00     0.062 A 
ATOM      3  C2  UNL d   1       2.017   3.645  -1.286  0.00  0.00     0.162 A 
ATOM      4  C3  UNL d   1       3.278   4.143  -0.959  0.00  0.00    -0.034 A 
ATOM      5  C4  UNL d   1       4.409   3.378  -1.253  0.00  0.00     0.162 A 
ATOM      6  C5  UNL d   1       4.276   2.137  -1.868  0.00  0.00     0.062 A 
ATOM      7  F   UNL d   1       5.368   1.411  -2.148  0.00  0.00    -0.097 F 
ATOM      8  F1  UNL d   1       5.636   3.827  -0.952  0.00  0.00    -0.096 F 
ATOM      9  I   UNL d   1       3.472   6.000  -0.039  0.00  0.00    -0.060 I 
ATOM     10  F2  UNL d   1       0.909   4.352  -1.017  0.00  0.00    -0.096 F 
ATOM     11  F3  UNL d   1       0.673   1.933  -2.212  0.00  0.00    -0.097 F 
ATOM     12  F4  UNL d   1       2.893   0.454  -2.782  0.00  0.00    -0.092 F 
ENDROOT
TORSDOF 0
ENDMDL
