MODEL 1
REMARK minimizedAffinity 19.5963593
REMARK minimizedRMSD -1
REMARK  0 active torsions:
REMARK  status: ('A' for Active; 'I' for Inactive)
ROOT
ATOM      1  C   UNL d   1       0.076  -3.958  -2.828  0.00  0.00     0.124 A 
ATOM      2  C1  UNL d   1       1.224  -3.248  -2.503  0.00  0.00     0.062 A 
ATOM      3  C2  UNL d   1       1.140  -2.112  -1.702  0.00  0.00     0.162 A 
ATOM      4  C3  UNL d   1      -0.095  -1.680  -1.221  0.00  0.00    -0.034 A 
ATOM      5  C4  UNL d   1      -1.245  -2.399  -1.553  0.00  0.00     0.162 A 
ATOM      6  C5  UNL d   1      -1.156  -3.533  -2.353  0.00  0.00     0.062 A 
ATOM      7  F   UNL d   1      -2.266  -4.218  -2.667  0.00  0.00    -0.097 F 
ATOM      8  F1  UNL d   1      -2.449  -2.010  -1.107  0.00  0.00    -0.096 F 
ATOM      9  I   UNL d   1      -0.224   0.018  -0.024  0.00  0.00    -0.060 I 
ATOM     10  F2  UNL d   1       2.265  -1.446  -1.404  0.00  0.00    -0.096 F 
ATOM     11  F3  UNL d   1       2.416  -3.656  -2.961  0.00  0.00    -0.097 F 
ATOM     12  F4  UNL d   1       0.159  -5.050  -3.599  0.00  0.00    -0.092 F 
ENDROOT
TORSDOF 0
ENDMDL
