MODEL 1
REMARK minimizedAffinity 11.6388092
REMARK minimizedRMSD -1
REMARK  0 active torsions:
REMARK  status: ('A' for Active; 'I' for Inactive)
ROOT
ATOM      1  C   UNL d   1       1.175   3.416  -5.907  0.00  0.00     0.124 A 
ATOM      2  C1  UNL d   1       0.400   2.265  -5.928  0.00  0.00     0.062 A 
ATOM      3  C2  UNL d   1      -0.989   2.356  -5.952  0.00  0.00     0.162 A 
ATOM      4  C3  UNL d   1      -1.612   3.605  -5.958  0.00  0.00    -0.034 A 
ATOM      5  C4  UNL d   1      -0.825   4.758  -5.936  0.00  0.00     0.162 A 
ATOM      6  C5  UNL d   1       0.562   4.661  -5.912  0.00  0.00     0.062 A 
ATOM      7  F   UNL d   1       1.310   5.774  -5.892  0.00  0.00    -0.097 F 
ATOM      8  F1  UNL d   1      -1.391   5.974  -5.941  0.00  0.00    -0.096 F 
ATOM      9  I   UNL d   1      -3.688   3.746  -5.995  0.00  0.00    -0.060 I 
ATOM     10  F2  UNL d   1      -1.713   1.228  -5.971  0.00  0.00    -0.096 F 
ATOM     11  F3  UNL d   1       0.989   1.060  -5.922  0.00  0.00    -0.097 F 
ATOM     12  F4  UNL d   1       2.511   3.324  -5.883  0.00  0.00    -0.092 F 
ENDROOT
TORSDOF 0
ENDMDL
