MODEL 1
REMARK minimizedAffinity 11.1463194
REMARK minimizedRMSD -1
REMARK  0 active torsions:
REMARK  status: ('A' for Active; 'I' for Inactive)
ROOT
ATOM      1  C   UNL d   1      -0.755   4.800  -5.987  0.00  0.00     0.124 A 
ATOM      2  C1  UNL d   1       0.631   4.730  -5.986  0.00  0.00     0.062 A 
ATOM      3  C2  UNL d   1       1.269   3.493  -5.983  0.00  0.00     0.162 A 
ATOM      4  C3  UNL d   1       0.521   2.315  -5.983  0.00  0.00    -0.034 A 
ATOM      5  C4  UNL d   1      -0.872   2.394  -5.983  0.00  0.00     0.162 A 
ATOM      6  C5  UNL d   1      -1.506   3.633  -5.986  0.00  0.00     0.062 A 
ATOM      7  F   UNL d   1      -2.845   3.698  -5.987  0.00  0.00    -0.097 F 
ATOM      8  F1  UNL d   1      -1.622   1.281  -5.983  0.00  0.00    -0.096 F 
ATOM      9  I   UNL d   1       1.472   0.464  -5.978  0.00  0.00    -0.060 I 
ATOM     10  F2  UNL d   1       2.610   3.455  -5.982  0.00  0.00    -0.096 F 
ATOM     11  F3  UNL d   1       1.358   5.856  -5.986  0.00  0.00    -0.097 F 
ATOM     12  F4  UNL d   1      -1.367   5.992  -5.989  0.00  0.00    -0.092 F 
ENDROOT
TORSDOF 0
ENDMDL
