MODEL 1
REMARK minimizedAffinity 20.3977985
REMARK minimizedRMSD -1
REMARK  0 active torsions:
REMARK  status: ('A' for Active; 'I' for Inactive)
ROOT
ATOM      1  C   UNL d   1       1.112  -2.915  -2.949  0.00  0.00     0.124 A 
ATOM      2  C1  UNL d   1       2.223  -2.163  -2.591  0.00  0.00     0.062 A 
ATOM      3  C2  UNL d   1       2.073  -1.024  -1.805  0.00  0.00     0.162 A 
ATOM      4  C3  UNL d   1       0.808  -0.629  -1.371  0.00  0.00    -0.034 A 
ATOM      5  C4  UNL d   1      -0.305  -1.390  -1.735  0.00  0.00     0.162 A 
ATOM      6  C5  UNL d   1      -0.150  -2.527  -2.521  0.00  0.00     0.062 A 
ATOM      7  F   UNL d   1      -1.224  -3.252  -2.866  0.00  0.00    -0.097 F 
ATOM      8  F1  UNL d   1      -1.536  -1.039  -1.335  0.00  0.00    -0.096 F 
ATOM      9  I   UNL d   1       0.580   1.074  -0.196  0.00  0.00    -0.060 I 
ATOM     10  F2  UNL d   1       3.164  -0.317  -1.474  0.00  0.00    -0.096 F 
ATOM     11  F3  UNL d   1       3.443  -2.534  -3.003  0.00  0.00    -0.097 F 
ATOM     12  F4  UNL d   1       1.258  -4.010  -3.705  0.00  0.00    -0.092 F 
ENDROOT
TORSDOF 0
ENDMDL
