MODEL 1
REMARK minimizedAffinity 5.91336489
REMARK minimizedRMSD -1
REMARK  0 active torsions:
REMARK  status: ('A' for Active; 'I' for Inactive)
ROOT
ATOM      1  C   UNL d   1       2.435   3.634  -5.964  0.00  0.00     0.124 A 
ATOM      2  C1  UNL d   1       1.719   4.823  -5.967  0.00  0.00     0.062 A 
ATOM      3  C2  UNL d   1       0.328   4.803  -5.976  0.00  0.00     0.162 A 
ATOM      4  C3  UNL d   1      -0.359   3.589  -5.981  0.00  0.00    -0.034 A 
ATOM      5  C4  UNL d   1       0.368   2.396  -5.979  0.00  0.00     0.162 A 
ATOM      6  C5  UNL d   1       1.758   2.422  -5.970  0.00  0.00     0.062 A 
ATOM      7  F   UNL d   1       2.448   1.272  -5.967  0.00  0.00    -0.097 F 
ATOM      8  F1  UNL d   1      -0.260   1.211  -5.984  0.00  0.00    -0.096 F 
ATOM      9  I   UNL d   1      -2.439   3.554  -5.995  0.00  0.00    -0.060 I 
ATOM     10  F2  UNL d   1      -0.338   5.968  -5.979  0.00  0.00    -0.096 F 
ATOM     11  F3  UNL d   1       2.370   5.995  -5.962  0.00  0.00    -0.097 F 
ATOM     12  F4  UNL d   1       3.774   3.656  -5.956  0.00  0.00    -0.092 F 
ENDROOT
TORSDOF 0
ENDMDL
