MODEL 1
REMARK minimizedAffinity 11.0577574
REMARK minimizedRMSD -1
REMARK  0 active torsions:
REMARK  status: ('A' for Active; 'I' for Inactive)
ROOT
ATOM      1  C   UNL d   1      -0.221   4.833  -5.615  0.00  0.00     0.124 A 
ATOM      2  C1  UNL d   1       1.166   4.809  -5.645  0.00  0.00     0.062 A 
ATOM      3  C2  UNL d   1       1.843   3.598  -5.754  0.00  0.00     0.162 A 
ATOM      4  C3  UNL d   1       1.134   2.400  -5.835  0.00  0.00    -0.034 A 
ATOM      5  C4  UNL d   1      -0.262   2.432  -5.803  0.00  0.00     0.162 A 
ATOM      6  C5  UNL d   1      -0.934   3.645  -5.694  0.00  0.00     0.062 A 
ATOM      7  F   UNL d   1      -2.274   3.666  -5.665  0.00  0.00    -0.097 F 
ATOM      8  F1  UNL d   1      -0.975   1.298  -5.879  0.00  0.00    -0.096 F 
ATOM      9  I   UNL d   1       2.142   0.587  -5.999  0.00  0.00    -0.060 I 
ATOM     10  F2  UNL d   1       3.184   3.605  -5.781  0.00  0.00    -0.096 F 
ATOM     11  F3  UNL d   1       1.857   5.956  -5.568  0.00  0.00    -0.097 F 
ATOM     12  F4  UNL d   1      -0.870   6.000  -5.509  0.00  0.00    -0.092 F 
ENDROOT
TORSDOF 0
ENDMDL
