MODEL 1
REMARK minimizedAffinity 22.2892113
REMARK minimizedRMSD -1
REMARK  0 active torsions:
REMARK  status: ('A' for Active; 'I' for Inactive)
ROOT
ATOM      1  C   UNL d   1       0.236   2.765  -0.141  0.00  0.00     0.124 A 
ATOM      2  C1  UNL d   1       1.174   2.664  -1.160  0.00  0.00     0.062 A 
ATOM      3  C2  UNL d   1       1.564   1.414  -1.630  0.00  0.00     0.162 A 
ATOM      4  C3  UNL d   1       1.016   0.253  -1.083  0.00  0.00    -0.034 A 
ATOM      5  C4  UNL d   1       0.074   0.363  -0.058  0.00  0.00     0.162 A 
ATOM      6  C5  UNL d   1      -0.312   1.615   0.409  0.00  0.00     0.062 A 
ATOM      7  F   UNL d   1      -1.218   1.711   1.393  0.00  0.00    -0.097 F 
ATOM      8  F1  UNL d   1      -0.472  -0.732   0.490  0.00  0.00    -0.096 F 
ATOM      9  I   UNL d   1       1.596  -1.618  -1.785  0.00  0.00    -0.060 I 
ATOM     10  F2  UNL d   1       2.471   1.346  -2.616  0.00  0.00    -0.096 F 
ATOM     11  F3  UNL d   1       1.706   3.774  -1.692  0.00  0.00    -0.097 F 
ATOM     12  F4  UNL d   1      -0.136   3.969   0.311  0.00  0.00    -0.092 F 
ENDROOT
TORSDOF 0
ENDMDL
