MODEL 1
REMARK minimizedAffinity 11.5805922
REMARK minimizedRMSD -1
REMARK  0 active torsions:
REMARK  status: ('A' for Active; 'I' for Inactive)
ROOT
ATOM      1  C   UNL d   1      -0.840   2.378  -5.856  0.00  0.00     0.124 A 
ATOM      2  C1  UNL d   1      -2.192   2.064  -5.903  0.00  0.00     0.062 A 
ATOM      3  C2  UNL d   1      -3.146   3.077  -5.921  0.00  0.00     0.162 A 
ATOM      4  C3  UNL d   1      -2.752   4.415  -5.894  0.00  0.00    -0.034 A 
ATOM      5  C4  UNL d   1      -1.392   4.723  -5.846  0.00  0.00     0.162 A 
ATOM      6  C5  UNL d   1      -0.442   3.707  -5.828  0.00  0.00     0.062 A 
ATOM      7  F   UNL d   1       0.863   4.013  -5.782  0.00  0.00    -0.097 F 
ATOM      8  F1  UNL d   1      -0.978   5.999  -5.818  0.00  0.00    -0.096 F 
ATOM      9  I   UNL d   1      -4.176   5.933  -5.921  0.00  0.00    -0.060 I 
ATOM     10  F2  UNL d   1      -4.444   2.744  -5.967  0.00  0.00    -0.096 F 
ATOM     11  F3  UNL d   1      -2.579   0.781  -5.930  0.00  0.00    -0.097 F 
ATOM     12  F4  UNL d   1       0.075   1.401  -5.838  0.00  0.00    -0.092 F 
ENDROOT
TORSDOF 0
ENDMDL
