MODEL 1
REMARK minimizedAffinity 16.4915962
REMARK minimizedRMSD -1
REMARK  0 active torsions:
REMARK  status: ('A' for Active; 'I' for Inactive)
ROOT
ATOM      1  C   UNL d   1       4.616   3.044  -3.920  0.00  0.00     0.124 A 
ATOM      2  C1  UNL d   1       3.361   2.471  -3.770  0.00  0.00     0.062 A 
ATOM      3  C2  UNL d   1       2.248   3.060  -4.363  0.00  0.00     0.162 A 
ATOM      4  C3  UNL d   1       2.385   4.229  -5.112  0.00  0.00    -0.034 A 
ATOM      5  C4  UNL d   1       3.650   4.800  -5.257  0.00  0.00     0.162 A 
ATOM      6  C5  UNL d   1       4.760   4.208  -4.662  0.00  0.00     0.062 A 
ATOM      7  F   UNL d   1       5.972   4.763  -4.808  0.00  0.00    -0.097 F 
ATOM      8  F1  UNL d   1       3.818   5.924  -5.970  0.00  0.00    -0.096 F 
ATOM      9  I   UNL d   1       0.723   5.112  -5.999  0.00  0.00    -0.060 I 
ATOM     10  F2  UNL d   1       1.047   2.484  -4.202  0.00  0.00    -0.096 F 
ATOM     11  F3  UNL d   1       3.220   1.348  -3.052  0.00  0.00    -0.097 F 
ATOM     12  F4  UNL d   1       5.686   2.476  -3.347  0.00  0.00    -0.092 F 
ENDROOT
TORSDOF 0
ENDMDL
