MODEL 1
REMARK minimizedAffinity 9.97855473
REMARK minimizedRMSD -1
REMARK  0 active torsions:
REMARK  status: ('A' for Active; 'I' for Inactive)
ROOT
ATOM      1  C   UNL d   1       0.429   2.257   0.148  0.00  0.00     0.124 A 
ATOM      2  C1  UNL d   1       0.264   1.059   0.830  0.00  0.00     0.062 A 
ATOM      3  C2  UNL d   1       0.865  -0.103   0.356  0.00  0.00     0.162 A 
ATOM      4  C3  UNL d   1       1.637  -0.074  -0.805  0.00  0.00    -0.034 A 
ATOM      5  C4  UNL d   1       1.797   1.134  -1.486  0.00  0.00     0.162 A 
ATOM      6  C5  UNL d   1       1.195   2.294  -1.008  0.00  0.00     0.062 A 
ATOM      7  F   UNL d   1       1.355   3.450  -1.668  0.00  0.00    -0.097 F 
ATOM      8  F1  UNL d   1       2.533   1.198  -2.605  0.00  0.00    -0.096 F 
ATOM      9  I   UNL d   1       2.537  -1.811  -1.517  0.00  0.00    -0.060 I 
ATOM     10  F2  UNL d   1       0.689  -1.247   1.035  0.00  0.00    -0.096 F 
ATOM     11  F3  UNL d   1      -0.476   1.021   1.947  0.00  0.00    -0.097 F 
ATOM     12  F4  UNL d   1      -0.151   3.375   0.606  0.00  0.00    -0.092 F 
ENDROOT
TORSDOF 0
ENDMDL
