MODEL 1
REMARK minimizedAffinity 16.8207359
REMARK minimizedRMSD -1
REMARK  0 active torsions:
REMARK  status: ('A' for Active; 'I' for Inactive)
ROOT
ATOM      1  C   UNL d   1       2.506  -3.759  -3.404  0.00  0.00     0.124 A 
ATOM      2  C1  UNL d   1       1.167  -3.985  -3.117  0.00  0.00     0.062 A 
ATOM      3  C2  UNL d   1       0.547  -3.294  -2.080  0.00  0.00     0.162 A 
ATOM      4  C3  UNL d   1       1.266  -2.369  -1.322  0.00  0.00    -0.034 A 
ATOM      5  C4  UNL d   1       2.612  -2.147  -1.617  0.00  0.00     0.162 A 
ATOM      6  C5  UNL d   1       3.227  -2.840  -2.655  0.00  0.00     0.062 A 
ATOM      7  F   UNL d   1       4.521  -2.620  -2.931  0.00  0.00    -0.097 F 
ATOM      8  F1  UNL d   1       3.332  -1.264  -0.909  0.00  0.00    -0.096 F 
ATOM      9  I   UNL d   1       0.343  -1.333   0.229  0.00  0.00    -0.060 I 
ATOM     10  F2  UNL d   1      -0.748  -3.533  -1.824  0.00  0.00    -0.096 F 
ATOM     11  F3  UNL d   1       0.468  -4.872  -3.839  0.00  0.00    -0.097 F 
ATOM     12  F4  UNL d   1       3.100  -4.426  -4.402  0.00  0.00    -0.092 F 
ENDROOT
TORSDOF 0
ENDMDL
