MODEL 1
REMARK minimizedAffinity -6.69032717
REMARK minimizedRMSD -1
REMARK  1 active torsions:
REMARK  status: ('A' for Active; 'I' for Inactive)
REMARK    1  A    between atoms: C1_2  and  C2_3 
ROOT
ATOM      1  C2  UNL d   1       0.258   0.563  -0.454  0.00  0.00    -0.076 A 
ATOM      2  C3  UNL d   1      -0.298  -0.242   0.555  0.00  0.00     0.004 A 
ATOM      3  C4  UNL d   1      -1.310   0.242   1.383  0.00  0.00    -0.003 A 
ATOM      4  C5  UNL d   1      -1.782   1.539   1.214  0.00  0.00     0.000 A 
ATOM      5  C6  UNL d   1      -1.254   2.345   0.206  0.00  0.00     0.000 A 
ATOM      6  C7  UNL d   1      -0.245   1.867  -0.648  0.00  0.00    -0.073 A 
ATOM      7  C8  UNL d   1       0.292   2.782  -1.714  0.00  0.00     0.078 C 
ENDROOT
BRANCH   1   8
ATOM      8  C1  UNL d   1       1.372  -0.007  -1.304  0.00  0.00     0.053 C 
ATOM      9  C   UNL d   1       1.191  -1.491  -1.583  0.00  0.00     0.018 C 
ENDBRANCH   1   8
TORSDOF 1
ENDMDL
