MODEL 1
REMARK minimizedAffinity -2.71426892
REMARK minimizedRMSD -1
REMARK  1 active torsions:
REMARK  status: ('A' for Active; 'I' for Inactive)
REMARK    1  A    between atoms: C1_2  and  C2_3 
ROOT
ATOM      1  C2  UNL d   1      -0.424   1.112  -0.150  0.00  0.00    -0.076 A 
ATOM      2  C3  UNL d   1      -1.048   0.484   0.942  0.00  0.00     0.004 A 
ATOM      3  C4  UNL d   1      -1.696   1.230   1.925  0.00  0.00    -0.003 A 
ATOM      4  C5  UNL d   1      -1.731   2.617   1.832  0.00  0.00     0.000 A 
ATOM      5  C6  UNL d   1      -1.133   3.256   0.747  0.00  0.00     0.000 A 
ATOM      6  C7  UNL d   1      -0.490   2.518  -0.261  0.00  0.00    -0.073 A 
ATOM      7  C8  UNL d   1       0.144   3.259  -1.406  0.00  0.00     0.078 C 
ENDROOT
BRANCH   1   8
ATOM      8  C1  UNL d   1       0.286   0.253  -1.171  0.00  0.00     0.053 C 
ATOM      9  C   UNL d   1       0.990  -0.939  -0.541  0.00  0.00     0.018 C 
ENDBRANCH   1   8
TORSDOF 1
ENDMDL
