MODEL 1
REMARK minimizedAffinity -4.68993092
REMARK minimizedRMSD -1
REMARK  1 active torsions:
REMARK  status: ('A' for Active; 'I' for Inactive)
REMARK    1  A    between atoms: C1_2  and  C2_3 
ROOT
ATOM      1  C2  UNL d   1      -0.117   0.122  -0.051  0.00  0.00    -0.076 A 
ATOM      2  C3  UNL d   1      -0.739  -0.425   1.085  0.00  0.00     0.004 A 
ATOM      3  C4  UNL d   1      -1.642   0.324   1.838  0.00  0.00    -0.003 A 
ATOM      4  C5  UNL d   1      -1.938   1.631   1.467  0.00  0.00     0.000 A 
ATOM      5  C6  UNL d   1      -1.343   2.183   0.333  0.00  0.00     0.000 A 
ATOM      6  C7  UNL d   1      -0.443   1.437  -0.447  0.00  0.00    -0.073 A 
ATOM      7  C8  UNL d   1       0.173   2.084  -1.656  0.00  0.00     0.078 C 
ENDROOT
BRANCH   1   8
ATOM      8  C1  UNL d   1       0.874  -0.729  -0.814  0.00  0.00     0.053 C 
ATOM      9  C   UNL d   1       0.196  -1.780  -1.678  0.00  0.00     0.018 C 
ENDBRANCH   1   8
TORSDOF 1
ENDMDL
