MODEL 1
REMARK minimizedAffinity -1.57067525
REMARK minimizedRMSD -1
REMARK  1 active torsions:
REMARK  status: ('A' for Active; 'I' for Inactive)
REMARK    1  A    between atoms: C1_2  and  C2_3 
ROOT
ATOM      1  C2  UNL d   1       0.591  -0.436  -0.867  0.00  0.00    -0.076 A 
ATOM      2  C3  UNL d   1       0.869   0.579  -1.799  0.00  0.00     0.004 A 
ATOM      3  C4  UNL d   1       0.346   1.862  -1.640  0.00  0.00    -0.003 A 
ATOM      4  C5  UNL d   1      -0.462   2.150  -0.545  0.00  0.00     0.000 A 
ATOM      5  C6  UNL d   1      -0.733   1.159   0.398  0.00  0.00     0.000 A 
ATOM      6  C7  UNL d   1      -0.201  -0.134   0.261  0.00  0.00    -0.073 A 
ATOM      7  C8  UNL d   1      -0.532  -1.165   1.305  0.00  0.00     0.078 C 
ENDROOT
BRANCH   1   8
ATOM      8  C1  UNL d   1       1.163  -1.815  -1.107  0.00  0.00     0.053 C 
ATOM      9  C   UNL d   1       0.676  -2.430  -2.410  0.00  0.00     0.018 C 
ENDBRANCH   1   8
TORSDOF 1
ENDMDL
