MODEL 1
REMARK minimizedAffinity -5.1385951
REMARK minimizedRMSD -1
REMARK  1 active torsions:
REMARK  status: ('A' for Active; 'I' for Inactive)
REMARK    1  A    between atoms: C1_2  and  C2_3 
ROOT
ATOM      1  C2  UNL d   1      -0.809   1.137   0.634  0.00  0.00    -0.076 A 
ATOM      2  C3  UNL d   1      -0.533   2.126  -0.326  0.00  0.00     0.004 A 
ATOM      3  C4  UNL d   1       0.501   1.963  -1.246  0.00  0.00    -0.003 A 
ATOM      4  C5  UNL d   1       1.276   0.809  -1.221  0.00  0.00     0.000 A 
ATOM      5  C6  UNL d   1       1.006  -0.189  -0.286  0.00  0.00     0.000 A 
ATOM      6  C7  UNL d   1      -0.044  -0.049   0.638  0.00  0.00    -0.073 A 
ATOM      7  C8  UNL d   1      -0.287  -1.155   1.627  0.00  0.00     0.078 C 
ENDROOT
BRANCH   1   8
ATOM      8  C1  UNL d   1      -1.926   1.380   1.624  0.00  0.00     0.053 C 
ATOM      9  C   UNL d   1      -2.371   2.834   1.654  0.00  0.00     0.018 C 
ENDBRANCH   1   8
TORSDOF 1
ENDMDL
