MODEL 1
REMARK minimizedAffinity -5.69179153
REMARK minimizedRMSD -1
REMARK  1 active torsions:
REMARK  status: ('A' for Active; 'I' for Inactive)
REMARK    1  A    between atoms: C1_2  and  C2_3 
ROOT
ATOM      1  C2  UNL d   1      -0.157   0.962  -0.084  0.00  0.00    -0.076 A 
ATOM      2  C3  UNL d   1      -1.110   1.885  -0.550  0.00  0.00     0.004 A 
ATOM      3  C4  UNL d   1      -2.271   2.145   0.176  0.00  0.00    -0.003 A 
ATOM      4  C5  UNL d   1      -2.498   1.488   1.380  0.00  0.00     0.000 A 
ATOM      5  C6  UNL d   1      -1.555   0.583   1.866  0.00  0.00     0.000 A 
ATOM      6  C7  UNL d   1      -0.372   0.321   1.155  0.00  0.00    -0.073 A 
ATOM      7  C8  UNL d   1       0.608  -0.669   1.723  0.00  0.00     0.078 C 
ENDROOT
BRANCH   1   8
ATOM      8  C1  UNL d   1       1.070   0.700  -0.927  0.00  0.00     0.053 C 
ATOM      9  C   UNL d   1       1.521   1.930  -1.698  0.00  0.00     0.018 C 
ENDBRANCH   1   8
TORSDOF 1
ENDMDL
