MODEL 1
REMARK minimizedAffinity -1.26543164
REMARK minimizedRMSD -1
REMARK  1 active torsions:
REMARK  status: ('A' for Active; 'I' for Inactive)
REMARK    1  A    between atoms: C1_2  and  C2_3 
ROOT
ATOM      1  C2  UNL d   1      -0.586   1.003   0.196  0.00  0.00    -0.076 A 
ATOM      2  C3  UNL d   1       0.038  -0.011   0.944  0.00  0.00     0.004 A 
ATOM      3  C4  UNL d   1       1.365  -0.366   0.705  0.00  0.00    -0.003 A 
ATOM      4  C5  UNL d   1       2.089   0.288  -0.286  0.00  0.00     0.000 A 
ATOM      5  C6  UNL d   1       1.491   1.307  -1.026  0.00  0.00     0.000 A 
ATOM      6  C7  UNL d   1       0.160   1.689  -0.787  0.00  0.00    -0.073 A 
ATOM      7  C8  UNL d   1      -0.436   2.791  -1.619  0.00  0.00     0.078 C 
ENDROOT
BRANCH   1   8
ATOM      8  C1  UNL d   1      -2.035   1.326   0.481  0.00  0.00     0.053 C 
ATOM      9  C   UNL d   1      -2.194   2.384   1.562  0.00  0.00     0.018 C 
ENDBRANCH   1   8
TORSDOF 1
ENDMDL
