MODEL 1
REMARK minimizedAffinity -3.87216949
REMARK minimizedRMSD -1
REMARK  1 active torsions:
REMARK  status: ('A' for Active; 'I' for Inactive)
REMARK    1  A    between atoms: C1_2  and  C2_3 
ROOT
ATOM      1  C2  UNL d   1       0.519   0.273  -0.672  0.00  0.00    -0.076 A 
ATOM      2  C3  UNL d   1       1.618   1.063  -1.051  0.00  0.00     0.004 A 
ATOM      3  C4  UNL d   1       1.439   2.363  -1.521  0.00  0.00    -0.003 A 
ATOM      4  C5  UNL d   1       0.158   2.894  -1.620  0.00  0.00     0.000 A 
ATOM      5  C6  UNL d   1      -0.943   2.131  -1.231  0.00  0.00     0.000 A 
ATOM      6  C7  UNL d   1      -0.778   0.824  -0.740  0.00  0.00    -0.073 A 
ATOM      7  C8  UNL d   1      -2.001   0.044  -0.341  0.00  0.00     0.078 C 
ENDROOT
BRANCH   1   8
ATOM      8  C1  UNL d   1       0.773  -1.139  -0.195  0.00  0.00     0.053 C 
ATOM      9  C   UNL d   1       1.065  -2.097  -1.340  0.00  0.00     0.018 C 
ENDBRANCH   1   8
TORSDOF 1
ENDMDL
