MODEL 1
REMARK minimizedAffinity -1.76703191
REMARK minimizedRMSD -1
REMARK  1 active torsions:
REMARK  status: ('A' for Active; 'I' for Inactive)
REMARK    1  A    between atoms: C1_2  and  C2_3 
ROOT
ATOM      1  C2  UNL d   1       0.483  -0.221  -0.575  0.00  0.00    -0.076 A 
ATOM      2  C3  UNL d   1       0.500   0.970  -1.321  0.00  0.00     0.004 A 
ATOM      3  C4  UNL d   1      -0.318   2.044  -0.975  0.00  0.00    -0.003 A 
ATOM      4  C5  UNL d   1      -1.165   1.945   0.123  0.00  0.00     0.000 A 
ATOM      5  C6  UNL d   1      -1.181   0.778   0.885  0.00  0.00     0.000 A 
ATOM      6  C7  UNL d   1      -0.351  -0.309   0.559  0.00  0.00    -0.073 A 
ATOM      7  C8  UNL d   1      -0.415  -1.546   1.412  0.00  0.00     0.078 C 
ENDROOT
BRANCH   1   8
ATOM      8  C1  UNL d   1       1.372  -1.363  -1.014  0.00  0.00     0.053 C 
ATOM      9  C   UNL d   1       0.673  -2.309  -1.979  0.00  0.00     0.018 C 
ENDBRANCH   1   8
TORSDOF 1
ENDMDL
