MODEL 1
REMARK minimizedAffinity -3.83483315
REMARK minimizedRMSD -1
REMARK  1 active torsions:
REMARK  status: ('A' for Active; 'I' for Inactive)
REMARK    1  A    between atoms: C1_2  and  C2_3 
ROOT
ATOM      1  C2  UNL d   1      -0.462  -1.390  -0.651  0.00  0.00    -0.076 A 
ATOM      2  C3  UNL d   1      -1.324  -2.414  -1.081  0.00  0.00     0.004 A 
ATOM      3  C4  UNL d   1      -0.914  -3.346  -2.032  0.00  0.00    -0.003 A 
ATOM      4  C5  UNL d   1       0.367  -3.269  -2.570  0.00  0.00     0.000 A 
ATOM      5  C6  UNL d   1       1.241  -2.271  -2.142  0.00  0.00     0.000 A 
ATOM      6  C7  UNL d   1       0.849  -1.333  -1.172  0.00  0.00    -0.073 A 
ATOM      7  C8  UNL d   1       1.831  -0.274  -0.752  0.00  0.00     0.078 C 
ENDROOT
BRANCH   1   8
ATOM      8  C1  UNL d   1      -0.972  -0.392   0.363  0.00  0.00     0.053 C 
ATOM      9  C   UNL d   1      -0.680  -0.815   1.795  0.00  0.00     0.018 C 
ENDBRANCH   1   8
TORSDOF 1
ENDMDL
