MODEL 1
REMARK minimizedAffinity -4.74957991
REMARK minimizedRMSD -1
REMARK  1 active torsions:
REMARK  status: ('A' for Active; 'I' for Inactive)
REMARK    1  A    between atoms: C1_2  and  C2_3 
ROOT
ATOM      1  C2  UNL d   1       0.477   0.073   0.141  0.00  0.00    -0.076 A 
ATOM      2  C3  UNL d   1      -0.244  -0.122   1.332  0.00  0.00     0.004 A 
ATOM      3  C4  UNL d   1      -1.208   0.796   1.746  0.00  0.00    -0.003 A 
ATOM      4  C5  UNL d   1      -1.467   1.925   0.975  0.00  0.00     0.000 A 
ATOM      5  C6  UNL d   1      -0.773   2.125  -0.218  0.00  0.00     0.000 A 
ATOM      6  C7  UNL d   1       0.190   1.201  -0.658  0.00  0.00    -0.073 A 
ATOM      7  C8  UNL d   1       0.912   1.470  -1.950  0.00  0.00     0.078 C 
ENDROOT
BRANCH   1   8
ATOM      8  C1  UNL d   1       1.529  -0.942  -0.244  0.00  0.00     0.053 C 
ATOM      9  C   UNL d   1       0.963  -2.078  -1.082  0.00  0.00     0.018 C 
ENDBRANCH   1   8
TORSDOF 1
ENDMDL
