MODEL 1
REMARK minimizedAffinity -2.97332382
REMARK minimizedRMSD -1
REMARK  1 active torsions:
REMARK  status: ('A' for Active; 'I' for Inactive)
REMARK    1  A    between atoms: C1_2  and  C2_3 
ROOT
ATOM      1  C2  UNL d   1      -0.622   1.168   1.262  0.00  0.00    -0.076 A 
ATOM      2  C3  UNL d   1       0.061   1.598   0.112  0.00  0.00     0.004 A 
ATOM      3  C4  UNL d   1       0.539   0.681  -0.824  0.00  0.00    -0.003 A 
ATOM      4  C5  UNL d   1       0.340  -0.680  -0.624  0.00  0.00     0.000 A 
ATOM      5  C6  UNL d   1      -0.352  -1.124   0.503  0.00  0.00     0.000 A 
ATOM      6  C7  UNL d   1      -0.854  -0.212   1.448  0.00  0.00    -0.073 A 
ATOM      7  C8  UNL d   1      -1.587  -0.745   2.648  0.00  0.00     0.078 C 
ENDROOT
BRANCH   1   8
ATOM      8  C1  UNL d   1      -1.093   2.207   2.255  0.00  0.00     0.053 C 
ATOM      9  C   UNL d   1       0.046   2.779   3.085  0.00  0.00     0.018 C 
ENDBRANCH   1   8
TORSDOF 1
ENDMDL
