MODEL 1
REMARK minimizedAffinity -2.49485874
REMARK minimizedRMSD -1
REMARK  1 active torsions:
REMARK  status: ('A' for Active; 'I' for Inactive)
REMARK    1  A    between atoms: C1_2  and  C2_3 
ROOT
ATOM      1  C2  UNL d   1      -0.381   0.492   0.516  0.00  0.00    -0.077 A 
ATOM      2  C3  UNL d   1       0.441  -0.631   0.352  0.00  0.00     0.002 A 
ATOM      3  C4  UNL d   1       1.373  -0.678  -0.687  0.00  0.00     0.002 A 
ATOM      4  C5  UNL d   1       1.493   0.397  -1.566  0.00  0.00    -0.004 A 
ATOM      5  C6  UNL d   1       0.678   1.517  -1.412  0.00  0.00     0.002 A 
ATOM      6  C7  UNL d   1      -0.255   1.565  -0.375  0.00  0.00     0.002 A 
ENDROOT
BRANCH   1   7
ATOM      7  C1  UNL d   1      -1.352   0.565   1.666  0.00  0.00     0.055 C 
ATOM      8  C   UNL d   1      -1.901   1.974   1.838  0.00  0.00     0.019 C 
ENDBRANCH   1   7
TORSDOF 1
ENDMDL
