MODEL 1
REMARK minimizedAffinity -4.34785748
REMARK minimizedRMSD -1
REMARK  1 active torsions:
REMARK  status: ('A' for Active; 'I' for Inactive)
REMARK    1  A    between atoms: C1_2  and  C2_3 
ROOT
ATOM      1  C2  UNL d   1      -0.692   0.700   1.430  0.00  0.00    -0.077 A 
ATOM      2  C3  UNL d   1      -0.105  -0.480   1.907  0.00  0.00     0.002 A 
ATOM      3  C4  UNL d   1       0.796  -1.193   1.113  0.00  0.00     0.002 A 
ATOM      4  C5  UNL d   1       1.120  -0.732  -0.161  0.00  0.00    -0.004 A 
ATOM      5  C6  UNL d   1       0.540   0.440  -0.646  0.00  0.00     0.002 A 
ATOM      6  C7  UNL d   1      -0.361   1.153   0.146  0.00  0.00     0.002 A 
ENDROOT
BRANCH   1   7
ATOM      7  C1  UNL d   1      -1.625   1.496   2.304  0.00  0.00     0.055 C 
ATOM      8  C   UNL d   1      -2.279   2.630   1.527  0.00  0.00     0.019 C 
ENDBRANCH   1   7
TORSDOF 1
ENDMDL
