MODEL 1
REMARK minimizedAffinity -5.17330027
REMARK minimizedRMSD -1
REMARK  1 active torsions:
REMARK  status: ('A' for Active; 'I' for Inactive)
REMARK    1  A    between atoms: C1_2  and  C2_3 
ROOT
ATOM      1  C2  UNL d   1      -0.902   0.815   0.259  0.00  0.00    -0.077 A 
ATOM      2  C3  UNL d   1      -0.066   1.006  -0.850  0.00  0.00     0.002 A 
ATOM      3  C4  UNL d   1       1.122   0.283  -0.971  0.00  0.00     0.002 A 
ATOM      4  C5  UNL d   1       1.482  -0.638   0.009  0.00  0.00    -0.004 A 
ATOM      5  C6  UNL d   1       0.659  -0.835   1.117  0.00  0.00     0.002 A 
ATOM      6  C7  UNL d   1      -0.529  -0.112   1.241  0.00  0.00     0.002 A 
ENDROOT
BRANCH   1   7
ATOM      7  C1  UNL d   1      -2.208   1.558   0.368  0.00  0.00     0.055 C 
ATOM      8  C   UNL d   1      -2.330   2.271   1.707  0.00  0.00     0.019 C 
ENDBRANCH   1   7
TORSDOF 1
ENDMDL
