MODEL 1
REMARK minimizedAffinity -5.35265923
REMARK minimizedRMSD -1
REMARK  1 active torsions:
REMARK  status: ('A' for Active; 'I' for Inactive)
REMARK    1  A    between atoms: C1_2  and  C2_3 
ROOT
ATOM      1  C2  UNL d   1       0.275  -0.012   0.184  0.00  0.00    -0.077 A 
ATOM      2  C3  UNL d   1       0.328  -0.074   1.583  0.00  0.00     0.002 A 
ATOM      3  C4  UNL d   1      -0.717   0.439   2.354  0.00  0.00     0.002 A 
ATOM      4  C5  UNL d   1      -1.824   1.015   1.734  0.00  0.00    -0.004 A 
ATOM      5  C6  UNL d   1      -1.886   1.083   0.343  0.00  0.00     0.002 A 
ATOM      6  C7  UNL d   1      -0.842   0.572  -0.429  0.00  0.00     0.002 A 
ENDROOT
BRANCH   1   7
ATOM      7  C1  UNL d   1       1.378  -0.610  -0.650  0.00  0.00     0.055 C 
ATOM      8  C   UNL d   1       0.863  -1.752  -1.513  0.00  0.00     0.019 C 
ENDBRANCH   1   7
TORSDOF 1
ENDMDL
