MODEL 1
REMARK minimizedAffinity -3.38643026
REMARK minimizedRMSD -1
REMARK  1 active torsions:
REMARK  status: ('A' for Active; 'I' for Inactive)
REMARK    1  A    between atoms: C1_2  and  C2_3 
ROOT
ATOM      1  C2  UNL d   1      -0.717   1.079  -0.113  0.00  0.00    -0.077 A 
ATOM      2  C3  UNL d   1       0.163   0.973  -1.200  0.00  0.00     0.002 A 
ATOM      3  C4  UNL d   1       1.160  -0.004  -1.208  0.00  0.00     0.002 A 
ATOM      4  C5  UNL d   1       1.285  -0.884  -0.136  0.00  0.00    -0.004 A 
ATOM      5  C6  UNL d   1       0.417  -0.785   0.951  0.00  0.00     0.002 A 
ATOM      6  C7  UNL d   1      -0.580   0.191   0.962  0.00  0.00     0.002 A 
ENDROOT
BRANCH   1   7
ATOM      7  C1  UNL d   1      -1.824   2.100  -0.124  0.00  0.00     0.055 C 
ATOM      8  C   UNL d   1      -2.264   2.455   1.289  0.00  0.00     0.019 C 
ENDBRANCH   1   7
TORSDOF 1
ENDMDL
