MODEL 1
REMARK minimizedAffinity -4.54164028
REMARK minimizedRMSD -1
REMARK  1 active torsions:
REMARK  status: ('A' for Active; 'I' for Inactive)
REMARK    1  A    between atoms: C1_2  and  C2_3 
ROOT
ATOM      1  C2  UNL d   1       0.084  -0.122  -0.406  0.00  0.00    -0.077 A 
ATOM      2  C3  UNL d   1      -0.596  -0.098   0.819  0.00  0.00     0.002 A 
ATOM      3  C4  UNL d   1      -1.399   0.993   1.160  0.00  0.00     0.002 A 
ATOM      4  C5  UNL d   1      -1.532   2.064   0.280  0.00  0.00    -0.004 A 
ATOM      5  C6  UNL d   1      -0.858   2.051  -0.940  0.00  0.00     0.002 A 
ATOM      6  C7  UNL d   1      -0.054   0.962  -1.282  0.00  0.00     0.002 A 
ENDROOT
BRANCH   1   7
ATOM      7  C1  UNL d   1       0.911  -1.319  -0.796  0.00  0.00     0.055 C 
ATOM      8  C   UNL d   1       0.261  -2.094  -1.933  0.00  0.00     0.019 C 
ENDBRANCH   1   7
TORSDOF 1
ENDMDL
