MODEL 1
REMARK minimizedAffinity -4.76061344
REMARK minimizedRMSD -1
REMARK  1 active torsions:
REMARK  status: ('A' for Active; 'I' for Inactive)
REMARK    1  A    between atoms: C1_2  and  C2_3 
ROOT
ATOM      1  C2  UNL d   1       1.099  -0.256  -0.791  0.00  0.00    -0.077 A 
ATOM      2  C3  UNL d   1       0.304  -0.622   0.305  0.00  0.00     0.002 A 
ATOM      3  C4  UNL d   1      -0.528   0.317   0.917  0.00  0.00     0.002 A 
ATOM      4  C5  UNL d   1      -0.577   1.625   0.439  0.00  0.00    -0.004 A 
ATOM      5  C6  UNL d   1       0.211   1.998  -0.649  0.00  0.00     0.002 A 
ATOM      6  C7  UNL d   1       1.045   1.062  -1.261  0.00  0.00     0.002 A 
ENDROOT
BRANCH   1   7
ATOM      7  C1  UNL d   1       1.961  -1.280  -1.484  0.00  0.00     0.055 C 
ATOM      8  C   UNL d   1       1.181  -2.553  -1.777  0.00  0.00     0.019 C 
ENDBRANCH   1   7
TORSDOF 1
ENDMDL
