MODEL 1
REMARK minimizedAffinity -4.54250193
REMARK minimizedRMSD -1
REMARK  1 active torsions:
REMARK  status: ('A' for Active; 'I' for Inactive)
REMARK    1  A    between atoms: C1_2  and  C2_3 
ROOT
ATOM      1  C2  UNL d   1      -1.130   0.653   0.245  0.00  0.00    -0.077 A 
ATOM      2  C3  UNL d   1      -0.362  -0.393   0.775  0.00  0.00     0.002 A 
ATOM      3  C4  UNL d   1       0.812  -0.800   0.137  0.00  0.00     0.002 A 
ATOM      4  C5  UNL d   1       1.229  -0.165  -1.030  0.00  0.00    -0.004 A 
ATOM      5  C6  UNL d   1       0.471   0.875  -1.566  0.00  0.00     0.002 A 
ATOM      6  C7  UNL d   1      -0.703   1.283  -0.931  0.00  0.00     0.002 A 
ENDROOT
BRANCH   1   7
ATOM      7  C1  UNL d   1      -2.370   1.127   0.957  0.00  0.00     0.055 C 
ATOM      8  C   UNL d   1      -2.023   1.837   2.258  0.00  0.00     0.019 C 
ENDBRANCH   1   7
TORSDOF 1
ENDMDL
