MODEL 1
REMARK minimizedAffinity -3.39614129
REMARK minimizedRMSD -1
REMARK  1 active torsions:
REMARK  status: ('A' for Active; 'I' for Inactive)
REMARK    1  A    between atoms: C1_2  and  C2_3 
ROOT
ATOM      1  C2  UNL d   1      -0.312   0.349   0.252  0.00  0.00    -0.077 A 
ATOM      2  C3  UNL d   1       0.398   0.739  -0.893  0.00  0.00     0.002 A 
ATOM      3  C4  UNL d   1       0.317   2.052  -1.361  0.00  0.00     0.002 A 
ATOM      4  C5  UNL d   1      -0.469   2.986  -0.689  0.00  0.00    -0.004 A 
ATOM      5  C6  UNL d   1      -1.180   2.608   0.449  0.00  0.00     0.002 A 
ATOM      6  C7  UNL d   1      -1.102   1.296   0.918  0.00  0.00     0.002 A 
ENDROOT
BRANCH   1   7
ATOM      7  C1  UNL d   1      -0.187  -1.053   0.787  0.00  0.00     0.055 C 
ATOM      8  C   UNL d   1       0.177  -1.052   2.264  0.00  0.00     0.019 C 
ENDBRANCH   1   7
TORSDOF 1
ENDMDL
