MODEL 1
REMARK minimizedAffinity -5.44623613
REMARK minimizedRMSD -1
REMARK  1 active torsions:
REMARK  status: ('A' for Active; 'I' for Inactive)
REMARK    1  A    between atoms: C1_2  and  C2_3 
ROOT
ATOM      1  C2  UNL d   1      -0.628  -0.195   0.265  0.00  0.00    -0.081 A 
ATOM      2  C3  UNL d   1       0.757  -0.400   0.234  0.00  0.00     0.006 A 
ATOM      3  C4  UNL d   1       1.635   0.682   0.320  0.00  0.00     0.002 A 
ATOM      4  C5  UNL d   1       1.145   1.986   0.447  0.00  0.00    -0.080 A 
ATOM      5  C6  UNL d   1       2.078   3.154   0.570  0.00  0.00     0.076 C 
ATOM      6  C7  UNL d   1      -0.238   2.193   0.461  0.00  0.00     0.002 A 
ATOM      7  C8  UNL d   1      -1.118   1.112   0.374  0.00  0.00     0.006 A 
ENDROOT
BRANCH   1   8
ATOM      8  C1  UNL d   1      -1.577  -1.365   0.238  0.00  0.00     0.054 C 
ATOM      9  C   UNL d   1      -2.955  -0.949  -0.256  0.00  0.00     0.018 C 
ENDBRANCH   1   8
TORSDOF 1
ENDMDL
