MODEL 1
REMARK minimizedAffinity -0.31128189
REMARK minimizedRMSD -1
REMARK  1 active torsions:
REMARK  status: ('A' for Active; 'I' for Inactive)
REMARK    1  A    between atoms: C1_2  and  C2_3 
ROOT
ATOM      1  C2  UNL d   1       2.351   2.631   0.841  0.00  0.00    -0.081 A 
ATOM      2  C3  UNL d   1       2.448   1.323   0.351  0.00  0.00     0.006 A 
ATOM      3  C4  UNL d   1       1.337   0.477   0.367  0.00  0.00     0.002 A 
ATOM      4  C5  UNL d   1       0.110   0.926   0.866  0.00  0.00    -0.080 A 
ATOM      5  C6  UNL d   1      -1.098   0.038   0.861  0.00  0.00     0.076 C 
ATOM      6  C7  UNL d   1       0.018   2.227   1.372  0.00  0.00     0.002 A 
ATOM      7  C8  UNL d   1       1.128   3.074   1.357  0.00  0.00     0.006 A 
ENDROOT
BRANCH   1   8
ATOM      8  C1  UNL d   1       3.531   3.567   0.766  0.00  0.00     0.054 C 
ATOM      9  C   UNL d   1       4.404   3.261  -0.442  0.00  0.00     0.018 C 
ENDBRANCH   1   8
TORSDOF 1
ENDMDL
