MODEL 1
REMARK minimizedAffinity -1.16150558
REMARK minimizedRMSD -1
REMARK  1 active torsions:
REMARK  status: ('A' for Active; 'I' for Inactive)
REMARK    1  A    between atoms: C1_2  and  C2_3 
ROOT
ATOM      1  C2  UNL d   1       3.758   3.730   0.641  0.00  0.00    -0.081 A 
ATOM      2  C3  UNL d   1       4.136   4.958   0.084  0.00  0.00     0.006 A 
ATOM      3  C4  UNL d   1       4.872   5.001  -1.103  0.00  0.00     0.002 A 
ATOM      4  C5  UNL d   1       5.235   3.819  -1.756  0.00  0.00    -0.080 A 
ATOM      5  C6  UNL d   1       5.999   3.852  -3.046  0.00  0.00     0.076 C 
ATOM      6  C7  UNL d   1       4.873   2.591  -1.190  0.00  0.00     0.002 A 
ATOM      7  C8  UNL d   1       4.138   2.548  -0.004  0.00  0.00     0.006 A 
ENDROOT
BRANCH   1   8
ATOM      8  C1  UNL d   1       2.909   3.681   1.885  0.00  0.00     0.054 C 
ATOM      9  C   UNL d   1       2.006   2.457   1.891  0.00  0.00     0.018 C 
ENDBRANCH   1   8
TORSDOF 1
ENDMDL
