MODEL 1
REMARK minimizedAffinity 1.56054759
REMARK minimizedRMSD -1
REMARK  1 active torsions:
REMARK  status: ('A' for Active; 'I' for Inactive)
REMARK    1  A    between atoms: C1_2  and  C2_3 
ROOT
ATOM      1  C2  UNL d   1       0.554  -0.284  -0.624  0.00  0.00    -0.081 A 
ATOM      2  C3  UNL d   1       0.618  -1.279   0.359  0.00  0.00     0.006 A 
ATOM      3  C4  UNL d   1       0.608  -0.937   1.714  0.00  0.00     0.002 A 
ATOM      4  C5  UNL d   1       0.527   0.403   2.107  0.00  0.00    -0.080 A 
ATOM      5  C6  UNL d   1       0.485   0.781   3.558  0.00  0.00     0.076 C 
ATOM      6  C7  UNL d   1       0.481   1.398   1.125  0.00  0.00     0.002 A 
ATOM      7  C8  UNL d   1       0.492   1.057  -0.229  0.00  0.00     0.006 A 
ENDROOT
BRANCH   1   8
ATOM      8  C1  UNL d   1       0.500  -0.652  -2.085  0.00  0.00     0.054 C 
ATOM      9  C   UNL d   1      -0.577   0.138  -2.815  0.00  0.00     0.018 C 
ENDBRANCH   1   8
TORSDOF 1
ENDMDL
