MODEL 1
REMARK minimizedAffinity -5.56231356
REMARK minimizedRMSD -1
REMARK  1 active torsions:
REMARK  status: ('A' for Active; 'I' for Inactive)
REMARK    1  A    between atoms: C1_2  and  C2_3 
ROOT
ATOM      1  C2  UNL d   1       0.023  -0.292   0.135  0.00  0.00    -0.081 A 
ATOM      2  C3  UNL d   1      -0.051  -1.414   0.969  0.00  0.00     0.006 A 
ATOM      3  C4  UNL d   1      -1.255  -2.106   1.122  0.00  0.00     0.002 A 
ATOM      4  C5  UNL d   1      -2.403  -1.692   0.438  0.00  0.00    -0.080 A 
ATOM      5  C6  UNL d   1      -3.694  -2.443   0.570  0.00  0.00     0.076 C 
ATOM      6  C7  UNL d   1      -2.334  -0.560  -0.382  0.00  0.00     0.002 A 
ATOM      7  C8  UNL d   1      -1.131   0.132  -0.535  0.00  0.00     0.006 A 
ENDROOT
BRANCH   1   8
ATOM      8  C1  UNL d   1       1.335   0.417  -0.082  0.00  0.00     0.054 C 
ATOM      9  C   UNL d   1       1.413   1.699   0.735  0.00  0.00     0.018 C 
ENDBRANCH   1   8
TORSDOF 1
ENDMDL
