MODEL 1
REMARK minimizedAffinity 7.8287468
REMARK minimizedRMSD -1
REMARK  1 active torsions:
REMARK  status: ('A' for Active; 'I' for Inactive)
REMARK    1  A    between atoms: C1_2  and  C2_3 
ROOT
ATOM      1  C2  UNL d   1      -1.111  -1.589   0.350  0.00  0.00    -0.081 A 
ATOM      2  C3  UNL d   1       0.219  -1.333  -0.004  0.00  0.00     0.006 A 
ATOM      3  C4  UNL d   1       1.229  -1.376   0.960  0.00  0.00     0.002 A 
ATOM      4  C5  UNL d   1       0.928  -1.684   2.291  0.00  0.00    -0.080 A 
ATOM      5  C6  UNL d   1       2.007  -1.764   3.329  0.00  0.00     0.076 C 
ATOM      6  C7  UNL d   1      -0.404  -1.923   2.648  0.00  0.00     0.002 A 
ATOM      7  C8  UNL d   1      -1.414  -1.880   1.685  0.00  0.00     0.006 A 
ENDROOT
BRANCH   1   8
ATOM      8  C1  UNL d   1      -2.194  -1.607  -0.699  0.00  0.00     0.054 C 
ATOM      9  C   UNL d   1      -2.371  -0.235  -1.335  0.00  0.00     0.018 C 
ENDBRANCH   1   8
TORSDOF 1
ENDMDL
