MODEL 1
REMARK minimizedAffinity -4.16288328
REMARK minimizedRMSD -1
REMARK  1 active torsions:
REMARK  status: ('A' for Active; 'I' for Inactive)
REMARK    1  A    between atoms: C1_2  and  C2_3 
ROOT
ATOM      1  C2  UNL d   1       1.732   1.191   0.562  0.00  0.00    -0.081 A 
ATOM      2  C3  UNL d   1       0.527   1.905   0.552  0.00  0.00     0.006 A 
ATOM      3  C4  UNL d   1      -0.602   1.378  -0.079  0.00  0.00     0.002 A 
ATOM      4  C5  UNL d   1      -0.549   0.127  -0.702  0.00  0.00    -0.080 A 
ATOM      5  C6  UNL d   1      -1.763  -0.464  -1.356  0.00  0.00     0.076 C 
ATOM      6  C7  UNL d   1       0.659  -0.579  -0.707  0.00  0.00     0.002 A 
ATOM      7  C8  UNL d   1       1.790  -0.052  -0.077  0.00  0.00     0.006 A 
ENDROOT
BRANCH   1   8
ATOM      8  C1  UNL d   1       2.934   1.727   1.297  0.00  0.00     0.054 C 
ATOM      9  C   UNL d   1       3.018   3.243   1.189  0.00  0.00     0.018 C 
ENDBRANCH   1   8
TORSDOF 1
ENDMDL
