MODEL 1
REMARK minimizedAffinity -2.34909391
REMARK minimizedRMSD -1
REMARK  1 active torsions:
REMARK  status: ('A' for Active; 'I' for Inactive)
REMARK    1  A    between atoms: C1_2  and  C2_3 
ROOT
ATOM      1  C2  UNL d   1       3.814   3.561  -0.922  0.00  0.00    -0.081 A 
ATOM      2  C3  UNL d   1       3.588   2.190  -1.093  0.00  0.00     0.006 A 
ATOM      3  C4  UNL d   1       2.884   1.463  -0.130  0.00  0.00     0.002 A 
ATOM      4  C5  UNL d   1       2.388   2.096   1.015  0.00  0.00    -0.080 A 
ATOM      5  C6  UNL d   1       1.605   1.333   2.042  0.00  0.00     0.076 C 
ATOM      6  C7  UNL d   1       2.629   3.462   1.194  0.00  0.00     0.002 A 
ATOM      7  C8  UNL d   1       3.333   4.190   0.232  0.00  0.00     0.006 A 
ENDROOT
BRANCH   1   8
ATOM      8  C1  UNL d   1       4.516   4.361  -1.990  0.00  0.00     0.054 C 
ATOM      9  C   UNL d   1       5.313   3.460  -2.922  0.00  0.00     0.018 C 
ENDBRANCH   1   8
TORSDOF 1
ENDMDL
