MODEL 1
REMARK minimizedAffinity 11.3405781
REMARK minimizedRMSD -1
REMARK  1 active torsions:
REMARK  status: ('A' for Active; 'I' for Inactive)
REMARK    1  A    between atoms: C1_2  and  C2_3 
ROOT
ATOM      1  C2  UNL d   1       3.362   0.986  -0.470  0.00  0.00    -0.076 A 
ATOM      2  C3  UNL d   1       3.954   0.718  -1.716  0.00  0.00     0.004 A 
ATOM      3  C4  UNL d   1       4.670   1.702  -2.397  0.00  0.00    -0.003 A 
ATOM      4  C5  UNL d   1       4.806   2.969  -1.841  0.00  0.00     0.000 A 
ATOM      5  C6  UNL d   1       4.241   3.247  -0.597  0.00  0.00     0.000 A 
ATOM      6  C7  UNL d   1       3.529   2.262   0.110  0.00  0.00    -0.073 A 
ATOM      7  C8  UNL d   1       2.935   2.618   1.445  0.00  0.00     0.078 C 
ENDROOT
BRANCH   1   8
ATOM      8  C1  UNL d   1       2.574  -0.112   0.208  0.00  0.00     0.053 C 
ATOM      9  C   UNL d   1       2.189  -1.229  -0.749  0.00  0.00     0.018 C 
ENDBRANCH   1   8
TORSDOF 1
ENDMDL
