MODEL 1
REMARK minimizedAffinity 9.83213615
REMARK minimizedRMSD -1
REMARK  1 active torsions:
REMARK  status: ('A' for Active; 'I' for Inactive)
REMARK    1  A    between atoms: C1_2  and  C2_3 
ROOT
ATOM      1  C2  UNL d   1      -3.494   0.435  -1.657  0.00  0.00    -0.076 A 
ATOM      2  C3  UNL d   1      -3.537   0.638  -0.266  0.00  0.00     0.004 A 
ATOM      3  C4  UNL d   1      -4.731   0.509   0.440  0.00  0.00    -0.003 A 
ATOM      4  C5  UNL d   1      -5.902   0.175  -0.232  0.00  0.00     0.000 A 
ATOM      5  C6  UNL d   1      -5.874  -0.047  -1.608  0.00  0.00     0.000 A 
ATOM      6  C7  UNL d   1      -4.675   0.063  -2.333  0.00  0.00    -0.073 A 
ATOM      7  C8  UNL d   1      -4.704  -0.181  -3.817  0.00  0.00     0.078 C 
ENDROOT
BRANCH   1   8
ATOM      8  C1  UNL d   1      -2.175   0.615  -2.374  0.00  0.00     0.053 C 
ATOM      9  C   UNL d   1      -1.834  -0.564  -3.271  0.00  0.00     0.018 C 
ENDBRANCH   1   8
TORSDOF 1
ENDMDL
