MODEL 1
REMARK minimizedAffinity 5.35493135
REMARK minimizedRMSD -1
REMARK  1 active torsions:
REMARK  status: ('A' for Active; 'I' for Inactive)
REMARK    1  A    between atoms: C1_2  and  C2_3 
ROOT
ATOM      1  C2  UNL d   1      -4.766   0.727  -2.686  0.00  0.00    -0.076 A 
ATOM      2  C3  UNL d   1      -4.964   0.808  -1.297  0.00  0.00     0.004 A 
ATOM      3  C4  UNL d   1      -3.923   0.544  -0.408  0.00  0.00    -0.003 A 
ATOM      4  C5  UNL d   1      -2.668   0.195  -0.894  0.00  0.00     0.000 A 
ATOM      5  C6  UNL d   1      -2.450   0.127  -2.269  0.00  0.00     0.000 A 
ATOM      6  C7  UNL d   1      -3.483   0.406  -3.179  0.00  0.00    -0.073 A 
ATOM      7  C8  UNL d   1      -3.194   0.312  -4.652  0.00  0.00     0.078 C 
ENDROOT
BRANCH   1   8
ATOM      8  C1  UNL d   1      -5.939   0.998  -3.601  0.00  0.00     0.053 C 
ATOM      9  C   UNL d   1      -5.996   0.035  -4.777  0.00  0.00     0.018 C 
ENDBRANCH   1   8
TORSDOF 1
ENDMDL
