MODEL 1
REMARK minimizedAffinity 7.18345976
REMARK minimizedRMSD -1
REMARK  1 active torsions:
REMARK  status: ('A' for Active; 'I' for Inactive)
REMARK    1  A    between atoms: C1_2  and  C2_3 
ROOT
ATOM      1  C2  UNL d   1       3.030   0.407   0.132  0.00  0.00    -0.076 A 
ATOM      2  C3  UNL d   1       4.193   1.093   0.525  0.00  0.00     0.004 A 
ATOM      3  C4  UNL d   1       4.830   1.980  -0.340  0.00  0.00    -0.003 A 
ATOM      4  C5  UNL d   1       4.314   2.198  -1.613  0.00  0.00     0.000 A 
ATOM      5  C6  UNL d   1       3.152   1.540  -2.014  0.00  0.00     0.000 A 
ATOM      6  C7  UNL d   1       2.488   0.654  -1.148  0.00  0.00    -0.073 A 
ATOM      7  C8  UNL d   1       1.242  -0.032  -1.634  0.00  0.00     0.078 C 
ENDROOT
BRANCH   1   8
ATOM      8  C1  UNL d   1       2.398  -0.564   1.103  0.00  0.00     0.053 C 
ATOM      9  C   UNL d   1       2.788  -2.007   0.821  0.00  0.00     0.018 C 
ENDBRANCH   1   8
TORSDOF 1
ENDMDL
