MODEL 1
REMARK minimizedAffinity 15.0792503
REMARK minimizedRMSD -1
REMARK  1 active torsions:
REMARK  status: ('A' for Active; 'I' for Inactive)
REMARK    1  A    between atoms: C1_2  and  C2_3 
ROOT
ATOM      1  C2  UNL d   1       1.936  -0.826  -0.001  0.00  0.00    -0.076 A 
ATOM      2  C3  UNL d   1       2.552   0.146   0.806  0.00  0.00     0.004 A 
ATOM      3  C4  UNL d   1       2.572   1.487   0.425  0.00  0.00    -0.003 A 
ATOM      4  C5  UNL d   1       1.977   1.877  -0.769  0.00  0.00     0.000 A 
ATOM      5  C6  UNL d   1       1.346   0.929  -1.574  0.00  0.00     0.000 A 
ATOM      6  C7  UNL d   1       1.303  -0.425  -1.197  0.00  0.00    -0.073 A 
ATOM      7  C8  UNL d   1       0.615  -1.406  -2.106  0.00  0.00     0.078 C 
ENDROOT
BRANCH   1   8
ATOM      8  C1  UNL d   1       1.969  -2.269   0.450  0.00  0.00     0.053 C 
ATOM      9  C   UNL d   1       2.336  -2.412   1.919  0.00  0.00     0.018 C 
ENDBRANCH   1   8
TORSDOF 1
ENDMDL
