MODEL 1
REMARK minimizedAffinity 19.3002129
REMARK minimizedRMSD -1
REMARK  1 active torsions:
REMARK  status: ('A' for Active; 'I' for Inactive)
REMARK    1  A    between atoms: C1_2  and  C2_3 
ROOT
ATOM      1  C2  UNL d   1       3.553   3.722   3.363  0.00  0.00    -0.076 A 
ATOM      2  C3  UNL d   1       2.365   2.971   3.324  0.00  0.00     0.004 A 
ATOM      3  C4  UNL d   1       1.121   3.599   3.276  0.00  0.00    -0.003 A 
ATOM      4  C5  UNL d   1       1.045   4.987   3.265  0.00  0.00     0.000 A 
ATOM      5  C6  UNL d   1       2.214   5.747   3.285  0.00  0.00     0.000 A 
ATOM      6  C7  UNL d   1       3.477   5.130   3.317  0.00  0.00    -0.073 A 
ATOM      7  C8  UNL d   1       4.704   5.999   3.344  0.00  0.00     0.078 C 
ENDROOT
BRANCH   1   8
ATOM      8  C1  UNL d   1       4.872   2.987   3.442  0.00  0.00     0.053 C 
ATOM      9  C   UNL d   1       5.267   2.652   4.871  0.00  0.00     0.018 C 
ENDBRANCH   1   8
TORSDOF 1
ENDMDL
