MODEL 1
REMARK minimizedAffinity 17.980545
REMARK minimizedRMSD -1
REMARK  1 active torsions:
REMARK  status: ('A' for Active; 'I' for Inactive)
REMARK    1  A    between atoms: C1_2  and  C2_3 
ROOT
ATOM      1  C2  UNL d   1      -4.637   2.886  -1.112  0.00  0.00    -0.076 A 
ATOM      2  C3  UNL d   1      -5.185   3.629  -2.172  0.00  0.00     0.004 A 
ATOM      3  C4  UNL d   1      -5.859   2.999  -3.216  0.00  0.00    -0.003 A 
ATOM      4  C5  UNL d   1      -5.997   1.615  -3.218  0.00  0.00     0.000 A 
ATOM      5  C6  UNL d   1      -5.474   0.864  -2.166  0.00  0.00     0.000 A 
ATOM      6  C7  UNL d   1      -4.806   1.485  -1.097  0.00  0.00    -0.073 A 
ATOM      7  C8  UNL d   1      -4.257   0.625   0.009  0.00  0.00     0.078 C 
ENDROOT
BRANCH   1   8
ATOM      8  C1  UNL d   1      -3.893   3.622  -0.021  0.00  0.00     0.053 C 
ATOM      9  C   UNL d   1      -3.663   5.087  -0.358  0.00  0.00     0.018 C 
ENDBRANCH   1   8
TORSDOF 1
ENDMDL
