MODEL 1
REMARK minimizedAffinity 13.1909485
REMARK minimizedRMSD -1
REMARK  1 active torsions:
REMARK  status: ('A' for Active; 'I' for Inactive)
REMARK    1  A    between atoms: C1_2  and  C2_3 
ROOT
ATOM      1  C2  UNL d   1       3.887   1.612   0.197  0.00  0.00    -0.076 A 
ATOM      2  C3  UNL d   1       2.843   2.060  -0.631  0.00  0.00     0.004 A 
ATOM      3  C4  UNL d   1       1.744   1.247  -0.902  0.00  0.00    -0.003 A 
ATOM      4  C5  UNL d   1       1.670  -0.026  -0.349  0.00  0.00     0.000 A 
ATOM      5  C6  UNL d   1       2.688  -0.480   0.489  0.00  0.00     0.000 A 
ATOM      6  C7  UNL d   1       3.795   0.332   0.786  0.00  0.00    -0.073 A 
ATOM      7  C8  UNL d   1       4.867  -0.210   1.691  0.00  0.00     0.078 C 
ENDROOT
BRANCH   1   8
ATOM      8  C1  UNL d   1       5.068   2.527   0.434  0.00  0.00     0.053 C 
ATOM      9  C   UNL d   1       4.819   3.520   1.559  0.00  0.00     0.018 C 
ENDBRANCH   1   8
TORSDOF 1
ENDMDL
