MODEL 1
REMARK minimizedAffinity 21.5073757
REMARK minimizedRMSD -1
REMARK  1 active torsions:
REMARK  status: ('A' for Active; 'I' for Inactive)
REMARK    1  A    between atoms: C1_2  and  C2_3 
ROOT
ATOM      1  C2  UNL d   1       1.451  -3.432  -0.042  0.00  0.00    -0.076 A 
ATOM      2  C3  UNL d   1       1.778  -2.928  -1.312  0.00  0.00     0.004 A 
ATOM      3  C4  UNL d   1       2.541  -1.769  -1.450  0.00  0.00    -0.003 A 
ATOM      4  C5  UNL d   1       2.990  -1.097  -0.319  0.00  0.00     0.000 A 
ATOM      5  C6  UNL d   1       2.690  -1.592   0.950  0.00  0.00     0.000 A 
ATOM      6  C7  UNL d   1       1.935  -2.768   1.106  0.00  0.00    -0.073 A 
ATOM      7  C8  UNL d   1       1.636  -3.254   2.497  0.00  0.00     0.078 C 
ENDROOT
BRANCH   1   8
ATOM      8  C1  UNL d   1       0.598  -4.677   0.046  0.00  0.00     0.053 C 
ATOM      9  C   UNL d   1      -0.493  -4.711  -1.013  0.00  0.00     0.018 C 
ENDBRANCH   1   8
TORSDOF 1
ENDMDL
