MODEL 1
REMARK minimizedAffinity 8.92327595
REMARK minimizedRMSD -1
REMARK  1 active torsions:
REMARK  status: ('A' for Active; 'I' for Inactive)
REMARK    1  A    between atoms: C1_2  and  C2_3 
ROOT
ATOM      1  C2  UNL d   1       3.367   0.979  -1.940  0.00  0.00    -0.076 A 
ATOM      2  C3  UNL d   1       4.526   1.499  -1.339  0.00  0.00     0.004 A 
ATOM      3  C4  UNL d   1       5.158   2.628  -1.857  0.00  0.00    -0.003 A 
ATOM      4  C5  UNL d   1       4.640   3.256  -2.985  0.00  0.00     0.000 A 
ATOM      5  C6  UNL d   1       3.481   2.764  -3.583  0.00  0.00     0.000 A 
ATOM      6  C7  UNL d   1       2.822   1.636  -3.064  0.00  0.00    -0.073 A 
ATOM      7  C8  UNL d   1       1.579   1.145  -3.753  0.00  0.00     0.078 C 
ENDROOT
BRANCH   1   8
ATOM      8  C1  UNL d   1       2.740  -0.264  -1.349  0.00  0.00     0.053 C 
ATOM      9  C   UNL d   1       2.483  -0.134   0.144  0.00  0.00     0.018 C 
ENDBRANCH   1   8
TORSDOF 1
ENDMDL
