MODEL 1
REMARK minimizedAffinity -4.04197311
REMARK minimizedRMSD -1
REMARK  1 active torsions:
REMARK  status: ('A' for Active; 'I' for Inactive)
REMARK    1  A    between atoms: C1_2  and  C2_3 
ROOT
ATOM      1  C2  UNL d   1      -0.040   2.114   0.941  0.00  0.00    -0.076 A 
ATOM      2  C3  UNL d   1      -1.241   2.840   1.023  0.00  0.00     0.004 A 
ATOM      3  C4  UNL d   1      -2.474   2.207   0.871  0.00  0.00    -0.003 A 
ATOM      4  C5  UNL d   1      -2.525   0.837   0.636  0.00  0.00     0.000 A 
ATOM      5  C6  UNL d   1      -1.344   0.099   0.569  0.00  0.00     0.000 A 
ATOM      6  C7  UNL d   1      -0.094   0.719   0.736  0.00  0.00    -0.073 A 
ATOM      7  C8  UNL d   1       1.148  -0.125   0.649  0.00  0.00     0.078 C 
ENDROOT
BRANCH   1   8
ATOM      8  C1  UNL d   1       1.268   2.859   1.087  0.00  0.00     0.053 C 
ATOM      9  C   UNL d   1       2.070   2.398   2.294  0.00  0.00     0.018 C 
ENDBRANCH   1   8
TORSDOF 1
ENDMDL
