MODEL 1
REMARK minimizedAffinity 5.28841496
REMARK minimizedRMSD -1
REMARK  1 active torsions:
REMARK  status: ('A' for Active; 'I' for Inactive)
REMARK    1  A    between atoms: C1_2  and  C2_3 
ROOT
ATOM      1  C2  UNL d   1       1.442   1.045  -3.990  0.00  0.00    -0.076 A 
ATOM      2  C3  UNL d   1       2.800   1.108  -3.631  0.00  0.00     0.004 A 
ATOM      3  C4  UNL d   1       3.728   1.750  -4.448  0.00  0.00    -0.003 A 
ATOM      4  C5  UNL d   1       3.314   2.341  -5.637  0.00  0.00     0.000 A 
ATOM      5  C6  UNL d   1       1.968   2.303  -6.000  0.00  0.00     0.000 A 
ATOM      6  C7  UNL d   1       1.016   1.674  -5.179  0.00  0.00    -0.073 A 
ATOM      7  C8  UNL d   1      -0.421   1.658  -5.622  0.00  0.00     0.078 C 
ENDROOT
BRANCH   1   8
ATOM      8  C1  UNL d   1       0.485   0.311  -3.077  0.00  0.00     0.053 C 
ATOM      9  C   UNL d   1       0.414   0.930  -1.689  0.00  0.00     0.018 C 
ENDBRANCH   1   8
TORSDOF 1
ENDMDL
