MODEL 1
REMARK minimizedAffinity 8.42917252
REMARK minimizedRMSD -1
REMARK  1 active torsions:
REMARK  status: ('A' for Active; 'I' for Inactive)
REMARK    1  A    between atoms: C1_2  and  C2_3 
ROOT
ATOM      1  C2  UNL d   1      -3.122   3.173  -5.975  0.00  0.00    -0.076 A 
ATOM      2  C3  UNL d   1      -4.246   2.328  -5.975  0.00  0.00     0.004 A 
ATOM      3  C4  UNL d   1      -5.537   2.852  -5.953  0.00  0.00    -0.003 A 
ATOM      4  C5  UNL d   1      -5.727   4.229  -5.931  0.00  0.00     0.000 A 
ATOM      5  C6  UNL d   1      -4.624   5.083  -5.948  0.00  0.00     0.000 A 
ATOM      6  C7  UNL d   1      -3.315   4.571  -5.987  0.00  0.00    -0.073 A 
ATOM      7  C8  UNL d   1      -2.163   5.538  -5.999  0.00  0.00     0.078 C 
ENDROOT
BRANCH   1   8
ATOM      8  C1  UNL d   1      -1.746   2.548  -5.973  0.00  0.00     0.053 C 
ATOM      9  C   UNL d   1      -0.925   2.952  -4.758  0.00  0.00     0.018 C 
ENDBRANCH   1   8
TORSDOF 1
ENDMDL
