MODEL 1
REMARK minimizedAffinity 22.3134079
REMARK minimizedRMSD -1
REMARK  1 active torsions:
REMARK  status: ('A' for Active; 'I' for Inactive)
REMARK    1  A    between atoms: C1_2  and  C2_3 
ROOT
ATOM      1  C2  UNL d   1       2.105   1.272  -0.291  0.00  0.00    -0.076 A 
ATOM      2  C3  UNL d   1       1.533   0.559   0.777  0.00  0.00     0.004 A 
ATOM      3  C4  UNL d   1       1.869   0.852   2.098  0.00  0.00    -0.003 A 
ATOM      4  C5  UNL d   1       2.783   1.864   2.372  0.00  0.00     0.000 A 
ATOM      5  C6  UNL d   1       3.347   2.593   1.326  0.00  0.00     0.000 A 
ATOM      6  C7  UNL d   1       3.006   2.321  -0.011  0.00  0.00    -0.073 A 
ATOM      7  C8  UNL d   1       3.650   3.135  -1.100  0.00  0.00     0.078 C 
ENDROOT
BRANCH   1   8
ATOM      8  C1  UNL d   1       1.722   0.892  -1.703  0.00  0.00     0.053 C 
ATOM      9  C   UNL d   1       0.356   1.428  -2.101  0.00  0.00     0.018 C 
ENDBRANCH   1   8
TORSDOF 1
ENDMDL
