MODEL 1
REMARK minimizedAffinity -4.81460714
REMARK minimizedRMSD -1
REMARK  1 active torsions:
REMARK  status: ('A' for Active; 'I' for Inactive)
REMARK    1  A    between atoms: C1_2  and  C2_3 
ROOT
ATOM      1  C2  UNL d   1       1.926   2.295   0.569  0.00  0.00    -0.076 A 
ATOM      2  C3  UNL d   1       1.959   3.699   0.500  0.00  0.00     0.004 A 
ATOM      3  C4  UNL d   1       0.890   4.416  -0.033  0.00  0.00    -0.003 A 
ATOM      4  C5  UNL d   1      -0.231   3.742  -0.505  0.00  0.00     0.000 A 
ATOM      5  C6  UNL d   1      -0.288   2.351  -0.428  0.00  0.00     0.000 A 
ATOM      6  C7  UNL d   1       0.774   1.613   0.121  0.00  0.00    -0.073 A 
ATOM      7  C8  UNL d   1       0.661   0.114   0.174  0.00  0.00     0.078 C 
ENDROOT
BRANCH   1   8
ATOM      8  C1  UNL d   1       3.127   1.569   1.132  0.00  0.00     0.053 C 
ATOM      9  C   UNL d   1       3.646   2.206   2.412  0.00  0.00     0.018 C 
ENDBRANCH   1   8
TORSDOF 1
ENDMDL
