MODEL 1
REMARK minimizedAffinity -4.83399677
REMARK minimizedRMSD -1
REMARK  1 active torsions:
REMARK  status: ('A' for Active; 'I' for Inactive)
REMARK    1  A    between atoms: C1_2  and  C2_3 
ROOT
ATOM      1  C2  UNL d   1       0.053  -0.260   0.357  0.00  0.00    -0.076 A 
ATOM      2  C3  UNL d   1      -1.120   0.510   0.280  0.00  0.00     0.004 A 
ATOM      3  C4  UNL d   1      -1.104   1.873   0.574  0.00  0.00    -0.003 A 
ATOM      4  C5  UNL d   1       0.086   2.487   0.950  0.00  0.00     0.000 A 
ATOM      5  C6  UNL d   1       1.262   1.742   1.015  0.00  0.00     0.000 A 
ATOM      6  C7  UNL d   1       1.267   0.371   0.706  0.00  0.00    -0.073 A 
ATOM      7  C8  UNL d   1       2.564  -0.386   0.799  0.00  0.00     0.078 C 
ENDROOT
BRANCH   1   8
ATOM      8  C1  UNL d   1      -0.030  -1.739   0.053  0.00  0.00     0.053 C 
ATOM      9  C   UNL d   1      -1.463  -2.220  -0.111  0.00  0.00     0.018 C 
ENDBRANCH   1   8
TORSDOF 1
ENDMDL
