MODEL 1
REMARK minimizedAffinity 8.9539299
REMARK minimizedRMSD -1
REMARK  1 active torsions:
REMARK  status: ('A' for Active; 'I' for Inactive)
REMARK    1  A    between atoms: C1_2  and  C2_3 
ROOT
ATOM      1  C2  UNL d   1       1.365   0.515   0.991  0.00  0.00    -0.076 A 
ATOM      2  C3  UNL d   1       0.054   0.102   0.700  0.00  0.00     0.004 A 
ATOM      3  C4  UNL d   1      -1.045   0.836   1.144  0.00  0.00    -0.003 A 
ATOM      4  C5  UNL d   1      -0.849   1.996   1.885  0.00  0.00     0.000 A 
ATOM      5  C6  UNL d   1       0.445   2.430   2.168  0.00  0.00     0.000 A 
ATOM      6  C7  UNL d   1       1.564   1.711   1.714  0.00  0.00    -0.073 A 
ATOM      7  C8  UNL d   1       2.937   2.222   2.054  0.00  0.00     0.078 C 
ENDROOT
BRANCH   1   8
ATOM      8  C1  UNL d   1       2.517  -0.336   0.506  0.00  0.00     0.053 C 
ATOM      9  C   UNL d   1       2.660  -0.316  -1.008  0.00  0.00     0.018 C 
ENDBRANCH   1   8
TORSDOF 1
ENDMDL
