MODEL 1
REMARK minimizedAffinity -3.02745318
REMARK minimizedRMSD -1
REMARK  1 active torsions:
REMARK  status: ('A' for Active; 'I' for Inactive)
REMARK    1  A    between atoms: C1_2  and  C2_3 
ROOT
ATOM      1  C2  UNL d   1       0.157   2.023   0.776  0.00  0.00    -0.076 A 
ATOM      2  C3  UNL d   1       0.410   1.064  -0.220  0.00  0.00     0.004 A 
ATOM      3  C4  UNL d   1      -0.274  -0.150  -0.238  0.00  0.00    -0.003 A 
ATOM      4  C5  UNL d   1      -1.224  -0.425   0.740  0.00  0.00     0.000 A 
ATOM      5  C6  UNL d   1      -1.500   0.522   1.726  0.00  0.00     0.000 A 
ATOM      6  C7  UNL d   1      -0.830   1.757   1.749  0.00  0.00    -0.073 A 
ATOM      7  C8  UNL d   1      -1.164   2.739   2.839  0.00  0.00     0.078 C 
ENDROOT
BRANCH   1   8
ATOM      8  C1  UNL d   1       0.950   3.310   0.760  0.00  0.00     0.053 C 
ATOM      9  C   UNL d   1       2.391   3.112   1.205  0.00  0.00     0.018 C 
ENDBRANCH   1   8
TORSDOF 1
ENDMDL
