MODEL 1
REMARK minimizedAffinity -2.82832336
REMARK minimizedRMSD -1
REMARK  1 active torsions:
REMARK  status: ('A' for Active; 'I' for Inactive)
REMARK    1  A    between atoms: C1_2  and  C2_3 
ROOT
ATOM      1  C2  UNL d   1      -4.165   2.823  -1.748  0.00  0.00    -0.076 A 
ATOM      2  C3  UNL d   1      -5.068   3.875  -1.520  0.00  0.00     0.004 A 
ATOM      3  C4  UNL d   1      -5.977   3.824  -0.465  0.00  0.00    -0.003 A 
ATOM      4  C5  UNL d   1      -5.998   2.719   0.379  0.00  0.00     0.000 A 
ATOM      5  C6  UNL d   1      -5.097   1.674   0.178  0.00  0.00     0.000 A 
ATOM      6  C7  UNL d   1      -4.163   1.717  -0.871  0.00  0.00    -0.073 A 
ATOM      7  C8  UNL d   1      -3.219   0.559  -1.046  0.00  0.00     0.078 C 
ENDROOT
BRANCH   1   8
ATOM      8  C1  UNL d   1      -3.220   2.922  -2.925  0.00  0.00     0.053 C 
ATOM      9  C   UNL d   1      -3.935   3.278  -4.219  0.00  0.00     0.018 C 
ENDBRANCH   1   8
TORSDOF 1
ENDMDL
