MODEL 1
REMARK minimizedAffinity 0.426204413
REMARK minimizedRMSD -1
REMARK  1 active torsions:
REMARK  status: ('A' for Active; 'I' for Inactive)
REMARK    1  A    between atoms: C1_2  and  C2_3 
ROOT
ATOM      1  C2  UNL d   1      -3.710   2.704  -2.194  0.00  0.00    -0.076 A 
ATOM      2  C3  UNL d   1      -4.744   3.643  -2.047  0.00  0.00     0.004 A 
ATOM      3  C4  UNL d   1      -5.550   3.651  -0.909  0.00  0.00    -0.003 A 
ATOM      4  C5  UNL d   1      -5.333   2.719   0.100  0.00  0.00     0.000 A 
ATOM      5  C6  UNL d   1      -4.299   1.791  -0.022  0.00  0.00     0.000 A 
ATOM      6  C7  UNL d   1      -3.468   1.780  -1.155  0.00  0.00    -0.073 A 
ATOM      7  C8  UNL d   1      -2.372   0.753  -1.237  0.00  0.00     0.078 C 
ENDROOT
BRANCH   1   8
ATOM      8  C1  UNL d   1      -2.886   2.726  -3.462  0.00  0.00     0.053 C 
ATOM      9  C   UNL d   1      -3.607   3.412  -4.613  0.00  0.00     0.018 C 
ENDBRANCH   1   8
TORSDOF 1
ENDMDL
