MODEL 1
REMARK minimizedAffinity 7.01530123
REMARK minimizedRMSD -1
REMARK  1 active torsions:
REMARK  status: ('A' for Active; 'I' for Inactive)
REMARK    1  A    between atoms: C1_2  and  C2_3 
ROOT
ATOM      1  C2  UNL d   1       3.709   0.642   0.519  0.00  0.00    -0.081 A 
ATOM      2  C3  UNL d   1       3.559  -0.575   1.196  0.00  0.00     0.006 A 
ATOM      3  C4  UNL d   1       2.766  -1.591   0.658  0.00  0.00     0.002 A 
ATOM      4  C5  UNL d   1       2.117  -1.411  -0.568  0.00  0.00    -0.080 A 
ATOM      5  C6  UNL d   1       1.287  -2.505  -1.172  0.00  0.00     0.076 C 
ATOM      6  C7  UNL d   1       2.253  -0.189  -1.236  0.00  0.00     0.002 A 
ATOM      7  C8  UNL d   1       3.045   0.828  -0.698  0.00  0.00     0.006 A 
ENDROOT
BRANCH   1   8
ATOM      8  C1  UNL d   1       4.616   1.715   1.065  0.00  0.00     0.054 C 
ATOM      9  C   UNL d   1       3.820   2.810   1.762  0.00  0.00     0.018 C 
ENDBRANCH   1   8
TORSDOF 1
ENDMDL
