MODEL 1
REMARK minimizedAffinity 5.7048707
REMARK minimizedRMSD -1
REMARK  1 active torsions:
REMARK  status: ('A' for Active; 'I' for Inactive)
REMARK    1  A    between atoms: C1_2  and  C2_3 
ROOT
ATOM      1  C2  UNL d   1      -4.509   3.609   2.681  0.00  0.00    -0.081 A 
ATOM      2  C3  UNL d   1      -4.015   4.903   2.883  0.00  0.00     0.006 A 
ATOM      3  C4  UNL d   1      -4.479   5.680   3.947  0.00  0.00     0.002 A 
ATOM      4  C5  UNL d   1      -5.437   5.174   4.831  0.00  0.00    -0.080 A 
ATOM      5  C6  UNL d   1      -5.921   5.986   5.996  0.00  0.00     0.076 C 
ATOM      6  C7  UNL d   1      -5.944   3.887   4.620  0.00  0.00     0.002 A 
ATOM      7  C8  UNL d   1      -5.481   3.110   3.555  0.00  0.00     0.006 A 
ENDROOT
BRANCH   1   8
ATOM      8  C1  UNL d   1      -3.964   2.745   1.573  0.00  0.00     0.054 C 
ATOM      9  C   UNL d   1      -4.575   1.351   1.606  0.00  0.00     0.018 C 
ENDBRANCH   1   8
TORSDOF 1
ENDMDL
