MODEL 1
REMARK minimizedAffinity 8.27635479
REMARK minimizedRMSD -1
REMARK  1 active torsions:
REMARK  status: ('A' for Active; 'I' for Inactive)
REMARK    1  A    between atoms: C1_2  and  C2_3 
ROOT
ATOM      1  C2  UNL d   1       3.678   1.184   0.854  0.00  0.00    -0.081 A 
ATOM      2  C3  UNL d   1       3.462   1.648  -0.449  0.00  0.00     0.006 A 
ATOM      3  C4  UNL d   1       2.700   0.900  -1.349  0.00  0.00     0.002 A 
ATOM      4  C5  UNL d   1       2.134  -0.319  -0.959  0.00  0.00    -0.080 A 
ATOM      5  C6  UNL d   1       1.288  -1.117  -1.906  0.00  0.00     0.076 C 
ATOM      6  C7  UNL d   1       2.364  -0.790   0.338  0.00  0.00     0.002 A 
ATOM      7  C8  UNL d   1       3.128  -0.043   1.238  0.00  0.00     0.006 A 
ENDROOT
BRANCH   1   8
ATOM      8  C1  UNL d   1       4.446   2.019   1.847  0.00  0.00     0.054 C 
ATOM      9  C   UNL d   1       4.257   3.506   1.583  0.00  0.00     0.018 C 
ENDBRANCH   1   8
TORSDOF 1
ENDMDL
