MODEL 1
REMARK minimizedAffinity 11.069725
REMARK minimizedRMSD -1
REMARK  1 active torsions:
REMARK  status: ('A' for Active; 'I' for Inactive)
REMARK    1  A    between atoms: C1_2  and  C2_3 
ROOT
ATOM      1  C2  UNL d   1      -4.650   3.937   2.456  0.00  0.00    -0.081 A 
ATOM      2  C3  UNL d   1      -5.570   3.330   3.320  0.00  0.00     0.006 A 
ATOM      3  C4  UNL d   1      -6.000   3.989   4.474  0.00  0.00     0.002 A 
ATOM      4  C5  UNL d   1      -5.524   5.269   4.779  0.00  0.00    -0.080 A 
ATOM      5  C6  UNL d   1      -6.000   6.000   5.999  0.00  0.00     0.076 C 
ATOM      6  C7  UNL d   1      -4.592   5.869   3.926  0.00  0.00     0.002 A 
ATOM      7  C8  UNL d   1      -4.161   5.210   2.772  0.00  0.00     0.006 A 
ENDROOT
BRANCH   1   8
ATOM      8  C1  UNL d   1      -4.234   3.256   1.177  0.00  0.00     0.054 C 
ATOM      9  C   UNL d   1      -4.096   4.255   0.038  0.00  0.00     0.018 C 
ENDBRANCH   1   8
TORSDOF 1
ENDMDL
