MODEL 1
REMARK minimizedAffinity 12.2873249
REMARK minimizedRMSD -1
REMARK  1 active torsions:
REMARK  status: ('A' for Active; 'I' for Inactive)
REMARK    1  A    between atoms: C1_2  and  C2_3 
ROOT
ATOM      1  C2  UNL d   1      -2.137   5.671   4.889  0.00  0.00    -0.081 A 
ATOM      2  C3  UNL d   1      -3.274   5.745   5.704  0.00  0.00     0.006 A 
ATOM      3  C4  UNL d   1      -4.528   5.383   5.204  0.00  0.00     0.002 A 
ATOM      4  C5  UNL d   1      -4.664   4.934   3.886  0.00  0.00    -0.080 A 
ATOM      5  C6  UNL d   1      -5.999   4.514   3.347  0.00  0.00     0.076 C 
ATOM      6  C7  UNL d   1      -3.531   4.877   3.067  0.00  0.00     0.002 A 
ATOM      7  C8  UNL d   1      -2.278   5.240   3.566  0.00  0.00     0.006 A 
ENDROOT
BRANCH   1   8
ATOM      8  C1  UNL d   1      -0.775   5.999   5.444  0.00  0.00     0.054 C 
ATOM      9  C   UNL d   1       0.298   5.904   4.368  0.00  0.00     0.018 C 
ENDBRANCH   1   8
TORSDOF 1
ENDMDL
