MODEL 1
REMARK minimizedAffinity -5.7287941
REMARK minimizedRMSD -1
REMARK  2 active torsions:
REMARK  status: ('A' for Active; 'I' for Inactive)
REMARK    1  A    between atoms: C1_2  and  C2_3 
REMARK    2  A    between atoms: C2_3  and  C3_4 
ROOT
ATOM      1  C3  UNL d   1      -0.150   0.288   0.316  0.00  0.00    -0.075 A 
ATOM      2  C4  UNL d   1       0.824   0.629   1.266  0.00  0.00     0.002 A 
ATOM      3  C5  UNL d   1       0.456   0.962   2.570  0.00  0.00     0.002 A 
ATOM      4  C6  UNL d   1      -0.888   0.970   2.937  0.00  0.00    -0.004 A 
ATOM      5  C7  UNL d   1      -1.865   0.650   1.997  0.00  0.00     0.002 A 
ATOM      6  C8  UNL d   1      -1.500   0.311   0.693  0.00  0.00     0.002 A 
ENDROOT
BRANCH   1   7
ATOM      7  C2  UNL d   1       0.244  -0.102  -1.089  0.00  0.00     0.056 C 
BRANCH   7   8
ATOM      8  C1  UNL d   1       0.951   1.010  -1.870  0.00  0.00     0.007 C 
ATOM      9  C   UNL d   1       0.949   0.781  -3.376  0.00  0.00     0.009 C 
ENDBRANCH   7   8
ENDBRANCH   1   7
TORSDOF 2
ENDMDL
