MODEL 1
REMARK minimizedAffinity -4.32551813
REMARK minimizedRMSD -1
REMARK  2 active torsions:
REMARK  status: ('A' for Active; 'I' for Inactive)
REMARK    1  A    between atoms: C1_2  and  C2_3 
REMARK    2  A    between atoms: C2_3  and  C3_4 
ROOT
ATOM      1  C3  UNL d   1      -0.126   0.176   0.583  0.00  0.00    -0.075 A 
ATOM      2  C4  UNL d   1       0.731   0.915   1.410  0.00  0.00     0.002 A 
ATOM      3  C5  UNL d   1       0.242   1.542   2.557  0.00  0.00     0.002 A 
ATOM      4  C6  UNL d   1      -1.108   1.446   2.885  0.00  0.00    -0.004 A 
ATOM      5  C7  UNL d   1      -1.972   0.728   2.061  0.00  0.00     0.002 A 
ATOM      6  C8  UNL d   1      -1.485   0.096   0.915  0.00  0.00     0.002 A 
ENDROOT
BRANCH   1   7
ATOM      7  C2  UNL d   1       0.402  -0.529  -0.644  0.00  0.00     0.056 C 
BRANCH   7   8
ATOM      8  C1  UNL d   1       1.081   0.402  -1.654  0.00  0.00     0.007 C 
ATOM      9  C   UNL d   1       0.550   0.237  -3.072  0.00  0.00     0.009 C 
ENDBRANCH   7   8
ENDBRANCH   1   7
TORSDOF 2
ENDMDL
