MODEL 1
REMARK minimizedAffinity -2.08222651
REMARK minimizedRMSD -1
REMARK  2 active torsions:
REMARK  status: ('A' for Active; 'I' for Inactive)
REMARK    1  A    between atoms: C1_2  and  C2_3 
REMARK    2  A    between atoms: C2_3  and  C3_4 
ROOT
ATOM      1  C3  UNL d   1       0.765   0.167  -1.809  0.00  0.00    -0.075 A 
ATOM      2  C4  UNL d   1       0.777   1.556  -1.612  0.00  0.00     0.002 A 
ATOM      3  C5  UNL d   1       1.101   2.417  -2.661  0.00  0.00     0.002 A 
ATOM      4  C6  UNL d   1       1.427   1.902  -3.914  0.00  0.00    -0.004 A 
ATOM      5  C7  UNL d   1       1.434   0.524  -4.116  0.00  0.00     0.002 A 
ATOM      6  C8  UNL d   1       1.106  -0.340  -3.070  0.00  0.00     0.002 A 
ENDROOT
BRANCH   1   7
ATOM      7  C2  UNL d   1       0.387  -0.769  -0.686  0.00  0.00     0.056 C 
BRANCH   7   8
ATOM      8  C1  UNL d   1      -0.361  -0.090   0.467  0.00  0.00     0.007 C 
ATOM      9  C   UNL d   1       0.427  -0.080   1.770  0.00  0.00     0.009 C 
ENDBRANCH   7   8
ENDBRANCH   1   7
TORSDOF 2
ENDMDL
