MODEL 1
REMARK minimizedAffinity -4.2143364
REMARK minimizedRMSD -1
REMARK  2 active torsions:
REMARK  status: ('A' for Active; 'I' for Inactive)
REMARK    1  A    between atoms: C1_2  and  C2_3 
REMARK    2  A    between atoms: C2_3  and  C3_4 
ROOT
ATOM      1  C3  UNL d   1       0.120  -0.080  -0.067  0.00  0.00    -0.075 A 
ATOM      2  C4  UNL d   1       0.486  -0.089   1.287  0.00  0.00     0.002 A 
ATOM      3  C5  UNL d   1      -0.459   0.176   2.278  0.00  0.00     0.002 A 
ATOM      4  C6  UNL d   1      -1.778   0.461   1.929  0.00  0.00    -0.004 A 
ATOM      5  C7  UNL d   1      -2.149   0.489   0.587  0.00  0.00     0.002 A 
ATOM      6  C8  UNL d   1      -1.206   0.220  -0.407  0.00  0.00     0.002 A 
ENDROOT
BRANCH   1   7
ATOM      7  C2  UNL d   1       1.131  -0.394  -1.143  0.00  0.00     0.056 C 
BRANCH   7   8
ATOM      8  C1  UNL d   1       0.579  -0.288  -2.568  0.00  0.00     0.007 C 
ATOM      9  C   UNL d   1       1.535   0.402  -3.532  0.00  0.00     0.009 C 
ENDBRANCH   7   8
ENDBRANCH   1   7
TORSDOF 2
ENDMDL
