MODEL 1
REMARK minimizedAffinity -1.40735781
REMARK minimizedRMSD -1
REMARK  2 active torsions:
REMARK  status: ('A' for Active; 'I' for Inactive)
REMARK    1  A    between atoms: C1_2  and  C2_3 
REMARK    2  A    between atoms: C2_3  and  C3_4 
ROOT
ATOM      1  C3  UNL d   1       0.182  -0.050  -0.071  0.00  0.00    -0.075 A 
ATOM      2  C4  UNL d   1      -1.145   0.093  -0.503  0.00  0.00     0.002 A 
ATOM      3  C5  UNL d   1      -2.185   0.181   0.422  0.00  0.00     0.002 A 
ATOM      4  C6  UNL d   1      -1.915   0.118   1.788  0.00  0.00    -0.004 A 
ATOM      5  C7  UNL d   1      -0.602  -0.040   2.227  0.00  0.00     0.002 A 
ATOM      6  C8  UNL d   1       0.441  -0.124   1.304  0.00  0.00     0.002 A 
ENDROOT
BRANCH   1   7
ATOM      7  C2  UNL d   1       1.315  -0.116  -1.067  0.00  0.00     0.056 C 
BRANCH   7   8
ATOM      8  C1  UNL d   1       0.942   0.371  -2.470  0.00  0.00     0.007 C 
ATOM      9  C   UNL d   1       2.153   0.712  -3.329  0.00  0.00     0.009 C 
ENDBRANCH   7   8
ENDBRANCH   1   7
TORSDOF 2
ENDMDL
