MODEL 1
REMARK minimizedAffinity 12.2895679
REMARK minimizedRMSD -1
REMARK  0 active torsions:
REMARK  status: ('A' for Active; 'I' for Inactive)
ROOT
ATOM      1  C   UNL d   1       1.226  -1.509   1.327  0.00  0.00     0.020 A 
ATOM      2  C1  UNL d   1       0.372  -2.587   1.103  0.00  0.00     0.020 A 
ATOM      3  C2  UNL d   1       0.894  -3.823   0.715  0.00  0.00     0.034 A 
ATOM      4  C3  UNL d   1       2.275  -3.983   0.549  0.00  0.00     0.017 A 
ATOM      5  C4  UNL d   1       3.132  -2.899   0.775  0.00  0.00     0.017 A 
ATOM      6  C5  UNL d   1       2.603  -1.664   1.163  0.00  0.00     0.034 A 
ATOM      7 Cl   UNL d   1       4.846  -3.020   0.591  0.00  0.00    -0.070 Cl
ATOM      8 Cl1  UNL d   1       2.852  -5.539   0.068  0.00  0.00    -0.070 Cl
ENDROOT
TORSDOF 0
ENDMDL
