MODEL 1
REMARK minimizedAffinity 10.027895
REMARK minimizedRMSD -1
REMARK  0 active torsions:
REMARK  status: ('A' for Active; 'I' for Inactive)
ROOT
ATOM      1  C   UNL d   1       0.679  -1.042   1.841  0.00  0.00     0.020 A 
ATOM      2  C1  UNL d   1      -0.110  -2.132   1.476  0.00  0.00     0.020 A 
ATOM      3  C2  UNL d   1       0.488  -3.290   0.973  0.00  0.00     0.034 A 
ATOM      4  C3  UNL d   1       1.879  -3.360   0.834  0.00  0.00     0.017 A 
ATOM      5  C4  UNL d   1       2.670  -2.266   1.202  0.00  0.00     0.017 A 
ATOM      6  C5  UNL d   1       2.066  -1.109   1.704  0.00  0.00     0.034 A 
ATOM      7 Cl   UNL d   1       4.393  -2.278   1.059  0.00  0.00    -0.070 Cl
ATOM      8 Cl1  UNL d   1       2.551  -4.823   0.206  0.00  0.00    -0.070 Cl
ENDROOT
TORSDOF 0
ENDMDL
