MODEL 1
REMARK minimizedAffinity 7.19133472
REMARK minimizedRMSD -1
REMARK  0 active torsions:
REMARK  status: ('A' for Active; 'I' for Inactive)
ROOT
ATOM      1  C   UNL d   1       2.633  -2.122   0.697  0.00  0.00     0.020 A 
ATOM      2  C1  UNL d   1       1.789  -3.191   0.398  0.00  0.00     0.020 A 
ATOM      3  C2  UNL d   1       0.574  -3.330   1.072  0.00  0.00     0.034 A 
ATOM      4  C3  UNL d   1       0.199  -2.399   2.047  0.00  0.00     0.017 A 
ATOM      5  C4  UNL d   1       1.047  -1.326   2.346  0.00  0.00     0.017 A 
ATOM      6  C5  UNL d   1       2.263  -1.192   1.669  0.00  0.00     0.034 A 
ATOM      7 Cl   UNL d   1       0.653  -0.137   3.537  0.00  0.00    -0.070 Cl
ATOM      8 Cl1  UNL d   1      -1.318  -2.633   2.840  0.00  0.00    -0.070 Cl
ENDROOT
TORSDOF 0
ENDMDL
