MODEL 1
REMARK minimizedAffinity 12.4171429
REMARK minimizedRMSD -1
REMARK  0 active torsions:
REMARK  status: ('A' for Active; 'I' for Inactive)
ROOT
ATOM      1  C   UNL d   1       1.111  -1.561   0.776  0.00  0.00     0.020 A 
ATOM      2  C1  UNL d   1       0.769  -1.413   2.120  0.00  0.00     0.020 A 
ATOM      3  C2  UNL d   1       1.721  -1.653   3.113  0.00  0.00     0.034 A 
ATOM      4  C3  UNL d   1       3.019  -2.043   2.764  0.00  0.00     0.017 A 
ATOM      5  C4  UNL d   1       3.361  -2.192   1.415  0.00  0.00     0.017 A 
ATOM      6  C5  UNL d   1       2.404  -1.950   0.425  0.00  0.00     0.034 A 
ATOM      7 Cl   UNL d   1       4.942  -2.670   0.907  0.00  0.00    -0.070 Cl
ATOM      8 Cl1  UNL d   1       4.145  -2.323   4.045  0.00  0.00    -0.070 Cl
ENDROOT
TORSDOF 0
ENDMDL
