MODEL 1
REMARK minimizedAffinity 14.5641899
REMARK minimizedRMSD -1
REMARK  0 active torsions:
REMARK  status: ('A' for Active; 'I' for Inactive)
ROOT
ATOM      1  C   UNL d   1       0.892  -2.234   0.428  0.00  0.00     0.020 A 
ATOM      2  C1  UNL d   1       2.003  -3.073   0.514  0.00  0.00     0.020 A 
ATOM      3  C2  UNL d   1       2.895  -2.943   1.580  0.00  0.00     0.034 A 
ATOM      4  C3  UNL d   1       2.679  -1.972   2.565  0.00  0.00     0.017 A 
ATOM      5  C4  UNL d   1       1.564  -1.130   2.477  0.00  0.00     0.017 A 
ATOM      6  C5  UNL d   1       0.674  -1.265   1.408  0.00  0.00     0.034 A 
ATOM      7 Cl   UNL d   1       1.231   0.092   3.654  0.00  0.00    -0.070 Cl
ATOM      8 Cl1  UNL d   1       3.823  -1.867   3.855  0.00  0.00    -0.070 Cl
ENDROOT
TORSDOF 0
ENDMDL
