MODEL 1
REMARK minimizedAffinity 5.77356482
REMARK minimizedRMSD -1
REMARK  0 active torsions:
REMARK  status: ('A' for Active; 'I' for Inactive)
ROOT
ATOM      1  C   UNL d   1       1.643  -3.736   0.301  0.00  0.00     0.020 A 
ATOM      2  C1  UNL d   1       2.813  -3.105   0.720  0.00  0.00     0.020 A 
ATOM      3  C2  UNL d   1       2.742  -1.973   1.535  0.00  0.00     0.034 A 
ATOM      4  C3  UNL d   1       1.498  -1.469   1.932  0.00  0.00     0.017 A 
ATOM      5  C4  UNL d   1       0.324  -2.103   1.511  0.00  0.00     0.017 A 
ATOM      6  C5  UNL d   1       0.401  -3.237   0.696  0.00  0.00     0.034 A 
ATOM      7 Cl   UNL d   1      -1.247  -1.540   1.961  0.00  0.00    -0.070 Cl
ATOM      8 Cl1  UNL d   1       1.485  -0.065   2.940  0.00  0.00    -0.070 Cl
ENDROOT
TORSDOF 0
ENDMDL
