MODEL 1
REMARK minimizedAffinity 5.36498117
REMARK minimizedRMSD -1
REMARK  0 active torsions:
REMARK  status: ('A' for Active; 'I' for Inactive)
ROOT
ATOM      1  C   UNL d   1      -1.383   0.842   0.797  0.00  0.00     0.077 C 
ATOM      2  C1  UNL d   1      -1.915   0.495  -0.562  0.00  0.00    -0.074 A 
ATOM      3  C2  UNL d   1      -2.486  -0.756  -0.813  0.00  0.00    -0.005 A 
ATOM      4  C3  UNL d   1      -2.986  -1.060  -2.079  0.00  0.00     0.006 A 
ATOM      5  C4  UNL d   1      -2.918  -0.118  -3.106  0.00  0.00    -0.005 A 
ATOM      6  C5  UNL d   1      -2.351   1.139  -2.874  0.00  0.00    -0.074 A 
ATOM      7  C6  UNL d   1      -2.279   2.166  -3.964  0.00  0.00     0.077 C 
ATOM      8  C7  UNL d   1      -1.857   1.440  -1.597  0.00  0.00    -0.001 A 
ENDROOT
TORSDOF 0
ENDMDL
