MODEL 1
REMARK minimizedAffinity 7.92367506
REMARK minimizedRMSD -1
REMARK  0 active torsions:
REMARK  status: ('A' for Active; 'I' for Inactive)
ROOT
ATOM      1  C   UNL d   1      -5.975   3.157   5.236  0.00  0.00     0.077 C 
ATOM      2  C1  UNL d   1      -5.934   1.684   4.956  0.00  0.00    -0.074 A 
ATOM      3  C2  UNL d   1      -5.867   0.756   6.000  0.00  0.00    -0.005 A 
ATOM      4  C3  UNL d   1      -5.840  -0.611   5.725  0.00  0.00     0.006 A 
ATOM      5  C4  UNL d   1      -5.878  -1.063   4.405  0.00  0.00    -0.005 A 
ATOM      6  C5  UNL d   1      -5.946  -0.150   3.348  0.00  0.00    -0.074 A 
ATOM      7  C6  UNL d   1      -5.998  -0.619   1.924  0.00  0.00     0.077 C 
ATOM      8  C7  UNL d   1      -5.981   1.222   3.633  0.00  0.00    -0.001 A 
ENDROOT
TORSDOF 0
ENDMDL
