MODEL 1
REMARK minimizedAffinity 14.0155649
REMARK minimizedRMSD -1
REMARK  0 active torsions:
REMARK  status: ('A' for Active; 'I' for Inactive)
ROOT
ATOM      1  C   UNL d   1      -1.700   4.721   4.652  0.00  0.00     0.077 C 
ATOM      2  C1  UNL d   1      -3.139   4.751   5.073  0.00  0.00    -0.074 A 
ATOM      3  C2  UNL d   1      -3.816   5.965   5.231  0.00  0.00    -0.005 A 
ATOM      4  C3  UNL d   1      -5.157   5.978   5.614  0.00  0.00     0.006 A 
ATOM      5  C4  UNL d   1      -5.834   4.779   5.843  0.00  0.00    -0.005 A 
ATOM      6  C5  UNL d   1      -5.174   3.556   5.689  0.00  0.00    -0.074 A 
ATOM      7  C6  UNL d   1      -5.889   2.258   5.921  0.00  0.00     0.077 C 
ATOM      8  C7  UNL d   1      -3.828   3.551   5.297  0.00  0.00    -0.001 A 
ENDROOT
TORSDOF 0
ENDMDL
