MODEL 1
REMARK minimizedAffinity 6.4418664
REMARK minimizedRMSD -1
REMARK  0 active torsions:
REMARK  status: ('A' for Active; 'I' for Inactive)
ROOT
ATOM      1  C   UNL d   1       3.042  -0.448  -2.769  0.00  0.00     0.077 C 
ATOM      2  C1  UNL d   1       1.674   0.164  -2.737  0.00  0.00    -0.074 A 
ATOM      3  C2  UNL d   1       1.466   1.434  -2.188  0.00  0.00    -0.005 A 
ATOM      4  C3  UNL d   1       0.189   1.994  -2.174  0.00  0.00     0.006 A 
ATOM      5  C4  UNL d   1      -0.892   1.292  -2.708  0.00  0.00    -0.005 A 
ATOM      6  C5  UNL d   1      -0.704   0.021  -3.262  0.00  0.00    -0.074 A 
ATOM      7  C6  UNL d   1      -1.853  -0.743  -3.848  0.00  0.00     0.077 C 
ATOM      8  C7  UNL d   1       0.584  -0.532  -3.278  0.00  0.00    -0.001 A 
ENDROOT
TORSDOF 0
ENDMDL
