MODEL 1
REMARK minimizedAffinity 15.5217066
REMARK minimizedRMSD -1
REMARK  0 active torsions:
REMARK  status: ('A' for Active; 'I' for Inactive)
ROOT
ATOM      1  C   UNL d   1      -1.856   0.290  -0.462  0.00  0.00     0.077 C 
ATOM      2  C1  UNL d   1      -1.897   1.111  -1.717  0.00  0.00    -0.074 A 
ATOM      3  C2  UNL d   1      -2.975   1.014  -2.604  0.00  0.00    -0.005 A 
ATOM      4  C3  UNL d   1      -3.004   1.790  -3.762  0.00  0.00     0.006 A 
ATOM      5  C4  UNL d   1      -1.958   2.670  -4.045  0.00  0.00    -0.005 A 
ATOM      6  C5  UNL d   1      -0.873   2.780  -3.170  0.00  0.00    -0.074 A 
ATOM      7  C6  UNL d   1       0.255   3.728  -3.454  0.00  0.00     0.077 C 
ATOM      8  C7  UNL d   1      -0.854   2.002  -2.005  0.00  0.00    -0.001 A 
ENDROOT
TORSDOF 0
ENDMDL
