MODEL 1
REMARK minimizedAffinity 4.25186157
REMARK minimizedRMSD -1
REMARK  0 active torsions:
REMARK  status: ('A' for Active; 'I' for Inactive)
ROOT
ATOM      1  C   UNL d   1       1.861   4.579  -4.413  0.00  0.00     0.077 C 
ATOM      2  C1  UNL d   1       2.300   3.293  -3.778  0.00  0.00    -0.074 A 
ATOM      3  C2  UNL d   1       2.978   2.319  -4.519  0.00  0.00    -0.005 A 
ATOM      4  C3  UNL d   1       3.388   1.132  -3.913  0.00  0.00     0.006 A 
ATOM      5  C4  UNL d   1       3.124   0.906  -2.561  0.00  0.00    -0.005 A 
ATOM      6  C5  UNL d   1       2.448   1.868  -1.804  0.00  0.00    -0.074 A 
ATOM      7  C6  UNL d   1       2.166   1.645  -0.348  0.00  0.00     0.077 C 
ATOM      8  C7  UNL d   1       2.046   3.062  -2.419  0.00  0.00    -0.001 A 
ENDROOT
TORSDOF 0
ENDMDL
