MODEL 1
REMARK minimizedAffinity 7.51474285
REMARK minimizedRMSD -1
REMARK  0 active torsions:
REMARK  status: ('A' for Active; 'I' for Inactive)
ROOT
ATOM      1  C   UNL d   1      -3.013  -1.071  -0.681  0.00  0.00     0.077 C 
ATOM      2  C1  UNL d   1      -2.484   0.032  -1.549  0.00  0.00    -0.074 A 
ATOM      3  C2  UNL d   1      -1.316   0.720  -1.204  0.00  0.00    -0.005 A 
ATOM      4  C3  UNL d   1      -0.830   1.737  -2.026  0.00  0.00     0.006 A 
ATOM      5  C4  UNL d   1      -1.506   2.076  -3.198  0.00  0.00    -0.005 A 
ATOM      6  C5  UNL d   1      -2.675   1.400  -3.559  0.00  0.00    -0.074 A 
ATOM      7  C6  UNL d   1      -3.409   1.745  -4.821  0.00  0.00     0.077 C 
ATOM      8  C7  UNL d   1      -3.153   0.374  -2.732  0.00  0.00    -0.001 A 
ENDROOT
TORSDOF 0
ENDMDL
