MODEL 1
REMARK minimizedAffinity 3.30605817
REMARK minimizedRMSD -1
REMARK  0 active torsions:
REMARK  status: ('A' for Active; 'I' for Inactive)
ROOT
ATOM      1  C   UNL d   1      -2.041   0.637  -0.309  0.00  0.00     0.077 C 
ATOM      2  C1  UNL d   1      -1.599   0.987  -1.699  0.00  0.00    -0.074 A 
ATOM      3  C2  UNL d   1      -0.422   1.709  -1.918  0.00  0.00    -0.005 A 
ATOM      4  C3  UNL d   1      -0.019   2.019  -3.217  0.00  0.00     0.006 A 
ATOM      5  C4  UNL d   1      -0.788   1.610  -4.308  0.00  0.00    -0.005 A 
ATOM      6  C5  UNL d   1      -1.968   0.887  -4.108  0.00  0.00    -0.074 A 
ATOM      7  C6  UNL d   1      -2.800   0.432  -5.269  0.00  0.00     0.077 C 
ATOM      8  C7  UNL d   1      -2.362   0.573  -2.800  0.00  0.00    -0.001 A 
ENDROOT
TORSDOF 0
ENDMDL
