MODEL 1
REMARK minimizedAffinity -0.997198522
REMARK minimizedRMSD -1
REMARK  0 active torsions:
REMARK  status: ('A' for Active; 'I' for Inactive)
ROOT
ATOM      1  C   UNL d   1       2.883  -2.714  -1.729  0.00  0.00     0.077 C 
ATOM      2  C1  UNL d   1       2.879  -1.404  -2.458  0.00  0.00    -0.074 A 
ATOM      3  C2  UNL d   1       3.744  -1.177  -3.534  0.00  0.00    -0.005 A 
ATOM      4  C3  UNL d   1       3.723   0.043  -4.208  0.00  0.00     0.006 A 
ATOM      5  C4  UNL d   1       2.838   1.048  -3.815  0.00  0.00    -0.005 A 
ATOM      6  C5  UNL d   1       1.965   0.840  -2.743  0.00  0.00    -0.074 A 
ATOM      7  C6  UNL d   1       1.001   1.905  -2.314  0.00  0.00     0.077 C 
ATOM      8  C7  UNL d   1       1.988  -0.392  -2.074  0.00  0.00    -0.001 A 
ENDROOT
TORSDOF 0
ENDMDL
