MODEL 1
REMARK minimizedAffinity 7.88075924
REMARK minimizedRMSD -1
REMARK  0 active torsions:
REMARK  status: ('A' for Active; 'I' for Inactive)
ROOT
ATOM      1  C   UNL d   1       2.296   1.690  -0.755  0.00  0.00     0.077 C 
ATOM      2  C1  UNL d   1       2.799   1.994  -2.135  0.00  0.00    -0.074 A 
ATOM      3  C2  UNL d   1       3.870   1.281  -2.683  0.00  0.00    -0.005 A 
ATOM      4  C3  UNL d   1       4.320   1.569  -3.972  0.00  0.00     0.006 A 
ATOM      5  C4  UNL d   1       3.705   2.571  -4.724  0.00  0.00    -0.005 A 
ATOM      6  C5  UNL d   1       2.632   3.294  -4.193  0.00  0.00    -0.074 A 
ATOM      7  C6  UNL d   1       1.954   4.367  -4.991  0.00  0.00     0.077 C 
ATOM      8  C7  UNL d   1       2.181   2.994  -2.900  0.00  0.00    -0.001 A 
ENDROOT
TORSDOF 0
ENDMDL
