MODEL 1
REMARK minimizedAffinity 9.00527382
REMARK minimizedRMSD -1
REMARK  0 active torsions:
REMARK  status: ('A' for Active; 'I' for Inactive)
ROOT
ATOM      1  C   UNL d   1       1.474  -2.274   2.597  0.00  0.00     0.077 C 
ATOM      2  C1  UNL d   1       0.843  -3.577   2.207  0.00  0.00    -0.074 A 
ATOM      3  C2  UNL d   1       1.430  -4.795   2.567  0.00  0.00    -0.005 A 
ATOM      4  C3  UNL d   1       0.827  -6.000   2.205  0.00  0.00     0.006 A 
ATOM      5  C4  UNL d   1      -0.366  -5.999   1.482  0.00  0.00    -0.005 A 
ATOM      6  C5  UNL d   1      -0.968  -4.792   1.114  0.00  0.00    -0.074 A 
ATOM      7  C6  UNL d   1      -2.255  -4.773   0.345  0.00  0.00     0.077 C 
ATOM      8  C7  UNL d   1      -0.359  -3.585   1.487  0.00  0.00    -0.001 A 
ENDROOT
TORSDOF 0
ENDMDL
