MODEL 1
REMARK minimizedAffinity 12.482851
REMARK minimizedRMSD -1
REMARK  0 active torsions:
REMARK  status: ('A' for Active; 'I' for Inactive)
ROOT
ATOM      1  C   UNL d   1      -2.259   1.506   0.774  0.00  0.00     0.077 C 
ATOM      2  C1  UNL d   1      -3.568   1.558   1.504  0.00  0.00    -0.074 A 
ATOM      3  C2  UNL d   1      -4.770   1.274   0.847  0.00  0.00    -0.005 A 
ATOM      4  C3  UNL d   1      -5.979   1.318   1.541  0.00  0.00     0.006 A 
ATOM      5  C4  UNL d   1      -5.999   1.646   2.898  0.00  0.00    -0.005 A 
ATOM      6  C5  UNL d   1      -4.807   1.933   3.572  0.00  0.00    -0.074 A 
ATOM      7  C6  UNL d   1      -4.810   2.277   5.031  0.00  0.00     0.077 C 
ATOM      8  C7  UNL d   1      -3.596   1.880   2.869  0.00  0.00    -0.001 A 
ENDROOT
TORSDOF 0
ENDMDL
