MODEL 1
REMARK minimizedAffinity -0.514524996
REMARK minimizedRMSD -1
REMARK  0 active torsions:
REMARK  status: ('A' for Active; 'I' for Inactive)
ROOT
ATOM      1  C   UNL d   1       1.947  -1.690  -3.384  0.00  0.00     0.077 C 
ATOM      2  C1  UNL d   1       1.296  -0.360  -3.150  0.00  0.00    -0.074 A 
ATOM      3  C2  UNL d   1       1.936   0.633  -2.402  0.00  0.00    -0.005 A 
ATOM      4  C3  UNL d   1       1.322   1.869  -2.201  0.00  0.00     0.006 A 
ATOM      5  C4  UNL d   1       0.063   2.125  -2.745  0.00  0.00    -0.005 A 
ATOM      6  C5  UNL d   1      -0.593   1.145  -3.497  0.00  0.00    -0.074 A 
ATOM      7  C6  UNL d   1      -1.942   1.407  -4.098  0.00  0.00     0.077 C 
ATOM      8  C7  UNL d   1       0.034  -0.092  -3.701  0.00  0.00    -0.001 A 
ENDROOT
TORSDOF 0
ENDMDL
