MODEL 1
REMARK minimizedAffinity 9.96249199
REMARK minimizedRMSD -1
REMARK  0 active torsions:
REMARK  status: ('A' for Active; 'I' for Inactive)
ROOT
ATOM      1  C   UNL d   1       0.828   2.466  -2.015  0.00  0.00     0.077 C 
ATOM      2  C1  UNL d   1      -0.285   2.025  -2.919  0.00  0.00    -0.074 A 
ATOM      3  C2  UNL d   1      -0.991   2.951  -3.694  0.00  0.00    -0.005 A 
ATOM      4  C3  UNL d   1      -2.017   2.526  -4.537  0.00  0.00     0.006 A 
ATOM      5  C4  UNL d   1      -2.348   1.172  -4.613  0.00  0.00    -0.005 A 
ATOM      6  C5  UNL d   1      -1.653   0.232  -3.846  0.00  0.00    -0.074 A 
ATOM      7  C6  UNL d   1      -1.990  -1.228  -3.923  0.00  0.00     0.077 C 
ATOM      8  C7  UNL d   1      -0.619   0.667  -3.006  0.00  0.00    -0.001 A 
ENDROOT
TORSDOF 0
ENDMDL
