MODEL 1
REMARK minimizedAffinity -3.26743412
REMARK minimizedRMSD -1
REMARK  0 active torsions:
REMARK  status: ('A' for Active; 'I' for Inactive)
ROOT
ATOM      1  C   UNL d   1       2.268  -1.438  -3.374  0.00  0.00     0.077 C 
ATOM      2  C1  UNL d   1       1.435  -0.193  -3.313  0.00  0.00    -0.074 A 
ATOM      3  C2  UNL d   1       1.928   0.974  -2.719  0.00  0.00    -0.005 A 
ATOM      4  C3  UNL d   1       1.145   2.127  -2.677  0.00  0.00     0.006 A 
ATOM      5  C4  UNL d   1      -0.137   2.126  -3.229  0.00  0.00    -0.005 A 
ATOM      6  C5  UNL d   1      -0.647   0.970  -3.828  0.00  0.00    -0.074 A 
ATOM      7  C6  UNL d   1      -2.018   0.955  -4.435  0.00  0.00     0.077 C 
ATOM      8  C7  UNL d   1       0.149  -0.183  -3.872  0.00  0.00    -0.001 A 
ENDROOT
TORSDOF 0
ENDMDL
