MODEL 1
REMARK minimizedAffinity -1.05157757
REMARK minimizedRMSD -1
REMARK  0 active torsions:
REMARK  status: ('A' for Active; 'I' for Inactive)
ROOT
ATOM      1  C   UNL d   1       2.530  -0.715  -3.750  0.00  0.00     0.077 C 
ATOM      2  C1  UNL d   1       1.398   0.234  -3.492  0.00  0.00    -0.074 A 
ATOM      3  C2  UNL d   1       1.633   1.503  -2.953  0.00  0.00    -0.005 A 
ATOM      4  C3  UNL d   1       0.571   2.379  -2.728  0.00  0.00     0.006 A 
ATOM      5  C4  UNL d   1      -0.734   1.996  -3.038  0.00  0.00    -0.005 A 
ATOM      6  C5  UNL d   1      -0.989   0.732  -3.579  0.00  0.00    -0.074 A 
ATOM      7  C6  UNL d   1      -2.384   0.307  -3.928  0.00  0.00     0.077 C 
ATOM      8  C7  UNL d   1       0.084  -0.140  -3.809  0.00  0.00    -0.001 A 
ENDROOT
TORSDOF 0
ENDMDL
