MODEL 1
REMARK minimizedAffinity 1.93906713
REMARK minimizedRMSD -1
REMARK  0 active torsions:
REMARK  status: ('A' for Active; 'I' for Inactive)
ROOT
ATOM      1  C   UNL d   1      -2.154   0.413  -3.318  0.00  0.00     0.077 C 
ATOM      2  C1  UNL d   1      -1.501   0.816  -2.030  0.00  0.00    -0.074 A 
ATOM      3  C2  UNL d   1      -2.218   0.817  -0.829  0.00  0.00    -0.005 A 
ATOM      4  C3  UNL d   1      -1.594   1.185   0.363  0.00  0.00     0.006 A 
ATOM      5  C4  UNL d   1      -0.249   1.555   0.366  0.00  0.00    -0.005 A 
ATOM      6  C5  UNL d   1       0.485   1.559  -0.824  0.00  0.00    -0.074 A 
ATOM      7  C6  UNL d   1       1.935   1.944  -0.836  0.00  0.00     0.077 C 
ATOM      8  C7  UNL d   1      -0.147   1.181  -2.017  0.00  0.00    -0.001 A 
ENDROOT
TORSDOF 0
ENDMDL
