MODEL 1
REMARK minimizedAffinity -2.66680241
REMARK minimizedRMSD -1
REMARK  0 active torsions:
REMARK  status: ('A' for Active; 'I' for Inactive)
ROOT
ATOM      1  C   UNL d   1       2.190  -1.237  -2.871  0.00  0.00     0.077 C 
ATOM      2  C1  UNL d   1       1.230  -0.113  -3.126  0.00  0.00    -0.074 A 
ATOM      3  C2  UNL d   1       1.500   1.181  -2.669  0.00  0.00    -0.005 A 
ATOM      4  C3  UNL d   1       0.602   2.218  -2.921  0.00  0.00     0.006 A 
ATOM      5  C4  UNL d   1      -0.573   1.972  -3.632  0.00  0.00    -0.005 A 
ATOM      6  C5  UNL d   1      -0.860   0.684  -4.097  0.00  0.00    -0.074 A 
ATOM      7  C6  UNL d   1      -2.114   0.405  -4.870  0.00  0.00     0.077 C 
ATOM      8  C7  UNL d   1       0.051  -0.351  -3.845  0.00  0.00    -0.001 A 
ENDROOT
TORSDOF 0
ENDMDL
