MODEL 1
REMARK minimizedAffinity 0.251162827
REMARK minimizedRMSD -1
REMARK  0 active torsions:
REMARK  status: ('A' for Active; 'I' for Inactive)
ROOT
ATOM      1  C   UNL d   1      -5.400   3.266   5.997  0.00  0.00     0.077 C 
ATOM      2  C1  UNL d   1      -5.211   1.861   5.507  0.00  0.00    -0.074 A 
ATOM      3  C2  UNL d   1      -5.999   0.816   6.000  0.00  0.00    -0.005 A 
ATOM      4  C3  UNL d   1      -5.819  -0.484   5.527  0.00  0.00     0.006 A 
ATOM      5  C4  UNL d   1      -4.850  -0.752   4.559  0.00  0.00    -0.005 A 
ATOM      6  C5  UNL d   1      -4.054   0.281   4.054  0.00  0.00    -0.074 A 
ATOM      7  C6  UNL d   1      -3.015   0.012   3.006  0.00  0.00     0.077 C 
ATOM      8  C7  UNL d   1      -4.246   1.586   4.528  0.00  0.00    -0.001 A 
ENDROOT
TORSDOF 0
ENDMDL
