MODEL 1
REMARK minimizedAffinity 12.227438
REMARK minimizedRMSD -1
REMARK  0 active torsions:
REMARK  status: ('A' for Active; 'I' for Inactive)
ROOT
ATOM      1  C   UNL d   1       1.373  -0.377   0.128  0.00  0.00     0.077 C 
ATOM      2  C1  UNL d   1       2.725   0.273   0.127  0.00  0.00    -0.074 A 
ATOM      3  C2  UNL d   1       3.025   1.309  -0.763  0.00  0.00    -0.005 A 
ATOM      4  C3  UNL d   1       4.284   1.909  -0.745  0.00  0.00     0.006 A 
ATOM      5  C4  UNL d   1       5.254   1.481   0.162  0.00  0.00    -0.005 A 
ATOM      6  C5  UNL d   1       4.972   0.447   1.061  0.00  0.00    -0.074 A 
ATOM      7  C6  UNL d   1       6.000  -0.019   2.049  0.00  0.00     0.077 C 
ATOM      8  C7  UNL d   1       3.703  -0.147   1.041  0.00  0.00    -0.001 A 
ENDROOT
TORSDOF 0
ENDMDL
