MODEL 1
REMARK minimizedAffinity 11.8883514
REMARK minimizedRMSD -1
REMARK  0 active torsions:
REMARK  status: ('A' for Active; 'I' for Inactive)
ROOT
ATOM      1  C   UNL d   1       3.677   2.431   2.069  0.00  0.00     0.077 C 
ATOM      2  C1  UNL d   1       3.174   1.459   1.043  0.00  0.00    -0.074 A 
ATOM      3  C2  UNL d   1       3.854   0.263   0.792  0.00  0.00    -0.005 A 
ATOM      4  C3  UNL d   1       3.369  -0.636  -0.158  0.00  0.00     0.006 A 
ATOM      5  C4  UNL d   1       2.202  -0.348  -0.865  0.00  0.00    -0.005 A 
ATOM      6  C5  UNL d   1       1.508   0.842  -0.627  0.00  0.00    -0.074 A 
ATOM      7  C6  UNL d   1       0.246   1.162  -1.372  0.00  0.00     0.077 C 
ATOM      8  C7  UNL d   1       1.997   1.737   0.334  0.00  0.00    -0.001 A 
ENDROOT
TORSDOF 0
ENDMDL
