MODEL 1
REMARK minimizedAffinity 2.80747628
REMARK minimizedRMSD -1
REMARK  0 active torsions:
REMARK  status: ('A' for Active; 'I' for Inactive)
ROOT
ATOM      1  C   UNL d   1      -3.711   0.244  -0.008  0.00  0.00     0.077 C 
ATOM      2  C1  UNL d   1      -4.515   0.998  -1.026  0.00  0.00    -0.074 A 
ATOM      3  C2  UNL d   1      -4.897   2.324  -0.801  0.00  0.00    -0.005 A 
ATOM      4  C3  UNL d   1      -5.636   3.015  -1.761  0.00  0.00     0.006 A 
ATOM      5  C4  UNL d   1      -6.000   2.388  -2.953  0.00  0.00    -0.005 A 
ATOM      6  C5  UNL d   1      -5.626   1.063  -3.196  0.00  0.00    -0.074 A 
ATOM      7  C6  UNL d   1      -6.000   0.377  -4.476  0.00  0.00     0.077 C 
ATOM      8  C7  UNL d   1      -4.877   0.377  -2.230  0.00  0.00    -0.001 A 
ENDROOT
TORSDOF 0
ENDMDL
