MODEL 1
REMARK minimizedAffinity 8.90189838
REMARK minimizedRMSD -1
REMARK  0 active torsions:
REMARK  status: ('A' for Active; 'I' for Inactive)
ROOT
ATOM      1  C   UNL d   1       5.606   2.218  -2.590  0.00  0.00     0.077 C 
ATOM      2  C1  UNL d   1       4.786   1.567  -1.516  0.00  0.00    -0.074 A 
ATOM      3  C2  UNL d   1       5.386   1.082  -0.349  0.00  0.00    -0.005 A 
ATOM      4  C3  UNL d   1       4.609   0.487   0.646  0.00  0.00     0.006 A 
ATOM      5  C4  UNL d   1       3.228   0.372   0.484  0.00  0.00    -0.005 A 
ATOM      6  C5  UNL d   1       2.611   0.852  -0.675  0.00  0.00    -0.074 A 
ATOM      7  C6  UNL d   1       1.126   0.745  -0.861  0.00  0.00     0.077 C 
ATOM      8  C7  UNL d   1       3.397   1.455  -1.667  0.00  0.00    -0.001 A 
ENDROOT
TORSDOF 0
ENDMDL
