MODEL 1
REMARK minimizedAffinity 12.2391911
REMARK minimizedRMSD -1
REMARK  0 active torsions:
REMARK  status: ('A' for Active; 'I' for Inactive)
ROOT
ATOM      1  C   UNL d   1       4.374   2.177  -2.082  0.00  0.00     0.077 C 
ATOM      2  C1  UNL d   1       3.398   1.460  -1.198  0.00  0.00    -0.074 A 
ATOM      3  C2  UNL d   1       2.037   1.782  -1.220  0.00  0.00    -0.005 A 
ATOM      4  C3  UNL d   1       1.139   1.100  -0.399  0.00  0.00     0.006 A 
ATOM      5  C4  UNL d   1       1.592   0.091   0.451  0.00  0.00    -0.005 A 
ATOM      6  C5  UNL d   1       2.949  -0.246   0.487  0.00  0.00    -0.074 A 
ATOM      7  C6  UNL d   1       3.451  -1.335   1.387  0.00  0.00     0.077 C 
ATOM      8  C7  UNL d   1       3.844   0.440  -0.347  0.00  0.00    -0.001 A 
ENDROOT
TORSDOF 0
ENDMDL
