MODEL 1
REMARK minimizedAffinity 12.7667875
REMARK minimizedRMSD -1
REMARK  0 active torsions:
REMARK  status: ('A' for Active; 'I' for Inactive)
ROOT
ATOM      1  C   UNL d   1      -5.413   4.700  -1.973  0.00  0.00     0.077 C 
ATOM      2  C1  UNL d   1      -5.430   3.201  -1.966  0.00  0.00    -0.074 A 
ATOM      3  C2  UNL d   1      -6.000   2.483  -3.023  0.00  0.00    -0.005 A 
ATOM      4  C3  UNL d   1      -5.999   1.088  -3.007  0.00  0.00     0.006 A 
ATOM      5  C4  UNL d   1      -5.430   0.398  -1.936  0.00  0.00    -0.005 A 
ATOM      6  C5  UNL d   1      -4.855   1.099  -0.871  0.00  0.00    -0.074 A 
ATOM      7  C6  UNL d   1      -4.230   0.373   0.283  0.00  0.00     0.077 C 
ATOM      8  C7  UNL d   1      -4.853   2.500  -0.898  0.00  0.00    -0.001 A 
ENDROOT
TORSDOF 0
ENDMDL
