MODEL 1
REMARK minimizedAffinity -2.27994108
REMARK minimizedRMSD -1
REMARK  0 active torsions:
REMARK  status: ('A' for Active; 'I' for Inactive)
ROOT
ATOM      1  C   UNL d   1       5.627  -1.964   5.433  0.00  0.00     0.077 C 
ATOM      2  C1  UNL d   1       5.164  -3.375   5.224  0.00  0.00    -0.074 A 
ATOM      3  C2  UNL d   1       5.680  -4.422   5.993  0.00  0.00    -0.005 A 
ATOM      4  C3  UNL d   1       5.233  -5.728   5.794  0.00  0.00     0.006 A 
ATOM      5  C4  UNL d   1       4.266  -6.000   4.825  0.00  0.00    -0.005 A 
ATOM      6  C5  UNL d   1       3.737  -4.965   4.047  0.00  0.00    -0.074 A 
ATOM      7  C6  UNL d   1       2.690  -5.238   3.008  0.00  0.00     0.077 C 
ATOM      8  C7  UNL d   1       4.187  -3.655   4.258  0.00  0.00    -0.001 A 
ENDROOT
TORSDOF 0
ENDMDL
