MODEL 1
REMARK minimizedAffinity 25.1242619
REMARK minimizedRMSD -1
REMARK  0 active torsions:
REMARK  status: ('A' for Active; 'I' for Inactive)
ROOT
ATOM      1  C   UNL d   1      -2.631  -1.137   0.276  0.00  0.00     0.077 C 
ATOM      2  C1  UNL d   1      -3.009  -0.563   1.609  0.00  0.00    -0.074 A 
ATOM      3  C2  UNL d   1      -2.125   0.261   2.313  0.00  0.00    -0.005 A 
ATOM      4  C3  UNL d   1      -2.494   0.796   3.547  0.00  0.00     0.006 A 
ATOM      5  C4  UNL d   1      -3.748   0.511   4.090  0.00  0.00    -0.005 A 
ATOM      6  C5  UNL d   1      -4.645  -0.311   3.400  0.00  0.00    -0.074 A 
ATOM      7  C6  UNL d   1      -6.000  -0.618   3.964  0.00  0.00     0.077 C 
ATOM      8  C7  UNL d   1      -4.270  -0.838   2.157  0.00  0.00    -0.001 A 
ENDROOT
TORSDOF 0
ENDMDL
