MODEL 1
REMARK minimizedAffinity 9.38836193
REMARK minimizedRMSD -1
REMARK  0 active torsions:
REMARK  status: ('A' for Active; 'I' for Inactive)
ROOT
ATOM      1  C   UNL d   1      -1.398   5.467   5.793  0.00  0.00     0.077 C 
ATOM      2  C1  UNL d   1      -1.698   4.842   4.463  0.00  0.00    -0.074 A 
ATOM      3  C2  UNL d   1      -1.938   5.634   3.335  0.00  0.00    -0.005 A 
ATOM      4  C3  UNL d   1      -2.206   5.038   2.103  0.00  0.00     0.006 A 
ATOM      5  C4  UNL d   1      -2.238   3.648   1.986  0.00  0.00    -0.005 A 
ATOM      6  C5  UNL d   1      -2.001   2.841   3.103  0.00  0.00    -0.074 A 
ATOM      7  C6  UNL d   1      -2.022   1.345   2.992  0.00  0.00     0.077 C 
ATOM      8  C7  UNL d   1      -1.724   3.446   4.336  0.00  0.00    -0.001 A 
ENDROOT
TORSDOF 0
ENDMDL
