MODEL 1
REMARK minimizedAffinity 9.97196388
REMARK minimizedRMSD -1
REMARK  0 active torsions:
REMARK  status: ('A' for Active; 'I' for Inactive)
ROOT
ATOM      1  C   UNL d   1      -1.531   2.555   3.811  0.00  0.00     0.077 C 
ATOM      2  C1  UNL d   1      -2.246   3.752   4.364  0.00  0.00    -0.074 A 
ATOM      3  C2  UNL d   1      -1.771   4.410   5.503  0.00  0.00    -0.005 A 
ATOM      4  C3  UNL d   1      -2.442   5.528   6.000  0.00  0.00     0.006 A 
ATOM      5  C4  UNL d   1      -3.592   5.998   5.364  0.00  0.00    -0.005 A 
ATOM      6  C5  UNL d   1      -4.081   5.353   4.224  0.00  0.00    -0.074 A 
ATOM      7  C6  UNL d   1      -5.310   5.850   3.523  0.00  0.00     0.077 C 
ATOM      8  C7  UNL d   1      -3.398   4.235   3.726  0.00  0.00    -0.001 A 
ENDROOT
TORSDOF 0
ENDMDL
