MODEL 1
REMARK minimizedAffinity 3.11536932
REMARK minimizedRMSD -1
REMARK  0 active torsions:
REMARK  status: ('A' for Active; 'I' for Inactive)
ROOT
ATOM      1  C   UNL d   1       1.763   6.000  -2.055  0.00  0.00     0.077 C 
ATOM      2  C1  UNL d   1       3.026   5.610  -1.345  0.00  0.00    -0.074 A 
ATOM      3  C2  UNL d   1       4.038   4.912  -2.010  0.00  0.00    -0.005 A 
ATOM      4  C3  UNL d   1       5.211   4.564  -1.339  0.00  0.00     0.006 A 
ATOM      5  C4  UNL d   1       5.382   4.911   0.002  0.00  0.00    -0.005 A 
ATOM      6  C5  UNL d   1       4.381   5.610   0.683  0.00  0.00    -0.074 A 
ATOM      7  C6  UNL d   1       4.553   5.998   2.121  0.00  0.00     0.077 C 
ATOM      8  C7  UNL d   1       3.209   5.961   0.000  0.00  0.00    -0.001 A 
ENDROOT
TORSDOF 0
ENDMDL
