MODEL 1
REMARK minimizedAffinity 1.71515274
REMARK minimizedRMSD -1
REMARK  0 active torsions:
REMARK  status: ('A' for Active; 'I' for Inactive)
ROOT
ATOM      1  C   UNL d   1      -1.650   3.092   3.572  0.00  0.00     0.077 C 
ATOM      2  C1  UNL d   1      -2.531   4.102   4.246  0.00  0.00    -0.074 A 
ATOM      3  C2  UNL d   1      -2.100   4.783   5.389  0.00  0.00    -0.005 A 
ATOM      4  C3  UNL d   1      -2.926   5.727   5.999  0.00  0.00     0.006 A 
ATOM      5  C4  UNL d   1      -4.190   5.998   5.473  0.00  0.00    -0.005 A 
ATOM      6  C5  UNL d   1      -4.638   5.327   4.331  0.00  0.00    -0.074 A 
ATOM      7  C6  UNL d   1      -5.989   5.614   3.747  0.00  0.00     0.077 C 
ATOM      8  C7  UNL d   1      -3.799   4.386   3.719  0.00  0.00    -0.001 A 
ENDROOT
TORSDOF 0
ENDMDL
