MODEL 1
REMARK minimizedAffinity 9.34138393
REMARK minimizedRMSD -1
REMARK  0 active torsions:
REMARK  status: ('A' for Active; 'I' for Inactive)
ROOT
ATOM      1  C   UNL d   1       5.921   5.968   5.969  0.00  0.00     0.077 C 
ATOM      2  C1  UNL d   1       5.193   5.707   4.684  0.00  0.00    -0.074 A 
ATOM      3  C2  UNL d   1       3.824   5.968   4.568  0.00  0.00    -0.005 A 
ATOM      4  C3  UNL d   1       3.162   5.729   3.363  0.00  0.00     0.006 A 
ATOM      5  C4  UNL d   1       3.861   5.228   2.265  0.00  0.00    -0.005 A 
ATOM      6  C5  UNL d   1       5.231   4.962   2.362  0.00  0.00    -0.074 A 
ATOM      7  C6  UNL d   1       6.000   4.433   1.188  0.00  0.00     0.077 C 
ATOM      8  C7  UNL d   1       5.890   5.211   3.573  0.00  0.00    -0.001 A 
ENDROOT
TORSDOF 0
ENDMDL
