MODEL 1
REMARK minimizedAffinity 15.1265335
REMARK minimizedRMSD -1
REMARK  0 active torsions:
REMARK  status: ('A' for Active; 'I' for Inactive)
ROOT
ATOM      1  C   UNL d   1      -3.748  -1.004   5.995  0.00  0.00     0.077 C 
ATOM      2  C1  UNL d   1      -3.275   0.017   5.003  0.00  0.00    -0.074 A 
ATOM      3  C2  UNL d   1      -3.057  -0.328   3.665  0.00  0.00    -0.005 A 
ATOM      4  C3  UNL d   1      -2.627   0.635   2.752  0.00  0.00     0.006 A 
ATOM      5  C4  UNL d   1      -2.411   1.950   3.166  0.00  0.00    -0.005 A 
ATOM      6  C5  UNL d   1      -2.625   2.313   4.500  0.00  0.00    -0.074 A 
ATOM      7  C6  UNL d   1      -2.407   3.724   4.959  0.00  0.00     0.077 C 
ATOM      8  C7  UNL d   1      -3.064   1.342   5.410  0.00  0.00    -0.001 A 
ENDROOT
TORSDOF 0
ENDMDL
