MODEL 1
REMARK minimizedAffinity 8.9921093
REMARK minimizedRMSD -1
REMARK  0 active torsions:
REMARK  status: ('A' for Active; 'I' for Inactive)
ROOT
ATOM      1  C   UNL d   1       5.692   5.976   5.198  0.00  0.00     0.077 C 
ATOM      2  C1  UNL d   1       5.304   5.380   3.877  0.00  0.00    -0.074 A 
ATOM      3  C2  UNL d   1       5.997   4.286   3.350  0.00  0.00    -0.005 A 
ATOM      4  C3  UNL d   1       5.618   3.737   2.125  0.00  0.00     0.006 A 
ATOM      5  C4  UNL d   1       4.544   4.275   1.416  0.00  0.00    -0.005 A 
ATOM      6  C5  UNL d   1       3.838   5.369   1.928  0.00  0.00    -0.074 A 
ATOM      7  C6  UNL d   1       2.675   5.953   1.183  0.00  0.00     0.077 C 
ATOM      8  C7  UNL d   1       4.221   5.911   3.162  0.00  0.00    -0.001 A 
ENDROOT
TORSDOF 0
ENDMDL
