MODEL 1
REMARK minimizedAffinity 8.98216629
REMARK minimizedRMSD -1
REMARK  0 active torsions:
REMARK  status: ('A' for Active; 'I' for Inactive)
ROOT
ATOM      1  C   UNL d   1      -5.850   0.097   1.771  0.00  0.00     0.077 C 
ATOM      2  C1  UNL d   1      -4.447   0.470   2.146  0.00  0.00    -0.074 A 
ATOM      3  C2  UNL d   1      -3.438  -0.497   2.205  0.00  0.00    -0.005 A 
ATOM      4  C3  UNL d   1      -2.135  -0.133   2.546  0.00  0.00     0.006 A 
ATOM      5  C4  UNL d   1      -1.829   1.198   2.831  0.00  0.00    -0.005 A 
ATOM      6  C5  UNL d   1      -2.825   2.179   2.775  0.00  0.00    -0.074 A 
ATOM      7  C6  UNL d   1      -2.510   3.616   3.069  0.00  0.00     0.077 C 
ATOM      8  C7  UNL d   1      -4.130   1.807   2.425  0.00  0.00    -0.001 A 
ENDROOT
TORSDOF 0
ENDMDL
