MODEL 1
REMARK minimizedAffinity 8.02116394
REMARK minimizedRMSD -1
REMARK  0 active torsions:
REMARK  status: ('A' for Active; 'I' for Inactive)
ROOT
ATOM      1  C   UNL d   1       0.842  -0.414  -2.650  0.00  0.00     0.077 C 
ATOM      2  C1  UNL d   1      -0.422  -0.075  -1.918  0.00  0.00    -0.074 A 
ATOM      3  C2  UNL d   1      -1.073  -1.028  -1.128  0.00  0.00    -0.005 A 
ATOM      4  C3  UNL d   1      -2.243  -0.694  -0.445  0.00  0.00     0.006 A 
ATOM      5  C4  UNL d   1      -2.773   0.593  -0.545  0.00  0.00    -0.005 A 
ATOM      6  C5  UNL d   1      -2.135   1.559  -1.330  0.00  0.00    -0.074 A 
ATOM      7  C6  UNL d   1      -2.686   2.950  -1.441  0.00  0.00     0.077 C 
ATOM      8  C7  UNL d   1      -0.956   1.218  -2.007  0.00  0.00    -0.001 A 
ENDROOT
TORSDOF 0
ENDMDL
