MODEL 1
REMARK minimizedAffinity 10.5456247
REMARK minimizedRMSD -1
REMARK  0 active torsions:
REMARK  status: ('A' for Active; 'I' for Inactive)
ROOT
ATOM      1  C   UNL d   1      -1.052   1.815  -2.014  0.00  0.00     0.077 C 
ATOM      2  C1  UNL d   1      -0.180   0.596  -1.975  0.00  0.00    -0.074 A 
ATOM      3  C2  UNL d   1       1.209   0.702  -2.098  0.00  0.00    -0.005 A 
ATOM      4  C3  UNL d   1       2.008  -0.440  -2.050  0.00  0.00     0.006 A 
ATOM      5  C4  UNL d   1       1.428  -1.697  -1.878  0.00  0.00    -0.005 A 
ATOM      6  C5  UNL d   1       0.041  -1.823  -1.752  0.00  0.00    -0.074 A 
ATOM      7  C6  UNL d   1      -0.599  -3.165  -1.557  0.00  0.00     0.077 C 
ATOM      8  C7  UNL d   1      -0.755  -0.670  -1.794  0.00  0.00    -0.001 A 
ENDROOT
TORSDOF 0
ENDMDL
