MODEL 1
REMARK minimizedAffinity -1.56952941
REMARK minimizedRMSD -1
REMARK  0 active torsions:
REMARK  status: ('A' for Active; 'I' for Inactive)
ROOT
ATOM      1  C   UNL d   1       0.162   0.343  -1.679  0.00  0.00     0.077 C 
ATOM      2  C1  UNL d   1      -0.813   0.146  -0.556  0.00  0.00    -0.074 A 
ATOM      3  C2  UNL d   1      -1.868  -0.766  -0.671  0.00  0.00    -0.005 A 
ATOM      4  C3  UNL d   1      -2.761  -0.945   0.385  0.00  0.00     0.006 A 
ATOM      5  C4  UNL d   1      -2.609  -0.216   1.565  0.00  0.00    -0.005 A 
ATOM      6  C5  UNL d   1      -1.560   0.700   1.698  0.00  0.00    -0.074 A 
ATOM      7  C6  UNL d   1      -1.376   1.484   2.963  0.00  0.00     0.077 C 
ATOM      8  C7  UNL d   1      -0.662   0.869   0.635  0.00  0.00    -0.001 A 
ENDROOT
TORSDOF 0
ENDMDL
