MODEL 1
REMARK minimizedAffinity 9.22995377
REMARK minimizedRMSD -1
REMARK  0 active torsions:
REMARK  status: ('A' for Active; 'I' for Inactive)
ROOT
ATOM      1  C   UNL d   1       1.869   5.491  -2.857  0.00  0.00     0.077 C 
ATOM      2  C1  UNL d   1       1.986   4.142  -2.212  0.00  0.00    -0.074 A 
ATOM      3  C2  UNL d   1       2.909   3.912  -1.188  0.00  0.00    -0.005 A 
ATOM      4  C3  UNL d   1       3.000   2.655  -0.591  0.00  0.00     0.006 A 
ATOM      5  C4  UNL d   1       2.169   1.616  -1.013  0.00  0.00    -0.005 A 
ATOM      6  C5  UNL d   1       1.239   1.827  -2.035  0.00  0.00    -0.074 A 
ATOM      7  C6  UNL d   1       0.331   0.724  -2.493  0.00  0.00     0.077 C 
ATOM      8  C7  UNL d   1       1.149   3.095  -2.625  0.00  0.00    -0.001 A 
ENDROOT
TORSDOF 0
ENDMDL
