MODEL 1
REMARK minimizedAffinity 6.96893501
REMARK minimizedRMSD -1
REMARK  0 active torsions:
REMARK  status: ('A' for Active; 'I' for Inactive)
ROOT
ATOM      1  C   UNL d   1      -6.000  -0.780   4.871  0.00  0.00     0.077 C 
ATOM      2  C1  UNL d   1      -4.683  -0.287   4.348  0.00  0.00    -0.074 A 
ATOM      3  C2  UNL d   1      -3.750   0.312   5.201  0.00  0.00    -0.005 A 
ATOM      4  C3  UNL d   1      -2.526   0.757   4.702  0.00  0.00     0.006 A 
ATOM      5  C4  UNL d   1      -2.223   0.608   3.348  0.00  0.00    -0.005 A 
ATOM      6  C5  UNL d   1      -3.143   0.011   2.480  0.00  0.00    -0.074 A 
ATOM      7  C6  UNL d   1      -2.829  -0.166   1.024  0.00  0.00     0.077 C 
ATOM      8  C7  UNL d   1      -4.368  -0.440   2.991  0.00  0.00    -0.001 A 
ENDROOT
TORSDOF 0
ENDMDL
