MODEL 1
REMARK minimizedAffinity 7.03019619
REMARK minimizedRMSD -1
REMARK  1 active torsions:
REMARK  status: ('A' for Active; 'I' for Inactive)
REMARK    1  A    between atoms: C1_2  and  C2_3 
ROOT
ATOM      1  C2  UNL d   1       2.398   2.193  -2.737  0.00  0.00    -0.081 A 
ATOM      2  C3  UNL d   1       3.136   2.207  -3.927  0.00  0.00     0.006 A 
ATOM      3  C4  UNL d   1       3.005   3.264  -4.830  0.00  0.00     0.002 A 
ATOM      4  C5  UNL d   1       2.140   4.328  -4.555  0.00  0.00    -0.080 A 
ATOM      5  C6  UNL d   1       2.012   5.485  -5.502  0.00  0.00     0.076 C 
ATOM      6  C7  UNL d   1       1.388   4.306  -3.375  0.00  0.00     0.002 A 
ATOM      7  C8  UNL d   1       1.519   3.249  -2.472  0.00  0.00     0.006 A 
ENDROOT
BRANCH   1   8
ATOM      8  C1  UNL d   1       2.585   1.086  -1.731  0.00  0.00     0.054 C 
ATOM      9  C   UNL d   1       2.740   1.640  -0.322  0.00  0.00     0.018 C 
ENDBRANCH   1   8
TORSDOF 1
ENDMDL
