MODEL 1
REMARK minimizedAffinity 4.81379652
REMARK minimizedRMSD -1
REMARK  1 active torsions:
REMARK  status: ('A' for Active; 'I' for Inactive)
REMARK    1  A    between atoms: C1_2  and  C2_3 
ROOT
ATOM      1  C2  UNL d   1      -0.741  -0.123  -3.408  0.00  0.00    -0.081 A 
ATOM      2  C3  UNL d   1       0.470  -0.825  -3.411  0.00  0.00     0.006 A 
ATOM      3  C4  UNL d   1       1.604  -0.283  -2.802  0.00  0.00     0.002 A 
ATOM      4  C5  UNL d   1       1.544   0.966  -2.174  0.00  0.00    -0.080 A 
ATOM      5  C6  UNL d   1       2.747   1.546  -1.491  0.00  0.00     0.076 C 
ATOM      6  C7  UNL d   1       0.338   1.675  -2.187  0.00  0.00     0.002 A 
ATOM      7  C8  UNL d   1      -0.796   1.134  -2.796  0.00  0.00     0.006 A 
ENDROOT
BRANCH   1   8
ATOM      8  C1  UNL d   1      -1.982  -0.734  -4.007  0.00  0.00     0.054 C 
ATOM      9  C   UNL d   1      -1.781  -1.066  -5.479  0.00  0.00     0.018 C 
ENDBRANCH   1   8
TORSDOF 1
ENDMDL
