MODEL 1
REMARK minimizedAffinity 16.4537086
REMARK minimizedRMSD -1
REMARK  1 active torsions:
REMARK  status: ('A' for Active; 'I' for Inactive)
REMARK    1  A    between atoms: C1_2  and  C2_3 
ROOT
ATOM      1  C2  UNL d   1      -5.854   2.624   4.979  0.00  0.00    -0.081 A 
ATOM      2  C3  UNL d   1      -5.776   1.624   5.956  0.00  0.00     0.006 A 
ATOM      3  C4  UNL d   1      -5.775   0.276   5.591  0.00  0.00     0.002 A 
ATOM      4  C5  UNL d   1      -5.843  -0.095   4.244  0.00  0.00    -0.080 A 
ATOM      5  C6  UNL d   1      -5.812  -1.538   3.837  0.00  0.00     0.076 C 
ATOM      6  C7  UNL d   1      -5.938   0.904   3.268  0.00  0.00     0.002 A 
ATOM      7  C8  UNL d   1      -5.941   2.252   3.633  0.00  0.00     0.006 A 
ENDROOT
BRANCH   1   8
ATOM      8  C1  UNL d   1      -5.791   4.080   5.365  0.00  0.00     0.054 C 
ATOM      9  C   UNL d   1      -4.384   4.637   5.196  0.00  0.00     0.018 C 
ENDBRANCH   1   8
TORSDOF 1
ENDMDL
