MODEL 1
REMARK minimizedAffinity 10.2377815
REMARK minimizedRMSD -1
REMARK  1 active torsions:
REMARK  status: ('A' for Active; 'I' for Inactive)
REMARK    1  A    between atoms: C1_2  and  C2_3 
ROOT
ATOM      1  C2  UNL d   1      -5.492   1.360   4.942  0.00  0.00    -0.081 A 
ATOM      2  C3  UNL d   1      -4.737   1.958   3.926  0.00  0.00     0.006 A 
ATOM      3  C4  UNL d   1      -4.486   3.332   3.945  0.00  0.00     0.002 A 
ATOM      4  C5  UNL d   1      -4.979   4.129   4.983  0.00  0.00    -0.080 A 
ATOM      5  C6  UNL d   1      -4.691   5.601   5.031  0.00  0.00     0.076 C 
ATOM      6  C7  UNL d   1      -5.748   3.535   5.989  0.00  0.00     0.002 A 
ATOM      7  C8  UNL d   1      -6.000   2.162   5.971  0.00  0.00     0.006 A 
ENDROOT
BRANCH   1   8
ATOM      8  C1  UNL d   1      -5.710  -0.131   4.959  0.00  0.00     0.054 C 
ATOM      9  C   UNL d   1      -4.587  -0.846   5.698  0.00  0.00     0.018 C 
ENDBRANCH   1   8
TORSDOF 1
ENDMDL
