MODEL 1
REMARK minimizedAffinity 7.32993793
REMARK minimizedRMSD -1
REMARK  1 active torsions:
REMARK  status: ('A' for Active; 'I' for Inactive)
REMARK    1  A    between atoms: C1_2  and  C2_3 
ROOT
ATOM      1  C2  UNL d   1      -2.997   0.345  -0.359  0.00  0.00    -0.081 A 
ATOM      2  C3  UNL d   1      -4.099  -0.495  -0.159  0.00  0.00     0.006 A 
ATOM      3  C4  UNL d   1      -5.066  -0.179   0.798  0.00  0.00     0.002 A 
ATOM      4  C5  UNL d   1      -4.951   0.985   1.566  0.00  0.00    -0.080 A 
ATOM      5  C6  UNL d   1      -5.998   1.351   2.576  0.00  0.00     0.076 C 
ATOM      6  C7  UNL d   1      -3.841   1.815   1.379  0.00  0.00     0.002 A 
ATOM      7  C8  UNL d   1      -2.873   1.500   0.422  0.00  0.00     0.006 A 
ENDROOT
BRANCH   1   8
ATOM      8  C1  UNL d   1      -1.986   0.041  -1.435  0.00  0.00     0.054 C 
ATOM      9  C   UNL d   1      -1.898   1.174  -2.448  0.00  0.00     0.018 C 
ENDBRANCH   1   8
TORSDOF 1
ENDMDL
