MODEL 1
REMARK minimizedAffinity 1.11266983
REMARK minimizedRMSD -1
REMARK  1 active torsions:
REMARK  status: ('A' for Active; 'I' for Inactive)
REMARK    1  A    between atoms: C1_2  and  C2_3 
ROOT
ATOM      1  C2  UNL d   1       2.129  -0.693  -2.582  0.00  0.00    -0.081 A 
ATOM      2  C3  UNL d   1       0.902  -1.150  -3.078  0.00  0.00     0.006 A 
ATOM      3  C4  UNL d   1      -0.178  -0.274  -3.213  0.00  0.00     0.002 A 
ATOM      4  C5  UNL d   1      -0.047   1.074  -2.862  0.00  0.00    -0.080 A 
ATOM      5  C6  UNL d   1      -1.189   2.032  -3.031  0.00  0.00     0.076 C 
ATOM      6  C7  UNL d   1       1.174   1.527  -2.350  0.00  0.00     0.002 A 
ATOM      7  C8  UNL d   1       2.254   0.652  -2.214  0.00  0.00     0.006 A 
ENDROOT
BRANCH   1   8
ATOM      8  C1  UNL d   1       3.314  -1.620  -2.495  0.00  0.00     0.054 C 
ATOM      9  C   UNL d   1       3.028  -2.799  -1.576  0.00  0.00     0.018 C 
ENDBRANCH   1   8
TORSDOF 1
ENDMDL
