MODEL 1
REMARK minimizedAffinity 8.79846096
REMARK minimizedRMSD -1
REMARK  1 active torsions:
REMARK  status: ('A' for Active; 'I' for Inactive)
REMARK    1  A    between atoms: C1_2  and  C2_3 
ROOT
ATOM      1  C2  UNL d   1      -1.951   0.584  -0.696  0.00  0.00    -0.081 A 
ATOM      2  C3  UNL d   1      -1.858   1.562  -1.694  0.00  0.00     0.006 A 
ATOM      3  C4  UNL d   1      -2.325   1.303  -2.985  0.00  0.00     0.002 A 
ATOM      4  C5  UNL d   1      -2.902   0.067  -3.297  0.00  0.00    -0.080 A 
ATOM      5  C6  UNL d   1      -3.435  -0.212  -4.670  0.00  0.00     0.076 C 
ATOM      6  C7  UNL d   1      -2.980  -0.916  -2.304  0.00  0.00     0.002 A 
ATOM      7  C8  UNL d   1      -2.511  -0.658  -1.014  0.00  0.00     0.006 A 
ENDROOT
BRANCH   1   8
ATOM      8  C1  UNL d   1      -1.507   0.882   0.713  0.00  0.00     0.054 C 
ATOM      9  C   UNL d   1      -2.597   1.599   1.497  0.00  0.00     0.018 C 
ENDBRANCH   1   8
TORSDOF 1
ENDMDL
