MODEL 1
REMARK minimizedAffinity 6.82041502
REMARK minimizedRMSD -1
REMARK  1 active torsions:
REMARK  status: ('A' for Active; 'I' for Inactive)
REMARK    1  A    between atoms: C1_2  and  C2_3 
ROOT
ATOM      1  C2  UNL d   1      -1.313   1.119  -1.761  0.00  0.00    -0.081 A 
ATOM      2  C3  UNL d   1      -0.461   1.792  -2.646  0.00  0.00     0.006 A 
ATOM      3  C4  UNL d   1      -0.716   1.782  -4.019  0.00  0.00     0.002 A 
ATOM      4  C5  UNL d   1      -1.829   1.107  -4.530  0.00  0.00    -0.080 A 
ATOM      5  C6  UNL d   1      -2.131   1.114  -5.999  0.00  0.00     0.076 C 
ATOM      6  C7  UNL d   1      -2.671   0.420  -3.648  0.00  0.00     0.002 A 
ATOM      7  C8  UNL d   1      -2.416   0.429  -2.274  0.00  0.00     0.006 A 
ENDROOT
BRANCH   1   8
ATOM      8  C1  UNL d   1      -1.077   1.182  -0.273  0.00  0.00     0.054 C 
ATOM      9  C   UNL d   1      -2.280   0.662   0.500  0.00  0.00     0.018 C 
ENDBRANCH   1   8
TORSDOF 1
ENDMDL
