MODEL 1
REMARK minimizedAffinity 5.35521555
REMARK minimizedRMSD -1
REMARK  1 active torsions:
REMARK  status: ('A' for Active; 'I' for Inactive)
REMARK    1  A    between atoms: C1_2  and  C2_3 
ROOT
ATOM      1  C2  UNL d   1       0.282   0.405  -3.178  0.00  0.00    -0.081 A 
ATOM      2  C3  UNL d   1      -0.457  -0.598  -3.817  0.00  0.00     0.006 A 
ATOM      3  C4  UNL d   1      -1.764  -0.353  -4.243  0.00  0.00     0.002 A 
ATOM      4  C5  UNL d   1      -2.352   0.901  -4.044  0.00  0.00    -0.080 A 
ATOM      5  C6  UNL d   1      -3.744   1.188  -4.523  0.00  0.00     0.076 C 
ATOM      6  C7  UNL d   1      -1.620   1.898  -3.390  0.00  0.00     0.002 A 
ATOM      7  C8  UNL d   1      -0.313   1.653  -2.963  0.00  0.00     0.006 A 
ENDROOT
BRANCH   1   8
ATOM      8  C1  UNL d   1       1.714   0.164  -2.775  0.00  0.00     0.054 C 
ATOM      9  C   UNL d   1       2.360  -0.906  -3.644  0.00  0.00     0.018 C 
ENDBRANCH   1   8
TORSDOF 1
ENDMDL
