MODEL 1
REMARK minimizedAffinity 15.1741943
REMARK minimizedRMSD -1
REMARK  1 active torsions:
REMARK  status: ('A' for Active; 'I' for Inactive)
REMARK    1  A    between atoms: C1_2  and  C2_3 
ROOT
ATOM      1  C2  UNL d   1      -5.211   1.868   3.509  0.00  0.00    -0.081 A 
ATOM      2  C3  UNL d   1      -3.823   2.051   3.484  0.00  0.00     0.006 A 
ATOM      3  C4  UNL d   1      -3.103   1.846   2.304  0.00  0.00     0.002 A 
ATOM      4  C5  UNL d   1      -3.759   1.462   1.130  0.00  0.00    -0.080 A 
ATOM      5  C6  UNL d   1      -3.002   1.268  -0.150  0.00  0.00     0.076 C 
ATOM      6  C7  UNL d   1      -5.144   1.263   1.159  0.00  0.00     0.002 A 
ATOM      7  C8  UNL d   1      -5.864   1.467   2.338  0.00  0.00     0.006 A 
ENDROOT
BRANCH   1   8
ATOM      8  C1  UNL d   1      -5.999   2.151   4.763  0.00  0.00     0.054 C 
ATOM      9  C   UNL d   1      -5.269   1.648   6.000  0.00  0.00     0.018 C 
ENDBRANCH   1   8
TORSDOF 1
ENDMDL
