MODEL 1
REMARK minimizedAffinity -0.124598861
REMARK minimizedRMSD -1
REMARK  1 active torsions:
REMARK  status: ('A' for Active; 'I' for Inactive)
REMARK    1  A    between atoms: C1_2  and  C2_3 
ROOT
ATOM      1  C2  UNL d   1       1.248   0.673  -3.246  0.00  0.00    -0.081 A 
ATOM      2  C3  UNL d   1       0.397  -0.350  -3.681  0.00  0.00     0.006 A 
ATOM      3  C4  UNL d   1      -0.967  -0.108  -3.862  0.00  0.00     0.002 A 
ATOM      4  C5  UNL d   1      -1.500   1.163  -3.620  0.00  0.00    -0.080 A 
ATOM      5  C6  UNL d   1      -2.957   1.444  -3.840  0.00  0.00     0.076 C 
ATOM      6  C7  UNL d   1      -0.653   2.180  -3.169  0.00  0.00     0.002 A 
ATOM      7  C8  UNL d   1       0.710   1.938  -2.986  0.00  0.00     0.006 A 
ENDROOT
BRANCH   1   8
ATOM      8  C1  UNL d   1       2.730   0.432  -3.111  0.00  0.00     0.054 C 
ATOM      9  C   UNL d   1       3.262  -0.403  -4.268  0.00  0.00     0.018 C 
ENDBRANCH   1   8
TORSDOF 1
ENDMDL
