MODEL 1
REMARK minimizedAffinity -1.80346203
REMARK minimizedRMSD -1
REMARK  1 active torsions:
REMARK  status: ('A' for Active; 'I' for Inactive)
REMARK    1  A    between atoms: C1_2  and  C2_3 
ROOT
ATOM      1  C2  UNL d   1      -0.965   0.914  -4.293  0.00  0.00    -0.081 A 
ATOM      2  C3  UNL d   1      -0.340  -0.282  -3.921  0.00  0.00     0.006 A 
ATOM      3  C4  UNL d   1       0.728  -0.272  -3.020  0.00  0.00     0.002 A 
ATOM      4  C5  UNL d   1       1.182   0.931  -2.470  0.00  0.00    -0.080 A 
ATOM      5  C6  UNL d   1       2.307   0.952  -1.478  0.00  0.00     0.076 C 
ATOM      6  C7  UNL d   1       0.568   2.128  -2.855  0.00  0.00     0.002 A 
ATOM      7  C8  UNL d   1      -0.498   2.119  -3.757  0.00  0.00     0.006 A 
ENDROOT
BRANCH   1   8
ATOM      8  C1  UNL d   1      -2.158   0.901  -5.215  0.00  0.00     0.054 C 
ATOM      9  C   UNL d   1      -2.591  -0.522  -5.539  0.00  0.00     0.018 C 
ENDBRANCH   1   8
TORSDOF 1
ENDMDL
