MODEL 1
REMARK minimizedAffinity 12.7617655
REMARK minimizedRMSD -1
REMARK  1 active torsions:
REMARK  status: ('A' for Active; 'I' for Inactive)
REMARK    1  A    between atoms: C1_2  and  C2_3 
ROOT
ATOM      1  C2  UNL d   1       0.023  -5.139   1.375  0.00  0.00    -0.081 A 
ATOM      2  C3  UNL d   1       0.035  -4.033   2.234  0.00  0.00     0.006 A 
ATOM      3  C4  UNL d   1       1.159  -3.208   2.311  0.00  0.00     0.002 A 
ATOM      4  C5  UNL d   1       2.287  -3.470   1.526  0.00  0.00    -0.080 A 
ATOM      5  C6  UNL d   1       3.489  -2.574   1.577  0.00  0.00     0.076 C 
ATOM      6  C7  UNL d   1       2.282  -4.584   0.680  0.00  0.00     0.002 A 
ATOM      7  C8  UNL d   1       1.158  -5.410   0.603  0.00  0.00     0.006 A 
ENDROOT
BRANCH   1   8
ATOM      8  C1  UNL d   1      -1.212  -5.993   1.241  0.00  0.00     0.054 C 
ATOM      9  C   UNL d   1      -2.369  -5.203   0.647  0.00  0.00     0.018 C 
ENDBRANCH   1   8
TORSDOF 1
ENDMDL
