MODEL 1
REMARK minimizedAffinity 10.885643
REMARK minimizedRMSD -1
REMARK  1 active torsions:
REMARK  status: ('A' for Active; 'I' for Inactive)
REMARK    1  A    between atoms: C1_2  and  C2_3 
ROOT
ATOM      1  C2  UNL d   1      -0.905   1.740  -3.206  0.00  0.00    -0.081 A 
ATOM      2  C3  UNL d   1      -0.957   0.352  -3.030  0.00  0.00     0.006 A 
ATOM      3  C4  UNL d   1      -1.671  -0.449  -3.923  0.00  0.00     0.002 A 
ATOM      4  C5  UNL d   1      -2.339   0.123  -5.011  0.00  0.00    -0.080 A 
ATOM      5  C6  UNL d   1      -3.085  -0.729  -5.995  0.00  0.00     0.076 C 
ATOM      6  C7  UNL d   1      -2.302   1.512  -5.178  0.00  0.00     0.002 A 
ATOM      7  C8  UNL d   1      -1.588   2.313  -4.284  0.00  0.00     0.006 A 
ENDROOT
BRANCH   1   8
ATOM      8  C1  UNL d   1      -0.082   2.600  -2.281  0.00  0.00     0.054 C 
ATOM      9  C   UNL d   1       1.385   2.192  -2.305  0.00  0.00     0.018 C 
ENDBRANCH   1   8
TORSDOF 1
ENDMDL
