MODEL 1
REMARK minimizedAffinity 2.20089626
REMARK minimizedRMSD -1
REMARK  1 active torsions:
REMARK  status: ('A' for Active; 'I' for Inactive)
REMARK    1  A    between atoms: C1_2  and  C2_3 
ROOT
ATOM      1  C2  UNL d   1      -1.535   0.971  -1.194  0.00  0.00    -0.081 A 
ATOM      2  C3  UNL d   1      -1.466   1.890  -2.248  0.00  0.00     0.006 A 
ATOM      3  C4  UNL d   1      -1.770   1.496  -3.553  0.00  0.00     0.002 A 
ATOM      4  C5  UNL d   1      -2.156   0.179  -3.824  0.00  0.00    -0.080 A 
ATOM      5  C6  UNL d   1      -2.514  -0.250  -5.216  0.00  0.00     0.076 C 
ATOM      6  C7  UNL d   1      -2.207  -0.744  -2.774  0.00  0.00     0.002 A 
ATOM      7  C8  UNL d   1      -1.903  -0.351  -1.470  0.00  0.00     0.006 A 
ENDROOT
BRANCH   1   8
ATOM      8  C1  UNL d   1      -1.270   1.409   0.224  0.00  0.00     0.054 C 
ATOM      9  C   UNL d   1      -2.562   1.520   1.019  0.00  0.00     0.018 C 
ENDBRANCH   1   8
TORSDOF 1
ENDMDL
