MODEL 1
REMARK minimizedAffinity 0.45374763
REMARK minimizedRMSD -1
REMARK  1 active torsions:
REMARK  status: ('A' for Active; 'I' for Inactive)
REMARK    1  A    between atoms: C1_2  and  C2_3 
ROOT
ATOM      1  C2  UNL d   1       1.615   1.068  -2.199  0.00  0.00    -0.081 A 
ATOM      2  C3  UNL d   1       0.446   1.828  -2.326  0.00  0.00     0.006 A 
ATOM      3  C4  UNL d   1      -0.654   1.324  -3.024  0.00  0.00     0.002 A 
ATOM      4  C5  UNL d   1      -0.606   0.050  -3.600  0.00  0.00    -0.080 A 
ATOM      5  C6  UNL d   1      -1.790  -0.514  -4.327  0.00  0.00     0.076 C 
ATOM      6  C7  UNL d   1       0.568  -0.702  -3.489  0.00  0.00     0.002 A 
ATOM      7  C8  UNL d   1       1.669  -0.198  -2.791  0.00  0.00     0.006 A 
ENDROOT
BRANCH   1   8
ATOM      8  C1  UNL d   1       2.779   1.582  -1.391  0.00  0.00     0.054 C 
ATOM      9  C   UNL d   1       2.493   1.509   0.102  0.00  0.00     0.018 C 
ENDBRANCH   1   8
TORSDOF 1
ENDMDL
