MODEL 1
REMARK minimizedAffinity -1.94301784
REMARK minimizedRMSD -1
REMARK  1 active torsions:
REMARK  status: ('A' for Active; 'I' for Inactive)
REMARK    1  A    between atoms: C1_2  and  C2_3 
ROOT
ATOM      1  C2  UNL d   1       0.688   0.984  -3.178  0.00  0.00    -0.081 A 
ATOM      2  C3  UNL d   1       1.902   1.680  -3.234  0.00  0.00     0.006 A 
ATOM      3  C4  UNL d   1       3.074   1.030  -3.628  0.00  0.00     0.002 A 
ATOM      4  C5  UNL d   1       3.051  -0.324  -3.979  0.00  0.00    -0.080 A 
ATOM      5  C6  UNL d   1       4.297  -1.026  -4.432  0.00  0.00     0.076 C 
ATOM      6  C7  UNL d   1       1.842  -1.024  -3.906  0.00  0.00     0.002 A 
ATOM      7  C8  UNL d   1       0.670  -0.375  -3.512  0.00  0.00     0.006 A 
ENDROOT
BRANCH   1   8
ATOM      8  C1  UNL d   1      -0.589   1.697  -2.816  0.00  0.00     0.054 C 
ATOM      9  C   UNL d   1      -1.405   2.034  -4.056  0.00  0.00     0.018 C 
ENDBRANCH   1   8
TORSDOF 1
ENDMDL
