MODEL 1
REMARK minimizedAffinity 4.61595631
REMARK minimizedRMSD -1
REMARK  1 active torsions:
REMARK  status: ('A' for Active; 'I' for Inactive)
REMARK    1  A    between atoms: C1_2  and  C2_3 
ROOT
ATOM      1  C2  UNL d   1       1.581  -0.027  -0.763  0.00  0.00    -0.077 A 
ATOM      2  C3  UNL d   1       1.058  -0.451  -1.993  0.00  0.00     0.002 A 
ATOM      3  C4  UNL d   1       1.904  -0.949  -2.986  0.00  0.00     0.002 A 
ATOM      4  C5  UNL d   1       3.276  -1.032  -2.758  0.00  0.00    -0.004 A 
ATOM      5  C6  UNL d   1       3.805  -0.611  -1.539  0.00  0.00     0.002 A 
ATOM      6  C7  UNL d   1       2.962  -0.112  -0.546  0.00  0.00     0.002 A 
ENDROOT
BRANCH   1   7
ATOM      7  C1  UNL d   1       0.665   0.464   0.327  0.00  0.00     0.055 C 
ATOM      8  C   UNL d   1       1.296   1.609   1.107  0.00  0.00     0.019 C 
ENDBRANCH   1   7
TORSDOF 1
ENDMDL
