MODEL 1
REMARK minimizedAffinity -1.19999337
REMARK minimizedRMSD -1
REMARK  1 active torsions:
REMARK  status: ('A' for Active; 'I' for Inactive)
REMARK    1  A    between atoms: C1_2  and  C2_3 
ROOT
ATOM      1  C2  UNL d   1       2.324  -0.493  -1.109  0.00  0.00    -0.077 A 
ATOM      2  C3  UNL d   1       2.747   0.843  -1.079  0.00  0.00     0.002 A 
ATOM      3  C4  UNL d   1       2.075   1.779  -0.290  0.00  0.00     0.002 A 
ATOM      4  C5  UNL d   1       0.979   1.388   0.476  0.00  0.00    -0.004 A 
ATOM      5  C6  UNL d   1       0.549   0.062   0.450  0.00  0.00     0.002 A 
ATOM      6  C7  UNL d   1       1.219  -0.875  -0.338  0.00  0.00     0.002 A 
ENDROOT
BRANCH   1   7
ATOM      7  C1  UNL d   1       3.078  -1.514  -1.921  0.00  0.00     0.055 C 
ATOM      8  C   UNL d   1       4.357  -1.945  -1.218  0.00  0.00     0.019 C 
ENDBRANCH   1   7
TORSDOF 1
ENDMDL
