MODEL 1
REMARK minimizedAffinity -4.09241343
REMARK minimizedRMSD -1
REMARK  1 active torsions:
REMARK  status: ('A' for Active; 'I' for Inactive)
REMARK    1  A    between atoms: C1_2  and  C2_3 
ROOT
ATOM      1  C2  UNL d   1      -3.872   2.123  -5.573  0.00  0.00    -0.077 A 
ATOM      2  C3  UNL d   1      -5.198   1.670  -5.542  0.00  0.00     0.002 A 
ATOM      3  C4  UNL d   1      -5.487   0.315  -5.718  0.00  0.00     0.002 A 
ATOM      4  C5  UNL d   1      -4.455  -0.598  -5.921  0.00  0.00    -0.004 A 
ATOM      5  C6  UNL d   1      -3.132  -0.158  -5.956  0.00  0.00     0.002 A 
ATOM      6  C7  UNL d   1      -2.842   1.196  -5.782  0.00  0.00     0.002 A 
ENDROOT
BRANCH   1   7
ATOM      7  C1  UNL d   1      -3.555   3.576  -5.335  0.00  0.00     0.055 C 
ATOM      8  C   UNL d   1      -4.612   4.481  -5.950  0.00  0.00     0.019 C 
ENDBRANCH   1   7
TORSDOF 1
ENDMDL
