MODEL 1
REMARK minimizedAffinity -1.92923224
REMARK minimizedRMSD -1
REMARK  1 active torsions:
REMARK  status: ('A' for Active; 'I' for Inactive)
REMARK    1  A    between atoms: C1_2  and  C2_3 
ROOT
ATOM      1  C2  UNL d   1      -4.165   1.416  -5.931  0.00  0.00    -0.077 A 
ATOM      2  C3  UNL d   1      -5.315   2.216  -5.999  0.00  0.00     0.002 A 
ATOM      3  C4  UNL d   1      -5.208   3.608  -5.999  0.00  0.00     0.002 A 
ATOM      4  C5  UNL d   1      -3.955   4.212  -5.935  0.00  0.00    -0.004 A 
ATOM      5  C6  UNL d   1      -2.805   3.426  -5.865  0.00  0.00     0.002 A 
ATOM      6  C7  UNL d   1      -2.910   2.034  -5.863  0.00  0.00     0.002 A 
ENDROOT
BRANCH   1   7
ATOM      7  C1  UNL d   1      -4.275  -0.085  -5.980  0.00  0.00     0.055 C 
ATOM      8  C   UNL d   1      -4.192  -0.693  -4.588  0.00  0.00     0.019 C 
ENDBRANCH   1   7
TORSDOF 1
ENDMDL
