MODEL 1
REMARK minimizedAffinity 4.35778141
REMARK minimizedRMSD -1
REMARK  1 active torsions:
REMARK  status: ('A' for Active; 'I' for Inactive)
REMARK    1  A    between atoms: C1_2  and  C2_3 
ROOT
ATOM      1  C2  UNL d   1      -4.324   2.829  -5.989  0.00  0.00    -0.077 A 
ATOM      2  C3  UNL d   1      -3.912   1.489  -5.969  0.00  0.00     0.002 A 
ATOM      3  C4  UNL d   1      -2.553   1.168  -5.944  0.00  0.00     0.002 A 
ATOM      4  C5  UNL d   1      -1.596   2.180  -5.935  0.00  0.00    -0.004 A 
ATOM      5  C6  UNL d   1      -1.996   3.516  -5.957  0.00  0.00     0.002 A 
ATOM      6  C7  UNL d   1      -3.353   3.839  -5.983  0.00  0.00     0.002 A 
ENDROOT
BRANCH   1   7
ATOM      7  C1  UNL d   1      -5.789   3.178  -5.966  0.00  0.00     0.055 C 
ATOM      8  C   UNL d   1      -6.000   4.684  -5.989  0.00  0.00     0.019 C 
ENDBRANCH   1   7
TORSDOF 1
ENDMDL
