MODEL 1
REMARK minimizedAffinity 1.25938725
REMARK minimizedRMSD -1
REMARK  1 active torsions:
REMARK  status: ('A' for Active; 'I' for Inactive)
REMARK    1  A    between atoms: C1_2  and  C2_3 
ROOT
ATOM      1  C2  UNL d   1       2.084  -0.317  -0.813  0.00  0.00    -0.077 A 
ATOM      2  C3  UNL d   1       1.280   0.220   0.202  0.00  0.00     0.002 A 
ATOM      3  C4  UNL d   1      -0.065   0.506  -0.038  0.00  0.00     0.002 A 
ATOM      4  C5  UNL d   1      -0.619   0.255  -1.292  0.00  0.00    -0.004 A 
ATOM      5  C6  UNL d   1       0.173  -0.277  -2.309  0.00  0.00     0.002 A 
ATOM      6  C7  UNL d   1       1.518  -0.562  -2.071  0.00  0.00     0.002 A 
ENDROOT
BRANCH   1   7
ATOM      7  C1  UNL d   1       3.522  -0.672  -0.541  0.00  0.00     0.055 C 
ATOM      8  C   UNL d   1       3.824  -2.108  -0.943  0.00  0.00     0.019 C 
ENDBRANCH   1   7
TORSDOF 1
ENDMDL
