MODEL 1
REMARK minimizedAffinity -2.06613898
REMARK minimizedRMSD -1
REMARK  1 active torsions:
REMARK  status: ('A' for Active; 'I' for Inactive)
REMARK    1  A    between atoms: C1_2  and  C2_3 
ROOT
ATOM      1  C2  UNL d   1      -3.660  -0.341  -5.992  0.00  0.00    -0.077 A 
ATOM      2  C3  UNL d   1      -2.263  -0.219  -5.999  0.00  0.00     0.002 A 
ATOM      3  C4  UNL d   1      -1.665   1.043  -5.999  0.00  0.00     0.002 A 
ATOM      4  C5  UNL d   1      -2.455   2.190  -5.988  0.00  0.00    -0.004 A 
ATOM      5  C6  UNL d   1      -3.844   2.079  -5.982  0.00  0.00     0.002 A 
ATOM      6  C7  UNL d   1      -4.444   0.819  -5.984  0.00  0.00     0.002 A 
ENDROOT
BRANCH   1   7
ATOM      7  C1  UNL d   1      -4.307  -1.701  -5.942  0.00  0.00     0.055 C 
ATOM      8  C   UNL d   1      -3.637  -2.595  -4.909  0.00  0.00     0.019 C 
ENDBRANCH   1   7
TORSDOF 1
ENDMDL
