MODEL 1
REMARK minimizedAffinity -3.14457488
REMARK minimizedRMSD -1
REMARK  1 active torsions:
REMARK  status: ('A' for Active; 'I' for Inactive)
REMARK    1  A    between atoms: C1_2  and  C2_3 
ROOT
ATOM      1  C2  UNL d   1      -3.044  -4.670  -5.976  0.00  0.00    -0.077 A 
ATOM      2  C3  UNL d   1      -2.309  -3.476  -5.980  0.00  0.00     0.002 A 
ATOM      3  C4  UNL d   1      -2.964  -2.243  -5.993  0.00  0.00     0.002 A 
ATOM      4  C5  UNL d   1      -4.356  -2.192  -5.998  0.00  0.00    -0.004 A 
ATOM      5  C6  UNL d   1      -5.097  -3.374  -5.996  0.00  0.00     0.002 A 
ATOM      6  C7  UNL d   1      -4.443  -4.607  -5.984  0.00  0.00     0.002 A 
ENDROOT
BRANCH   1   7
ATOM      7  C1  UNL d   1      -2.340  -6.000  -5.912  0.00  0.00     0.055 C 
ATOM      8  C   UNL d   1      -1.103  -5.929  -5.028  0.00  0.00     0.019 C 
ENDBRANCH   1   7
TORSDOF 1
ENDMDL
