MODEL 1
REMARK minimizedAffinity -1.31366217
REMARK minimizedRMSD -1
REMARK  1 active torsions:
REMARK  status: ('A' for Active; 'I' for Inactive)
REMARK    1  A    between atoms: C1_2  and  C2_3 
ROOT
ATOM      1  C2  UNL d   1      -2.148   4.903   5.957  0.00  0.00    -0.077 A 
ATOM      2  C3  UNL d   1      -3.493   5.297   5.940  0.00  0.00     0.002 A 
ATOM      3  C4  UNL d   1      -4.510   4.339   5.952  0.00  0.00     0.002 A 
ATOM      4  C5  UNL d   1      -4.192   2.983   5.985  0.00  0.00    -0.004 A 
ATOM      5  C6  UNL d   1      -2.856   2.582   6.000  0.00  0.00     0.002 A 
ATOM      6  C7  UNL d   1      -1.839   3.537   5.986  0.00  0.00     0.002 A 
ENDROOT
BRANCH   1   7
ATOM      7  C1  UNL d   1      -1.051   5.935   5.994  0.00  0.00     0.055 C 
ATOM      8  C   UNL d   1       0.177   5.464   5.227  0.00  0.00     0.019 C 
ENDBRANCH   1   7
TORSDOF 1
ENDMDL
