MODEL 1
REMARK minimizedAffinity 12.0917912
REMARK minimizedRMSD -1
REMARK  1 active torsions:
REMARK  status: ('A' for Active; 'I' for Inactive)
REMARK    1  A    between atoms: C1_2  and  C2_3 
ROOT
ATOM      1  C2  UNL d   1       0.317  -1.979   1.842  0.00  0.00    -0.077 A 
ATOM      2  C3  UNL d   1       0.398  -3.148   1.073  0.00  0.00     0.002 A 
ATOM      3  C4  UNL d   1       1.578  -3.472   0.402  0.00  0.00     0.002 A 
ATOM      4  C5  UNL d   1       2.688  -2.634   0.496  0.00  0.00    -0.004 A 
ATOM      5  C6  UNL d   1       2.617  -1.468   1.257  0.00  0.00     0.002 A 
ATOM      6  C7  UNL d   1       1.437  -1.142   1.928  0.00  0.00     0.002 A 
ENDROOT
BRANCH   1   7
ATOM      7  C1  UNL d   1      -0.939  -1.653   2.607  0.00  0.00     0.055 C 
ATOM      8  C   UNL d   1      -1.746  -2.908   2.907  0.00  0.00     0.019 C 
ENDBRANCH   1   7
TORSDOF 1
ENDMDL
