MODEL 1
REMARK minimizedAffinity 3.41458559
REMARK minimizedRMSD -1
REMARK  1 active torsions:
REMARK  status: ('A' for Active; 'I' for Inactive)
REMARK    1  A    between atoms: C1_2  and  C2_3 
ROOT
ATOM      1  C2  UNL d   1       2.293  -4.253   0.379  0.00  0.00    -0.077 A 
ATOM      2  C3  UNL d   1       3.258  -3.564   1.127  0.00  0.00     0.002 A 
ATOM      3  C4  UNL d   1       3.054  -2.230   1.486  0.00  0.00     0.002 A 
ATOM      4  C5  UNL d   1       1.885  -1.575   1.104  0.00  0.00    -0.004 A 
ATOM      5  C6  UNL d   1       0.920  -2.251   0.359  0.00  0.00     0.002 A 
ATOM      6  C7  UNL d   1       1.123  -3.584  -0.001  0.00  0.00     0.002 A 
ENDROOT
BRANCH   1   7
ATOM      7  C1  UNL d   1       2.489  -5.706   0.034  0.00  0.00     0.055 C 
ATOM      8  C   UNL d   1       3.938  -5.998  -0.331  0.00  0.00     0.019 C 
ENDBRANCH   1   7
TORSDOF 1
ENDMDL
