MODEL 1
REMARK minimizedAffinity 5.40397882
REMARK minimizedRMSD -1
REMARK  1 active torsions:
REMARK  status: ('A' for Active; 'I' for Inactive)
REMARK    1  A    between atoms: C1_2  and  C2_3 
ROOT
ATOM      1  C2  UNL d   1      -0.140  -1.831   0.937  0.00  0.00    -0.077 A 
ATOM      2  C3  UNL d   1       0.624  -2.545   0.004  0.00  0.00     0.002 A 
ATOM      3  C4  UNL d   1       2.007  -2.655   0.159  0.00  0.00     0.002 A 
ATOM      4  C5  UNL d   1       2.637  -2.056   1.248  0.00  0.00    -0.004 A 
ATOM      5  C6  UNL d   1       1.886  -1.342   2.181  0.00  0.00     0.002 A 
ATOM      6  C7  UNL d   1       0.504  -1.230   2.026  0.00  0.00     0.002 A 
ENDROOT
BRANCH   1   7
ATOM      7  C1  UNL d   1      -1.638  -1.753   0.798  0.00  0.00     0.055 C 
ATOM      8  C   UNL d   1      -2.042  -1.315  -0.602  0.00  0.00     0.019 C 
ENDBRANCH   1   7
TORSDOF 1
ENDMDL
