MODEL 1
REMARK minimizedAffinity 5.62037659
REMARK minimizedRMSD -1
REMARK  1 active torsions:
REMARK  status: ('A' for Active; 'I' for Inactive)
REMARK    1  A    between atoms: C1_2  and  C2_3 
ROOT
ATOM      1  C2  UNL d   1       1.415  -1.855   1.291  0.00  0.00    -0.077 A 
ATOM      2  C3  UNL d   1       1.585  -1.145   2.488  0.00  0.00     0.002 A 
ATOM      3  C4  UNL d   1       0.476  -0.743   3.235  0.00  0.00     0.002 A 
ATOM      4  C5  UNL d   1      -0.810  -1.049   2.795  0.00  0.00    -0.004 A 
ATOM      5  C6  UNL d   1      -0.990  -1.752   1.605  0.00  0.00     0.002 A 
ATOM      6  C7  UNL d   1       0.117  -2.154   0.857  0.00  0.00     0.002 A 
ENDROOT
BRANCH   1   7
ATOM      7  C1  UNL d   1       2.611  -2.333   0.510  0.00  0.00     0.055 C 
ATOM      8  C   UNL d   1       2.431  -3.771   0.047  0.00  0.00     0.019 C 
ENDBRANCH   1   7
TORSDOF 1
ENDMDL
