MODEL 1
REMARK minimizedAffinity 9.45960331
REMARK minimizedRMSD -1
REMARK  1 active torsions:
REMARK  status: ('A' for Active; 'I' for Inactive)
REMARK    1  A    between atoms: C1_2  and  C2_3 
ROOT
ATOM      1  C2  UNL d   1      -2.843   2.771  -3.672  0.00  0.00    -0.077 A 
ATOM      2  C3  UNL d   1      -2.751   2.083  -2.454  0.00  0.00     0.002 A 
ATOM      3  C4  UNL d   1      -1.570   1.427  -2.101  0.00  0.00     0.002 A 
ATOM      4  C5  UNL d   1      -0.471   1.458  -2.958  0.00  0.00    -0.004 A 
ATOM      5  C6  UNL d   1      -0.554   2.137  -4.173  0.00  0.00     0.002 A 
ATOM      6  C7  UNL d   1      -1.735   2.792  -4.528  0.00  0.00     0.002 A 
ENDROOT
BRANCH   1   7
ATOM      7  C1  UNL d   1      -4.100   3.519  -4.033  0.00  0.00     0.055 C 
ATOM      8  C   UNL d   1      -5.089   2.622  -4.762  0.00  0.00     0.019 C 
ENDBRANCH   1   7
TORSDOF 1
ENDMDL
