MODEL 1
REMARK minimizedAffinity 13.8197765
REMARK minimizedRMSD -1
REMARK  1 active torsions:
REMARK  status: ('A' for Active; 'I' for Inactive)
REMARK    1  A    between atoms: C1_2  and  C2_3 
ROOT
ATOM      1  C2  UNL d   1       0.566  -2.966   0.289  0.00  0.00    -0.077 A 
ATOM      2  C3  UNL d   1       1.121  -1.821   0.878  0.00  0.00     0.002 A 
ATOM      3  C4  UNL d   1       0.357  -1.026   1.735  0.00  0.00     0.002 A 
ATOM      4  C5  UNL d   1      -0.964  -1.370   2.013  0.00  0.00    -0.004 A 
ATOM      5  C6  UNL d   1      -1.526  -2.505   1.430  0.00  0.00     0.002 A 
ATOM      6  C7  UNL d   1      -0.764  -3.300   0.572  0.00  0.00     0.002 A 
ENDROOT
BRANCH   1   7
ATOM      7  C1  UNL d   1       1.404  -3.851  -0.596  0.00  0.00     0.055 C 
ATOM      8  C   UNL d   1       1.138  -5.323  -0.318  0.00  0.00     0.019 C 
ENDBRANCH   1   7
TORSDOF 1
ENDMDL
