MODEL 1
REMARK minimizedAffinity -1.78828108
REMARK minimizedRMSD -1
REMARK  0 active torsions:
REMARK  status: ('A' for Active; 'I' for Inactive)
ROOT
ATOM      1  C4' PXY d   1       5.194   2.445  -1.602  0.00  0.00     0.077 C 
ATOM      2  C1' PXY d   1       0.935  -1.014   0.217  0.00  0.00     0.077 C 
ATOM      3  C1  PXY d   1       2.060  -0.117  -0.261  0.00  0.00    -0.082 A 
ATOM      4  C2  PXY d   1       2.061   1.164   0.070  0.00  0.00     0.003 A 
ATOM      5  C3  PXY d   1       3.053   1.996  -0.381  0.00  0.00     0.003 A 
ATOM      6  C4  PXY d   1       4.084   1.500  -1.134  0.00  0.00    -0.082 A 
ATOM      7  C5  PXY d   1       4.096   0.192  -1.467  0.00  0.00     0.003 A 
ATOM      8  C6  PXY d   1       3.057  -0.627  -1.034  0.00  0.00     0.003 A 
ENDROOT
TORSDOF 0
ENDMDL
