MODEL 1
REMARK minimizedAffinity -0.133143947
REMARK minimizedRMSD -1
REMARK  0 active torsions:
REMARK  status: ('A' for Active; 'I' for Inactive)
ROOT
ATOM      1  C4' PXY d   1       1.100  -1.228  -0.417  0.00  0.00     0.077 C 
ATOM      2  C1' PXY d   1       4.978   3.019  -1.000  0.00  0.00     0.077 C 
ATOM      3  C1  PXY d   1       3.959   1.909  -0.835  0.00  0.00    -0.082 A 
ATOM      4  C2  PXY d   1       4.018   0.845  -1.619  0.00  0.00     0.003 A 
ATOM      5  C3  PXY d   1       3.085  -0.154  -1.504  0.00  0.00     0.003 A 
ATOM      6  C4  PXY d   1       2.114  -0.087  -0.542  0.00  0.00    -0.082 A 
ATOM      7  C5  PXY d   1       2.053   0.991   0.269  0.00  0.00     0.003 A 
ATOM      8  C6  PXY d   1       2.984   2.013   0.109  0.00  0.00     0.003 A 
ENDROOT
TORSDOF 0
ENDMDL
