MODEL 1
REMARK minimizedAffinity -2.12207317
REMARK minimizedRMSD -1
REMARK  0 active torsions:
REMARK  status: ('A' for Active; 'I' for Inactive)
ROOT
ATOM      1  C4' PXY d   1       4.719   2.725  -0.815  0.00  0.00     0.077 C 
ATOM      2  C1' PXY d   1       0.764  -1.437  -0.143  0.00  0.00     0.077 C 
ATOM      3  C1  PXY d   1       1.791  -0.336  -0.319  0.00  0.00    -0.082 A 
ATOM      4  C2  PXY d   1       2.964  -0.618  -0.863  0.00  0.00     0.003 A 
ATOM      5  C3  PXY d   1       3.917   0.359  -1.001  0.00  0.00     0.003 A 
ATOM      6  C4  PXY d   1       3.647   1.648  -0.626  0.00  0.00    -0.082 A 
ATOM      7  C5  PXY d   1       2.449   1.945  -0.080  0.00  0.00     0.003 A 
ATOM      8  C6  PXY d   1       1.510   0.931   0.088  0.00  0.00     0.003 A 
ENDROOT
TORSDOF 0
ENDMDL
