MODEL 1
REMARK minimizedAffinity 2.29456949
REMARK minimizedRMSD -1
REMARK  0 active torsions:
REMARK  status: ('A' for Active; 'I' for Inactive)
ROOT
ATOM      1  C4' PXY d   1       1.071  -2.606  -0.023  0.00  0.00     0.077 C 
ATOM      2  C1' PXY d   1       3.904   2.083  -1.867  0.00  0.00     0.077 C 
ATOM      3  C1  PXY d   1       3.158   0.850  -1.396  0.00  0.00    -0.082 A 
ATOM      4  C2  PXY d   1       2.703   0.796  -0.155  0.00  0.00     0.003 A 
ATOM      5  C3  PXY d   1       2.054  -0.324   0.298  0.00  0.00     0.003 A 
ATOM      6  C4  PXY d   1       1.822  -1.378  -0.545  0.00  0.00    -0.082 A 
ATOM      7  C5  PXY d   1       2.273  -1.326  -1.816  0.00  0.00     0.003 A 
ATOM      8  C6  PXY d   1       2.966  -0.197  -2.244  0.00  0.00     0.003 A 
ENDROOT
TORSDOF 0
ENDMDL
