MODEL 1
REMARK minimizedAffinity 3.34936142
REMARK minimizedRMSD -1
REMARK  0 active torsions:
REMARK  status: ('A' for Active; 'I' for Inactive)
ROOT
ATOM      1  C4' PXY d   1       2.119  -1.039  -0.860  0.00  0.00     0.077 C 
ATOM      2  C1' PXY d   1       4.512   4.176  -0.163  0.00  0.00     0.077 C 
ATOM      3  C1  PXY d   1       3.876   2.811  -0.336  0.00  0.00    -0.082 A 
ATOM      4  C2  PXY d   1       4.560   1.840  -0.921  0.00  0.00     0.003 A 
ATOM      5  C3  PXY d   1       3.989   0.609  -1.114  0.00  0.00     0.003 A 
ATOM      6  C4  PXY d   1       2.724   0.352  -0.656  0.00  0.00    -0.082 A 
ATOM      7  C5  PXY d   1       2.024   1.334  -0.049  0.00  0.00     0.003 A 
ATOM      8  C6  PXY d   1       2.607   2.589   0.101  0.00  0.00     0.003 A 
ENDROOT
TORSDOF 0
ENDMDL
