MODEL 1
REMARK minimizedAffinity 7.3741827
REMARK minimizedRMSD -1
REMARK  0 active torsions:
REMARK  status: ('A' for Active; 'I' for Inactive)
ROOT
ATOM      1  C4' PXY d   1       3.021   0.248  -1.177  0.00  0.00     0.077 C 
ATOM      2  C1' PXY d   1      -1.839  -2.749  -0.273  0.00  0.00     0.077 C 
ATOM      3  C1  PXY d   1      -0.562  -1.963  -0.497  0.00  0.00    -0.082 A 
ATOM      4  C2  PXY d   1      -0.439  -1.209  -1.577  0.00  0.00     0.003 A 
ATOM      5  C3  PXY d   1       0.721  -0.517  -1.812  0.00  0.00     0.003 A 
ATOM      6  C4  PXY d   1       1.746  -0.555  -0.905  0.00  0.00    -0.082 A 
ATOM      7  C5  PXY d   1       1.624  -1.314   0.205  0.00  0.00     0.003 A 
ATOM      8  C6  PXY d   1       0.454  -2.041   0.404  0.00  0.00     0.003 A 
ENDROOT
TORSDOF 0
ENDMDL
