MODEL 1
REMARK minimizedAffinity 3.35182929
REMARK minimizedRMSD -1
REMARK  0 active torsions:
REMARK  status: ('A' for Active; 'I' for Inactive)
ROOT
ATOM      1  C4' PXY d   1       2.229   1.150   2.319  0.00  0.00     0.077 C 
ATOM      2  C1' PXY d   1       2.726  -0.736  -3.123  0.00  0.00     0.077 C 
ATOM      3  C1  PXY d   1       2.608  -0.237  -1.696  0.00  0.00    -0.082 A 
ATOM      4  C2  PXY d   1       1.705  -0.770  -0.890  0.00  0.00     0.003 A 
ATOM      5  C3  PXY d   1       1.563  -0.309   0.394  0.00  0.00     0.003 A 
ATOM      6  C4  PXY d   1       2.390   0.671   0.873  0.00  0.00    -0.082 A 
ATOM      7  C5  PXY d   1       3.322   1.212   0.060  0.00  0.00     0.003 A 
ATOM      8  C6  PXY d   1       3.422   0.759  -1.252  0.00  0.00     0.003 A 
ENDROOT
TORSDOF 0
ENDMDL
