MODEL 1
REMARK minimizedAffinity 2.3455019
REMARK minimizedRMSD -1
REMARK  0 active torsions:
REMARK  status: ('A' for Active; 'I' for Inactive)
ROOT
ATOM      1  C4' PXY d   1       4.267   2.843  -1.413  0.00  0.00     0.077 C 
ATOM      2  C1' PXY d   1       1.185  -1.909  -0.260  0.00  0.00     0.077 C 
ATOM      3  C1  PXY d   1       1.982  -0.655  -0.561  0.00  0.00    -0.082 A 
ATOM      4  C2  PXY d   1       3.129  -0.751  -1.215  0.00  0.00     0.003 A 
ATOM      5  C3  PXY d   1       3.878   0.369  -1.468  0.00  0.00     0.003 A 
ATOM      6  C4  PXY d   1       3.424   1.605  -1.095  0.00  0.00    -0.082 A 
ATOM      7  C5  PXY d   1       2.250   1.712  -0.437  0.00  0.00     0.003 A 
ATOM      8  C6  PXY d   1       1.524   0.559  -0.153  0.00  0.00     0.003 A 
ENDROOT
TORSDOF 0
ENDMDL
