MODEL 1
REMARK minimizedAffinity 0.0286084786
REMARK minimizedRMSD -1
REMARK  0 active torsions:
REMARK  status: ('A' for Active; 'I' for Inactive)
ROOT
ATOM      1  C4' PXY d   1       2.558  -2.649  -2.350  0.00  0.00     0.077 C 
ATOM      2  C1' PXY d   1       4.473   2.659  -1.099  0.00  0.00     0.077 C 
ATOM      3  C1  PXY d   1       3.970   1.264  -1.414  0.00  0.00    -0.082 A 
ATOM      4  C2  PXY d   1       4.244   0.720  -2.589  0.00  0.00     0.003 A 
ATOM      5  C3  PXY d   1       3.770  -0.528  -2.903  0.00  0.00     0.003 A 
ATOM      6  C4  PXY d   1       3.053  -1.247  -1.985  0.00  0.00    -0.082 A 
ATOM      7  C5  PXY d   1       2.778  -0.703  -0.780  0.00  0.00     0.003 A 
ATOM      8  C6  PXY d   1       3.234   0.581  -0.497  0.00  0.00     0.003 A 
ENDROOT
TORSDOF 0
ENDMDL
