MODEL 1
REMARK minimizedAffinity 13.4384346
REMARK minimizedRMSD -1
REMARK  0 active torsions:
REMARK  status: ('A' for Active; 'I' for Inactive)
ROOT
ATOM      1  C4' PXY d   1      -5.734  -0.705  -3.233  0.00  0.00     0.077 C 
ATOM      2  C1' PXY d   1      -2.747  -2.380   1.424  0.00  0.00     0.077 C 
ATOM      3  C1  PXY d   1      -3.520  -1.941   0.196  0.00  0.00    -0.082 A 
ATOM      4  C2  PXY d   1      -4.644  -1.258   0.339  0.00  0.00     0.003 A 
ATOM      5  C3  PXY d   1      -5.371  -0.881  -0.760  0.00  0.00     0.003 A 
ATOM      6  C4  PXY d   1      -4.916  -1.160  -2.021  0.00  0.00    -0.082 A 
ATOM      7  C5  PXY d   1      -3.765  -1.847  -2.176  0.00  0.00     0.003 A 
ATOM      8  C6  PXY d   1      -3.062  -2.257  -1.046  0.00  0.00     0.003 A 
ENDROOT
TORSDOF 0
ENDMDL
