MODEL 1
REMARK minimizedAffinity -0.00613074098
REMARK minimizedRMSD -1
REMARK  0 active torsions:
REMARK  status: ('A' for Active; 'I' for Inactive)
ROOT
ATOM      1  O1  BZF d   1      -2.844   3.791  -2.998  0.00  0.00    -0.204 OA
ATOM      2  C2  BZF d   1      -1.885   2.884  -3.403  0.00  0.00     0.174 A 
ATOM      3  C3  BZF d   1      -2.262   2.263  -4.539  0.00  0.00    -0.012 A 
ATOM      4  C3A BZF d   1      -3.495   2.883  -4.915  0.00  0.00    -0.107 A 
ATOM      5  C4  BZF d   1      -4.352   2.710  -5.964  0.00  0.00     0.055 A 
ATOM      6  C5  BZF d   1      -5.507   3.425  -5.999  0.00  0.00    -0.016 A 
ATOM      7  C6  BZF d   1      -5.839   4.316  -5.000  0.00  0.00     0.022 A 
ATOM      8  C7  BZF d   1      -5.019   4.526  -3.942  0.00  0.00     0.029 A 
ATOM      9  C7A BZF d   1      -3.836   3.829  -3.920  0.00  0.00     0.058 A 
ENDROOT
TORSDOF 0
ENDMDL
