MODEL 1
REMARK minimizedAffinity 2.26326561
REMARK minimizedRMSD -1
REMARK  0 active torsions:
REMARK  status: ('A' for Active; 'I' for Inactive)
ROOT
ATOM      1  O1  BZF d   1      -3.794   3.792  -3.749  0.00  0.00    -0.204 OA
ATOM      2  C2  BZF d   1      -4.947   4.456  -3.377  0.00  0.00     0.174 A 
ATOM      3  C3  BZF d   1      -6.000   3.613  -3.356  0.00  0.00    -0.012 A 
ATOM      4  C3A BZF d   1      -5.455   2.323  -3.650  0.00  0.00    -0.107 A 
ATOM      5  C4  BZF d   1      -6.000   1.076  -3.758  0.00  0.00     0.055 A 
ATOM      6  C5  BZF d   1      -5.206   0.038  -4.129  0.00  0.00    -0.016 A 
ATOM      7  C6  BZF d   1      -3.866   0.211  -4.406  0.00  0.00     0.022 A 
ATOM      8  C7  BZF d   1      -3.279   1.429  -4.308  0.00  0.00     0.029 A 
ATOM      9  C7A BZF d   1      -4.071   2.474  -3.901  0.00  0.00     0.058 A 
ENDROOT
TORSDOF 0
ENDMDL
