MODEL 1
REMARK minimizedAffinity 2.77851033
REMARK minimizedRMSD -1
REMARK  0 active torsions:
REMARK  status: ('A' for Active; 'I' for Inactive)
ROOT
ATOM      1  O1  BZF d   1       4.802   2.735  -0.009  0.00  0.00    -0.204 OA
ATOM      2  C2  BZF d   1       5.999   2.059   0.128  0.00  0.00     0.174 A 
ATOM      3  C3  BZF d   1       5.787   0.739   0.303  0.00  0.00    -0.012 A 
ATOM      4  C3A BZF d   1       4.371   0.567   0.181  0.00  0.00    -0.107 A 
ATOM      5  C4  BZF d   1       3.549  -0.522   0.243  0.00  0.00     0.055 A 
ATOM      6  C5  BZF d   1       2.205  -0.341   0.157  0.00  0.00    -0.016 A 
ATOM      7  C6  BZF d   1       1.650   0.914   0.014  0.00  0.00     0.022 A 
ATOM      8  C7  BZF d   1       2.425   2.023  -0.057  0.00  0.00     0.029 A 
ATOM      9  C7A BZF d   1       3.785   1.840  -0.004  0.00  0.00     0.058 A 
ENDROOT
TORSDOF 0
ENDMDL
