MODEL 1
REMARK minimizedAffinity 5.98669863
REMARK minimizedRMSD -1
REMARK  0 active torsions:
REMARK  status: ('A' for Active; 'I' for Inactive)
ROOT
ATOM      1  O1  BZF d   1       4.736   2.787  -0.139  0.00  0.00    -0.204 OA
ATOM      2  C2  BZF d   1       5.976   2.178  -0.144  0.00  0.00     0.174 A 
ATOM      3  C3  BZF d   1       5.849   0.835  -0.152  0.00  0.00    -0.012 A 
ATOM      4  C3A BZF d   1       4.442   0.591  -0.246  0.00  0.00    -0.107 A 
ATOM      5  C4  BZF d   1       3.689  -0.547  -0.311  0.00  0.00     0.055 A 
ATOM      6  C5  BZF d   1       2.334  -0.442  -0.321  0.00  0.00    -0.016 A 
ATOM      7  C6  BZF d   1       1.700   0.782  -0.263  0.00  0.00     0.022 A 
ATOM      8  C7  BZF d   1       2.405   1.938  -0.203  0.00  0.00     0.029 A 
ATOM      9  C7A BZF d   1       3.774   1.837  -0.225  0.00  0.00     0.058 A 
ENDROOT
TORSDOF 0
ENDMDL
