MODEL 1
REMARK minimizedAffinity 2.52640891
REMARK minimizedRMSD -1
REMARK  0 active torsions:
REMARK  status: ('A' for Active; 'I' for Inactive)
ROOT
ATOM      1  O1  BZF d   1      -3.752   3.575  -2.413  0.00  0.00    -0.204 OA
ATOM      2  C2  BZF d   1      -2.388   3.488  -2.612  0.00  0.00     0.174 A 
ATOM      3  C3  BZF d   1      -2.083   2.418  -3.374  0.00  0.00    -0.012 A 
ATOM      4  C3A BZF d   1      -3.343   1.850  -3.747  0.00  0.00    -0.107 A 
ATOM      5  C4  BZF d   1      -3.700   0.778  -4.514  0.00  0.00     0.055 A 
ATOM      6  C5  BZF d   1      -5.014   0.449  -4.618  0.00  0.00    -0.016 A 
ATOM      7  C6  BZF d   1      -5.996   1.166  -3.967  0.00  0.00     0.022 A 
ATOM      8  C7  BZF d   1      -5.692   2.241  -3.199  0.00  0.00     0.029 A 
ATOM      9  C7A BZF d   1      -4.367   2.595  -3.117  0.00  0.00     0.058 A 
ENDROOT
TORSDOF 0
ENDMDL
