MODEL 1
REMARK minimizedAffinity 7.05001068
REMARK minimizedRMSD -1
REMARK  0 active torsions:
REMARK  status: ('A' for Active; 'I' for Inactive)
ROOT
ATOM      1  O1  BZF d   1      -5.750   1.830  -1.384  0.00  0.00    -0.204 OA
ATOM      2  C2  BZF d   1      -6.000   0.691  -0.645  0.00  0.00     0.174 A 
ATOM      3  C3  BZF d   1      -5.286  -0.352  -1.116  0.00  0.00    -0.012 A 
ATOM      4  C3A BZF d   1      -4.474   0.191  -2.162  0.00  0.00    -0.107 A 
ATOM      5  C4  BZF d   1      -3.539  -0.347  -3.000  0.00  0.00     0.055 A 
ATOM      6  C5  BZF d   1      -2.982   0.438  -3.959  0.00  0.00    -0.016 A 
ATOM      7  C6  BZF d   1      -3.339   1.761  -4.111  0.00  0.00     0.022 A 
ATOM      8  C7  BZF d   1      -4.257   2.341  -3.301  0.00  0.00     0.029 A 
ATOM      9  C7A BZF d   1      -4.798   1.559  -2.309  0.00  0.00     0.058 A 
ENDROOT
TORSDOF 0
ENDMDL
