MODEL 1
REMARK minimizedAffinity 7.34209156
REMARK minimizedRMSD -1
REMARK  0 active torsions:
REMARK  status: ('A' for Active; 'I' for Inactive)
ROOT
ATOM      1  O1  BZF d   1       4.856   2.992   0.976  0.00  0.00    -0.204 OA
ATOM      2  C2  BZF d   1       5.997   2.907   0.202  0.00  0.00     0.174 A 
ATOM      3  C3  BZF d   1       5.855   1.974  -0.761  0.00  0.00    -0.012 A 
ATOM      4  C3A BZF d   1       4.509   1.506  -0.635  0.00  0.00    -0.107 A 
ATOM      5  C4  BZF d   1       3.767   0.587  -1.320  0.00  0.00     0.055 A 
ATOM      6  C5  BZF d   1       2.504   0.311  -0.899  0.00  0.00    -0.016 A 
ATOM      7  C6  BZF d   1       1.955   0.931   0.204  0.00  0.00     0.022 A 
ATOM      8  C7  BZF d   1       2.651   1.854   0.913  0.00  0.00     0.029 A 
ATOM      9  C7A BZF d   1       3.915   2.159   0.470  0.00  0.00     0.058 A 
ENDROOT
TORSDOF 0
ENDMDL
