MODEL 1
REMARK minimizedAffinity 4.75681496
REMARK minimizedRMSD -1
REMARK  0 active torsions:
REMARK  status: ('A' for Active; 'I' for Inactive)
ROOT
ATOM      1  O1  BZF d   1      -6.000   1.934  -1.104  0.00  0.00    -0.204 OA
ATOM      2  C2  BZF d   1      -6.000   0.788  -0.331  0.00  0.00     0.174 A 
ATOM      3  C3  BZF d   1      -5.243  -0.172  -0.900  0.00  0.00    -0.012 A 
ATOM      4  C3A BZF d   1      -4.664   0.440  -2.056  0.00  0.00    -0.107 A 
ATOM      5  C4  BZF d   1      -3.804  -0.001  -3.021  0.00  0.00     0.055 A 
ATOM      6  C5  BZF d   1      -3.492   0.823  -4.055  0.00  0.00    -0.016 A 
ATOM      7  C6  BZF d   1      -4.023   2.092  -4.157  0.00  0.00     0.022 A 
ATOM      8  C7  BZF d   1      -4.876   2.576  -3.222  0.00  0.00     0.029 A 
ATOM      9  C7A BZF d   1      -5.168   1.757  -2.159  0.00  0.00     0.058 A 
ENDROOT
TORSDOF 0
ENDMDL
