MODEL 1
REMARK minimizedAffinity 1.68635738
REMARK minimizedRMSD -1
REMARK  0 active torsions:
REMARK  status: ('A' for Active; 'I' for Inactive)
ROOT
ATOM      1  C   UNL d   1      -4.538   0.429  -2.363  0.00  0.00     0.023 A 
ATOM      2  C1  UNL d   1      -3.944   1.388  -1.543  0.00  0.00     0.003 A 
ATOM      3  C2  UNL d   1      -2.888   2.164  -2.025  0.00  0.00     0.048 A 
ATOM      4  C3  UNL d   1      -2.431   1.975  -3.329  0.00  0.00     0.023 A 
ATOM      5  C4  UNL d   1      -3.023   1.017  -4.154  0.00  0.00     0.048 A 
ATOM      6  C5  UNL d   1      -4.078   0.244  -3.667  0.00  0.00     0.003 A 
ATOM      7  I   UNL d   1      -0.859   3.128  -4.050  0.00  0.00    -0.146 I 
ENDROOT
TORSDOF 0
ENDMDL
