MODEL 1
REMARK minimizedAffinity -2.72545934
REMARK minimizedRMSD -1
REMARK  0 active torsions:
REMARK  status: ('A' for Active; 'I' for Inactive)
ROOT
ATOM      1  C   UNL d   1       1.678  -5.684  -5.364  0.00  0.00     0.023 A 
ATOM      2  C1  UNL d   1       1.770  -5.902  -3.989  0.00  0.00     0.003 A 
ATOM      3  C2  UNL d   1       0.610  -5.992  -3.216  0.00  0.00     0.048 A 
ATOM      4  C3  UNL d   1      -0.638  -5.865  -3.824  0.00  0.00     0.023 A 
ATOM      5  C4  UNL d   1      -0.735  -5.647  -5.200  0.00  0.00     0.048 A 
ATOM      6  C5  UNL d   1       0.427  -5.557  -5.968  0.00  0.00     0.003 A 
ATOM      7  I   UNL d   1      -2.365  -5.999  -2.676  0.00  0.00    -0.146 I 
ENDROOT
TORSDOF 0
ENDMDL
