MODEL 1
REMARK minimizedAffinity -0.0702376738
REMARK minimizedRMSD -1
REMARK  0 active torsions:
REMARK  status: ('A' for Active; 'I' for Inactive)
ROOT
ATOM      1  C   UNL d   1       2.596   0.322  -0.295  0.00  0.00     0.023 A 
ATOM      2  C1  UNL d   1       1.670   1.305  -0.646  0.00  0.00     0.003 A 
ATOM      3  C2  UNL d   1       0.327   1.160  -0.291  0.00  0.00     0.048 A 
ATOM      4  C3  UNL d   1      -0.083   0.030   0.415  0.00  0.00     0.023 A 
ATOM      5  C4  UNL d   1       0.840  -0.956   0.770  0.00  0.00     0.048 A 
ATOM      6  C5  UNL d   1       2.181  -0.807   0.412  0.00  0.00     0.003 A 
ATOM      7  I   UNL d   1      -2.081  -0.189   0.944  0.00  0.00    -0.146 I 
ENDROOT
TORSDOF 0
ENDMDL
