MODEL 1
REMARK minimizedAffinity -2.82395864
REMARK minimizedRMSD -1
REMARK  0 active torsions:
REMARK  status: ('A' for Active; 'I' for Inactive)
ROOT
ATOM      1  C   UNL d   1       2.073  -0.334  -0.349  0.00  0.00     0.023 A 
ATOM      2  C1  UNL d   1       2.994  -1.135   0.325  0.00  0.00     0.003 A 
ATOM      3  C2  UNL d   1       2.753  -1.518   1.646  0.00  0.00     0.048 A 
ATOM      4  C3  UNL d   1       1.587  -1.097   2.286  0.00  0.00     0.023 A 
ATOM      5  C4  UNL d   1       0.662  -0.297   1.615  0.00  0.00     0.048 A 
ATOM      6  C5  UNL d   1       0.908   0.085   0.294  0.00  0.00     0.003 A 
ATOM      7  I   UNL d   1       1.226  -1.667   4.252  0.00  0.00    -0.146 I 
ENDROOT
TORSDOF 0
ENDMDL
