MODEL 1
REMARK minimizedAffinity -1.77456582
REMARK minimizedRMSD -1
REMARK  0 active torsions:
REMARK  status: ('A' for Active; 'I' for Inactive)
ROOT
ATOM      1  C   UNL d   1       2.746  -1.167   4.009  0.00  0.00     0.023 A 
ATOM      2  C1  UNL d   1       1.448  -0.767   3.693  0.00  0.00     0.003 A 
ATOM      3  C2  UNL d   1       1.117  -0.441   2.376  0.00  0.00     0.048 A 
ATOM      4  C3  UNL d   1       2.090  -0.518   1.380  0.00  0.00     0.023 A 
ATOM      5  C4  UNL d   1       3.390  -0.919   1.691  0.00  0.00     0.048 A 
ATOM      6  C5  UNL d   1       3.716  -1.243   3.009  0.00  0.00     0.003 A 
ATOM      7  I   UNL d   1       1.601  -0.034  -0.581  0.00  0.00    -0.146 I 
ENDROOT
TORSDOF 0
ENDMDL
