MODEL 1
REMARK minimizedAffinity 7.64537573
REMARK minimizedRMSD -1
REMARK  0 active torsions:
REMARK  status: ('A' for Active; 'I' for Inactive)
ROOT
ATOM      1  C   UNL d   1       1.114  -0.051   0.139  0.00  0.00     0.023 A 
ATOM      2  C1  UNL d   1      -0.087   0.343   0.729  0.00  0.00     0.003 A 
ATOM      3  C2  UNL d   1      -1.151  -0.557   0.817  0.00  0.00     0.048 A 
ATOM      4  C3  UNL d   1      -1.007  -1.850   0.315  0.00  0.00     0.023 A 
ATOM      5  C4  UNL d   1       0.194  -2.249  -0.275  0.00  0.00     0.048 A 
ATOM      6  C5  UNL d   1       1.254  -1.345  -0.362  0.00  0.00     0.003 A 
ATOM      7  I   UNL d   1      -2.589  -3.191   0.446  0.00  0.00    -0.146 I 
ENDROOT
TORSDOF 0
ENDMDL
