MODEL 1
REMARK minimizedAffinity -0.423037082
REMARK minimizedRMSD -1
REMARK  0 active torsions:
REMARK  status: ('A' for Active; 'I' for Inactive)
ROOT
ATOM      1  C   UNL d   1      -2.577  -5.126  -0.005  0.00  0.00     0.023 A 
ATOM      2  C1  UNL d   1      -2.367  -4.741   1.319  0.00  0.00     0.003 A 
ATOM      3  C2  UNL d   1      -3.348  -4.982   2.283  0.00  0.00     0.048 A 
ATOM      4  C3  UNL d   1      -4.538  -5.611   1.915  0.00  0.00     0.023 A 
ATOM      5  C4  UNL d   1      -4.752  -6.000   0.592  0.00  0.00     0.048 A 
ATOM      6  C5  UNL d   1      -3.768  -5.755  -0.368  0.00  0.00     0.003 A 
ATOM      7  I   UNL d   1      -6.000  -5.972   3.348  0.00  0.00    -0.146 I 
ENDROOT
TORSDOF 0
ENDMDL
