MODEL 1
REMARK minimizedAffinity 3.54228067
REMARK minimizedRMSD -1
REMARK  0 active torsions:
REMARK  status: ('A' for Active; 'I' for Inactive)
ROOT
ATOM      1  C   UNL d   1      -4.002  -6.000   2.220  0.00  0.00     0.023 A 
ATOM      2  C1  UNL d   1      -3.958  -5.603   0.884  0.00  0.00     0.003 A 
ATOM      3  C2  UNL d   1      -2.892  -4.831   0.418  0.00  0.00     0.048 A 
ATOM      4  C3  UNL d   1      -1.873  -4.459   1.295  0.00  0.00     0.023 A 
ATOM      5  C4  UNL d   1      -1.913  -4.854   2.633  0.00  0.00     0.048 A 
ATOM      6  C5  UNL d   1      -2.981  -5.626   3.094  0.00  0.00     0.003 A 
ATOM      7  I   UNL d   1      -0.286  -3.309   0.604  0.00  0.00    -0.146 I 
ENDROOT
TORSDOF 0
ENDMDL
