MODEL 1
REMARK minimizedAffinity -3.9218502
REMARK minimizedRMSD -1
REMARK  0 active torsions:
REMARK  status: ('A' for Active; 'I' for Inactive)
ROOT
ATOM      1  C   UNL d   1      -5.015  -5.993  -2.082  0.00  0.00     0.023 A 
ATOM      2  C1  UNL d   1      -3.665  -6.000  -1.732  0.00  0.00     0.003 A 
ATOM      3  C2  UNL d   1      -3.291  -6.000  -0.387  0.00  0.00     0.048 A 
ATOM      4  C3  UNL d   1      -4.272  -5.993   0.603  0.00  0.00     0.023 A 
ATOM      5  C4  UNL d   1      -5.625  -5.987   0.258  0.00  0.00     0.048 A 
ATOM      6  C5  UNL d   1      -5.994  -5.987  -1.088  0.00  0.00     0.003 A 
ATOM      7  I   UNL d   1      -3.718  -5.993   2.607  0.00  0.00    -0.146 I 
ENDROOT
TORSDOF 0
ENDMDL
