MODEL 1
REMARK minimizedAffinity 4.8072834
REMARK minimizedRMSD -1
REMARK  0 active torsions:
REMARK  status: ('A' for Active; 'I' for Inactive)
ROOT
ATOM      1  C   UNL d   1       0.142  -5.479  -6.000  0.00  0.00     0.023 A 
ATOM      2  C1  UNL d   1      -1.150  -6.000  -5.915  0.00  0.00     0.003 A 
ATOM      3  C2  UNL d   1      -1.847  -5.949  -4.707  0.00  0.00     0.048 A 
ATOM      4  C3  UNL d   1      -1.247  -5.375  -3.586  0.00  0.00     0.023 A 
ATOM      5  C4  UNL d   1       0.045  -4.852  -3.666  0.00  0.00     0.048 A 
ATOM      6  C5  UNL d   1       0.738  -4.906  -4.877  0.00  0.00     0.003 A 
ATOM      7  I   UNL d   1      -2.282  -5.299  -1.786  0.00  0.00    -0.146 I 
ENDROOT
TORSDOF 0
ENDMDL
