MODEL 1
REMARK minimizedAffinity -1.00287461
REMARK minimizedRMSD -1
REMARK  0 active torsions:
REMARK  status: ('A' for Active; 'I' for Inactive)
ROOT
ATOM      1  C   UNL d   1       0.525  -0.389  -0.058  0.00  0.00     0.023 A 
ATOM      2  C1  UNL d   1       1.831  -0.421  -0.548  0.00  0.00     0.003 A 
ATOM      3  C2  UNL d   1       2.900  -0.636   0.324  0.00  0.00     0.048 A 
ATOM      4  C3  UNL d   1       2.657  -0.819   1.685  0.00  0.00     0.023 A 
ATOM      5  C4  UNL d   1       1.352  -0.789   2.180  0.00  0.00     0.048 A 
ATOM      6  C5  UNL d   1       0.286  -0.573   1.304  0.00  0.00     0.003 A 
ATOM      7  I   UNL d   1       4.246  -1.139   2.985  0.00  0.00    -0.146 I 
ENDROOT
TORSDOF 0
ENDMDL
