MODEL 1
REMARK minimizedAffinity 2.57997561
REMARK minimizedRMSD -1
REMARK  0 active torsions:
REMARK  status: ('A' for Active; 'I' for Inactive)
ROOT
ATOM      1  C   UNL d   1       2.079  -5.878  -4.841  0.00  0.00     0.023 A 
ATOM      2  C1  UNL d   1       1.468  -5.862  -3.587  0.00  0.00     0.003 A 
ATOM      3  C2  UNL d   1       0.075  -5.896  -3.488  0.00  0.00     0.048 A 
ATOM      4  C3  UNL d   1      -0.700  -5.948  -4.646  0.00  0.00     0.023 A 
ATOM      5  C4  UNL d   1      -0.093  -5.965  -5.902  0.00  0.00     0.048 A 
ATOM      6  C5  UNL d   1       1.300  -5.929  -5.997  0.00  0.00     0.003 A 
ATOM      7  I   UNL d   1      -2.772  -5.999  -4.499  0.00  0.00    -0.146 I 
ENDROOT
TORSDOF 0
ENDMDL
