MODEL 1
REMARK minimizedAffinity 3.20327377
REMARK minimizedRMSD -1
REMARK  0 active torsions:
REMARK  status: ('A' for Active; 'I' for Inactive)
ROOT
ATOM      1  C   UNL d   1      -0.725   3.563  -2.406  0.00  0.00     0.023 A 
ATOM      2  C1  UNL d   1      -0.758   2.318  -3.033  0.00  0.00     0.003 A 
ATOM      3  C2  UNL d   1      -0.329   1.179  -2.349  0.00  0.00     0.048 A 
ATOM      4  C3  UNL d   1       0.131   1.292  -1.037  0.00  0.00     0.023 A 
ATOM      5  C4  UNL d   1       0.164   2.536  -0.405  0.00  0.00     0.048 A 
ATOM      6  C5  UNL d   1      -0.265   3.672  -1.094  0.00  0.00     0.003 A 
ATOM      7  I   UNL d   1       0.770  -0.402  -0.017  0.00  0.00    -0.146 I 
ENDROOT
TORSDOF 0
ENDMDL
