MODEL 1
REMARK minimizedAffinity 1.76423264
REMARK minimizedRMSD -1
REMARK  0 active torsions:
REMARK  status: ('A' for Active; 'I' for Inactive)
ROOT
ATOM      1  C   UNL d   1      -1.859   3.961  -4.504  0.00  0.00     0.023 A 
ATOM      2  C1  UNL d   1      -0.584   4.208  -3.996  0.00  0.00     0.003 A 
ATOM      3  C2  UNL d   1      -0.012   3.323  -3.080  0.00  0.00     0.048 A 
ATOM      4  C3  UNL d   1      -0.722   2.192  -2.676  0.00  0.00     0.023 A 
ATOM      5  C4  UNL d   1      -1.998   1.941  -3.182  0.00  0.00     0.048 A 
ATOM      6  C5  UNL d   1      -2.565   2.829  -4.098  0.00  0.00     0.003 A 
ATOM      7  I   UNL d   1       0.127   0.873  -1.313  0.00  0.00    -0.146 I 
ENDROOT
TORSDOF 0
ENDMDL
