MODEL 1
REMARK minimizedAffinity -2.78315997
REMARK minimizedRMSD -1
REMARK  1 active torsions:
REMARK  status: ('A' for Active; 'I' for Inactive)
REMARK    1  A    between atoms: C3_4  and  O_7 
ROOT
ATOM      1  C   UNL d   1       4.517  -5.323  -5.996  0.00  0.00    -0.033 A 
ATOM      2  C1  UNL d   1       3.392  -6.000  -5.522  0.00  0.00     0.039 A 
ATOM      3  C2  UNL d   1       3.000  -5.859  -4.189  0.00  0.00    -0.080 A 
ATOM      4  C3  UNL d   1       3.741  -5.038  -3.343  0.00  0.00     0.150 A 
ATOM      5  C4  UNL d   1       4.860  -4.357  -3.810  0.00  0.00    -0.007 A 
ATOM      6  C5  UNL d   1       5.250  -4.500  -5.141  0.00  0.00     0.039 A 
ENDROOT
BRANCH   4   7
ATOM      7  O   UNL d   1       3.400  -4.872  -2.033  0.00  0.00    -0.526 OA
ATOM      8  H5  UNL d   1       2.624  -5.425  -1.845  0.00  0.00     0.418 HD
ENDBRANCH   4   7
TORSDOF 1
ENDMDL
