MODEL 1
REMARK minimizedAffinity -3.54655075
REMARK minimizedRMSD -1
REMARK  1 active torsions:
REMARK  status: ('A' for Active; 'I' for Inactive)
REMARK    1  A    between atoms: C3_4  and  O_7 
ROOT
ATOM      1  C   UNL d   1       3.859  -4.029  -4.887  0.00  0.00    -0.033 A 
ATOM      2  C1  UNL d   1       3.531  -3.244  -5.995  0.00  0.00     0.039 A 
ATOM      3  C2  UNL d   1       3.832  -1.880  -6.000  0.00  0.00    -0.080 A 
ATOM      4  C3  UNL d   1       4.460  -1.315  -4.893  0.00  0.00     0.150 A 
ATOM      5  C4  UNL d   1       4.793  -2.092  -3.788  0.00  0.00    -0.007 A 
ATOM      6  C5  UNL d   1       4.491  -3.453  -3.785  0.00  0.00     0.039 A 
ENDROOT
BRANCH   4   7
ATOM      7  O   UNL d   1       4.769   0.012  -4.851  0.00  0.00    -0.526 OA
ATOM      8  H5  UNL d   1       4.455   0.428  -5.671  0.00  0.00     0.418 HD
ENDBRANCH   4   7
TORSDOF 1
ENDMDL
