MODEL 1
REMARK minimizedAffinity 5.34057856
REMARK minimizedRMSD -1
REMARK  1 active torsions:
REMARK  status: ('A' for Active; 'I' for Inactive)
REMARK    1  A    between atoms: C3_4  and  O_7 
ROOT
ATOM      1  C   UNL d   1      -0.721   1.346  -0.103  0.00  0.00    -0.033 A 
ATOM      2  C1  UNL d   1      -0.021   2.526  -0.364  0.00  0.00     0.039 A 
ATOM      3  C2  UNL d   1       1.313   2.650   0.029  0.00  0.00    -0.080 A 
ATOM      4  C3  UNL d   1       1.935   1.588   0.680  0.00  0.00     0.150 A 
ATOM      5  C4  UNL d   1       1.245   0.408   0.939  0.00  0.00    -0.007 A 
ATOM      6  C5  UNL d   1      -0.088   0.287   0.547  0.00  0.00     0.039 A 
ENDROOT
BRANCH   4   7
ATOM      7  O   UNL d   1       3.234   1.664   1.087  0.00  0.00    -0.526 OA
ATOM      8  H5  UNL d   1       3.574   2.547   0.866  0.00  0.00     0.418 HD
ENDBRANCH   4   7
TORSDOF 1
ENDMDL
