MODEL 1
REMARK minimizedAffinity 3.77817869
REMARK minimizedRMSD -1
REMARK  1 active torsions:
REMARK  status: ('A' for Active; 'I' for Inactive)
REMARK    1  A    between atoms: C3_4  and  O_7 
ROOT
ATOM      1  C   UNL d   1       2.879   2.551   2.759  0.00  0.00    -0.033 A 
ATOM      2  C1  UNL d   1       2.573   2.069   1.485  0.00  0.00     0.039 A 
ATOM      3  C2  UNL d   1       2.002   0.804   1.334  0.00  0.00    -0.080 A 
ATOM      4  C3  UNL d   1       1.740   0.033   2.464  0.00  0.00     0.150 A 
ATOM      5  C4  UNL d   1       2.038   0.509   3.736  0.00  0.00    -0.007 A 
ATOM      6  C5  UNL d   1       2.610   1.772   3.885  0.00  0.00     0.039 A 
ENDROOT
BRANCH   4   7
ATOM      7  O   UNL d   1       1.188  -1.209   2.366  0.00  0.00    -0.526 OA
ATOM      8  H5  UNL d   1       1.062  -1.418   1.425  0.00  0.00     0.418 HD
ENDBRANCH   4   7
TORSDOF 1
ENDMDL
