MODEL 1
REMARK minimizedAffinity 5.88835526
REMARK minimizedRMSD -1
REMARK  1 active torsions:
REMARK  status: ('A' for Active; 'I' for Inactive)
REMARK    1  A    between atoms: C3_4  and  O_7 
ROOT
ATOM      1  C   UNL d   1       2.863   2.980   2.221  0.00  0.00    -0.033 A 
ATOM      2  C1  UNL d   1       2.913   2.783   3.602  0.00  0.00     0.039 A 
ATOM      3  C2  UNL d   1       2.705   1.509   4.135  0.00  0.00    -0.080 A 
ATOM      4  C3  UNL d   1       2.450   0.443   3.278  0.00  0.00     0.150 A 
ATOM      5  C4  UNL d   1       2.404   0.631   1.900  0.00  0.00    -0.007 A 
ATOM      6  C5  UNL d   1       2.611   1.904   1.370  0.00  0.00     0.039 A 
ENDROOT
BRANCH   4   7
ATOM      7  O   UNL d   1       2.237  -0.818   3.752  0.00  0.00    -0.526 OA
ATOM      8  H5  UNL d   1       2.270  -0.791   4.722  0.00  0.00     0.418 HD
ENDBRANCH   4   7
TORSDOF 1
ENDMDL
