MODEL 1
REMARK minimizedAffinity 5.00668669
REMARK minimizedRMSD -1
REMARK  1 active torsions:
REMARK  status: ('A' for Active; 'I' for Inactive)
REMARK    1  A    between atoms: C3_4  and  O_7 
ROOT
ATOM      1  C   UNL d   1      -0.998   1.058  -0.251  0.00  0.00    -0.033 A 
ATOM      2  C1  UNL d   1      -0.342   2.272  -0.458  0.00  0.00     0.039 A 
ATOM      3  C2  UNL d   1       1.013   2.398  -0.144  0.00  0.00    -0.080 A 
ATOM      4  C3  UNL d   1       1.699   1.304   0.375  0.00  0.00     0.150 A 
ATOM      5  C4  UNL d   1       1.052   0.089   0.580  0.00  0.00    -0.007 A 
ATOM      6  C5  UNL d   1      -0.301  -0.034   0.267  0.00  0.00     0.039 A 
ENDROOT
BRANCH   4   7
ATOM      7  O   UNL d   1       3.020   1.380   0.701  0.00  0.00    -0.526 OA
ATOM      8  H5  UNL d   1       3.327   2.286   0.533  0.00  0.00     0.418 HD
ENDBRANCH   4   7
TORSDOF 1
ENDMDL
