MODEL 1
REMARK minimizedAffinity -0.141783953
REMARK minimizedRMSD -1
REMARK  1 active torsions:
REMARK  status: ('A' for Active; 'I' for Inactive)
REMARK    1  A    between atoms: C3_4  and  O_7 
ROOT
ATOM      1  C   UNL d   1      -1.452  -0.035  -1.712  0.00  0.00    -0.033 A 
ATOM      2  C1  UNL d   1      -1.465  -1.413  -1.935  0.00  0.00     0.039 A 
ATOM      3  C2  UNL d   1      -1.089  -2.291  -0.917  0.00  0.00    -0.080 A 
ATOM      4  C3  UNL d   1      -0.704  -1.778   0.319  0.00  0.00     0.150 A 
ATOM      5  C4  UNL d   1      -0.692  -0.406   0.550  0.00  0.00    -0.007 A 
ATOM      6  C5  UNL d   1      -1.067   0.468  -0.469  0.00  0.00     0.039 A 
ENDROOT
BRANCH   4   7
ATOM      7  O   UNL d   1      -0.324  -2.595   1.342  0.00  0.00    -0.526 OA
ATOM      8  H5  UNL d   1      -0.354  -3.514   1.029  0.00  0.00     0.418 HD
ENDBRANCH   4   7
TORSDOF 1
ENDMDL
