MODEL 1
REMARK minimizedAffinity 2.31875467
REMARK minimizedRMSD -1
REMARK  1 active torsions:
REMARK  status: ('A' for Active; 'I' for Inactive)
REMARK    1  A    between atoms: C3_4  and  O_7 
ROOT
ATOM      1  C   UNL d   1      -1.737  -0.195  -2.345  0.00  0.00    -0.033 A 
ATOM      2  C1  UNL d   1      -1.977   0.846  -1.446  0.00  0.00     0.039 A 
ATOM      3  C2  UNL d   1      -2.633   2.002  -1.873  0.00  0.00    -0.080 A 
ATOM      4  C3  UNL d   1      -3.046   2.103  -3.198  0.00  0.00     0.150 A 
ATOM      5  C4  UNL d   1      -2.813   1.068  -4.098  0.00  0.00    -0.007 A 
ATOM      6  C5  UNL d   1      -2.157  -0.084  -3.670  0.00  0.00     0.039 A 
ENDROOT
BRANCH   4   7
ATOM      7  O   UNL d   1      -3.686   3.214  -3.662  0.00  0.00    -0.526 OA
ATOM      8  H5  UNL d   1      -3.752   3.857  -2.937  0.00  0.00     0.418 HD
ENDBRANCH   4   7
TORSDOF 1
ENDMDL
