MODEL 1
REMARK minimizedAffinity -2.41353607
REMARK minimizedRMSD -1
REMARK  1 active torsions:
REMARK  status: ('A' for Active; 'I' for Inactive)
REMARK    1  A    between atoms: C3_4  and  O_7 
ROOT
ATOM      1  C   UNL d   1       3.423  -6.000  -4.208  0.00  0.00    -0.033 A 
ATOM      2  C1  UNL d   1       3.841  -5.842  -5.531  0.00  0.00     0.039 A 
ATOM      3  C2  UNL d   1       4.216  -4.581  -6.000  0.00  0.00    -0.080 A 
ATOM      4  C3  UNL d   1       4.172  -3.490  -5.137  0.00  0.00     0.150 A 
ATOM      5  C4  UNL d   1       3.761  -3.641  -3.817  0.00  0.00    -0.007 A 
ATOM      6  C5  UNL d   1       3.385  -4.900  -3.350  0.00  0.00     0.039 A 
ENDROOT
BRANCH   4   7
ATOM      7  O   UNL d   1       4.524  -2.240  -5.551  0.00  0.00    -0.526 OA
ATOM      8  H5  UNL d   1       4.759  -2.282  -6.493  0.00  0.00     0.418 HD
ENDBRANCH   4   7
TORSDOF 1
ENDMDL
