MODEL 1
REMARK minimizedAffinity 3.72923303
REMARK minimizedRMSD -1
REMARK  1 active torsions:
REMARK  status: ('A' for Active; 'I' for Inactive)
REMARK    1  A    between atoms: C3_4  and  O_7 
ROOT
ATOM      1  C   UNL d   1       0.226  -1.971   1.255  0.00  0.00    -0.033 A 
ATOM      2  C1  UNL d   1      -1.035  -1.813   0.676  0.00  0.00     0.039 A 
ATOM      3  C2  UNL d   1      -1.391  -2.566  -0.444  0.00  0.00    -0.080 A 
ATOM      4  C3  UNL d   1      -0.478  -3.474  -0.975  0.00  0.00     0.150 A 
ATOM      5  C4  UNL d   1       0.778  -3.639  -0.401  0.00  0.00    -0.007 A 
ATOM      6  C5  UNL d   1       1.132  -2.885   0.717  0.00  0.00     0.039 A 
ENDROOT
BRANCH   4   7
ATOM      7  O   UNL d   1      -0.778  -4.228  -2.070  0.00  0.00    -0.526 OA
ATOM      8  H5  UNL d   1      -1.668  -3.986  -2.376  0.00  0.00     0.418 HD
ENDBRANCH   4   7
TORSDOF 1
ENDMDL
