MODEL 1
REMARK minimizedAffinity 0.27183643
REMARK minimizedRMSD -1
REMARK  1 active torsions:
REMARK  status: ('A' for Active; 'I' for Inactive)
REMARK    1  A    between atoms: C3_4  and  O_7 
ROOT
ATOM      1  C   UNL d   1      -0.665   2.584  -4.034  0.00  0.00    -0.033 A 
ATOM      2  C1  UNL d   1      -0.526   1.485  -3.183  0.00  0.00     0.039 A 
ATOM      3  C2  UNL d   1      -1.651   0.759  -2.790  0.00  0.00    -0.080 A 
ATOM      4  C3  UNL d   1      -2.907   1.139  -3.253  0.00  0.00     0.150 A 
ATOM      5  C4  UNL d   1      -3.052   2.231  -4.103  0.00  0.00    -0.007 A 
ATOM      6  C5  UNL d   1      -1.928   2.956  -4.495  0.00  0.00     0.039 A 
ENDROOT
BRANCH   4   7
ATOM      7  O   UNL d   1      -4.035   0.464  -2.892  0.00  0.00    -0.526 OA
ATOM      8  H5  UNL d   1      -3.784  -0.248  -2.279  0.00  0.00     0.418 HD
ENDBRANCH   4   7
TORSDOF 1
ENDMDL
