MODEL 1
REMARK minimizedAffinity -3.95622063
REMARK minimizedRMSD -1
REMARK  1 active torsions:
REMARK  status: ('A' for Active; 'I' for Inactive)
REMARK    1  A    between atoms: C3_4  and  O_7 
ROOT
ATOM      1  C   UNL d   1      -1.217  -5.764  -4.830  0.00  0.00    -0.033 A 
ATOM      2  C1  UNL d   1      -0.384  -5.851  -5.947  0.00  0.00     0.039 A 
ATOM      3  C2  UNL d   1       1.000  -5.933  -5.783  0.00  0.00    -0.080 A 
ATOM      4  C3  UNL d   1       1.537  -5.927  -4.498  0.00  0.00     0.150 A 
ATOM      5  C4  UNL d   1       0.713  -5.845  -3.381  0.00  0.00    -0.007 A 
ATOM      6  C5  UNL d   1      -0.669  -5.763  -3.547  0.00  0.00     0.039 A 
ENDROOT
BRANCH   4   7
ATOM      7  O   UNL d   1       2.882  -6.000  -4.288  0.00  0.00    -0.526 OA
ATOM      8  H5  UNL d   1       3.328  -6.023  -5.151  0.00  0.00     0.418 HD
ENDBRANCH   4   7
TORSDOF 1
ENDMDL
