MODEL 1
REMARK minimizedAffinity -3.77922511
REMARK minimizedRMSD -1
REMARK  1 active torsions:
REMARK  status: ('A' for Active; 'I' for Inactive)
REMARK    1  A    between atoms: C3_4  and  O_7 
ROOT
ATOM      1  C   UNL d   1       1.999  -0.334  -0.121  0.00  0.00    -0.033 A 
ATOM      2  C1  UNL d   1       2.971  -1.159   0.447  0.00  0.00     0.039 A 
ATOM      3  C2  UNL d   1       2.775  -1.698   1.720  0.00  0.00    -0.080 A 
ATOM      4  C3  UNL d   1       1.603  -1.406   2.413  0.00  0.00     0.150 A 
ATOM      5  C4  UNL d   1       0.628  -0.587   1.851  0.00  0.00    -0.007 A 
ATOM      6  C5  UNL d   1       0.827  -0.049   0.580  0.00  0.00     0.039 A 
ENDROOT
BRANCH   4   7
ATOM      7  O   UNL d   1       1.368  -1.904   3.659  0.00  0.00    -0.526 OA
ATOM      8  H5  UNL d   1       2.140  -2.429   3.931  0.00  0.00     0.418 HD
ENDBRANCH   4   7
TORSDOF 1
ENDMDL
