MODEL 1
REMARK minimizedAffinity -1.84331155
REMARK minimizedRMSD -1
REMARK  1 active torsions:
REMARK  status: ('A' for Active; 'I' for Inactive)
REMARK    1  A    between atoms: C3_4  and  O_7 
ROOT
ATOM      1  C   UNL d   1       2.577  -1.067   4.344  0.00  0.00    -0.033 A 
ATOM      2  C1  UNL d   1       3.701  -1.158   3.520  0.00  0.00     0.039 A 
ATOM      3  C2  UNL d   1       3.579  -0.949   2.145  0.00  0.00    -0.080 A 
ATOM      4  C3  UNL d   1       2.330  -0.648   1.607  0.00  0.00     0.150 A 
ATOM      5  C4  UNL d   1       1.207  -0.552   2.423  0.00  0.00    -0.007 A 
ATOM      6  C5  UNL d   1       1.331  -0.763   3.796  0.00  0.00     0.039 A 
ENDROOT
BRANCH   4   7
ATOM      7  O   UNL d   1       2.160  -0.440   0.271  0.00  0.00    -0.526 OA
ATOM      8  H5  UNL d   1       3.016  -0.568  -0.171  0.00  0.00     0.418 HD
ENDBRANCH   4   7
TORSDOF 1
ENDMDL
