MODEL 1
REMARK minimizedAffinity 4.43165684
REMARK minimizedRMSD -1
REMARK  1 active torsions:
REMARK  status: ('A' for Active; 'I' for Inactive)
REMARK    1  A    between atoms: C3_4  and  O_7 
ROOT
ATOM      1  C   UNL d   1       0.834  -0.038   0.321  0.00  0.00    -0.033 A 
ATOM      2  C1  UNL d   1      -0.431   0.111   0.893  0.00  0.00     0.039 A 
ATOM      3  C2  UNL d   1      -1.352  -0.936   0.838  0.00  0.00    -0.080 A 
ATOM      4  C3  UNL d   1      -0.996  -2.127   0.211  0.00  0.00     0.150 A 
ATOM      5  C4  UNL d   1       0.264  -2.285  -0.357  0.00  0.00    -0.007 A 
ATOM      6  C5  UNL d   1       1.182  -1.237  -0.303  0.00  0.00     0.039 A 
ENDROOT
BRANCH   4   7
ATOM      7  O   UNL d   1      -1.863  -3.176   0.129  0.00  0.00    -0.526 OA
ATOM      8  H5  UNL d   1      -2.704  -2.913   0.539  0.00  0.00     0.418 HD
ENDBRANCH   4   7
TORSDOF 1
ENDMDL
