MODEL 1
REMARK minimizedAffinity -1.07334578
REMARK minimizedRMSD -1
REMARK  1 active torsions:
REMARK  status: ('A' for Active; 'I' for Inactive)
REMARK    1  A    between atoms: C3_4  and  O_7 
ROOT
ATOM      1  C   UNL d   1      -3.022  -5.252   0.568  0.00  0.00    -0.033 A 
ATOM      2  C1  UNL d   1      -4.301  -5.748   0.306  0.00  0.00     0.039 A 
ATOM      3  C2  UNL d   1      -5.183  -6.000   1.359  0.00  0.00    -0.080 A 
ATOM      4  C3  UNL d   1      -4.775  -5.750   2.667  0.00  0.00     0.150 A 
ATOM      5  C4  UNL d   1      -3.504  -5.251   2.934  0.00  0.00    -0.007 A 
ATOM      6  C5  UNL d   1      -2.625  -5.001   1.881  0.00  0.00     0.039 A 
ENDROOT
BRANCH   4   7
ATOM      7  O   UNL d   1      -5.599  -5.984   3.727  0.00  0.00    -0.526 OA
ATOM      8  H5  UNL d   1      -6.433  -6.354   3.393  0.00  0.00     0.418 HD
ENDBRANCH   4   7
TORSDOF 1
ENDMDL
