MODEL 1
REMARK minimizedAffinity -3.71129465
REMARK minimizedRMSD -1
REMARK  1 active torsions:
REMARK  status: ('A' for Active; 'I' for Inactive)
REMARK    1  A    between atoms: C3_4  and  O_7 
ROOT
ATOM      1  C   UNL d   1      -3.828  -5.994   1.274  0.00  0.00    -0.033 A 
ATOM      2  C1  UNL d   1      -3.058  -5.984   0.109  0.00  0.00     0.039 A 
ATOM      3  C2  UNL d   1      -3.680  -5.982  -1.141  0.00  0.00    -0.080 A 
ATOM      4  C3  UNL d   1      -5.071  -5.990  -1.212  0.00  0.00     0.150 A 
ATOM      5  C4  UNL d   1      -5.844  -5.996  -0.056  0.00  0.00    -0.007 A 
ATOM      6  C5  UNL d   1      -5.221  -5.998   1.191  0.00  0.00     0.039 A 
ENDROOT
BRANCH   4   7
ATOM      7  O   UNL d   1      -5.722  -5.993  -2.410  0.00  0.00    -0.526 OA
ATOM      8  H5  UNL d   1      -5.060  -6.017  -3.121  0.00  0.00     0.418 HD
ENDBRANCH   4   7
TORSDOF 1
ENDMDL
