MODEL 1
REMARK minimizedAffinity -3.20788813
REMARK minimizedRMSD -1
REMARK  1 active torsions:
REMARK  status: ('A' for Active; 'I' for Inactive)
REMARK    1  A    between atoms: C3_4  and  O_7 
ROOT
ATOM      1  C   UNL d   1      -1.141  -5.317  -5.993  0.00  0.00    -0.033 A 
ATOM      2  C1  UNL d   1      -0.010  -4.942  -5.266  0.00  0.00     0.039 A 
ATOM      3  C2  UNL d   1       0.012  -5.092  -3.878  0.00  0.00    -0.080 A 
ATOM      4  C3  UNL d   1      -1.101  -5.620  -3.231  0.00  0.00     0.150 A 
ATOM      5  C4  UNL d   1      -2.230  -6.000  -3.949  0.00  0.00    -0.007 A 
ATOM      6  C5  UNL d   1      -2.251  -5.848  -5.335  0.00  0.00     0.039 A 
ENDROOT
BRANCH   4   7
ATOM      7  O   UNL d   1      -1.128  -5.781  -1.877  0.00  0.00    -0.526 OA
ATOM      8  H5  UNL d   1      -0.291  -5.450  -1.511  0.00  0.00     0.418 HD
ENDBRANCH   4   7
TORSDOF 1
ENDMDL
