MODEL 1
REMARK minimizedAffinity 0.678898036
REMARK minimizedRMSD -1
REMARK  1 active torsions:
REMARK  status: ('A' for Active; 'I' for Inactive)
REMARK    1  A    between atoms: C3_4  and  O_7 
ROOT
ATOM      1  C   UNL d   1      -4.020  -5.997   2.185  0.00  0.00    -0.033 A 
ATOM      2  C1  UNL d   1      -2.981  -5.609   3.034  0.00  0.00     0.039 A 
ATOM      3  C2  UNL d   1      -1.902  -4.880   2.532  0.00  0.00    -0.080 A 
ATOM      4  C3  UNL d   1      -1.874  -4.544   1.181  0.00  0.00     0.150 A 
ATOM      5  C4  UNL d   1      -2.907  -4.923   0.330  0.00  0.00    -0.007 A 
ATOM      6  C5  UNL d   1      -3.983  -5.653   0.833  0.00  0.00     0.039 A 
ENDROOT
BRANCH   4   7
ATOM      7  O   UNL d   1      -0.839  -3.837   0.644  0.00  0.00    -0.526 OA
ATOM      8  H5  UNL d   1      -0.186  -3.669   1.343  0.00  0.00     0.418 HD
ENDBRANCH   4   7
TORSDOF 1
ENDMDL
