MODEL 1
REMARK minimizedAffinity -0.332894444
REMARK minimizedRMSD -1
REMARK  1 active torsions:
REMARK  status: ('A' for Active; 'I' for Inactive)
REMARK    1  A    between atoms: C3_4  and  O_7 
ROOT
ATOM      1  C   UNL d   1      -0.178   4.086  -3.732  0.00  0.00    -0.033 A 
ATOM      2  C1  UNL d   1      -1.327   4.387  -4.466  0.00  0.00     0.039 A 
ATOM      3  C2  UNL d   1      -2.409   3.505  -4.464  0.00  0.00    -0.080 A 
ATOM      4  C3  UNL d   1      -2.331   2.329  -3.724  0.00  0.00     0.150 A 
ATOM      5  C4  UNL d   1      -1.191   2.025  -2.987  0.00  0.00    -0.007 A 
ATOM      6  C5  UNL d   1      -0.111   2.906  -2.991  0.00  0.00     0.039 A 
ENDROOT
BRANCH   4   7
ATOM      7  O   UNL d   1      -3.360   1.435  -3.695  0.00  0.00    -0.526 OA
ATOM      8  H5  UNL d   1      -4.069   1.764  -4.273  0.00  0.00     0.418 HD
ENDBRANCH   4   7
TORSDOF 1
ENDMDL
