MODEL 1
REMARK minimizedAffinity 2.18226004
REMARK minimizedRMSD -1
REMARK  1 active torsions:
REMARK  status: ('A' for Active; 'I' for Inactive)
REMARK    1  A    between atoms: C3_4  and  O_7 
ROOT
ATOM      1  C   UNL d   1      -0.599   3.461  -1.930  0.00  0.00    -0.033 A 
ATOM      2  C1  UNL d   1      -0.015   3.485  -0.662  0.00  0.00     0.039 A 
ATOM      3  C2  UNL d   1       0.387   2.294  -0.054  0.00  0.00    -0.080 A 
ATOM      4  C3  UNL d   1       0.201   1.088  -0.724  0.00  0.00     0.150 A 
ATOM      5  C4  UNL d   1      -0.377   1.058  -1.989  0.00  0.00    -0.007 A 
ATOM      6  C5  UNL d   1      -0.779   2.248  -2.594  0.00  0.00     0.039 A 
ENDROOT
BRANCH   4   7
ATOM      7  O   UNL d   1       0.573  -0.100  -0.169  0.00  0.00    -0.526 OA
ATOM      8  H5  UNL d   1       0.931   0.073   0.717  0.00  0.00     0.418 HD
ENDBRANCH   4   7
TORSDOF 1
ENDMDL
