MODEL 1
REMARK minimizedAffinity -2.48325634
REMARK minimizedRMSD -1
REMARK  1 active torsions:
REMARK  status: ('A' for Active; 'I' for Inactive)
REMARK    1  A    between atoms: C3_4  and  O_7 
ROOT
ATOM      1  C   UNL d   1       0.928  -0.467   0.313  0.00  0.00    -0.033 A 
ATOM      2  C1  UNL d   1       0.635  -0.624   1.669  0.00  0.00     0.039 A 
ATOM      3  C2  UNL d   1       1.654  -0.927   2.574  0.00  0.00    -0.080 A 
ATOM      4  C3  UNL d   1       2.959  -1.069   2.111  0.00  0.00     0.150 A 
ATOM      5  C4  UNL d   1       3.258  -0.911   0.762  0.00  0.00    -0.007 A 
ATOM      6  C5  UNL d   1       2.240  -0.609  -0.140  0.00  0.00     0.039 A 
ENDROOT
BRANCH   4   7
ATOM      7  O   UNL d   1       3.986  -1.369   2.956  0.00  0.00    -0.526 OA
ATOM      8  H5  UNL d   1       3.626  -1.478   3.852  0.00  0.00     0.418 HD
ENDBRANCH   4   7
TORSDOF 1
ENDMDL
