MODEL 1
REMARK minimizedAffinity 1.35318685
REMARK minimizedRMSD -1
REMARK  1 active torsions:
REMARK  status: ('A' for Active; 'I' for Inactive)
REMARK    1  A    between atoms: C3_4  and  O_7 
ROOT
ATOM      1  C   UNL d   1      -0.184   3.787  -4.086  0.00  0.00    -0.033 A 
ATOM      2  C1  UNL d   1      -1.452   4.140  -4.551  0.00  0.00     0.039 A 
ATOM      3  C2  UNL d   1      -2.571   3.402  -4.162  0.00  0.00    -0.080 A 
ATOM      4  C3  UNL d   1      -2.410   2.315  -3.307  0.00  0.00     0.150 A 
ATOM      5  C4  UNL d   1      -1.150   1.960  -2.837  0.00  0.00    -0.007 A 
ATOM      6  C5  UNL d   1      -0.033   2.697  -3.227  0.00  0.00     0.039 A 
ENDROOT
BRANCH   4   7
ATOM      7  O   UNL d   1      -3.472   1.561  -2.904  0.00  0.00    -0.526 OA
ATOM      8  H5  UNL d   1      -4.274   1.906  -3.330  0.00  0.00     0.418 HD
ENDBRANCH   4   7
TORSDOF 1
ENDMDL
