MODEL 1
REMARK minimizedAffinity -0.989441097
REMARK minimizedRMSD -1
REMARK  1 active torsions:
REMARK  status: ('A' for Active; 'I' for Inactive)
REMARK    1  A    between atoms: C3_4  and  O_7 
ROOT
ATOM      1  C   UNL d   1       3.270  -1.320   1.061  0.00  0.00    -0.033 A 
ATOM      2  C1  UNL d   1       2.454  -1.406   2.191  0.00  0.00     0.039 A 
ATOM      3  C2  UNL d   1       1.161  -0.879   2.162  0.00  0.00    -0.080 A 
ATOM      4  C3  UNL d   1       0.697  -0.271   1.000  0.00  0.00     0.150 A 
ATOM      5  C4  UNL d   1       1.503  -0.185  -0.131  0.00  0.00    -0.007 A 
ATOM      6  C5  UNL d   1       2.794  -0.710  -0.100  0.00  0.00     0.039 A 
ENDROOT
BRANCH   4   7
ATOM      7  O   UNL d   1      -0.556   0.262   0.926  0.00  0.00    -0.526 OA
ATOM      8  H5  UNL d   1      -0.987   0.155   1.790  0.00  0.00     0.418 HD
ENDBRANCH   4   7
TORSDOF 1
ENDMDL
