MODEL 1
REMARK minimizedAffinity -0.29522714
REMARK minimizedRMSD -1
REMARK  1 active torsions:
REMARK  status: ('A' for Active; 'I' for Inactive)
REMARK    1  A    between atoms: C3_4  and  O_7 
ROOT
ATOM      1  C   UNL d   1      -0.307  -5.399  -6.000  0.00  0.00    -0.033 A 
ATOM      2  C1  UNL d   1      -0.878  -5.928  -4.841  0.00  0.00     0.039 A 
ATOM      3  C2  UNL d   1      -0.132  -5.999  -3.663  0.00  0.00    -0.080 A 
ATOM      4  C3  UNL d   1       1.182  -5.539  -3.657  0.00  0.00     0.150 A 
ATOM      5  C4  UNL d   1       1.756  -5.007  -4.807  0.00  0.00    -0.007 A 
ATOM      6  C5  UNL d   1       1.010  -4.937  -5.983  0.00  0.00     0.039 A 
ENDROOT
BRANCH   4   7
ATOM      7  O   UNL d   1       1.951  -5.592  -2.533  0.00  0.00    -0.526 OA
ATOM      8  H5  UNL d   1       1.432  -6.010  -1.825  0.00  0.00     0.418 HD
ENDBRANCH   4   7
TORSDOF 1
ENDMDL
