MODEL 1
REMARK minimizedAffinity 5.2654748
REMARK minimizedRMSD -1
REMARK  0 active torsions:
REMARK  status: ('A' for Active; 'I' for Inactive)
ROOT
ATOM      1  C4' PXY d   1       3.502  -0.047  -1.187  0.00  0.00     0.077 C 
ATOM      2  C1' PXY d   1      -0.022   3.684  -3.848  0.00  0.00     0.077 C 
ATOM      3  C1  PXY d   1       0.895   2.695  -3.154  0.00  0.00    -0.082 A 
ATOM      4  C2  PXY d   1       1.671   3.107  -2.165  0.00  0.00     0.003 A 
ATOM      5  C3  PXY d   1       2.529   2.233  -1.547  0.00  0.00     0.003 A 
ATOM      6  C4  PXY d   1       2.554   0.914  -1.911  0.00  0.00    -0.082 A 
ATOM      7  C5  PXY d   1       1.757   0.484  -2.911  0.00  0.00     0.003 A 
ATOM      8  C6  PXY d   1       0.923   1.395  -3.553  0.00  0.00     0.003 A 
ENDROOT
TORSDOF 0
ENDMDL
