MODEL 1
REMARK minimizedAffinity 2.8439045
REMARK minimizedRMSD -1
REMARK  0 active torsions:
REMARK  status: ('A' for Active; 'I' for Inactive)
ROOT
ATOM      1  C4' PXY d   1       0.797   2.867  -2.935  0.00  0.00     0.077 C 
ATOM      2  C1' PXY d   1       2.253  -1.599   0.435  0.00  0.00     0.077 C 
ATOM      3  C1  PXY d   1       1.873  -0.419  -0.439  0.00  0.00    -0.082 A 
ATOM      4  C2  PXY d   1       1.082  -0.607  -1.482  0.00  0.00     0.003 A 
ATOM      5  C3  PXY d   1       0.755   0.443  -2.302  0.00  0.00     0.003 A 
ATOM      6  C4  PXY d   1       1.199   1.707  -2.019  0.00  0.00    -0.082 A 
ATOM      7  C5  PXY d   1       1.998   1.908  -0.950  0.00  0.00     0.003 A 
ATOM      8  C6  PXY d   1       2.352   0.822  -0.155  0.00  0.00     0.003 A 
ENDROOT
TORSDOF 0
ENDMDL
