MODEL 1
REMARK minimizedAffinity 7.52668428
REMARK minimizedRMSD -1
REMARK  0 active torsions:
REMARK  status: ('A' for Active; 'I' for Inactive)
ROOT
ATOM      1  C4' PXY d   1       1.641   2.971  -3.486  0.00  0.00     0.077 C 
ATOM      2  C1' PXY d   1       2.290  -1.741  -0.201  0.00  0.00     0.077 C 
ATOM      3  C1  PXY d   1       2.116  -0.499  -1.052  0.00  0.00    -0.082 A 
ATOM      4  C2  PXY d   1       1.926  -0.621  -2.356  0.00  0.00     0.003 A 
ATOM      5  C3  PXY d   1       1.798   0.493  -3.145  0.00  0.00     0.003 A 
ATOM      6  C4  PXY d   1       1.813   1.743  -2.587  0.00  0.00    -0.082 A 
ATOM      7  C5  PXY d   1       1.996   1.876  -1.256  0.00  0.00     0.003 A 
ATOM      8  C6  PXY d   1       2.165   0.734  -0.478  0.00  0.00     0.003 A 
ENDROOT
TORSDOF 0
ENDMDL
