MODEL 1
REMARK minimizedAffinity 5.28777122
REMARK minimizedRMSD -1
REMARK  0 active torsions:
REMARK  status: ('A' for Active; 'I' for Inactive)
ROOT
ATOM      1  C4' PXY d   1      -2.237   0.584   2.680  0.00  0.00     0.077 C 
ATOM      2  C1' PXY d   1       3.116  -1.491   3.357  0.00  0.00     0.077 C 
ATOM      3  C1  PXY d   1       1.710  -0.955   3.169  0.00  0.00    -0.082 A 
ATOM      4  C2  PXY d   1       1.411   0.261   3.597  0.00  0.00     0.003 A 
ATOM      5  C3  PXY d   1       0.137   0.749   3.465  0.00  0.00     0.003 A 
ATOM      6  C4  PXY d   1      -0.828   0.005   2.840  0.00  0.00    -0.082 A 
ATOM      7  C5  PXY d   1      -0.528  -1.232   2.390  0.00  0.00     0.003 A 
ATOM      8  C6  PXY d   1       0.761  -1.725   2.572  0.00  0.00     0.003 A 
ENDROOT
TORSDOF 0
ENDMDL
