MODEL 1
REMARK minimizedAffinity 3.91459203
REMARK minimizedRMSD -1
REMARK  0 active torsions:
REMARK  status: ('A' for Active; 'I' for Inactive)
ROOT
ATOM      1  C4' PXY d   1       1.638   1.772   2.904  0.00  0.00     0.077 C 
ATOM      2  C1' PXY d   1      -0.353  -3.654   3.026  0.00  0.00     0.077 C 
ATOM      3  C1  PXY d   1       0.181  -2.235   2.999  0.00  0.00    -0.082 A 
ATOM      4  C2  PXY d   1      -0.664  -1.217   3.049  0.00  0.00     0.003 A 
ATOM      5  C3  PXY d   1      -0.200   0.072   2.993  0.00  0.00     0.003 A 
ATOM      6  C4  PXY d   1       1.145   0.323   2.939  0.00  0.00    -0.082 A 
ATOM      7  C5  PXY d   1       2.013  -0.710   2.899  0.00  0.00     0.003 A 
ATOM      8  C6  PXY d   1       1.520  -2.011   2.915  0.00  0.00     0.003 A 
ENDROOT
TORSDOF 0
ENDMDL
