MODEL 1
REMARK minimizedAffinity 6.48919916
REMARK minimizedRMSD -1
REMARK  0 active torsions:
REMARK  status: ('A' for Active; 'I' for Inactive)
ROOT
ATOM      1  C4' PXY d   1      -3.392  -1.455   1.095  0.00  0.00     0.077 C 
ATOM      2  C1' PXY d   1       2.038  -1.433   3.075  0.00  0.00     0.077 C 
ATOM      3  C1  PXY d   1       0.616  -1.451   2.551  0.00  0.00    -0.082 A 
ATOM      4  C2  PXY d   1      -0.011  -0.308   2.321  0.00  0.00     0.003 A 
ATOM      5  C3  PXY d   1      -1.308  -0.306   1.877  0.00  0.00     0.003 A 
ATOM      6  C4  PXY d   1      -1.953  -1.485   1.615  0.00  0.00    -0.082 A 
ATOM      7  C5  PXY d   1      -1.316  -2.655   1.837  0.00  0.00     0.003 A 
ATOM      8  C6  PXY d   1      -0.014  -2.636   2.327  0.00  0.00     0.003 A 
ENDROOT
TORSDOF 0
ENDMDL
