MODEL 1
REMARK minimizedAffinity 3.2641964
REMARK minimizedRMSD -1
REMARK  0 active torsions:
REMARK  status: ('A' for Active; 'I' for Inactive)
ROOT
ATOM      1  C4' PXY d   1       1.388  -1.507   1.941  0.00  0.00     0.077 C 
ATOM      2  C1' PXY d   1      -3.560   1.146   3.316  0.00  0.00     0.077 C 
ATOM      3  C1  PXY d   1      -2.256   0.461   2.961  0.00  0.00    -0.082 A 
ATOM      4  C2  PXY d   1      -2.229  -0.424   1.977  0.00  0.00     0.003 A 
ATOM      5  C3  PXY d   1      -1.065  -1.077   1.663  0.00  0.00     0.003 A 
ATOM      6  C4  PXY d   1       0.095  -0.783   2.328  0.00  0.00    -0.082 A 
ATOM      7  C5  PXY d   1       0.078   0.127   3.325  0.00  0.00     0.003 A 
ATOM      8  C6  PXY d   1      -1.122   0.748   3.656  0.00  0.00     0.003 A 
ENDROOT
TORSDOF 0
ENDMDL
