MODEL 1
REMARK minimizedAffinity 3.27195168
REMARK minimizedRMSD -1
REMARK  0 active torsions:
REMARK  status: ('A' for Active; 'I' for Inactive)
ROOT
ATOM      1  C4' PXY d   1       0.750  -1.508   2.498  0.00  0.00     0.077 C 
ATOM      2  C1' PXY d   1       2.338  -0.973  -3.035  0.00  0.00     0.077 C 
ATOM      3  C1  PXY d   1       1.911  -1.106  -1.586  0.00  0.00    -0.082 A 
ATOM      4  C2  PXY d   1       2.804  -1.442  -0.669  0.00  0.00     0.003 A 
ATOM      5  C3  PXY d   1       2.429  -1.597   0.640  0.00  0.00     0.003 A 
ATOM      6  C4  PXY d   1       1.137  -1.354   1.025  0.00  0.00    -0.082 A 
ATOM      7  C5  PXY d   1       0.223  -1.000   0.097  0.00  0.00     0.003 A 
ATOM      8  C6  PXY d   1       0.615  -0.888  -1.234  0.00  0.00     0.003 A 
ENDROOT
TORSDOF 0
ENDMDL
