MODEL 1
REMARK minimizedAffinity 20.800396
REMARK minimizedRMSD -1
REMARK  3 active torsions:
REMARK  status: ('A' for Active; 'I' for Inactive)
REMARK    1  A    between atoms: C3'_2  and  C2'_3 
REMARK    2  A    between atoms: C2'_3  and  C1'_4 
REMARK    3  A    between atoms: C1'_4  and  C1_5 
ROOT
ATOM      1  C1  N4B d   1      -2.632   3.569  -2.395  0.00  0.00    -0.075 A 
ATOM      2  C2  N4B d   1      -2.357   4.938  -2.609  0.00  0.00     0.002 A 
ATOM      3  C3  N4B d   1      -3.124   5.897  -1.993  0.00  0.00     0.002 A 
ATOM      4  C4  N4B d   1      -4.178   5.512  -1.179  0.00  0.00    -0.004 A 
ATOM      5  C5  N4B d   1      -4.421   4.188  -0.958  0.00  0.00     0.002 A 
ATOM      6  C6  N4B d   1      -3.656   3.214  -1.566  0.00  0.00     0.002 A 
ENDROOT
BRANCH   1   7
ATOM      7  C1' N4B d   1      -1.875   2.486  -3.114  0.00  0.00     0.057 C 
BRANCH   7   8
ATOM      8  C2' N4B d   1      -0.925   1.804  -2.134  0.00  0.00     0.009 C 
BRANCH   8   9
ATOM      9  C3' N4B d   1       0.139   2.757  -1.617  0.00  0.00     0.004 C 
ATOM     10  C4' N4B d   1       0.405   2.589  -0.150  0.00  0.00     0.003 C 
ENDBRANCH   8   9
ENDBRANCH   7   8
ENDBRANCH   1   7
TORSDOF 3
ENDMDL
