MODEL 1
REMARK minimizedAffinity 12.2042561
REMARK minimizedRMSD -1
REMARK  3 active torsions:
REMARK  status: ('A' for Active; 'I' for Inactive)
REMARK    1  A    between atoms: C3'_2  and  C2'_3 
REMARK    2  A    between atoms: C2'_3  and  C1'_4 
REMARK    3  A    between atoms: C1'_4  and  C1_5 
ROOT
ATOM      1  C1  N4B d   1       0.965  -0.080   3.424  0.00  0.00    -0.075 A 
ATOM      2  C2  N4B d   1       1.518   0.036   4.718  0.00  0.00     0.002 A 
ATOM      3  C3  N4B d   1       0.693   0.080   5.815  0.00  0.00     0.002 A 
ATOM      4  C4  N4B d   1      -0.682   0.029   5.642  0.00  0.00    -0.004 A 
ATOM      5  C5  N4B d   1      -1.207  -0.108   4.391  0.00  0.00     0.002 A 
ATOM      6  C6  N4B d   1      -0.390  -0.158   3.279  0.00  0.00     0.002 A 
ENDROOT
BRANCH   1   7
ATOM      7  C1' N4B d   1       1.822  -0.046   2.188  0.00  0.00     0.057 C 
BRANCH   7   8
ATOM      8  C2' N4B d   1       3.136   0.659   2.510  0.00  0.00     0.009 C 
BRANCH   8   9
ATOM      9  C3' N4B d   1       4.338  -0.125   2.012  0.00  0.00     0.004 C 
ATOM     10  C4' N4B d   1       3.987  -1.103   0.931  0.00  0.00     0.003 C 
ENDBRANCH   8   9
ENDBRANCH   7   8
ENDBRANCH   1   7
TORSDOF 3
ENDMDL
