MODEL 1
REMARK minimizedAffinity 17.3523502
REMARK minimizedRMSD -1
REMARK  3 active torsions:
REMARK  status: ('A' for Active; 'I' for Inactive)
REMARK    1  A    between atoms: C3'_2  and  C2'_3 
REMARK    2  A    between atoms: C2'_3  and  C1'_4 
REMARK    3  A    between atoms: C1'_4  and  C1_5 
ROOT
ATOM      1  C1  N4B d   1       2.586  -0.286   1.889  0.00  0.00    -0.075 A 
ATOM      2  C2  N4B d   1       3.198   0.696   2.700  0.00  0.00     0.002 A 
ATOM      3  C3  N4B d   1       4.563   0.707   2.853  0.00  0.00     0.002 A 
ATOM      4  C4  N4B d   1       5.331  -0.261   2.223  0.00  0.00    -0.004 A 
ATOM      5  C5  N4B d   1       4.735  -1.190   1.422  0.00  0.00     0.002 A 
ATOM      6  C6  N4B d   1       3.364  -1.211   1.256  0.00  0.00     0.002 A 
ENDROOT
BRANCH   1   7
ATOM      7  C1' N4B d   1       1.091  -0.390   1.761  0.00  0.00     0.057 C 
BRANCH   7   8
ATOM      8  C2' N4B d   1       0.546  -1.222   2.918  0.00  0.00     0.009 C 
BRANCH   8   9
ATOM      9  C3' N4B d   1       0.008  -0.351   4.040  0.00  0.00     0.004 C 
ATOM     10  C4' N4B d   1       0.929  -0.292   5.222  0.00  0.00     0.003 C 
ENDBRANCH   8   9
ENDBRANCH   7   8
ENDBRANCH   1   7
TORSDOF 3
ENDMDL
