MODEL 1
REMARK minimizedAffinity 14.210391
REMARK minimizedRMSD -1
REMARK  3 active torsions:
REMARK  status: ('A' for Active; 'I' for Inactive)
REMARK    1  A    between atoms: C3'_2  and  C2'_3 
REMARK    2  A    between atoms: C2'_3  and  C1'_4 
REMARK    3  A    between atoms: C1'_4  and  C1_5 
ROOT
ATOM      1  C1  N4B d   1       0.711  -0.661   3.213  0.00  0.00    -0.075 A 
ATOM      2  C2  N4B d   1      -0.692  -0.507   3.183  0.00  0.00     0.002 A 
ATOM      3  C3  N4B d   1      -1.371  -0.176   4.330  0.00  0.00     0.002 A 
ATOM      4  C4  N4B d   1      -0.673  -0.012   5.518  0.00  0.00    -0.004 A 
ATOM      5  C5  N4B d   1       0.685  -0.138   5.532  0.00  0.00     0.002 A 
ATOM      6  C6  N4B d   1       1.381  -0.467   4.386  0.00  0.00     0.002 A 
ENDROOT
BRANCH   1   7
ATOM      7  C1' N4B d   1       1.487  -1.107   2.004  0.00  0.00     0.057 C 
BRANCH   7   8
ATOM      8  C2' N4B d   1       2.304   0.067   1.472  0.00  0.00     0.009 C 
BRANCH   8   9
ATOM      9  C3' N4B d   1       3.789  -0.107   1.739  0.00  0.00     0.004 C 
ATOM     10  C4' N4B d   1       4.253   0.645   2.950  0.00  0.00     0.003 C 
ENDBRANCH   8   9
ENDBRANCH   7   8
ENDBRANCH   1   7
TORSDOF 3
ENDMDL
