MODEL 1
REMARK minimizedAffinity 8.04286957
REMARK minimizedRMSD -1
REMARK  3 active torsions:
REMARK  status: ('A' for Active; 'I' for Inactive)
REMARK    1  A    between atoms: C3'_2  and  C2'_3 
REMARK    2  A    between atoms: C2'_3  and  C1'_4 
REMARK    3  A    between atoms: C1'_4  and  C1_5 
ROOT
ATOM      1  C1  N4B d   1      -2.107   3.685  -3.490  0.00  0.00    -0.075 A 
ATOM      2  C2  N4B d   1      -2.422   4.984  -3.031  0.00  0.00     0.002 A 
ATOM      3  C3  N4B d   1      -2.628   5.999  -3.933  0.00  0.00     0.002 A 
ATOM      4  C4  N4B d   1      -2.506   5.745  -5.291  0.00  0.00    -0.004 A 
ATOM      5  C5  N4B d   1      -2.227   4.483  -5.726  0.00  0.00     0.002 A 
ATOM      6  C6  N4B d   1      -2.022   3.452  -4.832  0.00  0.00     0.002 A 
ENDROOT
BRANCH   1   7
ATOM      7  C1' N4B d   1      -1.789   2.563  -2.540  0.00  0.00     0.057 C 
BRANCH   7   8
ATOM      8  C2' N4B d   1      -0.291   2.278  -2.586  0.00  0.00     0.009 C 
BRANCH   8   9
ATOM      9  C3' N4B d   1       0.503   3.277  -1.762  0.00  0.00     0.004 C 
ATOM     10  C4' N4B d   1       0.739   2.814  -0.356  0.00  0.00     0.003 C 
ENDBRANCH   8   9
ENDBRANCH   7   8
ENDBRANCH   1   7
TORSDOF 3
ENDMDL
