MODEL 1
REMARK minimizedAffinity 12.1654243
REMARK minimizedRMSD -1
REMARK  3 active torsions:
REMARK  status: ('A' for Active; 'I' for Inactive)
REMARK    1  A    between atoms: C3'_2  and  C2'_3 
REMARK    2  A    between atoms: C2'_3  and  C1'_4 
REMARK    3  A    between atoms: C1'_4  and  C1_5 
ROOT
ATOM      1  C1  N4B d   1       0.255  -1.805   2.375  0.00  0.00    -0.075 A 
ATOM      2  C2  N4B d   1      -0.144  -0.941   3.419  0.00  0.00     0.002 A 
ATOM      3  C3  N4B d   1      -1.276  -1.219   4.145  0.00  0.00     0.002 A 
ATOM      4  C4  N4B d   1      -2.033  -2.338   3.834  0.00  0.00    -0.004 A 
ATOM      5  C5  N4B d   1      -1.627  -3.181   2.841  0.00  0.00     0.002 A 
ATOM      6  C6  N4B d   1      -0.489  -2.917   2.106  0.00  0.00     0.002 A 
ENDROOT
BRANCH   1   7
ATOM      7  C1' N4B d   1       1.437  -1.498   1.498  0.00  0.00     0.057 C 
BRANCH   7   8
ATOM      8  C2' N4B d   1       2.026  -0.150   1.905  0.00  0.00     0.009 C 
BRANCH   8   9
ATOM      9  C3' N4B d   1       3.543  -0.145   1.824  0.00  0.00     0.004 C 
ATOM     10  C4' N4B d   1       4.100   1.197   1.453  0.00  0.00     0.003 C 
ENDBRANCH   8   9
ENDBRANCH   7   8
ENDBRANCH   1   7
TORSDOF 3
ENDMDL
