MODEL 1
REMARK minimizedAffinity 14.0325174
REMARK minimizedRMSD -1
REMARK  3 active torsions:
REMARK  status: ('A' for Active; 'I' for Inactive)
REMARK    1  A    between atoms: C3'_2  and  C2'_3 
REMARK    2  A    between atoms: C2'_3  and  C1'_4 
REMARK    3  A    between atoms: C1'_4  and  C1_5 
ROOT
ATOM      1  C1  N4B d   1      -0.175  -1.552   2.439  0.00  0.00    -0.075 A 
ATOM      2  C2  N4B d   1       1.109  -1.291   1.911  0.00  0.00     0.002 A 
ATOM      3  C3  N4B d   1       2.032  -0.603   2.659  0.00  0.00     0.002 A 
ATOM      4  C4  N4B d   1       1.691  -0.153   3.926  0.00  0.00    -0.004 A 
ATOM      5  C5  N4B d   1       0.458  -0.431   4.439  0.00  0.00     0.002 A 
ATOM      6  C6  N4B d   1      -0.479  -1.125   3.699  0.00  0.00     0.002 A 
ENDROOT
BRANCH   1   7
ATOM      7  C1' N4B d   1      -1.247  -2.225   1.626  0.00  0.00     0.057 C 
BRANCH   7   8
ATOM      8  C2' N4B d   1      -2.220  -2.930   2.566  0.00  0.00     0.009 C 
BRANCH   8   9
ATOM      9  C3' N4B d   1      -3.554  -3.211   1.897  0.00  0.00     0.004 C 
ATOM     10  C4' N4B d   1      -4.612  -2.215   2.270  0.00  0.00     0.003 C 
ENDBRANCH   8   9
ENDBRANCH   7   8
ENDBRANCH   1   7
TORSDOF 3
ENDMDL
