MODEL 1
REMARK minimizedAffinity 13.25457
REMARK minimizedRMSD -1
REMARK  3 active torsions:
REMARK  status: ('A' for Active; 'I' for Inactive)
REMARK    1  A    between atoms: C3'_2  and  C2'_3 
REMARK    2  A    between atoms: C2'_3  and  C1'_4 
REMARK    3  A    between atoms: C1'_4  and  C1_5 
ROOT
ATOM      1  C1  N4B d   1       0.027   2.709  -1.203  0.00  0.00    -0.075 A 
ATOM      2  C2  N4B d   1      -0.427   1.488  -0.657  0.00  0.00     0.002 A 
ATOM      3  C3  N4B d   1      -1.579   0.910  -1.131  0.00  0.00     0.002 A 
ATOM      4  C4  N4B d   1      -2.300   1.541  -2.133  0.00  0.00    -0.004 A 
ATOM      5  C5  N4B d   1      -1.842   2.706  -2.673  0.00  0.00     0.002 A 
ATOM      6  C6  N4B d   1      -0.683   3.297  -2.209  0.00  0.00     0.002 A 
ENDROOT
BRANCH   1   7
ATOM      7  C1' N4B d   1       1.234   3.422  -0.658  0.00  0.00     0.057 C 
BRANCH   7   8
ATOM      8  C2' N4B d   1       0.802   4.337   0.484  0.00  0.00     0.009 C 
BRANCH   8   9
ATOM      9  C3' N4B d   1       0.821   5.801   0.078  0.00  0.00     0.004 C 
ATOM     10  C4' N4B d   1       1.194   6.000  -1.360  0.00  0.00     0.003 C 
ENDBRANCH   8   9
ENDBRANCH   7   8
ENDBRANCH   1   7
TORSDOF 3
ENDMDL
