MODEL 1
REMARK minimizedAffinity -3.62761521
REMARK minimizedRMSD -1
REMARK  2 active torsions:
REMARK  status: ('A' for Active; 'I' for Inactive)
REMARK    1  A    between atoms: C1_2  and  C2_3 
REMARK    2  A    between atoms: C2_3  and  C3_4 
ROOT
ATOM      1  C3  UNL d   1      -1.078  -1.009  -1.350  0.00  0.00    -0.075 A 
ATOM      2  C4  UNL d   1      -1.162  -0.281  -2.546  0.00  0.00     0.002 A 
ATOM      3  C5  UNL d   1      -2.101  -0.623  -3.519  0.00  0.00     0.002 A 
ATOM      4  C6  UNL d   1      -2.958  -1.702  -3.316  0.00  0.00    -0.004 A 
ATOM      5  C7  UNL d   1      -2.872  -2.443  -2.139  0.00  0.00     0.002 A 
ATOM      6  C8  UNL d   1      -1.937  -2.100  -1.161  0.00  0.00     0.002 A 
ENDROOT
BRANCH   1   7
ATOM      7  C2  UNL d   1      -0.085  -0.625  -0.280  0.00  0.00     0.056 C 
BRANCH   7   8
ATOM      8  C1  UNL d   1      -0.709  -0.415   1.104  0.00  0.00     0.007 C 
ATOM      9  C   UNL d   1      -1.416   0.927   1.246  0.00  0.00     0.009 C 
ENDBRANCH   7   8
ENDBRANCH   1   7
TORSDOF 2
ENDMDL
