MODEL 1
REMARK minimizedAffinity -5.52275133
REMARK minimizedRMSD -1
REMARK  2 active torsions:
REMARK  status: ('A' for Active; 'I' for Inactive)
REMARK    1  A    between atoms: C1_2  and  C2_3 
REMARK    2  A    between atoms: C2_3  and  C3_4 
ROOT
ATOM      1  C3  UNL d   1       0.559   0.564   0.516  0.00  0.00    -0.075 A 
ATOM      2  C4  UNL d   1       0.619   1.615   1.443  0.00  0.00     0.002 A 
ATOM      3  C5  UNL d   1       1.842   2.203   1.768  0.00  0.00     0.002 A 
ATOM      4  C6  UNL d   1       3.018   1.743   1.180  0.00  0.00    -0.004 A 
ATOM      5  C7  UNL d   1       2.972   0.689   0.270  0.00  0.00     0.002 A 
ATOM      6  C8  UNL d   1       1.749   0.102  -0.060  0.00  0.00     0.002 A 
ENDROOT
BRANCH   1   7
ATOM      7  C2  UNL d   1      -0.765  -0.057   0.138  0.00  0.00     0.056 C 
BRANCH   7   8
ATOM      8  C1  UNL d   1      -0.642  -1.262  -0.801  0.00  0.00     0.007 C 
ATOM      9  C   UNL d   1      -1.538  -1.160  -2.028  0.00  0.00     0.009 C 
ENDBRANCH   7   8
ENDBRANCH   1   7
TORSDOF 2
ENDMDL
