MODEL 1
REMARK minimizedAffinity -5.89956379
REMARK minimizedRMSD -1
REMARK  2 active torsions:
REMARK  status: ('A' for Active; 'I' for Inactive)
REMARK    1  A    between atoms: C1_2  and  C2_3 
REMARK    2  A    between atoms: C2_3  and  C3_4 
ROOT
ATOM      1  C3  UNL d   1       0.813   1.017   0.377  0.00  0.00    -0.075 A 
ATOM      2  C4  UNL d   1       0.742   2.122   1.238  0.00  0.00     0.002 A 
ATOM      3  C5  UNL d   1       1.853   2.944   1.428  0.00  0.00     0.002 A 
ATOM      4  C6  UNL d   1       3.049   2.667   0.770  0.00  0.00    -0.004 A 
ATOM      5  C7  UNL d   1       3.136   1.563  -0.074  0.00  0.00     0.002 A 
ATOM      6  C8  UNL d   1       2.025   0.741  -0.270  0.00  0.00     0.002 A 
ENDROOT
BRANCH   1   7
ATOM      7  C2  UNL d   1      -0.394   0.140   0.144  0.00  0.00     0.056 C 
BRANCH   7   8
ATOM      8  C1  UNL d   1      -0.108  -1.101  -0.708  0.00  0.00     0.007 C 
ATOM      9  C   UNL d   1      -1.014  -1.213  -1.928  0.00  0.00     0.009 C 
ENDBRANCH   7   8
ENDBRANCH   1   7
TORSDOF 2
ENDMDL
