MODEL 1
REMARK minimizedAffinity -5.37898397
REMARK minimizedRMSD -1
REMARK  2 active torsions:
REMARK  status: ('A' for Active; 'I' for Inactive)
REMARK    1  A    between atoms: C1_2  and  C2_3 
REMARK    2  A    between atoms: C2_3  and  C3_4 
ROOT
ATOM      1  C3  UNL d   1       1.244   1.331   0.775  0.00  0.00    -0.075 A 
ATOM      2  C4  UNL d   1       0.282   1.445   1.789  0.00  0.00     0.002 A 
ATOM      3  C5  UNL d   1      -0.860   0.643   1.776  0.00  0.00     0.002 A 
ATOM      4  C6  UNL d   1      -1.060  -0.273   0.746  0.00  0.00    -0.004 A 
ATOM      5  C7  UNL d   1      -0.119  -0.383  -0.276  0.00  0.00     0.002 A 
ATOM      6  C8  UNL d   1       1.027   0.414  -0.263  0.00  0.00     0.002 A 
ENDROOT
BRANCH   1   7
ATOM      7  C2  UNL d   1       2.496   2.174   0.799  0.00  0.00     0.056 C 
BRANCH   7   8
ATOM      8  C1  UNL d   1       3.687   1.544   0.069  0.00  0.00     0.007 C 
ATOM      9  C   UNL d   1       4.329   0.401   0.843  0.00  0.00     0.009 C 
ENDBRANCH   7   8
ENDBRANCH   1   7
TORSDOF 2
ENDMDL
