MODEL 1
REMARK minimizedAffinity -5.7040596
REMARK minimizedRMSD -1
REMARK  2 active torsions:
REMARK  status: ('A' for Active; 'I' for Inactive)
REMARK    1  A    between atoms: C1_2  and  C2_3 
REMARK    2  A    between atoms: C2_3  and  C3_4 
ROOT
ATOM      1  C3  UNL d   1       0.542   0.661   0.085  0.00  0.00    -0.075 A 
ATOM      2  C4  UNL d   1       0.628   1.758   0.954  0.00  0.00     0.002 A 
ATOM      3  C5  UNL d   1       1.870   2.280   1.315  0.00  0.00     0.002 A 
ATOM      4  C6  UNL d   1       3.040   1.706   0.823  0.00  0.00    -0.004 A 
ATOM      5  C7  UNL d   1       2.967   0.605  -0.028  0.00  0.00     0.002 A 
ATOM      6  C8  UNL d   1       1.725   0.084  -0.395  0.00  0.00     0.002 A 
ENDROOT
BRANCH   1   7
ATOM      7  C2  UNL d   1      -0.801   0.110  -0.333  0.00  0.00     0.056 C 
BRANCH   7   8
ATOM      8  C1  UNL d   1      -0.750  -1.331  -0.852  0.00  0.00     0.007 C 
ATOM      9  C   UNL d   1      -1.507  -1.525  -2.159  0.00  0.00     0.009 C 
ENDBRANCH   7   8
ENDBRANCH   1   7
TORSDOF 2
ENDMDL
