MODEL 1
REMARK minimizedAffinity -0.75800091
REMARK minimizedRMSD -1
REMARK  2 active torsions:
REMARK  status: ('A' for Active; 'I' for Inactive)
REMARK    1  A    between atoms: C1_2  and  C2_3 
REMARK    2  A    between atoms: C2_3  and  C3_4 
ROOT
ATOM      1  C3  UNL d   1      -0.299  -0.393   0.082  0.00  0.00    -0.075 A 
ATOM      2  C4  UNL d   1       0.984   0.049   0.438  0.00  0.00     0.002 A 
ATOM      3  C5  UNL d   1       1.155   1.260   1.109  0.00  0.00     0.002 A 
ATOM      4  C6  UNL d   1       0.050   2.048   1.422  0.00  0.00    -0.004 A 
ATOM      5  C7  UNL d   1      -1.228   1.627   1.059  0.00  0.00     0.002 A 
ATOM      6  C8  UNL d   1      -1.402   0.413   0.391  0.00  0.00     0.002 A 
ENDROOT
BRANCH   1   7
ATOM      7  C2  UNL d   1      -0.493  -1.717  -0.618  0.00  0.00     0.056 C 
BRANCH   7   8
ATOM      8  C1  UNL d   1      -1.943  -2.002  -1.023  0.00  0.00     0.007 C 
ATOM      9  C   UNL d   1      -2.261  -1.583  -2.452  0.00  0.00     0.009 C 
ENDBRANCH   7   8
ENDBRANCH   1   7
TORSDOF 2
ENDMDL
