MODEL 1
REMARK minimizedAffinity 0.777905047
REMARK minimizedRMSD -1
REMARK  2 active torsions:
REMARK  status: ('A' for Active; 'I' for Inactive)
REMARK    1  A    between atoms: C1_2  and  C2_3 
REMARK    2  A    between atoms: C2_3  and  C3_4 
ROOT
ATOM      1  C3  UNL d   1      -1.171   0.005  -0.687  0.00  0.00    -0.075 A 
ATOM      2  C4  UNL d   1      -0.145   0.030  -1.643  0.00  0.00     0.002 A 
ATOM      3  C5  UNL d   1       1.192  -0.046  -1.250  0.00  0.00     0.002 A 
ATOM      4  C6  UNL d   1       1.519  -0.136   0.101  0.00  0.00    -0.004 A 
ATOM      5  C7  UNL d   1       0.509  -0.145   1.060  0.00  0.00     0.002 A 
ATOM      6  C8  UNL d   1      -0.829  -0.074   0.670  0.00  0.00     0.002 A 
ENDROOT
BRANCH   1   7
ATOM      7  C2  UNL d   1      -2.620   0.057  -1.108  0.00  0.00     0.056 C 
BRANCH   7   8
ATOM      8  C1  UNL d   1      -2.967  -0.884  -2.266  0.00  0.00     0.007 C 
ATOM      9  C   UNL d   1      -3.457  -2.250  -1.805  0.00  0.00     0.009 C 
ENDBRANCH   7   8
ENDBRANCH   1   7
TORSDOF 2
ENDMDL
