MODEL 1
REMARK minimizedAffinity -6.17056561
REMARK minimizedRMSD -1
REMARK  2 active torsions:
REMARK  status: ('A' for Active; 'I' for Inactive)
REMARK    1  A    between atoms: C1_2  and  C2_3 
REMARK    2  A    between atoms: C2_3  and  C3_4 
ROOT
ATOM      1  C3  UNL d   1       0.814   0.056   0.007  0.00  0.00    -0.075 A 
ATOM      2  C4  UNL d   1       1.986   0.723  -0.380  0.00  0.00     0.002 A 
ATOM      3  C5  UNL d   1       2.322   1.952   0.189  0.00  0.00     0.002 A 
ATOM      4  C6  UNL d   1       1.488   2.533   1.142  0.00  0.00    -0.004 A 
ATOM      5  C7  UNL d   1       0.313   1.888   1.521  0.00  0.00     0.002 A 
ATOM      6  C8  UNL d   1      -0.023   0.656   0.957  0.00  0.00     0.002 A 
ENDROOT
BRANCH   1   7
ATOM      7  C2  UNL d   1       0.460  -1.288  -0.583  0.00  0.00     0.056 C 
BRANCH   7   8
ATOM      8  C1  UNL d   1      -1.047  -1.548  -0.682  0.00  0.00     0.007 C 
ATOM      9  C   UNL d   1      -1.565  -1.538  -2.114  0.00  0.00     0.009 C 
ENDBRANCH   7   8
ENDBRANCH   1   7
TORSDOF 2
ENDMDL
