MODEL 1
REMARK minimizedAffinity -5.19636059
REMARK minimizedRMSD -1
REMARK  2 active torsions:
REMARK  status: ('A' for Active; 'I' for Inactive)
REMARK    1  A    between atoms: C1_2  and  C2_3 
REMARK    2  A    between atoms: C2_3  and  C3_4 
ROOT
ATOM      1  C3  UNL d   1       0.315   0.035   0.276  0.00  0.00    -0.075 A 
ATOM      2  C4  UNL d   1       0.014   1.034   1.213  0.00  0.00     0.002 A 
ATOM      3  C5  UNL d   1       1.000   1.922   1.643  0.00  0.00     0.002 A 
ATOM      4  C6  UNL d   1       2.299   1.817   1.150  0.00  0.00    -0.004 A 
ATOM      5  C7  UNL d   1       2.613   0.818   0.231  0.00  0.00     0.002 A 
ATOM      6  C8  UNL d   1       1.627  -0.070  -0.204  0.00  0.00     0.002 A 
ENDROOT
BRANCH   1   7
ATOM      7  C2  UNL d   1      -0.755  -0.911  -0.216  0.00  0.00     0.056 C 
BRANCH   7   8
ATOM      8  C1  UNL d   1      -0.913  -0.936  -1.740  0.00  0.00     0.007 C 
ATOM      9  C   UNL d   1      -1.997  -1.894  -2.215  0.00  0.00     0.009 C 
ENDBRANCH   7   8
ENDBRANCH   1   7
TORSDOF 2
ENDMDL
