MODEL 1
REMARK minimizedAffinity -2.53412604
REMARK minimizedRMSD -1
REMARK  2 active torsions:
REMARK  status: ('A' for Active; 'I' for Inactive)
REMARK    1  A    between atoms: C1_2  and  C2_3 
REMARK    2  A    between atoms: C2_3  and  C3_4 
ROOT
ATOM      1  C3  UNL d   1       0.159  -0.090  -0.662  0.00  0.00    -0.075 A 
ATOM      2  C4  UNL d   1      -0.826   0.547   0.108  0.00  0.00     0.002 A 
ATOM      3  C5  UNL d   1      -0.531   1.018   1.387  0.00  0.00     0.002 A 
ATOM      4  C6  UNL d   1       0.747   0.850   1.917  0.00  0.00    -0.004 A 
ATOM      5  C7  UNL d   1       1.728   0.204   1.168  0.00  0.00     0.002 A 
ATOM      6  C8  UNL d   1       1.437  -0.264  -0.114  0.00  0.00     0.002 A 
ENDROOT
BRANCH   1   7
ATOM      7  C2  UNL d   1      -0.146  -0.575  -2.059  0.00  0.00     0.056 C 
BRANCH   7   8
ATOM      8  C1  UNL d   1      -1.640  -0.596  -2.399  0.00  0.00     0.007 C 
ATOM      9  C   UNL d   1      -1.914  -0.808  -3.882  0.00  0.00     0.009 C 
ENDBRANCH   7   8
ENDBRANCH   1   7
TORSDOF 2
ENDMDL
