MODEL 1
REMARK minimizedAffinity -3.20609021
REMARK minimizedRMSD -1
REMARK  2 active torsions:
REMARK  status: ('A' for Active; 'I' for Inactive)
REMARK    1  A    between atoms: C1_2  and  C2_3 
REMARK    2  A    between atoms: C2_3  and  C3_4 
ROOT
ATOM      1  C3  UNL d   1      -0.823  -0.840  -1.092  0.00  0.00    -0.075 A 
ATOM      2  C4  UNL d   1      -0.950  -0.424  -2.425  0.00  0.00     0.002 A 
ATOM      3  C5  UNL d   1      -1.786  -1.112  -3.305  0.00  0.00     0.002 A 
ATOM      4  C6  UNL d   1      -2.496  -2.227  -2.868  0.00  0.00    -0.004 A 
ATOM      5  C7  UNL d   1      -2.365  -2.659  -1.549  0.00  0.00     0.002 A 
ATOM      6  C8  UNL d   1      -1.533  -1.970  -0.666  0.00  0.00     0.002 A 
ENDROOT
BRANCH   1   7
ATOM      7  C2  UNL d   1       0.057  -0.082  -0.127  0.00  0.00     0.056 C 
BRANCH   7   8
ATOM      8  C1  UNL d   1      -0.690   0.957   0.716  0.00  0.00     0.007 C 
ATOM      9  C   UNL d   1       0.195   1.642   1.748  0.00  0.00     0.009 C 
ENDBRANCH   7   8
ENDBRANCH   1   7
TORSDOF 2
ENDMDL
