MODEL 1
REMARK minimizedAffinity -2.62698555
REMARK minimizedRMSD -1
REMARK  2 active torsions:
REMARK  status: ('A' for Active; 'I' for Inactive)
REMARK    1  A    between atoms: C1_2  and  C2_3 
REMARK    2  A    between atoms: C2_3  and  C3_4 
ROOT
ATOM      1  C3  UNL d   1       0.894   0.522   0.470  0.00  0.00    -0.075 A 
ATOM      2  C4  UNL d   1       2.251   0.406   0.134  0.00  0.00     0.002 A 
ATOM      3  C5  UNL d   1       3.211   1.180   0.788  0.00  0.00     0.002 A 
ATOM      4  C6  UNL d   1       2.826   2.085   1.775  0.00  0.00    -0.004 A 
ATOM      5  C7  UNL d   1       1.479   2.220   2.104  0.00  0.00     0.002 A 
ATOM      6  C8  UNL d   1       0.517   1.444   1.455  0.00  0.00     0.002 A 
ENDROOT
BRANCH   1   7
ATOM      7  C2  UNL d   1      -0.146  -0.334  -0.213  0.00  0.00     0.056 C 
BRANCH   7   8
ATOM      8  C1  UNL d   1      -0.377  -1.691   0.461  0.00  0.00     0.007 C 
ATOM      9  C   UNL d   1      -0.856  -1.571   1.902  0.00  0.00     0.009 C 
ENDBRANCH   7   8
ENDBRANCH   1   7
TORSDOF 2
ENDMDL
