MODEL 1
REMARK minimizedAffinity -4.28425503
REMARK minimizedRMSD -1
REMARK  2 active torsions:
REMARK  status: ('A' for Active; 'I' for Inactive)
REMARK    1  A    between atoms: C1_2  and  C2_3 
REMARK    2  A    between atoms: C2_3  and  C3_4 
ROOT
ATOM      1  C3  UNL d   1       0.154   0.222  -0.082  0.00  0.00    -0.075 A 
ATOM      2  C4  UNL d   1       1.504   0.099  -0.442  0.00  0.00     0.002 A 
ATOM      3  C5  UNL d   1       2.456   0.983   0.067  0.00  0.00     0.002 A 
ATOM      4  C6  UNL d   1       2.070   2.005   0.932  0.00  0.00    -0.004 A 
ATOM      5  C7  UNL d   1       0.729   2.146   1.284  0.00  0.00     0.002 A 
ATOM      6  C8  UNL d   1      -0.224   1.260   0.779  0.00  0.00     0.002 A 
ENDROOT
BRANCH   1   7
ATOM      7  C2  UNL d   1      -0.876  -0.750  -0.606  0.00  0.00     0.056 C 
BRANCH   7   8
ATOM      8  C1  UNL d   1      -1.389  -0.417  -2.012  0.00  0.00     0.007 C 
ATOM      9  C   UNL d   1      -2.729  -1.065  -2.331  0.00  0.00     0.009 C 
ENDBRANCH   7   8
ENDBRANCH   1   7
TORSDOF 2
ENDMDL
