MODEL 1
REMARK minimizedAffinity -4.29611588
REMARK minimizedRMSD -1
REMARK  1 active torsions:
REMARK  status: ('A' for Active; 'I' for Inactive)
REMARK    1  A    between atoms: C3_4  and  O_7 
ROOT
ATOM      1  C   UNL d   1       1.868  -1.809  -0.585  0.00  0.00    -0.033 A 
ATOM      2  C1  UNL d   1       1.826  -0.758  -1.504  0.00  0.00     0.039 A 
ATOM      3  C2  UNL d   1       0.722   0.096  -1.541  0.00  0.00    -0.080 A 
ATOM      4  C3  UNL d   1      -0.331  -0.110  -0.654  0.00  0.00     0.150 A 
ATOM      5  C4  UNL d   1      -0.294  -1.152   0.267  0.00  0.00    -0.007 A 
ATOM      6  C5  UNL d   1       0.808  -2.005   0.301  0.00  0.00     0.039 A 
ENDROOT
BRANCH   4   7
ATOM      7  O   UNL d   1      -1.431   0.695  -0.655  0.00  0.00    -0.526 OA
ATOM      8  H5  UNL d   1      -1.330   1.353  -1.363  0.00  0.00     0.418 HD
ENDBRANCH   4   7
TORSDOF 1
ENDMDL
