MODEL 1
REMARK minimizedAffinity -5.19173288
REMARK minimizedRMSD -1
REMARK  1 active torsions:
REMARK  status: ('A' for Active; 'I' for Inactive)
REMARK    1  A    between atoms: C3_4  and  O_7 
ROOT
ATOM      1  C   UNL d   1      -0.166  -0.656   0.145  0.00  0.00    -0.033 A 
ATOM      2  C1  UNL d   1       0.573   0.523   0.031  0.00  0.00     0.039 A 
ATOM      3  C2  UNL d   1       1.830   0.505  -0.575  0.00  0.00    -0.080 A 
ATOM      4  C3  UNL d   1       2.336  -0.696  -1.064  0.00  0.00     0.150 A 
ATOM      5  C4  UNL d   1       1.604  -1.874  -0.957  0.00  0.00    -0.007 A 
ATOM      6  C5  UNL d   1       0.349  -1.854  -0.350  0.00  0.00     0.039 A 
ENDROOT
BRANCH   4   7
ATOM      7  O   UNL d   1       3.561  -0.763  -1.659  0.00  0.00    -0.526 OA
ATOM      8  H5  UNL d   1       3.964   0.121  -1.636  0.00  0.00     0.418 HD
ENDBRANCH   4   7
TORSDOF 1
ENDMDL
