MODEL 1
REMARK minimizedAffinity 3.15281653
REMARK minimizedRMSD -1
REMARK  1 active torsions:
REMARK  status: ('A' for Active; 'I' for Inactive)
REMARK    1  A    between atoms: C3_4  and  O_7 
ROOT
ATOM      1  C   UNL d   1       5.999   5.073   0.407  0.00  0.00    -0.033 A 
ATOM      2  C1  UNL d   1       6.000   6.000   1.452  0.00  0.00     0.039 A 
ATOM      3  C2  UNL d   1       4.994   5.964   2.420  0.00  0.00    -0.080 A 
ATOM      4  C3  UNL d   1       3.996   4.998   2.333  0.00  0.00     0.150 A 
ATOM      5  C4  UNL d   1       3.991   4.069   1.298  0.00  0.00    -0.007 A 
ATOM      6  C5  UNL d   1       4.996   4.107   0.331  0.00  0.00     0.039 A 
ENDROOT
BRANCH   4   7
ATOM      7  O   UNL d   1       2.991   4.927   3.252  0.00  0.00    -0.526 OA
ATOM      8  H5  UNL d   1       3.108   5.649   3.892  0.00  0.00     0.418 HD
ENDBRANCH   4   7
TORSDOF 1
ENDMDL
