MODEL 1
REMARK minimizedAffinity 0.555978358
REMARK minimizedRMSD -1
REMARK  1 active torsions:
REMARK  status: ('A' for Active; 'I' for Inactive)
REMARK    1  A    between atoms: C3_4  and  O_7 
ROOT
ATOM      1  C   UNL d   1       4.841   3.189   4.142  0.00  0.00    -0.033 A 
ATOM      2  C1  UNL d   1       5.995   2.590   4.650  0.00  0.00     0.039 A 
ATOM      3  C2  UNL d   1       5.992   1.234   4.983  0.00  0.00    -0.080 A 
ATOM      4  C3  UNL d   1       4.830   0.489   4.803  0.00  0.00     0.150 A 
ATOM      5  C4  UNL d   1       3.677   1.078   4.294  0.00  0.00    -0.007 A 
ATOM      6  C5  UNL d   1       3.682   2.433   3.962  0.00  0.00     0.039 A 
ENDROOT
BRANCH   4   7
ATOM      7  O   UNL d   1       4.777  -0.836   5.118  0.00  0.00    -0.526 OA
ATOM      8  H5  UNL d   1       5.637  -1.100   5.486  0.00  0.00     0.418 HD
ENDBRANCH   4   7
TORSDOF 1
ENDMDL
