MODEL 1
REMARK minimizedAffinity -5.01195288
REMARK minimizedRMSD -1
REMARK  1 active torsions:
REMARK  status: ('A' for Active; 'I' for Inactive)
REMARK    1  A    between atoms: C3_4  and  O_7 
ROOT
ATOM      1  C   UNL d   1       2.466  -1.468  -1.021  0.00  0.00    -0.033 A 
ATOM      2  C1  UNL d   1       2.466  -0.141  -1.457  0.00  0.00     0.039 A 
ATOM      3  C2  UNL d   1       1.302   0.625  -1.367  0.00  0.00    -0.080 A 
ATOM      4  C3  UNL d   1       0.147   0.054  -0.840  0.00  0.00     0.150 A 
ATOM      5  C4  UNL d   1       0.141  -1.266  -0.401  0.00  0.00    -0.007 A 
ATOM      6  C5  UNL d   1       1.304  -2.030  -0.492  0.00  0.00     0.039 A 
ENDROOT
BRANCH   4   7
ATOM      7  O   UNL d   1      -1.014   0.761  -0.737  0.00  0.00    -0.526 OA
ATOM      8  H5  UNL d   1      -0.868   1.648  -1.105  0.00  0.00     0.418 HD
ENDBRANCH   4   7
TORSDOF 1
ENDMDL
