MODEL 1
REMARK minimizedAffinity -3.41031909
REMARK minimizedRMSD -1
REMARK  1 active torsions:
REMARK  status: ('A' for Active; 'I' for Inactive)
REMARK    1  A    between atoms: C3_4  and  O_7 
ROOT
ATOM      1  C   UNL d   1      -1.823   1.491   2.127  0.00  0.00    -0.033 A 
ATOM      2  C1  UNL d   1      -1.589   1.601   3.499  0.00  0.00     0.039 A 
ATOM      3  C2  UNL d   1      -2.090   0.636   4.374  0.00  0.00    -0.080 A 
ATOM      4  C3  UNL d   1      -2.822  -0.434   3.865  0.00  0.00     0.150 A 
ATOM      5  C4  UNL d   1      -3.056  -0.552   2.499  0.00  0.00    -0.007 A 
ATOM      6  C5  UNL d   1      -2.555   0.414   1.627  0.00  0.00     0.039 A 
ENDROOT
BRANCH   4   7
ATOM      7  O   UNL d   1      -3.336  -1.398   4.681  0.00  0.00    -0.526 OA
ATOM      8  H5  UNL d   1      -3.120  -1.170   5.600  0.00  0.00     0.418 HD
ENDBRANCH   4   7
TORSDOF 1
ENDMDL
