MODEL 1
REMARK minimizedAffinity -3.3177135
REMARK minimizedRMSD -1
REMARK  1 active torsions:
REMARK  status: ('A' for Active; 'I' for Inactive)
REMARK    1  A    between atoms: C3_4  and  O_7 
ROOT
ATOM      1  C   UNL d   1      -0.709   1.549   1.121  0.00  0.00    -0.033 A 
ATOM      2  C1  UNL d   1      -1.005   1.904   2.439  0.00  0.00     0.039 A 
ATOM      3  C2  UNL d   1      -1.748   1.041   3.247  0.00  0.00    -0.080 A 
ATOM      4  C3  UNL d   1      -2.188  -0.173   2.727  0.00  0.00     0.150 A 
ATOM      5  C4  UNL d   1      -1.894  -0.535   1.416  0.00  0.00    -0.007 A 
ATOM      6  C5  UNL d   1      -1.153   0.328   0.610  0.00  0.00     0.039 A 
ENDROOT
BRANCH   4   7
ATOM      7  O   UNL d   1      -2.920  -1.046   3.476  0.00  0.00    -0.526 OA
ATOM      8  H5  UNL d   1      -3.070  -0.650   4.350  0.00  0.00     0.418 HD
ENDBRANCH   4   7
TORSDOF 1
ENDMDL
