MODEL 1
REMARK minimizedAffinity -4.3432169
REMARK minimizedRMSD -1
REMARK  1 active torsions:
REMARK  status: ('A' for Active; 'I' for Inactive)
REMARK    1  A    between atoms: C3_4  and  O_7 
ROOT
ATOM      1  C   UNL d   1      -0.625  -0.042   0.193  0.00  0.00    -0.033 A 
ATOM      2  C1  UNL d   1       0.250   0.955  -0.244  0.00  0.00     0.039 A 
ATOM      3  C2  UNL d   1       1.513   0.614  -0.731  0.00  0.00    -0.080 A 
ATOM      4  C3  UNL d   1       1.889  -0.725  -0.777  0.00  0.00     0.150 A 
ATOM      5  C4  UNL d   1       1.021  -1.724  -0.348  0.00  0.00    -0.007 A 
ATOM      6  C5  UNL d   1      -0.239  -1.382   0.139  0.00  0.00     0.039 A 
ENDROOT
BRANCH   4   7
ATOM      7  O   UNL d   1       3.113  -1.106  -1.239  0.00  0.00    -0.526 OA
ATOM      8  H5  UNL d   1       3.616  -0.308  -1.474  0.00  0.00     0.418 HD
ENDBRANCH   4   7
TORSDOF 1
ENDMDL
