MODEL 1
REMARK minimizedAffinity -4.96424866
REMARK minimizedRMSD -1
REMARK  1 active torsions:
REMARK  status: ('A' for Active; 'I' for Inactive)
REMARK    1  A    between atoms: C3_4  and  O_7 
ROOT
ATOM      1  C   UNL d   1      -0.624  -0.310  -0.473  0.00  0.00    -0.033 A 
ATOM      2  C1  UNL d   1      -0.205  -1.620  -0.233  0.00  0.00     0.039 A 
ATOM      3  C2  UNL d   1       1.151  -1.945  -0.301  0.00  0.00    -0.080 A 
ATOM      4  C3  UNL d   1       2.077  -0.953  -0.609  0.00  0.00     0.150 A 
ATOM      5  C4  UNL d   1       1.668   0.355  -0.846  0.00  0.00    -0.007 A 
ATOM      6  C5  UNL d   1       0.313   0.678  -0.779  0.00  0.00     0.039 A 
ENDROOT
BRANCH   4   7
ATOM      7  O   UNL d   1       3.411  -1.224  -0.692  0.00  0.00    -0.526 OA
ATOM      8  H5  UNL d   1       3.542  -2.173  -0.532  0.00  0.00     0.418 HD
ENDBRANCH   4   7
TORSDOF 1
ENDMDL
