MODEL 1
REMARK minimizedAffinity -4.65103722
REMARK minimizedRMSD -1
REMARK  1 active torsions:
REMARK  status: ('A' for Active; 'I' for Inactive)
REMARK    1  A    between atoms: C3_4  and  O_7 
ROOT
ATOM      1  C   UNL d   1       1.919  -0.932  -1.246  0.00  0.00    -0.033 A 
ATOM      2  C1  UNL d   1       1.226  -2.038  -0.748  0.00  0.00     0.039 A 
ATOM      3  C2  UNL d   1      -0.010  -1.866  -0.123  0.00  0.00    -0.080 A 
ATOM      4  C3  UNL d   1      -0.543  -0.585  -0.002  0.00  0.00     0.150 A 
ATOM      5  C4  UNL d   1       0.140   0.520  -0.499  0.00  0.00    -0.007 A 
ATOM      6  C5  UNL d   1       1.375   0.347  -1.123  0.00  0.00     0.039 A 
ENDROOT
BRANCH   4   7
ATOM      7  O   UNL d   1      -1.744  -0.367   0.604  0.00  0.00    -0.526 OA
ATOM      8  H5  UNL d   1      -2.086  -1.218   0.924  0.00  0.00     0.418 HD
ENDBRANCH   4   7
TORSDOF 1
ENDMDL
