MODEL 1
REMARK minimizedAffinity -2.3783102
REMARK minimizedRMSD -1
REMARK  1 active torsions:
REMARK  status: ('A' for Active; 'I' for Inactive)
REMARK    1  A    between atoms: C3_4  and  O_7 
ROOT
ATOM      1  C   UNL d   1      -0.756   2.227  -0.080  0.00  0.00    -0.033 A 
ATOM      2  C1  UNL d   1      -0.708   3.247   0.871  0.00  0.00     0.039 A 
ATOM      3  C2  UNL d   1      -1.177   3.019   2.166  0.00  0.00    -0.080 A 
ATOM      4  C3  UNL d   1      -1.689   1.768   2.497  0.00  0.00     0.150 A 
ATOM      5  C4  UNL d   1      -1.736   0.745   1.556  0.00  0.00    -0.007 A 
ATOM      6  C5  UNL d   1      -1.269   0.975   0.262  0.00  0.00     0.039 A 
ENDROOT
BRANCH   4   7
ATOM      7  O   UNL d   1      -2.162   1.500   3.747  0.00  0.00    -0.526 OA
ATOM      8  H5  UNL d   1      -2.093   2.308   4.283  0.00  0.00     0.418 HD
ENDBRANCH   4   7
TORSDOF 1
ENDMDL
