MODEL 1
REMARK minimizedAffinity -3.82166576
REMARK minimizedRMSD -1
REMARK  1 active torsions:
REMARK  status: ('A' for Active; 'I' for Inactive)
REMARK    1  A    between atoms: C3_4  and  O_7 
ROOT
ATOM      1  C   UNL d   1      -3.774   0.855   3.634  0.00  0.00    -0.033 A 
ATOM      2  C1  UNL d   1      -2.837   1.890   3.629  0.00  0.00     0.039 A 
ATOM      3  C2  UNL d   1      -1.861   1.945   2.631  0.00  0.00    -0.080 A 
ATOM      4  C3  UNL d   1      -1.835   0.962   1.646  0.00  0.00     0.150 A 
ATOM      5  C4  UNL d   1      -2.768  -0.069   1.643  0.00  0.00    -0.007 A 
ATOM      6  C5  UNL d   1      -3.741  -0.124   2.640  0.00  0.00     0.039 A 
ENDROOT
BRANCH   4   7
ATOM      7  O   UNL d   1      -0.899   0.971   0.655  0.00  0.00    -0.526 OA
ATOM      8  H5  UNL d   1      -0.303   1.725   0.801  0.00  0.00     0.418 HD
ENDBRANCH   4   7
TORSDOF 1
ENDMDL
