MODEL 1
REMARK minimizedAffinity -3.34177685
REMARK minimizedRMSD -1
REMARK  3 active torsions:
REMARK  status: ('A' for Active; 'I' for Inactive)
REMARK    1  A    between atoms: C3'_2  and  C2'_3 
REMARK    2  A    between atoms: C2'_3  and  C1'_4 
REMARK    3  A    between atoms: C1'_4  and  C1_5 
ROOT
ATOM      1  C1  N4B d   1       0.140  -0.062  -0.107  0.00  0.00    -0.075 A 
ATOM      2  C2  N4B d   1       0.338  -1.398  -0.520  0.00  0.00     0.002 A 
ATOM      3  C3  N4B d   1       1.542  -2.017  -0.289  0.00  0.00     0.002 A 
ATOM      4  C4  N4B d   1       2.564  -1.317   0.334  0.00  0.00    -0.004 A 
ATOM      5  C5  N4B d   1       2.356  -0.035   0.753  0.00  0.00     0.002 A 
ATOM      6  C6  N4B d   1       1.150   0.598   0.531  0.00  0.00     0.002 A 
ENDROOT
BRANCH   1   7
ATOM      7  C1' N4B d   1      -1.130   0.684  -0.414  0.00  0.00     0.057 C 
BRANCH   7   8
ATOM      8  C2' N4B d   1      -1.994   0.741   0.842  0.00  0.00     0.009 C 
BRANCH   8   9
ATOM      9  C3' N4B d   1      -3.466   0.915   0.512  0.00  0.00     0.004 C 
ATOM     10  C4' N4B d   1      -4.236   1.572   1.618  0.00  0.00     0.003 C 
ENDBRANCH   8   9
ENDBRANCH   7   8
ENDBRANCH   1   7
TORSDOF 3
ENDMDL
