MODEL 1
REMARK minimizedAffinity -5.02356768
REMARK minimizedRMSD -1
REMARK  3 active torsions:
REMARK  status: ('A' for Active; 'I' for Inactive)
REMARK    1  A    between atoms: C3'_2  and  C2'_3 
REMARK    2  A    between atoms: C2'_3  and  C1'_4 
REMARK    3  A    between atoms: C1'_4  and  C1_5 
ROOT
ATOM      1  C1  N4B d   1      -0.638   0.104   0.049  0.00  0.00    -0.075 A 
ATOM      2  C2  N4B d   1      -0.459  -1.206  -0.446  0.00  0.00     0.002 A 
ATOM      3  C3  N4B d   1       0.745  -1.845  -0.277  0.00  0.00     0.002 A 
ATOM      4  C4  N4B d   1       1.786  -1.189   0.364  0.00  0.00    -0.004 A 
ATOM      5  C5  N4B d   1       1.596   0.067   0.862  0.00  0.00     0.002 A 
ATOM      6  C6  N4B d   1       0.390   0.719   0.703  0.00  0.00     0.002 A 
ENDROOT
BRANCH   1   7
ATOM      7  C1' N4B d   1      -1.908   0.876  -0.186  0.00  0.00     0.057 C 
BRANCH   7   8
ATOM      8  C2' N4B d   1      -2.309   1.587   1.103  0.00  0.00     0.009 C 
BRANCH   8   9
ATOM      9  C3' N4B d   1      -3.817   1.705   1.242  0.00  0.00     0.004 C 
ATOM     10  C4' N4B d   1      -4.474   0.396   1.563  0.00  0.00     0.003 C 
ENDBRANCH   8   9
ENDBRANCH   7   8
ENDBRANCH   1   7
TORSDOF 3
ENDMDL
