MODEL 1
REMARK minimizedAffinity -5.83684683
REMARK minimizedRMSD -1
REMARK  3 active torsions:
REMARK  status: ('A' for Active; 'I' for Inactive)
REMARK    1  A    between atoms: C3'_2  and  C2'_3 
REMARK    2  A    between atoms: C2'_3  and  C1'_4 
REMARK    3  A    between atoms: C1'_4  and  C1_5 
ROOT
ATOM      1  C1  N4B d   1       0.829  -0.577   0.015  0.00  0.00    -0.075 A 
ATOM      2  C2  N4B d   1       1.763  -1.632  -0.069  0.00  0.00     0.002 A 
ATOM      3  C3  N4B d   1       3.082  -1.408   0.241  0.00  0.00     0.002 A 
ATOM      4  C4  N4B d   1       3.491  -0.137   0.617  0.00  0.00    -0.004 A 
ATOM      5  C5  N4B d   1       2.578   0.871   0.720  0.00  0.00     0.002 A 
ATOM      6  C6  N4B d   1       1.248   0.659   0.415  0.00  0.00     0.002 A 
ENDROOT
BRANCH   1   7
ATOM      7  C1' N4B d   1      -0.608  -0.753  -0.397  0.00  0.00     0.057 C 
BRANCH   7   8
ATOM      8  C2' N4B d   1      -1.315   0.598  -0.338  0.00  0.00     0.009 C 
BRANCH   8   9
ATOM      9  C3' N4B d   1      -2.811   0.447  -0.126  0.00  0.00     0.004 C 
ATOM     10  C4' N4B d   1      -3.317   1.246   1.038  0.00  0.00     0.003 C 
ENDBRANCH   8   9
ENDBRANCH   7   8
ENDBRANCH   1   7
TORSDOF 3
ENDMDL
