MODEL 1
REMARK minimizedAffinity -4.42170191
REMARK minimizedRMSD -1
REMARK  1 active torsions:
REMARK  status: ('A' for Active; 'I' for Inactive)
REMARK    1  A    between atoms: C1_2  and  C2_3 
ROOT
ATOM      1  C2  UNL d   1      -0.169   0.219   1.137  0.00  0.00    -0.077 A 
ATOM      2  C3  UNL d   1       1.217   0.024   1.228  0.00  0.00     0.002 A 
ATOM      3  C4  UNL d   1       1.745  -0.853   2.178  0.00  0.00     0.002 A 
ATOM      4  C5  UNL d   1       0.896  -1.544   3.039  0.00  0.00    -0.004 A 
ATOM      5  C6  UNL d   1      -0.483  -1.355   2.957  0.00  0.00     0.002 A 
ATOM      6  C7  UNL d   1      -1.013  -0.478   2.010  0.00  0.00     0.002 A 
ENDROOT
BRANCH   1   7
ATOM      7  C1  UNL d   1      -0.743   1.127   0.081  0.00  0.00     0.055 C 
ATOM      8  C   UNL d   1      -0.297   0.708  -1.312  0.00  0.00     0.019 C 
ENDBRANCH   1   7
TORSDOF 1
ENDMDL
