MODEL 1
REMARK minimizedAffinity -0.414048761
REMARK minimizedRMSD -1
REMARK  1 active torsions:
REMARK  status: ('A' for Active; 'I' for Inactive)
REMARK    1  A    between atoms: C1_2  and  C2_3 
ROOT
ATOM      1  C2  UNL d   1       0.891  -1.770   2.376  0.00  0.00    -0.077 A 
ATOM      2  C3  UNL d   1       0.588  -1.570   1.021  0.00  0.00     0.002 A 
ATOM      3  C4  UNL d   1       1.480  -0.888   0.192  0.00  0.00     0.002 A 
ATOM      4  C5  UNL d   1       2.682  -0.406   0.705  0.00  0.00    -0.004 A 
ATOM      5  C6  UNL d   1       2.992  -0.598   2.051  0.00  0.00     0.002 A 
ATOM      6  C7  UNL d   1       2.101  -1.278   2.882  0.00  0.00     0.002 A 
ENDROOT
BRANCH   1   7
ATOM      7  C1  UNL d   1      -0.047  -2.548   3.261  0.00  0.00     0.055 C 
ATOM      8  C   UNL d   1      -0.493  -3.842   2.594  0.00  0.00     0.019 C 
ENDBRANCH   1   7
TORSDOF 1
ENDMDL
