MODEL 1
REMARK minimizedAffinity -2.29393721
REMARK minimizedRMSD -1
REMARK  1 active torsions:
REMARK  status: ('A' for Active; 'I' for Inactive)
REMARK    1  A    between atoms: C1_2  and  C2_3 
ROOT
ATOM      1  C2  UNL d   1       0.362   0.457  -0.584  0.00  0.00    -0.077 A 
ATOM      2  C3  UNL d   1       0.944   0.692   0.669  0.00  0.00     0.002 A 
ATOM      3  C4  UNL d   1       2.091  -0.004   1.057  0.00  0.00     0.002 A 
ATOM      4  C5  UNL d   1       2.667  -0.935   0.197  0.00  0.00    -0.004 A 
ATOM      5  C6  UNL d   1       2.095  -1.178  -1.052  0.00  0.00     0.002 A 
ATOM      6  C7  UNL d   1       0.948  -0.484  -1.441  0.00  0.00     0.002 A 
ENDROOT
BRANCH   1   7
ATOM      7  C1  UNL d   1      -0.846   1.242  -1.024  0.00  0.00     0.055 C 
ATOM      8  C   UNL d   1      -0.444   2.488  -1.800  0.00  0.00     0.019 C 
ENDBRANCH   1   7
TORSDOF 1
ENDMDL
