MODEL 1
REMARK minimizedAffinity -1.68353748
REMARK minimizedRMSD -1
REMARK  1 active torsions:
REMARK  status: ('A' for Active; 'I' for Inactive)
REMARK    1  A    between atoms: C1_2  and  C2_3 
ROOT
ATOM      1  C2  UNL d   1      -1.087  -0.432   0.280  0.00  0.00    -0.077 A 
ATOM      2  C3  UNL d   1      -0.260  -1.378   0.900  0.00  0.00     0.002 A 
ATOM      3  C4  UNL d   1       1.088  -1.096   1.130  0.00  0.00     0.002 A 
ATOM      4  C5  UNL d   1       1.619   0.134   0.746  0.00  0.00    -0.004 A 
ATOM      5  C6  UNL d   1       0.805   1.081   0.126  0.00  0.00     0.002 A 
ATOM      6  C7  UNL d   1      -0.542   0.800  -0.105  0.00  0.00     0.002 A 
ENDROOT
BRANCH   1   7
ATOM      7  C1  UNL d   1      -2.553  -0.716   0.076  0.00  0.00     0.055 C 
ATOM      8  C   UNL d   1      -2.881  -0.898  -1.399  0.00  0.00     0.019 C 
ENDBRANCH   1   7
TORSDOF 1
ENDMDL
