MODEL 1
REMARK minimizedAffinity 8.38209724
REMARK minimizedRMSD -1
REMARK  0 active torsions:
REMARK  status: ('A' for Active; 'I' for Inactive)
ROOT
ATOM      1  C1  DEN d   1       2.600   0.163  -0.577  0.00  0.00     0.130 A 
ATOM      2  C2  DEN d   1       2.381  -0.174  -1.980  0.00  0.00    -0.031 A 
ATOM      3  C3  DEN d   1       1.851   1.025  -2.661  0.00  0.00     0.027 A 
ATOM      4  C4  DEN d   1       1.356   3.360  -1.682  0.00  0.00     0.027 A 
ATOM      5  C5  DEN d   1       1.372   4.122  -0.536  0.00  0.00    -0.003 A 
ATOM      6  C6  DEN d   1       1.762   3.614   0.675  0.00  0.00     0.001 A 
ATOM      7  C7  DEN d   1       2.197   2.317   0.758  0.00  0.00     0.017 A 
ATOM      8  C8  DEN d   1       2.177   1.540  -0.393  0.00  0.00    -0.094 A 
ATOM      9  C9  DEN d   1       1.790   2.076  -1.609  0.00  0.00    -0.072 A 
ENDROOT
TORSDOF 0
ENDMDL
