MODEL 1
REMARK minimizedAffinity 13.9873018
REMARK minimizedRMSD -1
REMARK  0 active torsions:
REMARK  status: ('A' for Active; 'I' for Inactive)
ROOT
ATOM      1  C1  DEN d   1      -4.758  -1.356   5.292  0.00  0.00     0.130 A 
ATOM      2  C2  DEN d   1      -5.355  -1.744   4.017  0.00  0.00    -0.031 A 
ATOM      3  C3  DEN d   1      -5.036  -0.696   3.026  0.00  0.00     0.027 A 
ATOM      4  C4  DEN d   1      -3.679   1.475   3.340  0.00  0.00     0.027 A 
ATOM      5  C5  DEN d   1      -2.982   2.242   4.247  0.00  0.00    -0.003 A 
ATOM      6  C6  DEN d   1      -2.858   1.883   5.563  0.00  0.00     0.001 A 
ATOM      7  C7  DEN d   1      -3.402   0.704   6.000  0.00  0.00     0.017 A 
ATOM      8  C8  DEN d   1      -4.112  -0.071   5.092  0.00  0.00    -0.094 A 
ATOM      9  C9  DEN d   1      -4.216   0.302   3.763  0.00  0.00    -0.072 A 
ENDROOT
TORSDOF 0
ENDMDL
