MODEL 1
REMARK minimizedAffinity 15.5543652
REMARK minimizedRMSD -1
REMARK  0 active torsions:
REMARK  status: ('A' for Active; 'I' for Inactive)
ROOT
ATOM      1  C1  DEN d   1       0.107  -3.365  -4.054  0.00  0.00     0.130 A 
ATOM      2  C2  DEN d   1      -0.764  -4.448  -3.605  0.00  0.00    -0.031 A 
ATOM      3  C3  DEN d   1      -0.928  -4.326  -2.143  0.00  0.00     0.027 A 
ATOM      4  C4  DEN d   1       0.076  -2.574  -0.538  0.00  0.00     0.027 A 
ATOM      5  C5  DEN d   1       0.888  -1.465  -0.453  0.00  0.00    -0.003 A 
ATOM      6  C6  DEN d   1       1.520  -0.937  -1.547  0.00  0.00     0.001 A 
ATOM      7  C7  DEN d   1       1.313  -1.490  -2.783  0.00  0.00     0.017 A 
ATOM      8  C8  DEN d   1       0.501  -2.613  -2.876  0.00  0.00    -0.094 A 
ATOM      9  C9  DEN d   1      -0.139  -3.124  -1.760  0.00  0.00    -0.072 A 
ENDROOT
TORSDOF 0
ENDMDL
