MODEL 1
REMARK minimizedAffinity 22.2294979
REMARK minimizedRMSD -1
REMARK  0 active torsions:
REMARK  status: ('A' for Active; 'I' for Inactive)
ROOT
ATOM      1  C1  DEN d   1      -4.128   1.503   2.852  0.00  0.00     0.130 A 
ATOM      2  C2  DEN d   1      -3.164   2.153   3.736  0.00  0.00    -0.031 A 
ATOM      3  C3  DEN d   1      -3.116   1.389   4.999  0.00  0.00     0.027 A 
ATOM      4  C4  DEN d   1      -4.431  -0.728   5.666  0.00  0.00     0.027 A 
ATOM      5  C5  DEN d   1      -5.376  -1.640   5.251  0.00  0.00    -0.003 A 
ATOM      6  C6  DEN d   1      -5.991  -1.549   4.030  0.00  0.00     0.001 A 
ATOM      7  C7  DEN d   1      -5.635  -0.550   3.163  0.00  0.00     0.017 A 
ATOM      8  C8  DEN d   1      -4.688   0.378   3.578  0.00  0.00    -0.094 A 
ATOM      9  C9  DEN d   1      -4.069   0.262   4.811  0.00  0.00    -0.072 A 
ENDROOT
TORSDOF 0
ENDMDL
