MODEL 1
REMARK minimizedAffinity 14.5439672
REMARK minimizedRMSD -1
REMARK  0 active torsions:
REMARK  status: ('A' for Active; 'I' for Inactive)
ROOT
ATOM      1  C1  DEN d   1       0.715   1.332   3.692  0.00  0.00     0.130 A 
ATOM      2  C2  DEN d   1       1.543   1.503   4.883  0.00  0.00    -0.031 A 
ATOM      3  C3  DEN d   1       0.662   1.902   5.999  0.00  0.00     0.027 A 
ATOM      4  C4  DEN d   1      -1.892   2.264   6.000  0.00  0.00     0.027 A 
ATOM      5  C5  DEN d   1      -3.028   2.248   5.221  0.00  0.00    -0.003 A 
ATOM      6  C6  DEN d   1      -2.992   1.962   3.882  0.00  0.00     0.001 A 
ATOM      7  C7  DEN d   1      -1.801   1.635   3.290  0.00  0.00     0.017 A 
ATOM      8  C8  DEN d   1      -0.650   1.655   4.067  0.00  0.00    -0.094 A 
ATOM      9  C9  DEN d   1      -0.709   1.935   5.421  0.00  0.00    -0.072 A 
ENDROOT
TORSDOF 0
ENDMDL
