MODEL 1
REMARK minimizedAffinity 10.9803953
REMARK minimizedRMSD -1
REMARK  0 active torsions:
REMARK  status: ('A' for Active; 'I' for Inactive)
ROOT
ATOM      1  C1  DEN d   1      -2.662  -4.210  -0.974  0.00  0.00     0.130 A 
ATOM      2  C2  DEN d   1      -2.524  -3.918  -2.398  0.00  0.00    -0.031 A 
ATOM      3  C3  DEN d   1      -1.522  -2.843  -2.549  0.00  0.00     0.027 A 
ATOM      4  C4  DEN d   1      -0.175  -1.614  -0.725  0.00  0.00     0.027 A 
ATOM      5  C5  DEN d   1       0.042  -1.508   0.631  0.00  0.00    -0.003 A 
ATOM      6  C6  DEN d   1      -0.646  -2.265   1.542  0.00  0.00     0.001 A 
ATOM      7  C7  DEN d   1      -1.553  -3.195   1.105  0.00  0.00     0.017 A 
ATOM      8  C8  DEN d   1      -1.782  -3.302  -0.261  0.00  0.00    -0.094 A 
ATOM      9  C9  DEN d   1      -1.067  -2.536  -1.166  0.00  0.00    -0.072 A 
ENDROOT
TORSDOF 0
ENDMDL
