MODEL 1
REMARK minimizedAffinity 12.553853
REMARK minimizedRMSD -1
REMARK  0 active torsions:
REMARK  status: ('A' for Active; 'I' for Inactive)
ROOT
ATOM      1  C1  DEN d   1       1.234   2.607  -1.973  0.00  0.00     0.130 A 
ATOM      2  C2  DEN d   1       1.753   1.469  -1.220  0.00  0.00    -0.031 A 
ATOM      3  C3  DEN d   1       2.086   1.935   0.141  0.00  0.00     0.027 A 
ATOM      4  C4  DEN d   1       1.844   4.295   1.152  0.00  0.00     0.027 A 
ATOM      5  C5  DEN d   1       1.460   5.593   0.895  0.00  0.00    -0.003 A 
ATOM      6  C6  DEN d   1       1.010   5.990  -0.336  0.00  0.00     0.001 A 
ATOM      7  C7  DEN d   1       0.889   5.071  -1.344  0.00  0.00     0.017 A 
ATOM      8  C8  DEN d   1       1.281   3.762  -1.094  0.00  0.00    -0.094 A 
ATOM      9  C9  DEN d   1       1.722   3.377   0.160  0.00  0.00    -0.072 A 
ENDROOT
TORSDOF 0
ENDMDL
