MODEL 1
REMARK minimizedAffinity 19.8090172
REMARK minimizedRMSD -1
REMARK  0 active torsions:
REMARK  status: ('A' for Active; 'I' for Inactive)
ROOT
ATOM      1  C1  DEN d   1       1.213   3.698  -1.386  0.00  0.00     0.130 A 
ATOM      2  C2  DEN d   1       1.773   4.155  -0.118  0.00  0.00    -0.031 A 
ATOM      3  C3  DEN d   1       2.547   3.041   0.467  0.00  0.00     0.027 A 
ATOM      4  C4  DEN d   1       2.935   0.669  -0.466  0.00  0.00     0.027 A 
ATOM      5  C5  DEN d   1       2.651  -0.189  -1.506  0.00  0.00    -0.003 A 
ATOM      6  C6  DEN d   1       1.846   0.175  -2.554  0.00  0.00     0.001 A 
ATOM      7  C7  DEN d   1       1.334   1.444  -2.607  0.00  0.00     0.017 A 
ATOM      8  C8  DEN d   1       1.610   2.312  -1.559  0.00  0.00    -0.094 A 
ATOM      9  C9  DEN d   1       2.435   1.929  -0.515  0.00  0.00    -0.072 A 
ENDROOT
TORSDOF 0
ENDMDL
