MODEL 1
REMARK minimizedAffinity -3.77939463
REMARK minimizedRMSD -1
REMARK  0 active torsions:
REMARK  status: ('A' for Active; 'I' for Inactive)
ROOT
ATOM      1  C1  DEN d   1       2.600   1.693  -1.811  0.00  0.00     0.130 A 
ATOM      2  C2  DEN d   1       2.269   2.511  -0.646  0.00  0.00    -0.031 A 
ATOM      3  C3  DEN d   1       1.172   1.843   0.083  0.00  0.00     0.027 A 
ATOM      4  C4  DEN d   1      -0.037  -0.366  -0.472  0.00  0.00     0.027 A 
ATOM      5  C5  DEN d   1      -0.113  -1.410  -1.368  0.00  0.00    -0.003 A 
ATOM      6  C6  DEN d   1       0.680  -1.475  -2.482  0.00  0.00     0.001 A 
ATOM      7  C7  DEN d   1       1.616  -0.500  -2.707  0.00  0.00     0.017 A 
ATOM      8  C8  DEN d   1       1.693   0.559  -1.813  0.00  0.00    -0.094 A 
ATOM      9  C9  DEN d   1       0.891   0.601  -0.685  0.00  0.00    -0.072 A 
ENDROOT
TORSDOF 0
ENDMDL
