MODEL 1
REMARK minimizedAffinity -1.60798681
REMARK minimizedRMSD -1
REMARK  0 active torsions:
REMARK  status: ('A' for Active; 'I' for Inactive)
ROOT
ATOM      1  C1  DEN d   1       0.922   1.345  -0.479  0.00  0.00     0.130 A 
ATOM      2  C2  DEN d   1       0.520   1.525   0.913  0.00  0.00    -0.031 A 
ATOM      3  C3  DEN d   1       0.007   0.232   1.411  0.00  0.00     0.027 A 
ATOM      4  C4  DEN d   1      -0.196  -2.019   0.169  0.00  0.00     0.027 A 
ATOM      5  C5  DEN d   1       0.008  -2.661  -1.032  0.00  0.00    -0.003 A 
ATOM      6  C6  DEN d   1       0.495  -2.009  -2.134  0.00  0.00     0.001 A 
ATOM      7  C7  DEN d   1       0.837  -0.686  -2.045  0.00  0.00     0.017 A 
ATOM      8  C8  DEN d   1       0.628  -0.030  -0.838  0.00  0.00    -0.094 A 
ATOM      9  C9  DEN d   1       0.146  -0.710   0.268  0.00  0.00    -0.072 A 
ENDROOT
TORSDOF 0
ENDMDL
