MODEL 1
REMARK minimizedAffinity -2.66619468
REMARK minimizedRMSD -1
REMARK  0 active torsions:
REMARK  status: ('A' for Active; 'I' for Inactive)
ROOT
ATOM      1  C1  DEN d   1       1.414  -3.741  -1.885  0.00  0.00     0.130 A 
ATOM      2  C2  DEN d   1       0.682  -3.451  -0.655  0.00  0.00    -0.031 A 
ATOM      3  C3  DEN d   1       0.567  -1.984  -0.527  0.00  0.00     0.027 A 
ATOM      4  C4  DEN d   1       1.443  -0.144  -2.108  0.00  0.00     0.027 A 
ATOM      5  C5  DEN d   1       2.136   0.098  -3.274  0.00  0.00    -0.003 A 
ATOM      6  C6  DEN d   1       2.661  -0.912  -4.034  0.00  0.00     0.001 A 
ATOM      7  C7  DEN d   1       2.463  -2.216  -3.661  0.00  0.00     0.017 A 
ATOM      8  C8  DEN d   1       1.773  -2.467  -2.483  0.00  0.00    -0.094 A 
ATOM      9  C9  DEN d   1       1.238  -1.432  -1.735  0.00  0.00    -0.072 A 
ENDROOT
TORSDOF 0
ENDMDL
