MODEL 1
REMARK minimizedAffinity -7.32196808
REMARK minimizedRMSD -1
REMARK  0 active torsions:
REMARK  status: ('A' for Active; 'I' for Inactive)
ROOT
ATOM      1  C1  DEN d   1      -0.049  -1.454   0.449  0.00  0.00     0.130 A 
ATOM      2  C2  DEN d   1      -0.270  -0.074   0.871  0.00  0.00    -0.031 A 
ATOM      3  C3  DEN d   1       0.356   0.815  -0.128  0.00  0.00     0.027 A 
ATOM      4  C4  DEN d   1       1.635   0.191  -2.280  0.00  0.00     0.027 A 
ATOM      5  C5  DEN d   1       2.089  -0.855  -3.052  0.00  0.00    -0.003 A 
ATOM      6  C6  DEN d   1       1.893  -2.163  -2.697  0.00  0.00     0.001 A 
ATOM      7  C7  DEN d   1       1.187  -2.460  -1.562  0.00  0.00     0.017 A 
ATOM      8  C8  DEN d   1       0.732  -1.411  -0.774  0.00  0.00    -0.094 A 
ATOM      9  C9  DEN d   1       0.929  -0.095  -1.156  0.00  0.00    -0.072 A 
ENDROOT
TORSDOF 0
ENDMDL
