MODEL 1
REMARK minimizedAffinity -4.3842988
REMARK minimizedRMSD -1
REMARK  0 active torsions:
REMARK  status: ('A' for Active; 'I' for Inactive)
ROOT
ATOM      1  C   UNL d   1      -2.246  -0.067   2.404  0.00  0.00     0.020 A 
ATOM      2  C1  UNL d   1      -1.870  -1.389   2.636  0.00  0.00     0.020 A 
ATOM      3  C2  UNL d   1      -0.772  -1.931   1.965  0.00  0.00     0.034 A 
ATOM      4  C3  UNL d   1      -0.047  -1.151   1.057  0.00  0.00     0.017 A 
ATOM      5  C4  UNL d   1      -0.426   0.176   0.824  0.00  0.00     0.017 A 
ATOM      6  C5  UNL d   1      -1.526   0.714   1.499  0.00  0.00     0.034 A 
ATOM      7 Cl   UNL d   1       0.420   1.201  -0.282  0.00  0.00    -0.070 Cl
ATOM      8 Cl1  UNL d   1       1.300  -1.886   0.262  0.00  0.00    -0.070 Cl
ENDROOT
TORSDOF 0
ENDMDL
