MODEL 1
REMARK minimizedAffinity -4.47763157
REMARK minimizedRMSD -1
REMARK  0 active torsions:
REMARK  status: ('A' for Active; 'I' for Inactive)
ROOT
ATOM      1  C   UNL d   1      -2.605  -0.325   1.839  0.00  0.00     0.020 A 
ATOM      2  C1  UNL d   1      -2.218  -1.643   2.082  0.00  0.00     0.020 A 
ATOM      3  C2  UNL d   1      -1.051  -2.145   1.502  0.00  0.00     0.034 A 
ATOM      4  C3  UNL d   1      -0.267  -1.330   0.678  0.00  0.00     0.017 A 
ATOM      5  C4  UNL d   1      -0.656  -0.008   0.435  0.00  0.00     0.017 A 
ATOM      6  C5  UNL d   1      -1.826   0.490   1.018  0.00  0.00     0.034 A 
ATOM      7 Cl   UNL d   1       0.259   1.059  -0.570  0.00  0.00    -0.070 Cl
ATOM      8 Cl1  UNL d   1       1.164  -2.017  -0.005  0.00  0.00    -0.070 Cl
ENDROOT
TORSDOF 0
ENDMDL
