MODEL 1
REMARK minimizedAffinity -4.79539156
REMARK minimizedRMSD -1
REMARK  0 active torsions:
REMARK  status: ('A' for Active; 'I' for Inactive)
ROOT
ATOM      1  C   UNL d   1      -0.046  -2.216   0.027  0.00  0.00     0.020 A 
ATOM      2  C1  UNL d   1      -1.211  -2.645   0.661  0.00  0.00     0.020 A 
ATOM      3  C2  UNL d   1      -2.094  -1.711   1.208  0.00  0.00     0.034 A 
ATOM      4  C3  UNL d   1      -1.812  -0.343   1.123  0.00  0.00     0.017 A 
ATOM      5  C4  UNL d   1      -0.642   0.087   0.487  0.00  0.00     0.017 A 
ATOM      6  C5  UNL d   1       0.238  -0.852  -0.059  0.00  0.00     0.034 A 
ATOM      7 Cl   UNL d   1      -0.226   1.759   0.343  0.00  0.00    -0.070 Cl
ATOM      8 Cl1  UNL d   1      -2.947   0.756   1.821  0.00  0.00    -0.070 Cl
ENDROOT
TORSDOF 0
ENDMDL
