MODEL 1
REMARK minimizedAffinity -1.88623106
REMARK minimizedRMSD -1
REMARK  0 active torsions:
REMARK  status: ('A' for Active; 'I' for Inactive)
ROOT
ATOM      1  C   UNL d   1       0.365  -2.626   0.684  0.00  0.00     0.020 A 
ATOM      2  C1  UNL d   1       1.290  -1.815   0.028  0.00  0.00     0.020 A 
ATOM      3  C2  UNL d   1       1.131  -0.428   0.034  0.00  0.00     0.034 A 
ATOM      4  C3  UNL d   1       0.045   0.153   0.699  0.00  0.00     0.017 A 
ATOM      5  C4  UNL d   1      -0.882  -0.661   1.358  0.00  0.00     0.017 A 
ATOM      6  C5  UNL d   1      -0.719  -2.050   1.348  0.00  0.00     0.034 A 
ATOM      7 Cl   UNL d   1      -2.248  -0.017   2.200  0.00  0.00    -0.070 Cl
ATOM      8 Cl1  UNL d   1      -0.088   1.876   0.667  0.00  0.00    -0.070 Cl
ENDROOT
TORSDOF 0
ENDMDL
