MODEL 1
REMARK minimizedAffinity -4.67726755
REMARK minimizedRMSD -1
REMARK  0 active torsions:
REMARK  status: ('A' for Active; 'I' for Inactive)
ROOT
ATOM      1  C   UNL d   1       0.872   0.460   0.011  0.00  0.00     0.020 A 
ATOM      2  C1  UNL d   1       1.141  -0.908   0.005  0.00  0.00     0.020 A 
ATOM      3  C2  UNL d   1       0.253  -1.797   0.614  0.00  0.00     0.034 A 
ATOM      4  C3  UNL d   1      -0.908  -1.319   1.232  0.00  0.00     0.017 A 
ATOM      5  C4  UNL d   1      -1.178   0.054   1.237  0.00  0.00     0.017 A 
ATOM      6  C5  UNL d   1      -0.285   0.940   0.626  0.00  0.00     0.034 A 
ATOM      7 Cl   UNL d   1      -2.590   0.719   1.980  0.00  0.00    -0.070 Cl
ATOM      8 Cl1  UNL d   1      -1.962  -2.475   1.965  0.00  0.00    -0.070 Cl
ENDROOT
TORSDOF 0
ENDMDL
