MODEL 1
REMARK minimizedAffinity -1.52729607
REMARK minimizedRMSD -1
REMARK  0 active torsions:
REMARK  status: ('A' for Active; 'I' for Inactive)
ROOT
ATOM      1  C   UNL d   1       0.358  -1.546   0.942  0.00  0.00     0.020 A 
ATOM      2  C1  UNL d   1       1.364  -1.584  -0.023  0.00  0.00     0.020 A 
ATOM      3  C2  UNL d   1       1.653  -0.444  -0.776  0.00  0.00     0.034 A 
ATOM      4  C3  UNL d   1       0.935   0.739  -0.566  0.00  0.00     0.017 A 
ATOM      5  C4  UNL d   1      -0.075   0.776   0.402  0.00  0.00     0.017 A 
ATOM      6  C5  UNL d   1      -0.360  -0.368   1.153  0.00  0.00     0.034 A 
ATOM      7 Cl   UNL d   1      -1.004   2.199   0.717  0.00  0.00    -0.070 Cl
ATOM      8 Cl1  UNL d   1       1.346   2.110  -1.534  0.00  0.00    -0.070 Cl
ENDROOT
TORSDOF 0
ENDMDL
