MODEL 1
REMARK minimizedAffinity 14.9629755
REMARK minimizedRMSD -1
REMARK  0 active torsions:
REMARK  status: ('A' for Active; 'I' for Inactive)
ROOT
ATOM      1  C   UNL d   1      -2.936  -5.992  -5.985  0.00  0.00     0.020 A 
ATOM      2  C1  UNL d   1      -1.580  -5.668  -5.993  0.00  0.00     0.020 A 
ATOM      3  C2  UNL d   1      -1.182  -4.329  -5.997  0.00  0.00     0.034 A 
ATOM      4  C3  UNL d   1      -2.142  -3.310  -5.993  0.00  0.00     0.017 A 
ATOM      5  C4  UNL d   1      -3.502  -3.637  -5.984  0.00  0.00     0.017 A 
ATOM      6  C5  UNL d   1      -3.895  -4.979  -5.980  0.00  0.00     0.034 A 
ATOM      7 Cl   UNL d   1      -4.744  -2.435  -5.978  0.00  0.00    -0.070 Cl
ATOM      8 Cl1  UNL d   1      -1.579  -1.676  -5.998  0.00  0.00    -0.070 Cl
ENDROOT
TORSDOF 0
ENDMDL
