MODEL 1
REMARK minimizedAffinity -0.336629957
REMARK minimizedRMSD -1
REMARK  0 active torsions:
REMARK  status: ('A' for Active; 'I' for Inactive)
ROOT
ATOM      1  C   UNL d   1       0.435   0.596   0.158  0.00  0.00     0.020 A 
ATOM      2  C1  UNL d   1      -0.106  -0.432  -0.612  0.00  0.00     0.020 A 
ATOM      3  C2  UNL d   1      -0.124  -0.326  -2.005  0.00  0.00     0.034 A 
ATOM      4  C3  UNL d   1       0.401   0.811  -2.631  0.00  0.00     0.017 A 
ATOM      5  C4  UNL d   1       0.944   1.842  -1.856  0.00  0.00     0.017 A 
ATOM      6  C5  UNL d   1       0.959   1.731  -0.462  0.00  0.00     0.034 A 
ATOM      7 Cl   UNL d   1       1.609   3.275  -2.557  0.00  0.00    -0.070 Cl
ATOM      8 Cl1  UNL d   1       0.346   0.875  -4.356  0.00  0.00    -0.070 Cl
ENDROOT
TORSDOF 0
ENDMDL
