MODEL 1
REMARK minimizedAffinity -1.66259038
REMARK minimizedRMSD -1
REMARK  0 active torsions:
REMARK  status: ('A' for Active; 'I' for Inactive)
ROOT
ATOM      1  C   UNL d   1       1.087  -1.710   0.513  0.00  0.00     0.020 A 
ATOM      2  C1  UNL d   1       0.032  -2.364   1.147  0.00  0.00     0.020 A 
ATOM      3  C2  UNL d   1      -1.085  -1.640   1.570  0.00  0.00     0.034 A 
ATOM      4  C3  UNL d   1      -1.149  -0.258   1.358  0.00  0.00     0.017 A 
ATOM      5  C4  UNL d   1      -0.089   0.398   0.721  0.00  0.00     0.017 A 
ATOM      6  C5  UNL d   1       1.027  -0.332   0.300  0.00  0.00     0.034 A 
ATOM      7 Cl   UNL d   1      -0.096   2.100   0.425  0.00  0.00    -0.070 Cl
ATOM      8 Cl1  UNL d   1      -2.561   0.574   1.906  0.00  0.00    -0.070 Cl
ENDROOT
TORSDOF 0
ENDMDL
