MODEL 1
REMARK minimizedAffinity -0.634298921
REMARK minimizedRMSD -1
REMARK  0 active torsions:
REMARK  status: ('A' for Active; 'I' for Inactive)
ROOT
ATOM      1  C   UNL d   1       1.245   1.860  -4.339  0.00  0.00     0.020 A 
ATOM      2  C1  UNL d   1       0.013   1.802  -3.689  0.00  0.00     0.020 A 
ATOM      3  C2  UNL d   1      -0.042   1.829  -2.294  0.00  0.00     0.034 A 
ATOM      4  C3  UNL d   1       1.136   1.914  -1.544  0.00  0.00     0.017 A 
ATOM      5  C4  UNL d   1       2.373   1.973  -2.198  0.00  0.00     0.017 A 
ATOM      6  C5  UNL d   1       2.422   1.945  -3.595  0.00  0.00     0.034 A 
ATOM      7 Cl   UNL d   1       3.870   2.079  -1.341  0.00  0.00    -0.070 Cl
ATOM      8 Cl1  UNL d   1       0.993   1.944   0.177  0.00  0.00    -0.070 Cl
ENDROOT
TORSDOF 0
ENDMDL
