MODEL 1
REMARK minimizedAffinity -2.99570537
REMARK minimizedRMSD -1
REMARK  0 active torsions:
REMARK  status: ('A' for Active; 'I' for Inactive)
ROOT
ATOM      1  C   UNL d   1      -1.959  -2.070   2.124  0.00  0.00     0.020 A 
ATOM      2  C1  UNL d   1      -2.364  -0.737   2.072  0.00  0.00     0.020 A 
ATOM      3  C2  UNL d   1      -1.602   0.197   1.368  0.00  0.00     0.034 A 
ATOM      4  C3  UNL d   1      -0.431  -0.200   0.712  0.00  0.00     0.017 A 
ATOM      5  C4  UNL d   1      -0.025  -1.539   0.764  0.00  0.00     0.017 A 
ATOM      6  C5  UNL d   1      -0.792  -2.470   1.471  0.00  0.00     0.034 A 
ATOM      7 Cl   UNL d   1       1.407  -2.104  -0.020  0.00  0.00    -0.070 Cl
ATOM      8 Cl1  UNL d   1       0.462   1.008  -0.141  0.00  0.00    -0.070 Cl
ENDROOT
TORSDOF 0
ENDMDL
