MODEL 1
REMARK minimizedAffinity -3.26091671
REMARK minimizedRMSD -1
REMARK  0 active torsions:
REMARK  status: ('A' for Active; 'I' for Inactive)
ROOT
ATOM      1  C   UNL d   1       0.279  -2.202   0.224  0.00  0.00     0.020 A 
ATOM      2  C1  UNL d   1       0.495  -0.988  -0.427  0.00  0.00     0.020 A 
ATOM      3  C2  UNL d   1      -0.231   0.145  -0.052  0.00  0.00     0.034 A 
ATOM      4  C3  UNL d   1      -1.177   0.065   0.977  0.00  0.00     0.017 A 
ATOM      5  C4  UNL d   1      -1.394  -1.154   1.629  0.00  0.00     0.017 A 
ATOM      6  C5  UNL d   1      -0.664  -2.284   1.250  0.00  0.00     0.034 A 
ATOM      7 Cl   UNL d   1      -2.544  -1.329   2.907  0.00  0.00    -0.070 Cl
ATOM      8 Cl1  UNL d   1      -2.039   1.505   1.389  0.00  0.00    -0.070 Cl
ENDROOT
TORSDOF 0
ENDMDL
