MODEL 1
REMARK minimizedAffinity -3.88939142
REMARK minimizedRMSD -1
REMARK  0 active torsions:
REMARK  status: ('A' for Active; 'I' for Inactive)
ROOT
ATOM      1  C   UNL d   1       0.526   1.453  -3.561  0.00  0.00     0.020 A 
ATOM      2  C1  UNL d   1       0.229   2.789  -3.296  0.00  0.00     0.020 A 
ATOM      3  C2  UNL d   1       0.170   3.243  -1.977  0.00  0.00     0.034 A 
ATOM      4  C3  UNL d   1       0.409   2.360  -0.918  0.00  0.00     0.017 A 
ATOM      5  C4  UNL d   1       0.707   1.019  -1.185  0.00  0.00     0.017 A 
ATOM      6  C5  UNL d   1       0.765   0.570  -2.507  0.00  0.00     0.034 A 
ATOM      7 Cl   UNL d   1       1.014  -0.130   0.070  0.00  0.00    -0.070 Cl
ATOM      8 Cl1  UNL d   1       0.321   2.990   0.689  0.00  0.00    -0.070 Cl
ENDROOT
TORSDOF 0
ENDMDL
