MODEL 1
REMARK minimizedAffinity -2.61512804
REMARK minimizedRMSD -1
REMARK  0 active torsions:
REMARK  status: ('A' for Active; 'I' for Inactive)
ROOT
ATOM      1  C   UNL d   1       1.318   0.827  -0.217  0.00  0.00     0.020 A 
ATOM      2  C1  UNL d   1       1.768  -0.484  -0.071  0.00  0.00     0.020 A 
ATOM      3  C2  UNL d   1       0.951  -1.439   0.539  0.00  0.00     0.034 A 
ATOM      4  C3  UNL d   1      -0.320  -1.083   1.005  0.00  0.00     0.017 A 
ATOM      5  C4  UNL d   1      -0.771   0.234   0.857  0.00  0.00     0.017 A 
ATOM      6  C5  UNL d   1       0.051   1.185   0.245  0.00  0.00     0.034 A 
ATOM      7 Cl   UNL d   1      -2.327   0.748   1.406  0.00  0.00    -0.070 Cl
ATOM      8 Cl1  UNL d   1      -1.277  -2.314   1.749  0.00  0.00    -0.070 Cl
ENDROOT
TORSDOF 0
ENDMDL
