MODEL 1
REMARK minimizedAffinity -1.23255277
REMARK minimizedRMSD -1
REMARK  0 active torsions:
REMARK  status: ('A' for Active; 'I' for Inactive)
ROOT
ATOM      1  C   UNL d   1      -0.098   1.613  -3.794  0.00  0.00     0.020 A 
ATOM      2  C1  UNL d   1       1.017   1.672  -4.629  0.00  0.00     0.020 A 
ATOM      3  C2  UNL d   1       2.301   1.703  -4.079  0.00  0.00     0.034 A 
ATOM      4  C3  UNL d   1       2.473   1.675  -2.691  0.00  0.00     0.017 A 
ATOM      5  C4  UNL d   1       1.353   1.615  -1.853  0.00  0.00     0.017 A 
ATOM      6  C5  UNL d   1       0.070   1.585  -2.409  0.00  0.00     0.034 A 
ATOM      7 Cl   UNL d   1       1.485   1.578  -0.130  0.00  0.00    -0.070 Cl
ATOM      8 Cl1  UNL d   1       4.088   1.716  -2.080  0.00  0.00    -0.070 Cl
ENDROOT
TORSDOF 0
ENDMDL
