MODEL 1
REMARK minimizedAffinity 0.915188313
REMARK minimizedRMSD -1
REMARK  0 active torsions:
REMARK  status: ('A' for Active; 'I' for Inactive)
ROOT
ATOM      1  C   UNL d   1       1.181   2.060  -2.876  0.00  0.00     0.020 A 
ATOM      2  C1  UNL d   1       1.932   0.888  -2.961  0.00  0.00     0.020 A 
ATOM      3  C2  UNL d   1       1.890  -0.045  -1.923  0.00  0.00     0.034 A 
ATOM      4  C3  UNL d   1       1.096   0.192  -0.795  0.00  0.00     0.017 A 
ATOM      5  C4  UNL d   1       0.343   1.369  -0.710  0.00  0.00     0.017 A 
ATOM      6  C5  UNL d   1       0.388   2.300  -1.753  0.00  0.00     0.034 A 
ATOM      7 Cl   UNL d   1      -0.660   1.731   0.649  0.00  0.00    -0.070 Cl
ATOM      8 Cl1  UNL d   1       1.092  -1.006   0.450  0.00  0.00    -0.070 Cl
ENDROOT
TORSDOF 0
ENDMDL
