MODEL 1
REMARK minimizedAffinity -2.09912086
REMARK minimizedRMSD -1
REMARK  0 active torsions:
REMARK  status: ('A' for Active; 'I' for Inactive)
ROOT
ATOM      1  C1  BNZ d   1       4.916   3.017  -1.464  0.00  0.00     0.000 A 
ATOM      2  C2  BNZ d   1       5.440   4.163  -0.927  0.00  0.00     0.000 A 
ATOM      3  C3  BNZ d   1       6.000   4.159   0.320  0.00  0.00     0.000 A 
ATOM      4  C4  BNZ d   1       5.999   3.021   1.043  0.00  0.00     0.000 A 
ATOM      5  C5  BNZ d   1       5.466   1.860   0.519  0.00  0.00     0.000 A 
ATOM      6  C6  BNZ d   1       4.939   1.858  -0.751  0.00  0.00     0.000 A 
ENDROOT
TORSDOF 0
ENDMDL
