MODEL 1
REMARK minimizedAffinity 1.74161732
REMARK minimizedRMSD -1
REMARK  0 active torsions:
REMARK  status: ('A' for Active; 'I' for Inactive)
ROOT
ATOM      1  C1  BNZ d   1       3.967  -0.592  -0.356  0.00  0.00     0.000 A 
ATOM      2  C2  BNZ d   1       3.742  -1.942  -0.314  0.00  0.00     0.000 A 
ATOM      3  C3  BNZ d   1       2.502  -2.454  -0.574  0.00  0.00     0.000 A 
ATOM      4  C4  BNZ d   1       1.479  -1.613  -0.835  0.00  0.00     0.000 A 
ATOM      5  C5  BNZ d   1       1.688  -0.249  -0.871  0.00  0.00     0.000 A 
ATOM      6  C6  BNZ d   1       2.946   0.260  -0.648  0.00  0.00     0.000 A 
ENDROOT
TORSDOF 0
ENDMDL
