MODEL 1
REMARK minimizedAffinity 4.10812855
REMARK minimizedRMSD -1
REMARK  0 active torsions:
REMARK  status: ('A' for Active; 'I' for Inactive)
ROOT
ATOM      1  C1  BNZ d   1       5.245  -0.252   0.209  0.00  0.00     0.000 A 
ATOM      2  C2  BNZ d   1       3.882  -0.363   0.130  0.00  0.00     0.000 A 
ATOM      3  C3  BNZ d   1       3.173   0.362  -0.786  0.00  0.00     0.000 A 
ATOM      4  C4  BNZ d   1       3.821   1.226  -1.593  0.00  0.00     0.000 A 
ATOM      5  C5  BNZ d   1       5.194   1.356  -1.519  0.00  0.00     0.000 A 
ATOM      6  C6  BNZ d   1       5.909   0.596  -0.623  0.00  0.00     0.000 A 
ENDROOT
TORSDOF 0
ENDMDL
