MODEL 1
REMARK minimizedAffinity 0.731975138
REMARK minimizedRMSD -1
REMARK  0 active torsions:
REMARK  status: ('A' for Active; 'I' for Inactive)
ROOT
ATOM      1  C1  BNZ d   1       3.629   1.330  -0.876  0.00  0.00     0.000 A 
ATOM      2  C2  BNZ d   1       4.873   1.887  -1.001  0.00  0.00     0.000 A 
ATOM      3  C3  BNZ d   1       5.995   1.107  -0.981  0.00  0.00     0.000 A 
ATOM      4  C4  BNZ d   1       5.874  -0.224  -0.795  0.00  0.00     0.000 A 
ATOM      5  C5  BNZ d   1       4.626  -0.799  -0.658  0.00  0.00     0.000 A 
ATOM      6  C6  BNZ d   1       3.497  -0.015  -0.718  0.00  0.00     0.000 A 
ENDROOT
TORSDOF 0
ENDMDL
