MODEL 1
REMARK minimizedAffinity 4.46292925
REMARK minimizedRMSD -1
REMARK  0 active torsions:
REMARK  status: ('A' for Active; 'I' for Inactive)
ROOT
ATOM      1  C1  BNZ d   1      -2.523  -0.088  -4.348  0.00  0.00     0.000 A 
ATOM      2  C2  BNZ d   1      -2.739   0.508  -5.562  0.00  0.00     0.000 A 
ATOM      3  C3  BNZ d   1      -3.664   1.504  -5.698  0.00  0.00     0.000 A 
ATOM      4  C4  BNZ d   1      -4.401   1.875  -4.630  0.00  0.00     0.000 A 
ATOM      5  C5  BNZ d   1      -4.202   1.278  -3.402  0.00  0.00     0.000 A 
ATOM      6  C6  BNZ d   1      -3.242   0.302  -3.260  0.00  0.00     0.000 A 
ENDROOT
TORSDOF 0
ENDMDL
