MODEL 1
REMARK minimizedAffinity 2.14044976
REMARK minimizedRMSD -1
REMARK  0 active torsions:
REMARK  status: ('A' for Active; 'I' for Inactive)
ROOT
ATOM      1  C1  BNZ d   1       1.967  -1.826  -1.768  0.00  0.00     0.000 A 
ATOM      2  C2  BNZ d   1       2.735  -0.727  -1.486  0.00  0.00     0.000 A 
ATOM      3  C3  BNZ d   1       3.551  -0.706  -0.390  0.00  0.00     0.000 A 
ATOM      4  C4  BNZ d   1       3.569  -1.766   0.444  0.00  0.00     0.000 A 
ATOM      5  C5  BNZ d   1       2.793  -2.877   0.179  0.00  0.00     0.000 A 
ATOM      6  C6  BNZ d   1       2.003  -2.910  -0.947  0.00  0.00     0.000 A 
ENDROOT
TORSDOF 0
ENDMDL
