MODEL 1
REMARK minimizedAffinity 5.52477646
REMARK minimizedRMSD -1
REMARK  0 active torsions:
REMARK  status: ('A' for Active; 'I' for Inactive)
ROOT
ATOM      1  C1  BNZ d   1       4.170  -0.393   0.555  0.00  0.00     0.000 A 
ATOM      2  C2  BNZ d   1       5.313   0.350   0.431  0.00  0.00     0.000 A 
ATOM      3  C3  BNZ d   1       5.435   1.287  -0.556  0.00  0.00     0.000 A 
ATOM      4  C4  BNZ d   1       4.431   1.452  -1.442  0.00  0.00     0.000 A 
ATOM      5  C5  BNZ d   1       3.276   0.704  -1.336  0.00  0.00     0.000 A 
ATOM      6  C6  BNZ d   1       3.141  -0.211  -0.317  0.00  0.00     0.000 A 
ENDROOT
TORSDOF 0
ENDMDL
