MODEL 1
REMARK minimizedAffinity 6.96258211
REMARK minimizedRMSD -1
REMARK  0 active torsions:
REMARK  status: ('A' for Active; 'I' for Inactive)
ROOT
ATOM      1  C1  BNZ d   1       3.790  -0.269   0.839  0.00  0.00     0.000 A 
ATOM      2  C2  BNZ d   1       4.828   0.551   0.483  0.00  0.00     0.000 A 
ATOM      3  C3  BNZ d   1       4.876   1.121  -0.758  0.00  0.00     0.000 A 
ATOM      4  C4  BNZ d   1       3.909   0.840  -1.655  0.00  0.00     0.000 A 
ATOM      5  C5  BNZ d   1       2.861   0.008  -1.315  0.00  0.00     0.000 A 
ATOM      6  C6  BNZ d   1       2.795  -0.533  -0.051  0.00  0.00     0.000 A 
ENDROOT
TORSDOF 0
ENDMDL
