MODEL 1
REMARK minimizedAffinity -2.095258
REMARK minimizedRMSD -1
REMARK  1 active torsions:
REMARK  status: ('A' for Active; 'I' for Inactive)
REMARK    1  A    between atoms: C1_2  and  C2_3 
ROOT
ATOM      1  C2  UNL d   1      -0.655   0.089  -0.289  0.00  0.00    -0.076 A 
ATOM      2  C3  UNL d   1      -0.639  -1.105   0.453  0.00  0.00     0.004 A 
ATOM      3  C4  UNL d   1       0.365  -1.355   1.388  0.00  0.00    -0.003 A 
ATOM      4  C5  UNL d   1       1.368  -0.415   1.596  0.00  0.00     0.000 A 
ATOM      5  C6  UNL d   1       1.358   0.782   0.882  0.00  0.00     0.000 A 
ATOM      6  C7  UNL d   1       0.344   1.057  -0.053  0.00  0.00    -0.073 A 
ATOM      7  C8  UNL d   1       0.386   2.362  -0.800  0.00  0.00     0.078 C 
ENDROOT
BRANCH   1   8
ATOM      8  C1  UNL d   1      -1.753   0.293  -1.308  0.00  0.00     0.053 C 
ATOM      9  C   UNL d   1      -1.743  -0.770  -2.396  0.00  0.00     0.018 C 
ENDBRANCH   1   8
TORSDOF 1
ENDMDL
