MODEL 1
REMARK minimizedAffinity 1.99603963
REMARK minimizedRMSD -1
REMARK  1 active torsions:
REMARK  status: ('A' for Active; 'I' for Inactive)
REMARK    1  A    between atoms: C3_4  and  O_7 
ROOT
ATOM      1  C   UNL d   1      -0.175  -4.584  -4.396  0.00  0.00    -0.033 A 
ATOM      2  C1  UNL d   1      -0.696  -3.828  -5.448  0.00  0.00     0.039 A 
ATOM      3  C2  UNL d   1      -1.935  -4.157  -6.000  0.00  0.00    -0.080 A 
ATOM      4  C3  UNL d   1      -2.643  -5.242  -5.491  0.00  0.00     0.150 A 
ATOM      5  C4  UNL d   1      -2.132  -5.997  -4.440  0.00  0.00    -0.007 A 
ATOM      6  C5  UNL d   1      -0.894  -5.667  -3.891  0.00  0.00     0.039 A 
ENDROOT
BRANCH   4   7
ATOM      7  O   UNL d   1      -3.855  -5.605  -6.000  0.00  0.00    -0.526 OA
ATOM      8  H5  UNL d   1      -4.068  -5.011  -6.739  0.00  0.00     0.418 HD
ENDBRANCH   4   7
TORSDOF 1
ENDMDL
