MODEL 1
REMARK minimizedAffinity -2.52552843
REMARK minimizedRMSD -1
REMARK  1 active torsions:
REMARK  status: ('A' for Active; 'I' for Inactive)
REMARK    1  A    between atoms: C3_4  and  O_7 
ROOT
ATOM      1  C   UNL d   1       2.154  -6.000  -2.598  0.00  0.00    -0.033 A 
ATOM      2  C1  UNL d   1       1.106  -5.291  -2.008  0.00  0.00     0.039 A 
ATOM      3  C2  UNL d   1       0.267  -4.498  -2.795  0.00  0.00    -0.080 A 
ATOM      4  C3  UNL d   1       0.487  -4.424  -4.167  0.00  0.00     0.150 A 
ATOM      5  C4  UNL d   1       1.526  -5.131  -4.762  0.00  0.00    -0.007 A 
ATOM      6  C5  UNL d   1       2.363  -5.921  -3.975  0.00  0.00     0.039 A 
ENDROOT
BRANCH   4   7
ATOM      7  O   UNL d   1      -0.302  -3.660  -4.975  0.00  0.00    -0.526 OA
ATOM      8  H5  UNL d   1      -0.961  -3.207  -4.422  0.00  0.00     0.418 HD
ENDBRANCH   4   7
TORSDOF 1
ENDMDL
