MODEL 1
REMARK minimizedAffinity -1.12717605
REMARK minimizedRMSD -1
REMARK  1 active torsions:
REMARK  status: ('A' for Active; 'I' for Inactive)
REMARK    1  A    between atoms: C3_4  and  O_7 
ROOT
ATOM      1  C   UNL d   1      -5.999  -2.750   4.712  0.00  0.00    -0.033 A 
ATOM      2  C1  UNL d   1      -5.143  -2.198   3.757  0.00  0.00     0.039 A 
ATOM      3  C2  UNL d   1      -3.760  -2.286   3.921  0.00  0.00    -0.080 A 
ATOM      4  C3  UNL d   1      -3.245  -2.929   5.044  0.00  0.00     0.150 A 
ATOM      5  C4  UNL d   1      -4.091  -3.485   5.998  0.00  0.00    -0.007 A 
ATOM      6  C5  UNL d   1      -5.472  -3.395   5.832  0.00  0.00     0.039 A 
ENDROOT
BRANCH   4   7
ATOM      7  O   UNL d   1      -1.902  -3.036   5.250  0.00  0.00    -0.526 OA
ATOM      8  H5  UNL d   1      -1.442  -2.581   4.525  0.00  0.00     0.418 HD
ENDBRANCH   4   7
TORSDOF 1
ENDMDL
