MODEL 1
REMARK minimizedAffinity 3.12872696
REMARK minimizedRMSD -1
REMARK  1 active torsions:
REMARK  status: ('A' for Active; 'I' for Inactive)
REMARK    1  A    between atoms: C3_4  and  O_7 
ROOT
ATOM      1  C   UNL d   1      -2.293  -4.877  -6.000  0.00  0.00    -0.033 A 
ATOM      2  C1  UNL d   1      -1.188  -4.024  -5.998  0.00  0.00     0.039 A 
ATOM      3  C2  UNL d   1      -0.223  -4.130  -4.994  0.00  0.00    -0.080 A 
ATOM      4  C3  UNL d   1      -0.374  -5.094  -4.001  0.00  0.00     0.150 A 
ATOM      5  C4  UNL d   1      -1.470  -5.951  -3.999  0.00  0.00    -0.007 A 
ATOM      6  C5  UNL d   1      -2.433  -5.842  -5.001  0.00  0.00     0.039 A 
ENDROOT
BRANCH   4   7
ATOM      7  O   UNL d   1       0.540  -5.233  -2.999  0.00  0.00    -0.526 OA
ATOM      8  H5  UNL d   1       1.227  -4.556  -3.113  0.00  0.00     0.418 HD
ENDBRANCH   4   7
TORSDOF 1
ENDMDL
