MODEL 1
REMARK minimizedAffinity 6.87237024
REMARK minimizedRMSD -1
REMARK  1 active torsions:
REMARK  status: ('A' for Active; 'I' for Inactive)
REMARK    1  A    between atoms: C3_4  and  O_7 
ROOT
ATOM      1  C   UNL d   1      -0.358   2.917  -1.376  0.00  0.00    -0.033 A 
ATOM      2  C1  UNL d   1       0.505   3.705  -0.612  0.00  0.00     0.039 A 
ATOM      3  C2  UNL d   1       0.823   3.329   0.695  0.00  0.00    -0.080 A 
ATOM      4  C3  UNL d   1       0.273   2.166   1.225  0.00  0.00     0.150 A 
ATOM      5  C4  UNL d   1      -0.585   1.375   0.468  0.00  0.00    -0.007 A 
ATOM      6  C5  UNL d   1      -0.903   1.751  -0.836  0.00  0.00     0.039 A 
ENDROOT
BRANCH   4   7
ATOM      7  O   UNL d   1       0.550   1.762   2.497  0.00  0.00    -0.526 OA
ATOM      8  H5  UNL d   1       1.133   2.421   2.909  0.00  0.00     0.418 HD
ENDBRANCH   4   7
TORSDOF 1
ENDMDL
