MODEL 1
REMARK minimizedAffinity 3.82422662
REMARK minimizedRMSD -1
REMARK  1 active torsions:
REMARK  status: ('A' for Active; 'I' for Inactive)
REMARK    1  A    between atoms: C3_4  and  O_7 
ROOT
ATOM      1  C   UNL d   1      -2.241  -5.395  -5.992  0.00  0.00    -0.033 A 
ATOM      2  C1  UNL d   1      -3.500  -5.999  -5.996  0.00  0.00     0.039 A 
ATOM      3  C2  UNL d   1      -4.653  -5.212  -6.000  0.00  0.00    -0.080 A 
ATOM      4  C3  UNL d   1      -4.534  -3.825  -6.000  0.00  0.00     0.150 A 
ATOM      5  C4  UNL d   1      -3.283  -3.217  -6.000  0.00  0.00    -0.007 A 
ATOM      6  C5  UNL d   1      -2.132  -4.004  -5.996  0.00  0.00     0.039 A 
ENDROOT
BRANCH   4   7
ATOM      7  O   UNL d   1      -5.631  -3.016  -5.998  0.00  0.00    -0.526 OA
ATOM      8  H5  UNL d   1      -6.426  -3.574  -5.969  0.00  0.00     0.418 HD
ENDBRANCH   4   7
TORSDOF 1
ENDMDL
