MODEL 1
REMARK minimizedAffinity 2.86245847
REMARK minimizedRMSD -1
REMARK  1 active torsions:
REMARK  status: ('A' for Active; 'I' for Inactive)
REMARK    1  A    between atoms: C3_4  and  O_7 
ROOT
ATOM      1  C   UNL d   1      -4.284  -5.067  -5.943  0.00  0.00    -0.033 A 
ATOM      2  C1  UNL d   1      -3.246  -6.000  -5.886  0.00  0.00     0.039 A 
ATOM      3  C2  UNL d   1      -1.918  -5.570  -5.888  0.00  0.00    -0.080 A 
ATOM      4  C3  UNL d   1      -1.641  -4.207  -5.945  0.00  0.00     0.150 A 
ATOM      5  C4  UNL d   1      -2.669  -3.272  -5.998  0.00  0.00    -0.007 A 
ATOM      6  C5  UNL d   1      -3.995  -3.703  -5.997  0.00  0.00     0.039 A 
ENDROOT
BRANCH   4   7
ATOM      7  O   UNL d   1      -0.360  -3.740  -5.954  0.00  0.00    -0.526 OA
ATOM      8  H5  UNL d   1       0.245  -4.501  -5.943  0.00  0.00     0.418 HD
ENDBRANCH   4   7
TORSDOF 1
ENDMDL
