MODEL 1
REMARK minimizedAffinity 3.19271374
REMARK minimizedRMSD -1
REMARK  1 active torsions:
REMARK  status: ('A' for Active; 'I' for Inactive)
REMARK    1  A    between atoms: C3_4  and  O_7 
ROOT
ATOM      1  C   UNL d   1      -6.000  -0.763   4.440  0.00  0.00    -0.033 A 
ATOM      2  C1  UNL d   1      -5.352  -1.868   3.885  0.00  0.00     0.039 A 
ATOM      3  C2  UNL d   1      -4.705  -1.755   2.653  0.00  0.00    -0.080 A 
ATOM      4  C3  UNL d   1      -4.713  -0.532   1.987  0.00  0.00     0.150 A 
ATOM      5  C4  UNL d   1      -5.353   0.574   2.535  0.00  0.00    -0.007 A 
ATOM      6  C5  UNL d   1      -5.999   0.459   3.765  0.00  0.00     0.039 A 
ENDROOT
BRANCH   4   7
ATOM      7  O   UNL d   1      -4.099  -0.375   0.780  0.00  0.00    -0.526 OA
ATOM      8  H5  UNL d   1      -3.724  -1.230   0.511  0.00  0.00     0.418 HD
ENDBRANCH   4   7
TORSDOF 1
ENDMDL
