MODEL 1
REMARK minimizedAffinity 3.35138583
REMARK minimizedRMSD -1
REMARK  1 active torsions:
REMARK  status: ('A' for Active; 'I' for Inactive)
REMARK    1  A    between atoms: C3_4  and  O_7 
ROOT
ATOM      1  C   UNL d   1      -0.212  -4.167  -3.060  0.00  0.00    -0.033 A 
ATOM      2  C1  UNL d   1       0.451  -3.999  -4.277  0.00  0.00     0.039 A 
ATOM      3  C2  UNL d   1       0.047  -2.997  -5.161  0.00  0.00    -0.080 A 
ATOM      4  C3  UNL d   1      -1.018  -2.170  -4.817  0.00  0.00     0.150 A 
ATOM      5  C4  UNL d   1      -1.681  -2.330  -3.604  0.00  0.00    -0.007 A 
ATOM      6  C5  UNL d   1      -1.277  -3.332  -2.723  0.00  0.00     0.039 A 
ENDROOT
BRANCH   4   7
ATOM      7  O   UNL d   1      -1.452  -1.181  -5.649  0.00  0.00    -0.526 OA
ATOM      8  H5  UNL d   1      -0.919  -1.208  -6.462  0.00  0.00     0.418 HD
ENDBRANCH   4   7
TORSDOF 1
ENDMDL
