MODEL 1
REMARK minimizedAffinity -5.3674407
REMARK minimizedRMSD -1
REMARK  1 active torsions:
REMARK  status: ('A' for Active; 'I' for Inactive)
REMARK    1  A    between atoms: C1_2  and  C2_3 
ROOT
ATOM      1  C2  UNL d   1      -0.433  -0.151   0.437  0.00  0.00    -0.073 A 
ATOM      2  C3  UNL d   1      -0.551  -1.098   1.460  0.00  0.00    -0.002 A 
ATOM      3  C4  UNL d   1       0.510  -1.957   1.752  0.00  0.00     0.004 A 
ATOM      4  C5  UNL d   1       1.701  -1.872   1.030  0.00  0.00    -0.004 A 
ATOM      5  C6  UNL d   1       1.842  -0.924   0.012  0.00  0.00    -0.075 A 
ATOM      6  C7  UNL d   1       3.115  -0.821  -0.776  0.00  0.00     0.076 C 
ATOM      7  C8  UNL d   1       0.771  -0.067  -0.277  0.00  0.00     0.001 A 
ENDROOT
BRANCH   1   8
ATOM      8  C1  UNL d   1      -1.573   0.782   0.123  0.00  0.00     0.053 C 
ATOM      9  C   UNL d   1      -1.635   1.129  -1.356  0.00  0.00     0.018 C 
ENDBRANCH   1   8
TORSDOF 1
ENDMDL
