MODEL 1
REMARK minimizedAffinity -3.05378294
REMARK minimizedRMSD -1
REMARK  1 active torsions:
REMARK  status: ('A' for Active; 'I' for Inactive)
REMARK    1  A    between atoms: C1_2  and  C2_3 
ROOT
ATOM      1  C2  UNL d   1      -1.051   1.352  -1.116  0.00  0.00    -0.073 A 
ATOM      2  C3  UNL d   1      -2.428   1.149  -1.265  0.00  0.00    -0.002 A 
ATOM      3  C4  UNL d   1      -3.090   1.614  -2.402  0.00  0.00     0.004 A 
ATOM      4  C5  UNL d   1      -2.383   2.281  -3.402  0.00  0.00    -0.004 A 
ATOM      5  C6  UNL d   1      -1.005   2.484  -3.277  0.00  0.00    -0.075 A 
ATOM      6  C7  UNL d   1      -0.231   3.201  -4.343  0.00  0.00     0.076 C 
ATOM      7  C8  UNL d   1      -0.347   2.016  -2.131  0.00  0.00     0.001 A 
ENDROOT
BRANCH   1   8
ATOM      8  C1  UNL d   1      -0.330   0.846   0.107  0.00  0.00     0.053 C 
ATOM      9  C   UNL d   1       0.260  -0.538  -0.112  0.00  0.00     0.018 C 
ENDBRANCH   1   8
TORSDOF 1
ENDMDL
