MODEL 1
REMARK minimizedAffinity -4.72609949
REMARK minimizedRMSD -1
REMARK  1 active torsions:
REMARK  status: ('A' for Active; 'I' for Inactive)
REMARK    1  A    between atoms: C1_2  and  C2_3 
ROOT
ATOM      1  C2  UNL d   1      -0.175   0.242  -0.073  0.00  0.00    -0.073 A 
ATOM      2  C3  UNL d   1      -1.178   0.149   0.899  0.00  0.00    -0.002 A 
ATOM      3  C4  UNL d   1      -1.132  -0.857   1.865  0.00  0.00     0.004 A 
ATOM      4  C5  UNL d   1      -0.082  -1.774   1.874  0.00  0.00    -0.004 A 
ATOM      5  C6  UNL d   1       0.936  -1.691   0.918  0.00  0.00    -0.075 A 
ATOM      6  C7  UNL d   1       2.071  -2.672   0.913  0.00  0.00     0.076 C 
ATOM      7  C8  UNL d   1       0.881  -0.680  -0.050  0.00  0.00     0.001 A 
ENDROOT
BRANCH   1   8
ATOM      8  C1  UNL d   1      -0.217   1.330  -1.114  0.00  0.00     0.053 C 
ATOM      9  C   UNL d   1      -1.456   1.234  -1.990  0.00  0.00     0.018 C 
ENDBRANCH   1   8
TORSDOF 1
ENDMDL
