MODEL 1
REMARK minimizedAffinity -3.34040332
REMARK minimizedRMSD -1
REMARK  1 active torsions:
REMARK  status: ('A' for Active; 'I' for Inactive)
REMARK    1  A    between atoms: C1_2  and  C2_3 
ROOT
ATOM      1  C2  UNL d   1      -0.349   0.349  -0.109  0.00  0.00    -0.073 A 
ATOM      2  C3  UNL d   1      -1.377   0.178   0.825  0.00  0.00    -0.002 A 
ATOM      3  C4  UNL d   1      -1.310  -0.849   1.767  0.00  0.00     0.004 A 
ATOM      4  C5  UNL d   1      -0.213  -1.710   1.789  0.00  0.00    -0.004 A 
ATOM      5  C6  UNL d   1       0.830  -1.548   0.872  0.00  0.00    -0.075 A 
ATOM      6  C7  UNL d   1       2.016  -2.467   0.882  0.00  0.00     0.076 C 
ATOM      7  C8  UNL d   1       0.754  -0.516  -0.073  0.00  0.00     0.001 A 
ENDROOT
BRANCH   1   8
ATOM      8  C1  UNL d   1      -0.415   1.461  -1.124  0.00  0.00     0.053 C 
ATOM      9  C   UNL d   1      -1.530   1.245  -2.135  0.00  0.00     0.018 C 
ENDBRANCH   1   8
TORSDOF 1
ENDMDL
