MODEL 1
REMARK minimizedAffinity -4.2150979
REMARK minimizedRMSD -1
REMARK  1 active torsions:
REMARK  status: ('A' for Active; 'I' for Inactive)
REMARK    1  A    between atoms: C1_2  and  C2_3 
ROOT
ATOM      1  C2  UNL d   1       0.159   0.093   0.215  0.00  0.00    -0.073 A 
ATOM      2  C3  UNL d   1       1.354   0.405  -0.443  0.00  0.00    -0.002 A 
ATOM      3  C4  UNL d   1       2.422  -0.493  -0.429  0.00  0.00     0.004 A 
ATOM      4  C5  UNL d   1       2.304  -1.713   0.237  0.00  0.00    -0.004 A 
ATOM      5  C6  UNL d   1       1.114  -2.048   0.890  0.00  0.00    -0.075 A 
ATOM      6  C7  UNL d   1       0.972  -3.356   1.612  0.00  0.00     0.076 C 
ATOM      7  C8  UNL d   1       0.047  -1.140   0.874  0.00  0.00     0.001 A 
ENDROOT
BRANCH   1   8
ATOM      8  C1  UNL d   1      -0.999   1.057   0.197  0.00  0.00     0.053 C 
ATOM      9  C   UNL d   1      -1.232   1.642  -1.187  0.00  0.00     0.018 C 
ENDBRANCH   1   8
TORSDOF 1
ENDMDL
