MODEL 1
REMARK minimizedAffinity -3.34395576
REMARK minimizedRMSD -1
REMARK  1 active torsions:
REMARK  status: ('A' for Active; 'I' for Inactive)
REMARK    1  A    between atoms: C1_2  and  C2_3 
ROOT
ATOM      1  C2  UNL d   1      -0.342   0.707   0.058  0.00  0.00    -0.073 A 
ATOM      2  C3  UNL d   1      -1.069   0.786   1.251  0.00  0.00    -0.002 A 
ATOM      3  C4  UNL d   1      -1.021  -0.257   2.177  0.00  0.00     0.004 A 
ATOM      4  C5  UNL d   1      -0.242  -1.386   1.923  0.00  0.00    -0.004 A 
ATOM      5  C6  UNL d   1       0.501  -1.479   0.742  0.00  0.00    -0.075 A 
ATOM      6  C7  UNL d   1       1.342  -2.687   0.452  0.00  0.00     0.076 C 
ATOM      7  C8  UNL d   1       0.446  -0.428  -0.184  0.00  0.00     0.001 A 
ENDROOT
BRANCH   1   8
ATOM      8  C1  UNL d   1      -0.385   1.834  -0.941  0.00  0.00     0.053 C 
ATOM      9  C   UNL d   1      -1.556   1.698  -1.902  0.00  0.00     0.018 C 
ENDBRANCH   1   8
TORSDOF 1
ENDMDL
