MODEL 1
REMARK minimizedAffinity -2.88149714
REMARK minimizedRMSD -1
REMARK  1 active torsions:
REMARK  status: ('A' for Active; 'I' for Inactive)
REMARK    1  A    between atoms: C1_2  and  C2_3 
ROOT
ATOM      1  C2  UNL d   1       1.191  -0.535  -0.322  0.00  0.00    -0.073 A 
ATOM      2  C3  UNL d   1       0.819   0.624   0.369  0.00  0.00    -0.002 A 
ATOM      3  C4  UNL d   1      -0.278   1.376  -0.055  0.00  0.00     0.004 A 
ATOM      4  C5  UNL d   1      -1.017   0.974  -1.168  0.00  0.00    -0.004 A 
ATOM      5  C6  UNL d   1      -0.668  -0.188  -1.864  0.00  0.00    -0.075 A 
ATOM      6  C7  UNL d   1      -1.451  -0.633  -3.064  0.00  0.00     0.076 C 
ATOM      7  C8  UNL d   1       0.436  -0.936  -1.434  0.00  0.00     0.001 A 
ENDROOT
BRANCH   1   8
ATOM      8  C1  UNL d   1       2.370  -1.354   0.135  0.00  0.00     0.053 C 
ATOM      9  C   UNL d   1       2.148  -1.951   1.516  0.00  0.00     0.018 C 
ENDBRANCH   1   8
TORSDOF 1
ENDMDL
