MODEL 1
REMARK minimizedAffinity -1.82170081
REMARK minimizedRMSD -1
REMARK  1 active torsions:
REMARK  status: ('A' for Active; 'I' for Inactive)
REMARK    1  A    between atoms: C1_2  and  C2_3 
ROOT
ATOM      1  C2  UNL d   1      -0.586   0.534  -0.050  0.00  0.00    -0.073 A 
ATOM      2  C3  UNL d   1      -1.575   0.871   0.880  0.00  0.00    -0.002 A 
ATOM      3  C4  UNL d   1      -1.897  -0.006   1.916  0.00  0.00     0.004 A 
ATOM      4  C5  UNL d   1      -1.229  -1.225   2.038  0.00  0.00    -0.004 A 
ATOM      5  C6  UNL d   1      -0.229  -1.575   1.125  0.00  0.00    -0.075 A 
ATOM      6  C7  UNL d   1       0.497  -2.882   1.240  0.00  0.00     0.076 C 
ATOM      7  C8  UNL d   1       0.086  -0.689   0.085  0.00  0.00     0.001 A 
ENDROOT
BRANCH   1   8
ATOM      8  C1  UNL d   1      -0.231   1.481  -1.167  0.00  0.00     0.053 C 
ATOM      9  C   UNL d   1      -1.465   2.019  -1.873  0.00  0.00     0.018 C 
ENDBRANCH   1   8
TORSDOF 1
ENDMDL
