MODEL 1
REMARK minimizedAffinity -3.21748209
REMARK minimizedRMSD -1
REMARK  1 active torsions:
REMARK  status: ('A' for Active; 'I' for Inactive)
REMARK    1  A    between atoms: C1_2  and  C2_3 
ROOT
ATOM      1  C2  UNL d   1      -0.613   0.053  -0.151  0.00  0.00    -0.073 A 
ATOM      2  C3  UNL d   1      -1.551   0.071   0.888  0.00  0.00    -0.002 A 
ATOM      3  C4  UNL d   1      -1.458  -0.844   1.937  0.00  0.00     0.004 A 
ATOM      4  C5  UNL d   1      -0.425  -1.780   1.963  0.00  0.00    -0.004 A 
ATOM      5  C6  UNL d   1       0.529  -1.807   0.941  0.00  0.00    -0.075 A 
ATOM      6  C7  UNL d   1       1.645  -2.809   0.953  0.00  0.00     0.076 C 
ATOM      7  C8  UNL d   1       0.428  -0.886  -0.111  0.00  0.00     0.001 A 
ENDROOT
BRANCH   1   8
ATOM      8  C1  UNL d   1      -0.705   1.043  -1.283  0.00  0.00     0.053 C 
ATOM      9  C   UNL d   1      -1.832   0.704  -2.246  0.00  0.00     0.018 C 
ENDBRANCH   1   8
TORSDOF 1
ENDMDL
