MODEL 1
REMARK minimizedAffinity -2.18284249
REMARK minimizedRMSD -1
REMARK  1 active torsions:
REMARK  status: ('A' for Active; 'I' for Inactive)
REMARK    1  A    between atoms: C1_2  and  C2_3 
ROOT
ATOM      1  C2  UNL d   1      -0.193  -1.434   0.677  0.00  0.00    -0.073 A 
ATOM      2  C3  UNL d   1      -1.086  -1.184   1.726  0.00  0.00    -0.002 A 
ATOM      3  C4  UNL d   1      -1.528   0.115   1.981  0.00  0.00     0.004 A 
ATOM      4  C5  UNL d   1      -1.090   1.174   1.187  0.00  0.00    -0.004 A 
ATOM      5  C6  UNL d   1      -0.208   0.943   0.126  0.00  0.00    -0.075 A 
ATOM      6  C7  UNL d   1       0.275   2.072  -0.736  0.00  0.00     0.076 C 
ATOM      7  C8  UNL d   1       0.235  -0.363  -0.121  0.00  0.00     0.001 A 
ENDROOT
BRANCH   1   8
ATOM      8  C1  UNL d   1       0.283  -2.835   0.394  0.00  0.00     0.053 C 
ATOM      9  C   UNL d   1       1.440  -3.237   1.295  0.00  0.00     0.018 C 
ENDBRANCH   1   8
TORSDOF 1
ENDMDL
