MODEL 1
REMARK minimizedAffinity -4.2369628
REMARK minimizedRMSD -1
REMARK  1 active torsions:
REMARK  status: ('A' for Active; 'I' for Inactive)
REMARK    1  A    between atoms: C1_2  and  C2_3 
ROOT
ATOM      1  C2  UNL d   1      -0.254   0.535  -0.216  0.00  0.00    -0.073 A 
ATOM      2  C3  UNL d   1       0.900   1.234  -0.587  0.00  0.00    -0.002 A 
ATOM      3  C4  UNL d   1       2.158   0.652  -0.428  0.00  0.00     0.004 A 
ATOM      4  C5  UNL d   1       2.275  -0.636   0.097  0.00  0.00    -0.004 A 
ATOM      5  C6  UNL d   1       1.133  -1.355   0.462  0.00  0.00    -0.075 A 
ATOM      6  C7  UNL d   1       1.241  -2.739   1.030  0.00  0.00     0.076 C 
ATOM      7  C8  UNL d   1      -0.127  -0.762   0.302  0.00  0.00     0.001 A 
ENDROOT
BRANCH   1   8
ATOM      8  C1  UNL d   1      -1.615   1.157  -0.393  0.00  0.00     0.053 C 
ATOM      9  C   UNL d   1      -1.931   1.432  -1.854  0.00  0.00     0.018 C 
ENDBRANCH   1   8
TORSDOF 1
ENDMDL
