MODEL 1
REMARK minimizedAffinity -4.15841007
REMARK minimizedRMSD -1
REMARK  1 active torsions:
REMARK  status: ('A' for Active; 'I' for Inactive)
REMARK    1  A    between atoms: C1_2  and  C2_3 
ROOT
ATOM      1  C2  UNL d   1       0.787   0.551  -0.376  0.00  0.00    -0.073 A 
ATOM      2  C3  UNL d   1      -0.493   0.849   0.105  0.00  0.00    -0.002 A 
ATOM      3  C4  UNL d   1      -1.172  -0.064   0.913  0.00  0.00     0.004 A 
ATOM      4  C5  UNL d   1      -0.577  -1.279   1.254  0.00  0.00    -0.004 A 
ATOM      5  C6  UNL d   1       0.706  -1.589   0.793  0.00  0.00    -0.075 A 
ATOM      6  C7  UNL d   1       1.360  -2.892   1.148  0.00  0.00     0.076 C 
ATOM      7  C8  UNL d   1       1.381  -0.669  -0.021  0.00  0.00     0.001 A 
ENDROOT
BRANCH   1   8
ATOM      8  C1  UNL d   1       1.527   1.536  -1.244  0.00  0.00     0.053 C 
ATOM      9  C   UNL d   1       3.035   1.368  -1.140  0.00  0.00     0.018 C 
ENDBRANCH   1   8
TORSDOF 1
ENDMDL
