MODEL 1
REMARK minimizedAffinity -3.78106165
REMARK minimizedRMSD -1
REMARK  1 active torsions:
REMARK  status: ('A' for Active; 'I' for Inactive)
REMARK    1  A    between atoms: C1_2  and  C2_3 
ROOT
ATOM      1  C2  UNL d   1       1.171  -0.835   0.317  0.00  0.00    -0.073 A 
ATOM      2  C3  UNL d   1       1.556   0.245  -0.485  0.00  0.00    -0.002 A 
ATOM      3  C4  UNL d   1       0.701   1.335  -0.657  0.00  0.00     0.004 A 
ATOM      4  C5  UNL d   1      -0.541   1.359  -0.024  0.00  0.00    -0.004 A 
ATOM      5  C6  UNL d   1      -0.938   0.295   0.792  0.00  0.00    -0.075 A 
ATOM      6  C7  UNL d   1      -2.272   0.305   1.478  0.00  0.00     0.076 C 
ATOM      7  C8  UNL d   1      -0.076  -0.797   0.957  0.00  0.00     0.001 A 
ENDROOT
BRANCH   1   8
ATOM      8  C1  UNL d   1       2.093  -2.011   0.511  0.00  0.00     0.053 C 
ATOM      9  C   UNL d   1       1.385  -3.190   1.160  0.00  0.00     0.018 C 
ENDBRANCH   1   8
TORSDOF 1
ENDMDL
