MODEL 1
REMARK minimizedAffinity -1.49884212
REMARK minimizedRMSD -1
REMARK  1 active torsions:
REMARK  status: ('A' for Active; 'I' for Inactive)
REMARK    1  A    between atoms: C3_4  and  O_7 
ROOT
ATOM      1  C   UNL d   1       0.917  -0.197  -0.344  0.00  0.00    -0.033 A 
ATOM      2  C1  UNL d   1       0.755   1.164  -0.610  0.00  0.00     0.039 A 
ATOM      3  C2  UNL d   1       0.024   1.967   0.267  0.00  0.00    -0.080 A 
ATOM      4  C3  UNL d   1      -0.538   1.398   1.407  0.00  0.00     0.150 A 
ATOM      5  C4  UNL d   1      -0.377   0.044   1.681  0.00  0.00    -0.007 A 
ATOM      6  C5  UNL d   1       0.353  -0.756   0.803  0.00  0.00     0.039 A 
ENDROOT
BRANCH   4   7
ATOM      7  O   UNL d   1      -1.265   2.140   2.290  0.00  0.00    -0.526 OA
ATOM      8  H5  UNL d   1      -1.316   3.052   1.956  0.00  0.00     0.418 HD
ENDBRANCH   4   7
TORSDOF 1
ENDMDL
