MODEL 1
REMARK minimizedAffinity -5.40967321
REMARK minimizedRMSD -1
REMARK  1 active torsions:
REMARK  status: ('A' for Active; 'I' for Inactive)
REMARK    1  A    between atoms: C3_4  and  O_7 
ROOT
ATOM      1  C   UNL d   1      -1.878   3.095   0.874  0.00  0.00    -0.033 A 
ATOM      2  C1  UNL d   1      -1.072   3.331  -0.242  0.00  0.00     0.039 A 
ATOM      3  C2  UNL d   1      -0.221   2.330  -0.714  0.00  0.00    -0.080 A 
ATOM      4  C3  UNL d   1      -0.186   1.099  -0.064  0.00  0.00     0.150 A 
ATOM      5  C4  UNL d   1      -0.989   0.857   1.046  0.00  0.00    -0.007 A 
ATOM      6  C5  UNL d   1      -1.837   1.858   1.517  0.00  0.00     0.039 A 
ENDROOT
BRANCH   4   7
ATOM      7  O   UNL d   1       0.632   0.094  -0.486  0.00  0.00    -0.526 OA
ATOM      8  H5  UNL d   1       1.148   0.414  -1.244  0.00  0.00     0.418 HD
ENDBRANCH   4   7
TORSDOF 1
ENDMDL
