MODEL 1
REMARK minimizedAffinity -2.56903625
REMARK minimizedRMSD -1
REMARK  1 active torsions:
REMARK  status: ('A' for Active; 'I' for Inactive)
REMARK    1  A    between atoms: C3_4  and  O_7 
ROOT
ATOM      1  C   UNL d   1      -0.533  -0.497   1.474  0.00  0.00    -0.033 A 
ATOM      2  C1  UNL d   1      -1.225   0.623   1.939  0.00  0.00     0.039 A 
ATOM      3  C2  UNL d   1      -1.029   1.867   1.336  0.00  0.00    -0.080 A 
ATOM      4  C3  UNL d   1      -0.140   1.978   0.270  0.00  0.00     0.150 A 
ATOM      5  C4  UNL d   1       0.549   0.865  -0.201  0.00  0.00    -0.007 A 
ATOM      6  C5  UNL d   1       0.353  -0.376   0.403  0.00  0.00     0.039 A 
ENDROOT
BRANCH   4   7
ATOM      7  O   UNL d   1       0.087   3.172  -0.347  0.00  0.00    -0.526 OA
ATOM      8  H5  UNL d   1      -0.436   3.856   0.103  0.00  0.00     0.418 HD
ENDBRANCH   4   7
TORSDOF 1
ENDMDL
