MODEL 1
REMARK minimizedAffinity -5.39443445
REMARK minimizedRMSD -1
REMARK  1 active torsions:
REMARK  status: ('A' for Active; 'I' for Inactive)
REMARK    1  A    between atoms: C3_4  and  O_7 
ROOT
ATOM      1  C   UNL d   1       0.554  -0.202   0.292  0.00  0.00    -0.033 A 
ATOM      2  C1  UNL d   1      -0.186   0.428  -0.710  0.00  0.00     0.039 A 
ATOM      3  C2  UNL d   1      -1.357   1.116  -0.387  0.00  0.00    -0.080 A 
ATOM      4  C3  UNL d   1      -1.776   1.167   0.940  0.00  0.00     0.150 A 
ATOM      5  C4  UNL d   1      -1.041   0.545   1.944  0.00  0.00    -0.007 A 
ATOM      6  C5  UNL d   1       0.128  -0.143   1.619  0.00  0.00     0.039 A 
ENDROOT
BRANCH   4   7
ATOM      7  O   UNL d   1      -2.915   1.822   1.303  0.00  0.00    -0.526 OA
ATOM      8  H5  UNL d   1      -3.334   2.179   0.502  0.00  0.00     0.418 HD
ENDBRANCH   4   7
TORSDOF 1
ENDMDL
