MODEL 1
REMARK minimizedAffinity -4.98638344
REMARK minimizedRMSD -1
REMARK  1 active torsions:
REMARK  status: ('A' for Active; 'I' for Inactive)
REMARK    1  A    between atoms: C3_4  and  O_7 
ROOT
ATOM      1  C   UNL d   1      -1.599   2.586   1.268  0.00  0.00    -0.033 A 
ATOM      2  C1  UNL d   1      -1.211   1.416   1.924  0.00  0.00     0.039 A 
ATOM      3  C2  UNL d   1      -0.213   0.606   1.378  0.00  0.00    -0.080 A 
ATOM      4  C3  UNL d   1       0.388   0.977   0.179  0.00  0.00     0.150 A 
ATOM      5  C4  UNL d   1       0.009   2.143  -0.478  0.00  0.00    -0.007 A 
ATOM      6  C5  UNL d   1      -0.988   2.950   0.067  0.00  0.00     0.039 A 
ENDROOT
BRANCH   4   7
ATOM      7  O   UNL d   1       1.363   0.216  -0.395  0.00  0.00    -0.526 OA
ATOM      8  H5  UNL d   1       1.501  -0.573   0.155  0.00  0.00     0.418 HD
ENDBRANCH   4   7
TORSDOF 1
ENDMDL
