MODEL 1
REMARK minimizedAffinity -4.7948947
REMARK minimizedRMSD -1
REMARK  1 active torsions:
REMARK  status: ('A' for Active; 'I' for Inactive)
REMARK    1  A    between atoms: C3_4  and  O_7 
ROOT
ATOM      1  C   UNL d   1       0.570   0.119  -0.053  0.00  0.00    -0.033 A 
ATOM      2  C1  UNL d   1       0.055   1.227  -0.728  0.00  0.00     0.039 A 
ATOM      3  C2  UNL d   1      -0.931   2.015  -0.131  0.00  0.00    -0.080 A 
ATOM      4  C3  UNL d   1      -1.392   1.684   1.141  0.00  0.00     0.150 A 
ATOM      5  C4  UNL d   1      -0.881   0.583   1.820  0.00  0.00    -0.007 A 
ATOM      6  C5  UNL d   1       0.103  -0.203   1.221  0.00  0.00     0.039 A 
ENDROOT
BRANCH   4   7
ATOM      7  O   UNL d   1      -2.357   2.419   1.763  0.00  0.00    -0.526 OA
ATOM      8  H5  UNL d   1      -2.636   3.131   1.163  0.00  0.00     0.418 HD
ENDBRANCH   4   7
TORSDOF 1
ENDMDL
