MODEL 1
REMARK minimizedAffinity -2.38245964
REMARK minimizedRMSD -1
REMARK  1 active torsions:
REMARK  status: ('A' for Active; 'I' for Inactive)
REMARK    1  A    between atoms: C3_4  and  O_7 
ROOT
ATOM      1  C   UNL d   1       0.561  -0.830  -0.360  0.00  0.00    -0.033 A 
ATOM      2  C1  UNL d   1       0.606   0.532  -0.663  0.00  0.00     0.039 A 
ATOM      3  C2  UNL d   1       0.068   1.466   0.226  0.00  0.00    -0.080 A 
ATOM      4  C3  UNL d   1      -0.511   1.024   1.413  0.00  0.00     0.150 A 
ATOM      5  C4  UNL d   1      -0.556  -0.331   1.723  0.00  0.00    -0.007 A 
ATOM      6  C5  UNL d   1      -0.019  -1.261   0.834  0.00  0.00     0.039 A 
ENDROOT
BRANCH   4   7
ATOM      7  O   UNL d   1      -1.053   1.897   2.308  0.00  0.00    -0.526 OA
ATOM      8  H5  UNL d   1      -0.976   2.796   1.948  0.00  0.00     0.418 HD
ENDBRANCH   4   7
TORSDOF 1
ENDMDL
