MODEL 1
REMARK minimizedAffinity -3.26941037
REMARK minimizedRMSD -1
REMARK  1 active torsions:
REMARK  status: ('A' for Active; 'I' for Inactive)
REMARK    1  A    between atoms: C3_4  and  O_7 
ROOT
ATOM      1  C   UNL d   1      -1.212   1.130   2.088  0.00  0.00    -0.033 A 
ATOM      2  C1  UNL d   1      -0.713   1.843   0.996  0.00  0.00     0.039 A 
ATOM      3  C2  UNL d   1       0.135   1.217   0.080  0.00  0.00    -0.080 A 
ATOM      4  C3  UNL d   1       0.475  -0.120   0.267  0.00  0.00     0.150 A 
ATOM      5  C4  UNL d   1      -0.021  -0.837   1.351  0.00  0.00    -0.007 A 
ATOM      6  C5  UNL d   1      -0.867  -0.210   2.264  0.00  0.00     0.039 A 
ENDROOT
BRANCH   4   7
ATOM      7  O   UNL d   1       1.304  -0.772  -0.597  0.00  0.00    -0.526 OA
ATOM      8  H5  UNL d   1       1.592  -0.144  -1.281  0.00  0.00     0.418 HD
ENDBRANCH   4   7
TORSDOF 1
ENDMDL
