MODEL 1
REMARK minimizedAffinity -4.15711451
REMARK minimizedRMSD -1
REMARK  1 active torsions:
REMARK  status: ('A' for Active; 'I' for Inactive)
REMARK    1  A    between atoms: C3_4  and  O_7 
ROOT
ATOM      1  C   UNL d   1      -1.052   2.470   1.320  0.00  0.00    -0.033 A 
ATOM      2  C1  UNL d   1      -1.218   1.225   1.930  0.00  0.00     0.039 A 
ATOM      3  C2  UNL d   1      -0.720   0.074   1.317  0.00  0.00    -0.080 A 
ATOM      4  C3  UNL d   1      -0.058   0.181   0.097  0.00  0.00     0.150 A 
ATOM      5  C4  UNL d   1       0.114   1.418  -0.514  0.00  0.00    -0.007 A 
ATOM      6  C5  UNL d   1      -0.384   2.567   0.099  0.00  0.00     0.039 A 
ENDROOT
BRANCH   4   7
ATOM      7  O   UNL d   1       0.440  -0.916  -0.541  0.00  0.00    -0.526 OA
ATOM      8  H5  UNL d   1       0.221  -1.704  -0.016  0.00  0.00     0.418 HD
ENDBRANCH   4   7
TORSDOF 1
ENDMDL
