MODEL 1
REMARK minimizedAffinity -2.56502724
REMARK minimizedRMSD -1
REMARK  1 active torsions:
REMARK  status: ('A' for Active; 'I' for Inactive)
REMARK    1  A    between atoms: C3_4  and  O_7 
ROOT
ATOM      1  C   UNL d   1       0.421  -0.078   0.717  0.00  0.00    -0.033 A 
ATOM      2  C1  UNL d   1       0.312   0.530   1.969  0.00  0.00     0.039 A 
ATOM      3  C2  UNL d   1      -0.685   1.480   2.201  0.00  0.00    -0.080 A 
ATOM      4  C3  UNL d   1      -1.565   1.811   1.175  0.00  0.00     0.150 A 
ATOM      5  C4  UNL d   1      -1.465   1.207  -0.073  0.00  0.00    -0.007 A 
ATOM      6  C5  UNL d   1      -0.469   0.259  -0.304  0.00  0.00     0.039 A 
ENDROOT
BRANCH   4   7
ATOM      7  O   UNL d   1      -2.551   2.736   1.353  0.00  0.00    -0.526 OA
ATOM      8  H5  UNL d   1      -2.481   3.091   2.255  0.00  0.00     0.418 HD
ENDBRANCH   4   7
TORSDOF 1
ENDMDL
