MODEL 1
REMARK minimizedAffinity -4.3780036
REMARK minimizedRMSD -1
REMARK  1 active torsions:
REMARK  status: ('A' for Active; 'I' for Inactive)
REMARK    1  A    between atoms: C3_4  and  O_7 
ROOT
ATOM      1  C   UNL d   1      -2.049   1.555   1.230  0.00  0.00    -0.033 A 
ATOM      2  C1  UNL d   1      -1.358   0.882   0.219  0.00  0.00     0.039 A 
ATOM      3  C2  UNL d   1      -0.568   1.596  -0.683  0.00  0.00    -0.080 A 
ATOM      4  C3  UNL d   1      -0.476   2.980  -0.564  0.00  0.00     0.150 A 
ATOM      5  C4  UNL d   1      -1.158   3.656   0.442  0.00  0.00    -0.007 A 
ATOM      6  C5  UNL d   1      -1.948   2.941   1.342  0.00  0.00     0.039 A 
ENDROOT
BRANCH   4   7
ATOM      7  O   UNL d   1       0.279   3.721  -1.424  0.00  0.00    -0.526 OA
ATOM      8  H5  UNL d   1       0.669   3.123  -2.084  0.00  0.00     0.418 HD
ENDBRANCH   4   7
TORSDOF 1
ENDMDL
