MODEL 1
REMARK minimizedAffinity -3.35059524
REMARK minimizedRMSD -1
REMARK  1 active torsions:
REMARK  status: ('A' for Active; 'I' for Inactive)
REMARK    1  A    between atoms: C3_4  and  O_7 
ROOT
ATOM      1  C   UNL d   1       0.414  -3.908  -2.678  0.00  0.00    -0.033 A 
ATOM      2  C1  UNL d   1      -0.378  -2.798  -2.977  0.00  0.00     0.039 A 
ATOM      3  C2  UNL d   1      -0.181  -1.593  -2.298  0.00  0.00    -0.080 A 
ATOM      4  C3  UNL d   1       0.812  -1.512  -1.326  0.00  0.00     0.150 A 
ATOM      5  C4  UNL d   1       1.608  -2.613  -1.025  0.00  0.00    -0.007 A 
ATOM      6  C5  UNL d   1       1.408  -3.815  -1.703  0.00  0.00     0.039 A 
ENDROOT
BRANCH   4   7
ATOM      7  O   UNL d   1       1.039  -0.359  -0.634  0.00  0.00    -0.526 OA
ATOM      8  H5  UNL d   1       0.395   0.307  -0.927  0.00  0.00     0.418 HD
ENDBRANCH   4   7
TORSDOF 1
ENDMDL
