MODEL 1
REMARK minimizedAffinity -2.69161057
REMARK minimizedRMSD -1
REMARK  0 active torsions:
REMARK  status: ('A' for Active; 'I' for Inactive)
ROOT
ATOM      1  C1  BNZ d   1       3.016   2.909   0.433  0.00  0.00     0.000 A 
ATOM      2  C2  BNZ d   1       2.505   1.769  -0.127  0.00  0.00     0.000 A 
ATOM      3  C3  BNZ d   1       1.175   1.672  -0.427  0.00  0.00     0.000 A 
ATOM      4  C4  BNZ d   1       0.352   2.699  -0.129  0.00  0.00     0.000 A 
ATOM      5  C5  BNZ d   1       0.851   3.851   0.444  0.00  0.00     0.000 A 
ATOM      6  C6  BNZ d   1       2.197   3.960   0.708  0.00  0.00     0.000 A 
ENDROOT
TORSDOF 0
ENDMDL
