MODEL 1
REMARK minimizedAffinity -4.02811623
REMARK minimizedRMSD -1
REMARK  0 active torsions:
REMARK  status: ('A' for Active; 'I' for Inactive)
ROOT
ATOM      1  C1  BNZ d   1      -0.641  -0.152   0.919  0.00  0.00     0.000 A 
ATOM      2  C2  BNZ d   1      -0.231   0.752  -0.024  0.00  0.00     0.000 A 
ATOM      3  C3  BNZ d   1       0.586   0.370  -1.051  0.00  0.00     0.000 A 
ATOM      4  C4  BNZ d   1       1.023  -0.905  -1.111  0.00  0.00     0.000 A 
ATOM      5  C5  BNZ d   1       0.626  -1.826  -0.162  0.00  0.00     0.000 A 
ATOM      6  C6  BNZ d   1      -0.228  -1.446   0.848  0.00  0.00     0.000 A 
ENDROOT
TORSDOF 0
ENDMDL
