MODEL 1
REMARK minimizedAffinity -4.39029264
REMARK minimizedRMSD -1
REMARK  0 active torsions:
REMARK  status: ('A' for Active; 'I' for Inactive)
ROOT
ATOM      1  C1  BNZ d   1      -0.951  -2.170   1.091  0.00  0.00     0.000 A 
ATOM      2  C2  BNZ d   1      -1.019  -0.816   1.283  0.00  0.00     0.000 A 
ATOM      3  C3  BNZ d   1      -0.306   0.040   0.491  0.00  0.00     0.000 A 
ATOM      4  C4  BNZ d   1       0.503  -0.460  -0.465  0.00  0.00     0.000 A 
ATOM      5  C5  BNZ d   1       0.589  -1.823  -0.665  0.00  0.00     0.000 A 
ATOM      6  C6  BNZ d   1      -0.159  -2.680   0.109  0.00  0.00     0.000 A 
ENDROOT
TORSDOF 0
ENDMDL
