MODEL 1
REMARK minimizedAffinity -4.80496931
REMARK minimizedRMSD -1
REMARK  0 active torsions:
REMARK  status: ('A' for Active; 'I' for Inactive)
ROOT
ATOM      1  C1  BNZ d   1      -1.521  -1.841   1.214  0.00  0.00     0.000 A 
ATOM      2  C2  BNZ d   1      -0.552  -2.613   0.630  0.00  0.00     0.000 A 
ATOM      3  C3  BNZ d   1       0.400  -2.051  -0.174  0.00  0.00     0.000 A 
ATOM      4  C4  BNZ d   1       0.359  -0.727  -0.424  0.00  0.00     0.000 A 
ATOM      5  C5  BNZ d   1      -0.617   0.063   0.150  0.00  0.00     0.000 A 
ATOM      6  C6  BNZ d   1      -1.551  -0.499   0.989  0.00  0.00     0.000 A 
ENDROOT
TORSDOF 0
ENDMDL
