MODEL 1
REMARK minimizedAffinity -5.04295921
REMARK minimizedRMSD -1
REMARK  0 active torsions:
REMARK  status: ('A' for Active; 'I' for Inactive)
ROOT
ATOM      1  C1  BNZ d   1       0.088  -0.289  -0.357  0.00  0.00     0.000 A 
ATOM      2  C2  BNZ d   1       0.822  -1.409  -0.646  0.00  0.00     0.000 A 
ATOM      3  C3  BNZ d   1       0.677  -2.550   0.093  0.00  0.00     0.000 A 
ATOM      4  C4  BNZ d   1      -0.170  -2.557   1.143  0.00  0.00     0.000 A 
ATOM      5  C5  BNZ d   1      -0.910  -1.433   1.452  0.00  0.00     0.000 A 
ATOM      6  C6  BNZ d   1      -0.791  -0.299   0.682  0.00  0.00     0.000 A 
ENDROOT
TORSDOF 0
ENDMDL
