MODEL 1
REMARK minimizedAffinity -3.45609593
REMARK minimizedRMSD -1
REMARK  0 active torsions:
REMARK  status: ('A' for Active; 'I' for Inactive)
ROOT
ATOM      1  C1  BNZ d   1       1.035  -1.627  -0.518  0.00  0.00     0.000 A 
ATOM      2  C2  BNZ d   1       0.526  -0.487   0.044  0.00  0.00     0.000 A 
ATOM      3  C3  BNZ d   1      -0.445  -0.553   1.004  0.00  0.00     0.000 A 
ATOM      4  C4  BNZ d   1      -0.934  -1.756   1.370  0.00  0.00     0.000 A 
ATOM      5  C5  BNZ d   1      -0.438  -2.914   0.806  0.00  0.00     0.000 A 
ATOM      6  C6  BNZ d   1       0.567  -2.845  -0.132  0.00  0.00     0.000 A 
ENDROOT
TORSDOF 0
ENDMDL
