MODEL 1
REMARK minimizedAffinity -3.41230536
REMARK minimizedRMSD -1
REMARK  0 active torsions:
REMARK  status: ('A' for Active; 'I' for Inactive)
ROOT
ATOM      1  C1  BNZ d   1      -0.697   0.049   0.941  0.00  0.00     0.000 A 
ATOM      2  C2  BNZ d   1      -0.916  -1.090   1.670  0.00  0.00     0.000 A 
ATOM      3  C3  BNZ d   1      -0.488  -2.306   1.213  0.00  0.00     0.000 A 
ATOM      4  C4  BNZ d   1       0.120  -2.386   0.012  0.00  0.00     0.000 A 
ATOM      5  C5  BNZ d   1       0.339  -1.248  -0.738  0.00  0.00     0.000 A 
ATOM      6  C6  BNZ d   1      -0.058  -0.021  -0.258  0.00  0.00     0.000 A 
ENDROOT
TORSDOF 0
ENDMDL
