MODEL 1
REMARK minimizedAffinity -2.55552769
REMARK minimizedRMSD -1
REMARK  0 active torsions:
REMARK  status: ('A' for Active; 'I' for Inactive)
ROOT
ATOM      1  C1  BNZ d   1       0.211   0.005   0.722  0.00  0.00     0.000 A 
ATOM      2  C2  BNZ d   1      -0.021   1.101  -0.065  0.00  0.00     0.000 A 
ATOM      3  C3  BNZ d   1      -0.106   0.982  -1.424  0.00  0.00     0.000 A 
ATOM      4  C4  BNZ d   1       0.081  -0.224  -1.997  0.00  0.00     0.000 A 
ATOM      5  C5  BNZ d   1       0.326  -1.338  -1.217  0.00  0.00     0.000 A 
ATOM      6  C6  BNZ d   1       0.372  -1.221   0.153  0.00  0.00     0.000 A 
ENDROOT
TORSDOF 0
ENDMDL
