MODEL 1
REMARK minimizedAffinity -3.34121156
REMARK minimizedRMSD -1
REMARK  0 active torsions:
REMARK  status: ('A' for Active; 'I' for Inactive)
ROOT
ATOM      1  C1  BNZ d   1      -0.855  -0.429   1.100  0.00  0.00     0.000 A 
ATOM      2  C2  BNZ d   1      -0.931  -1.789   1.236  0.00  0.00     0.000 A 
ATOM      3  C3  BNZ d   1      -0.109  -2.611   0.517  0.00  0.00     0.000 A 
ATOM      4  C4  BNZ d   1       0.758  -2.075  -0.365  0.00  0.00     0.000 A 
ATOM      5  C5  BNZ d   1       0.840  -0.706  -0.521  0.00  0.00     0.000 A 
ATOM      6  C6  BNZ d   1       0.038   0.121   0.233  0.00  0.00     0.000 A 
ENDROOT
TORSDOF 0
ENDMDL
