MODEL 1
REMARK minimizedAffinity -3.97174978
REMARK minimizedRMSD -1
REMARK  0 active torsions:
REMARK  status: ('A' for Active; 'I' for Inactive)
ROOT
ATOM      1  C1  BNZ d   1      -1.082  -1.724   1.496  0.00  0.00     0.000 A 
ATOM      2  C2  BNZ d   1      -1.343  -0.391   1.318  0.00  0.00     0.000 A 
ATOM      3  C3  BNZ d   1      -0.701   0.324   0.346  0.00  0.00     0.000 A 
ATOM      4  C4  BNZ d   1       0.229  -0.284  -0.419  0.00  0.00     0.000 A 
ATOM      5  C5  BNZ d   1       0.511  -1.624  -0.245  0.00  0.00     0.000 A 
ATOM      6  C6  BNZ d   1      -0.166  -2.350   0.708  0.00  0.00     0.000 A 
ENDROOT
TORSDOF 0
ENDMDL
