MODEL 1
REMARK minimizedAffinity -2.92293286
REMARK minimizedRMSD -1
REMARK  0 active torsions:
REMARK  status: ('A' for Active; 'I' for Inactive)
ROOT
ATOM      1  C1  BNZ d   1      -1.505  -1.575   1.585  0.00  0.00     0.000 A 
ATOM      2  C2  BNZ d   1      -0.841  -0.384   1.711  0.00  0.00     0.000 A 
ATOM      3  C3  BNZ d   1       0.288  -0.131   0.983  0.00  0.00     0.000 A 
ATOM      4  C4  BNZ d   1       0.774  -1.084   0.162  0.00  0.00     0.000 A 
ATOM      5  C5  BNZ d   1       0.122  -2.294   0.031  0.00  0.00     0.000 A 
ATOM      6  C6  BNZ d   1      -1.036  -2.530   0.736  0.00  0.00     0.000 A 
ENDROOT
TORSDOF 0
ENDMDL
