MODEL 1
REMARK minimizedAffinity -2.55160403
REMARK minimizedRMSD -1
REMARK  0 active torsions:
REMARK  status: ('A' for Active; 'I' for Inactive)
ROOT
ATOM      1  C   UNL d   1      -0.292   0.832   2.264  0.00  0.00     0.124 A 
ATOM      2  C1  UNL d   1      -1.434   0.708   1.485  0.00  0.00     0.062 A 
ATOM      3  C2  UNL d   1      -1.329   0.384   0.136  0.00  0.00     0.162 A 
ATOM      4  C3  UNL d   1      -0.077   0.181  -0.444  0.00  0.00    -0.034 A 
ATOM      5  C4  UNL d   1       1.067   0.309   0.345  0.00  0.00     0.162 A 
ATOM      6  C5  UNL d   1       0.957   0.633   1.693  0.00  0.00     0.062 A 
ATOM      7  F   UNL d   1       2.062   0.752   2.444  0.00  0.00    -0.097 F 
ATOM      8  F1  UNL d   1       2.287   0.121  -0.181  0.00  0.00    -0.096 F 
ATOM      9  I   UNL d   1       0.084  -0.303  -2.462  0.00  0.00    -0.060 I 
ATOM     10  F2  UNL d   1      -2.450   0.270  -0.593  0.00  0.00    -0.096 F 
ATOM     11  F3  UNL d   1      -2.642   0.901   2.034  0.00  0.00    -0.097 F 
ATOM     12  F4  UNL d   1      -0.395   1.145   3.562  0.00  0.00    -0.092 F 
ENDROOT
TORSDOF 0
ENDMDL
