MODEL 1
REMARK minimizedAffinity -4.06694508
REMARK minimizedRMSD -1
REMARK  0 active torsions:
REMARK  status: ('A' for Active; 'I' for Inactive)
ROOT
ATOM      1  C   UNL d   1       0.265   0.378   2.825  0.00  0.00     0.124 A 
ATOM      2  C1  UNL d   1       1.299  -0.377   2.291  0.00  0.00     0.062 A 
ATOM      3  C2  UNL d   1       1.338  -0.643   0.925  0.00  0.00     0.162 A 
ATOM      4  C3  UNL d   1       0.339  -0.153   0.084  0.00  0.00    -0.034 A 
ATOM      5  C4  UNL d   1      -0.699   0.605   0.629  0.00  0.00     0.162 A 
ATOM      6  C5  UNL d   1      -0.733   0.868   1.995  0.00  0.00     0.062 A 
ATOM      7  F   UNL d   1      -1.733   1.598   2.510  0.00  0.00    -0.097 F 
ATOM      8  F1  UNL d   1      -1.675   1.092  -0.151  0.00  0.00    -0.096 F 
ATOM      9  I   UNL d   1       0.394  -0.548  -1.959  0.00  0.00    -0.060 I 
ATOM     10  F2  UNL d   1       2.350  -1.375   0.435  0.00  0.00    -0.096 F 
ATOM     11  F3  UNL d   1       2.264  -0.852   3.091  0.00  0.00    -0.097 F 
ATOM     12  F4  UNL d   1       0.229   0.632   4.140  0.00  0.00    -0.092 F 
ENDROOT
TORSDOF 0
ENDMDL
