MODEL 1
REMARK minimizedAffinity 0.462686867
REMARK minimizedRMSD -1
REMARK  0 active torsions:
REMARK  status: ('A' for Active; 'I' for Inactive)
ROOT
ATOM      1  C   UNL d   1      -0.395   1.028   2.203  0.00  0.00     0.124 A 
ATOM      2  C1  UNL d   1       0.916   0.706   1.880  0.00  0.00     0.062 A 
ATOM      3  C2  UNL d   1       1.200   0.043   0.690  0.00  0.00     0.162 A 
ATOM      4  C3  UNL d   1       0.172  -0.302  -0.187  0.00  0.00    -0.034 A 
ATOM      5  C4  UNL d   1      -1.144   0.025   0.145  0.00  0.00     0.162 A 
ATOM      6  C5  UNL d   1      -1.424   0.688   1.336  0.00  0.00     0.062 A 
ATOM      7  F   UNL d   1      -2.691   0.998   1.647  0.00  0.00    -0.097 F 
ATOM      8  F1  UNL d   1      -2.157  -0.291  -0.675  0.00  0.00    -0.096 F 
ATOM      9  I   UNL d   1       0.593  -1.293  -1.968  0.00  0.00    -0.060 I 
ATOM     10  F2  UNL d   1       2.476  -0.256   0.403  0.00  0.00    -0.096 F 
ATOM     11  F3  UNL d   1       1.911   1.033   2.717  0.00  0.00    -0.097 F 
ATOM     12  F4  UNL d   1      -0.666   1.665   3.350  0.00  0.00    -0.092 F 
ENDROOT
TORSDOF 0
ENDMDL
