MODEL 1
REMARK minimizedAffinity -1.63333869
REMARK minimizedRMSD -1
REMARK  0 active torsions:
REMARK  status: ('A' for Active; 'I' for Inactive)
ROOT
ATOM      1  C   UNL d   1       0.018  -0.200   2.748  0.00  0.00     0.124 A 
ATOM      2  C1  UNL d   1       1.233  -0.667   2.267  0.00  0.00     0.062 A 
ATOM      3  C2  UNL d   1       1.434  -0.817   0.898  0.00  0.00     0.162 A 
ATOM      4  C3  UNL d   1       0.416  -0.499  -0.001  0.00  0.00    -0.034 A 
ATOM      5  C4  UNL d   1      -0.805  -0.031   0.490  0.00  0.00     0.162 A 
ATOM      6  C5  UNL d   1      -1.000   0.117   1.860  0.00  0.00     0.062 A 
ATOM      7  F   UNL d   1      -2.175   0.568   2.322  0.00  0.00    -0.097 F 
ATOM      8  F1  UNL d   1      -1.805   0.284  -0.346  0.00  0.00    -0.096 F 
ATOM      9  I   UNL d   1       0.711  -0.722  -2.049  0.00  0.00    -0.060 I 
ATOM     10  F2  UNL d   1       2.618  -1.270   0.462  0.00  0.00    -0.096 F 
ATOM     11  F3  UNL d   1       2.218  -0.975   3.124  0.00  0.00    -0.097 F 
ATOM     12  F4  UNL d   1      -0.172  -0.057   4.066  0.00  0.00    -0.092 F 
ENDROOT
TORSDOF 0
ENDMDL
