MODEL 1
REMARK minimizedAffinity 3.56957626
REMARK minimizedRMSD -1
REMARK  0 active torsions:
REMARK  status: ('A' for Active; 'I' for Inactive)
ROOT
ATOM      1  C   UNL d   1      -0.550  -0.035   2.208  0.00  0.00     0.124 A 
ATOM      2  C1  UNL d   1      -1.674   0.280   1.458  0.00  0.00     0.062 A 
ATOM      3  C2  UNL d   1      -1.584   0.385   0.073  0.00  0.00     0.162 A 
ATOM      4  C3  UNL d   1      -0.365   0.172  -0.571  0.00  0.00    -0.034 A 
ATOM      5  C4  UNL d   1       0.762  -0.144   0.190  0.00  0.00     0.162 A 
ATOM      6  C5  UNL d   1       0.666  -0.247   1.574  0.00  0.00     0.062 A 
ATOM      7  F   UNL d   1       1.753  -0.552   2.298  0.00  0.00    -0.097 F 
ATOM      8  F1  UNL d   1       1.949  -0.354  -0.397  0.00  0.00    -0.096 F 
ATOM      9  I   UNL d   1      -0.226   0.327  -2.642  0.00  0.00    -0.060 I 
ATOM     10  F2  UNL d   1      -2.686   0.691  -0.628  0.00  0.00    -0.096 F 
ATOM     11  F3  UNL d   1      -2.850   0.486   2.068  0.00  0.00    -0.097 F 
ATOM     12  F4  UNL d   1      -0.639  -0.134   3.541  0.00  0.00    -0.092 F 
ENDROOT
TORSDOF 0
ENDMDL
