MODEL 1
REMARK minimizedAffinity -1.10481465
REMARK minimizedRMSD -1
REMARK  0 active torsions:
REMARK  status: ('A' for Active; 'I' for Inactive)
ROOT
ATOM      1  C   UNL d   1       0.152   1.083   1.341  0.00  0.00     0.124 A 
ATOM      2  C1  UNL d   1      -0.581   1.839   0.436  0.00  0.00     0.062 A 
ATOM      3  C2  UNL d   1      -0.586   1.503  -0.914  0.00  0.00     0.162 A 
ATOM      4  C3  UNL d   1       0.144   0.405  -1.369  0.00  0.00    -0.034 A 
ATOM      5  C4  UNL d   1       0.879  -0.350  -0.454  0.00  0.00     0.162 A 
ATOM      6  C5  UNL d   1       0.881  -0.011   0.895  0.00  0.00     0.062 A 
ATOM      7  F   UNL d   1       1.590  -0.742   1.767  0.00  0.00    -0.097 F 
ATOM      8  F1  UNL d   1       1.592  -1.412  -0.858  0.00  0.00    -0.096 F 
ATOM      9  I   UNL d   1       0.138  -0.100  -3.388  0.00  0.00    -0.060 I 
ATOM     10  F2  UNL d   1      -1.304   2.251  -1.766  0.00  0.00    -0.096 F 
ATOM     11  F3  UNL d   1      -1.286   2.896   0.865  0.00  0.00    -0.097 F 
ATOM     12  F4  UNL d   1       0.156   1.408   2.640  0.00  0.00    -0.092 F 
ENDROOT
TORSDOF 0
ENDMDL
