MODEL 1
REMARK minimizedAffinity -2.84825134
REMARK minimizedRMSD -1
REMARK  0 active torsions:
REMARK  status: ('A' for Active; 'I' for Inactive)
ROOT
ATOM      1  C   UNL d   1      -0.781  -0.300   1.779  0.00  0.00     0.124 A 
ATOM      2  C1  UNL d   1      -1.533   0.413   0.857  0.00  0.00     0.062 A 
ATOM      3  C2  UNL d   1      -1.120   0.497  -0.469  0.00  0.00     0.162 A 
ATOM      4  C3  UNL d   1       0.053  -0.136  -0.882  0.00  0.00    -0.034 A 
ATOM      5  C4  UNL d   1       0.805  -0.851   0.051  0.00  0.00     0.162 A 
ATOM      6  C5  UNL d   1       0.387  -0.932   1.376  0.00  0.00     0.062 A 
ATOM      7  F   UNL d   1       1.116  -1.622   2.265  0.00  0.00    -0.097 F 
ATOM      8  F1  UNL d   1       1.937  -1.472  -0.312  0.00  0.00    -0.096 F 
ATOM      9  I   UNL d   1       0.675  -0.014  -2.864  0.00  0.00    -0.060 I 
ATOM     10  F2  UNL d   1      -1.867   1.193  -1.339  0.00  0.00    -0.096 F 
ATOM     11  F3  UNL d   1      -2.662   1.025   1.245  0.00  0.00    -0.097 F 
ATOM     12  F4  UNL d   1      -1.180  -0.378   3.055  0.00  0.00    -0.092 F 
ENDROOT
TORSDOF 0
ENDMDL
