MODEL 1
REMARK minimizedAffinity -0.0172578841
REMARK minimizedRMSD -1
REMARK  0 active torsions:
REMARK  status: ('A' for Active; 'I' for Inactive)
ROOT
ATOM      1  C   UNL d   1       1.438   0.626   1.654  0.00  0.00     0.124 A 
ATOM      2  C1  UNL d   1       2.005  -0.477   1.031  0.00  0.00     0.062 A 
ATOM      3  C2  UNL d   1       1.463  -0.969  -0.153  0.00  0.00     0.162 A 
ATOM      4  C3  UNL d   1       0.347  -0.356  -0.723  0.00  0.00    -0.034 A 
ATOM      5  C4  UNL d   1      -0.219   0.752  -0.090  0.00  0.00     0.162 A 
ATOM      6  C5  UNL d   1       0.327   1.239   1.093  0.00  0.00     0.062 A 
ATOM      7  F   UNL d   1      -0.223   2.305   1.693  0.00  0.00    -0.097 F 
ATOM      8  F1  UNL d   1      -1.293   1.365  -0.611  0.00  0.00    -0.096 F 
ATOM      9  I   UNL d   1      -0.467  -1.088  -2.493  0.00  0.00    -0.060 I 
ATOM     10  F2  UNL d   1       2.032  -2.036  -0.733  0.00  0.00    -0.096 F 
ATOM     11  F3  UNL d   1       3.079  -1.072   1.571  0.00  0.00    -0.097 F 
ATOM     12  F4  UNL d   1       1.961   1.096   2.793  0.00  0.00    -0.092 F 
ENDROOT
TORSDOF 0
ENDMDL
