MODEL 1
REMARK minimizedAffinity -1.11081958
REMARK minimizedRMSD -1
REMARK  0 active torsions:
REMARK  status: ('A' for Active; 'I' for Inactive)
ROOT
ATOM      1  C   UNL d   1      -1.669  -0.052   1.311  0.00  0.00     0.124 A 
ATOM      2  C1  UNL d   1      -1.862  -0.925   0.249  0.00  0.00     0.062 A 
ATOM      3  C2  UNL d   1      -0.934  -0.985  -0.786  0.00  0.00     0.162 A 
ATOM      4  C3  UNL d   1       0.198  -0.170  -0.764  0.00  0.00    -0.034 A 
ATOM      5  C4  UNL d   1       0.386   0.706   0.307  0.00  0.00     0.162 A 
ATOM      6  C5  UNL d   1      -0.545   0.762   1.339  0.00  0.00     0.062 A 
ATOM      7  F   UNL d   1      -0.356   1.606   2.364  0.00  0.00    -0.097 F 
ATOM      8  F1  UNL d   1       1.463   1.503   0.360  0.00  0.00    -0.096 F 
ATOM      9  I   UNL d   1       1.589  -0.257  -2.310  0.00  0.00    -0.060 I 
ATOM     10  F2  UNL d   1      -1.147  -1.837  -1.799  0.00  0.00    -0.096 F 
ATOM     11  F3  UNL d   1      -2.948  -1.711   0.219  0.00  0.00    -0.097 F 
ATOM     12  F4  UNL d   1      -2.564   0.005   2.305  0.00  0.00    -0.092 F 
ENDROOT
TORSDOF 0
ENDMDL
