MODEL 1
REMARK minimizedAffinity -1.65435052
REMARK minimizedRMSD -1
REMARK  0 active torsions:
REMARK  status: ('A' for Active; 'I' for Inactive)
ROOT
ATOM      1  C   UNL d   1       0.840  -0.837   1.265  0.00  0.00     0.124 A 
ATOM      2  C1  UNL d   1       1.427  -0.579   0.034  0.00  0.00     0.062 A 
ATOM      3  C2  UNL d   1       0.717   0.101  -0.951  0.00  0.00     0.162 A 
ATOM      4  C3  UNL d   1      -0.589   0.529  -0.709  0.00  0.00    -0.034 A 
ATOM      5  C4  UNL d   1      -1.172   0.265   0.531  0.00  0.00     0.162 A 
ATOM      6  C5  UNL d   1      -0.458  -0.415   1.512  0.00  0.00     0.062 A 
ATOM      7  F   UNL d   1      -1.027  -0.664   2.701  0.00  0.00    -0.097 F 
ATOM      8  F1  UNL d   1      -2.426   0.662   0.798  0.00  0.00    -0.096 F 
ATOM      9  I   UNL d   1      -1.654   1.547  -2.179  0.00  0.00    -0.060 I 
ATOM     10  F2  UNL d   1       1.309   0.337  -2.132  0.00  0.00    -0.096 F 
ATOM     11  F3  UNL d   1       2.681  -0.986  -0.208  0.00  0.00    -0.097 F 
ATOM     12  F4  UNL d   1       1.525  -1.493   2.210  0.00  0.00    -0.092 F 
ENDROOT
TORSDOF 0
ENDMDL
