MODEL 1
REMARK minimizedAffinity -0.432711542
REMARK minimizedRMSD -1
REMARK  0 active torsions:
REMARK  status: ('A' for Active; 'I' for Inactive)
ROOT
ATOM      1  C   UNL d   1      -0.934  -0.138  -0.693  0.00  0.00     0.124 A 
ATOM      2  C1  UNL d   1       0.429  -0.340  -0.859  0.00  0.00     0.062 A 
ATOM      3  C2  UNL d   1       1.227  -0.669   0.234  0.00  0.00     0.162 A 
ATOM      4  C3  UNL d   1       0.662  -0.799   1.503  0.00  0.00    -0.034 A 
ATOM      5  C4  UNL d   1      -0.709  -0.593   1.662  0.00  0.00     0.162 A 
ATOM      6  C5  UNL d   1      -1.502  -0.265   0.567  0.00  0.00     0.062 A 
ATOM      7  F   UNL d   1      -2.819  -0.070   0.729  0.00  0.00    -0.097 F 
ATOM      8  F1  UNL d   1      -1.284  -0.710   2.868  0.00  0.00    -0.096 F 
ATOM      9  I   UNL d   1       1.851  -1.290   3.139  0.00  0.00    -0.060 I 
ATOM     10  F2  UNL d   1       2.541  -0.858   0.044  0.00  0.00    -0.096 F 
ATOM     11  F3  UNL d   1       0.981  -0.217  -2.075  0.00  0.00    -0.097 F 
ATOM     12  F4  UNL d   1      -1.698   0.179  -1.746  0.00  0.00    -0.092 F 
ENDROOT
TORSDOF 0
ENDMDL
