MODEL 1
REMARK minimizedAffinity -3.80297136
REMARK minimizedRMSD -1
REMARK  0 active torsions:
REMARK  status: ('A' for Active; 'I' for Inactive)
ROOT
ATOM      1  C   UNL d   1       1.633  -1.675   1.488  0.00  0.00     0.124 A 
ATOM      2  C1  UNL d   1       0.658  -0.798   1.941  0.00  0.00     0.062 A 
ATOM      3  C2  UNL d   1      -0.061  -0.022   1.036  0.00  0.00     0.162 A 
ATOM      4  C3  UNL d   1       0.193  -0.121  -0.332  0.00  0.00    -0.034 A 
ATOM      5  C4  UNL d   1       1.176  -1.005  -0.780  0.00  0.00     0.162 A 
ATOM      6  C5  UNL d   1       1.892  -1.778   0.129  0.00  0.00     0.062 A 
ATOM      7  F   UNL d   1       2.834  -2.625  -0.311  0.00  0.00    -0.097 F 
ATOM      8  F1  UNL d   1       1.445  -1.125  -2.089  0.00  0.00    -0.096 F 
ATOM      9  I   UNL d   1      -0.880   1.037  -1.689  0.00  0.00    -0.060 I 
ATOM     10  F2  UNL d   1      -0.998   0.817   1.502  0.00  0.00    -0.096 F 
ATOM     11  F3  UNL d   1       0.407  -0.696   3.254  0.00  0.00    -0.097 F 
ATOM     12  F4  UNL d   1       2.324  -2.419   2.362  0.00  0.00    -0.092 F 
ENDROOT
TORSDOF 0
ENDMDL
