MODEL 1
REMARK minimizedAffinity -1.42241848
REMARK minimizedRMSD -1
REMARK  0 active torsions:
REMARK  status: ('A' for Active; 'I' for Inactive)
ROOT
ATOM      1  C   UNL d   1       0.344  -0.688   0.817  0.00  0.00     0.124 A 
ATOM      2  C1  UNL d   1       1.348   0.200   0.455  0.00  0.00     0.062 A 
ATOM      3  C2  UNL d   1       1.061   1.281  -0.374  0.00  0.00     0.162 A 
ATOM      4  C3  UNL d   1      -0.236   1.481  -0.845  0.00  0.00    -0.034 A 
ATOM      5  C4  UNL d   1      -1.240   0.584  -0.477  0.00  0.00     0.162 A 
ATOM      6  C5  UNL d   1      -0.949  -0.495   0.351  0.00  0.00     0.062 A 
ATOM      7  F   UNL d   1      -1.920  -1.351   0.700  0.00  0.00    -0.097 F 
ATOM      8  F1  UNL d   1      -2.499   0.747  -0.913  0.00  0.00    -0.096 F 
ATOM      9  I   UNL d   1      -0.669   3.096  -2.084  0.00  0.00    -0.060 I 
ATOM     10  F2  UNL d   1       2.051   2.122  -0.708  0.00  0.00    -0.096 F 
ATOM     11  F3  UNL d   1       2.598   0.015   0.903  0.00  0.00    -0.097 F 
ATOM     12  F4  UNL d   1       0.623  -1.728   1.614  0.00  0.00    -0.092 F 
ENDROOT
TORSDOF 0
ENDMDL
