MODEL 1
REMARK minimizedAffinity 1.72036159
REMARK minimizedRMSD -1
REMARK  0 active torsions:
REMARK  status: ('A' for Active; 'I' for Inactive)
ROOT
ATOM      1  C   UNL d   1       1.107  -1.118   1.417  0.00  0.00     0.124 A 
ATOM      2  C1  UNL d   1       0.126  -0.219   1.815  0.00  0.00     0.062 A 
ATOM      3  C2  UNL d   1      -0.567   0.526   0.865  0.00  0.00     0.162 A 
ATOM      4  C3  UNL d   1      -0.283   0.375  -0.492  0.00  0.00    -0.034 A 
ATOM      5  C4  UNL d   1       0.705  -0.530  -0.884  0.00  0.00     0.162 A 
ATOM      6  C5  UNL d   1       1.395  -1.272   0.069  0.00  0.00     0.062 A 
ATOM      7  F   UNL d   1       2.342  -2.140  -0.317  0.00  0.00    -0.097 F 
ATOM      8  F1  UNL d   1       1.004  -0.700  -2.181  0.00  0.00    -0.096 F 
ATOM      9  I   UNL d   1      -1.317   1.487  -1.915  0.00  0.00    -0.060 I 
ATOM     10  F2  UNL d   1      -1.509   1.386   1.278  0.00  0.00    -0.096 F 
ATOM     11  F3  UNL d   1      -0.154  -0.068   3.117  0.00  0.00    -0.097 F 
ATOM     12  F4  UNL d   1       1.773  -1.833   2.333  0.00  0.00    -0.092 F 
ENDROOT
TORSDOF 0
ENDMDL
