MODEL 1
REMARK minimizedAffinity -0.315837771
REMARK minimizedRMSD -1
REMARK  0 active torsions:
REMARK  status: ('A' for Active; 'I' for Inactive)
ROOT
ATOM      1  C   UNL d   1       1.401  -0.654   1.168  0.00  0.00     0.124 A 
ATOM      2  C1  UNL d   1       0.629   0.429   1.563  0.00  0.00     0.062 A 
ATOM      3  C2  UNL d   1      -0.096   1.153   0.622  0.00  0.00     0.162 A 
ATOM      4  C3  UNL d   1      -0.053   0.796  -0.726  0.00  0.00    -0.034 A 
ATOM      5  C4  UNL d   1       0.727  -0.294  -1.117  0.00  0.00     0.162 A 
ATOM      6  C5  UNL d   1       1.450  -1.014  -0.171  0.00  0.00     0.062 A 
ATOM      7  F   UNL d   1       2.196  -2.060  -0.556  0.00  0.00    -0.097 F 
ATOM      8  F1  UNL d   1       0.791  -0.664  -2.404  0.00  0.00    -0.096 F 
ATOM      9  I   UNL d   1      -1.136   1.876  -2.138  0.00  0.00    -0.060 I 
ATOM     10  F2  UNL d   1      -0.834   2.195   1.032  0.00  0.00    -0.096 F 
ATOM     11  F3  UNL d   1       0.581   0.780   2.857  0.00  0.00    -0.097 F 
ATOM     12  F4  UNL d   1       2.099  -1.348   2.076  0.00  0.00    -0.092 F 
ENDROOT
TORSDOF 0
ENDMDL
