MODEL 1
REMARK minimizedAffinity 7.8392601
REMARK minimizedRMSD -1
REMARK  2 active torsions:
REMARK  status: ('A' for Active; 'I' for Inactive)
REMARK    1  A    between atoms: C1_2  and  C2_3 
REMARK    2  A    between atoms: C2_3  and  C3_4 
ROOT
ATOM      1  C3  UNL d   1       5.110  -3.831  -1.803  0.00  0.00    -0.075 A 
ATOM      2  C4  UNL d   1       4.468  -3.920  -3.046  0.00  0.00     0.002 A 
ATOM      3  C5  UNL d   1       3.626  -4.994  -3.333  0.00  0.00     0.002 A 
ATOM      4  C6  UNL d   1       3.424  -5.997  -2.388  0.00  0.00    -0.004 A 
ATOM      5  C7  UNL d   1       4.070  -5.928  -1.156  0.00  0.00     0.002 A 
ATOM      6  C8  UNL d   1       4.910  -4.852  -0.864  0.00  0.00     0.002 A 
ENDROOT
BRANCH   1   7
ATOM      7  C2  UNL d   1       6.000  -2.656  -1.474  0.00  0.00     0.056 C 
BRANCH   7   8
ATOM      8  C1  UNL d   1       5.518  -1.823  -0.282  0.00  0.00     0.007 C 
ATOM      9  C   UNL d   1       4.014  -1.579  -0.288  0.00  0.00     0.009 C 
ENDBRANCH   7   8
ENDBRANCH   1   7
TORSDOF 2
ENDMDL
