MODEL 1
REMARK minimizedAffinity 9.08336544
REMARK minimizedRMSD -1
REMARK  2 active torsions:
REMARK  status: ('A' for Active; 'I' for Inactive)
REMARK    1  A    between atoms: C1_2  and  C2_3 
REMARK    2  A    between atoms: C2_3  and  C3_4 
ROOT
ATOM      1  C3  UNL d   1      -2.328   0.594  -3.193  0.00  0.00    -0.075 A 
ATOM      2  C4  UNL d   1      -1.641  -0.406  -3.895  0.00  0.00     0.002 A 
ATOM      3  C5  UNL d   1      -1.023  -1.454  -3.212  0.00  0.00     0.002 A 
ATOM      4  C6  UNL d   1      -1.075  -1.510  -1.821  0.00  0.00    -0.004 A 
ATOM      5  C7  UNL d   1      -1.741  -0.513  -1.112  0.00  0.00     0.002 A 
ATOM      6  C8  UNL d   1      -2.364   0.535  -1.793  0.00  0.00     0.002 A 
ENDROOT
BRANCH   1   7
ATOM      7  C2  UNL d   1      -3.024   1.715  -3.927  0.00  0.00     0.056 C 
BRANCH   7   8
ATOM      8  C1  UNL d   1      -3.132   1.497  -5.440  0.00  0.00     0.007 C 
ATOM      9  C   UNL d   1      -4.510   1.828  -5.998  0.00  0.00     0.009 C 
ENDBRANCH   7   8
ENDBRANCH   1   7
TORSDOF 2
ENDMDL
