MODEL 1
REMARK minimizedAffinity 12.2754908
REMARK minimizedRMSD -1
REMARK  2 active torsions:
REMARK  status: ('A' for Active; 'I' for Inactive)
REMARK    1  A    between atoms: C1_2  and  C2_3 
REMARK    2  A    between atoms: C2_3  and  C3_4 
ROOT
ATOM      1  C3  UNL d   1      -0.225   1.716  -0.154  0.00  0.00    -0.075 A 
ATOM      2  C4  UNL d   1      -1.597   1.509  -0.358  0.00  0.00     0.002 A 
ATOM      3  C5  UNL d   1      -2.048   0.388  -1.055  0.00  0.00     0.002 A 
ATOM      4  C6  UNL d   1      -1.135  -0.533  -1.565  0.00  0.00    -0.004 A 
ATOM      5  C7  UNL d   1       0.231  -0.329  -1.382  0.00  0.00     0.002 A 
ATOM      6  C8  UNL d   1       0.685   0.790  -0.682  0.00  0.00     0.002 A 
ENDROOT
BRANCH   1   7
ATOM      7  C2  UNL d   1       0.268   2.913   0.624  0.00  0.00     0.056 C 
BRANCH   7   8
ATOM      8  C1  UNL d   1       0.466   4.172  -0.226  0.00  0.00     0.007 C 
ATOM      9  C   UNL d   1      -0.810   4.987  -0.397  0.00  0.00     0.009 C 
ENDBRANCH   7   8
ENDBRANCH   1   7
TORSDOF 2
ENDMDL
