MODEL 1
REMARK minimizedAffinity 10.1826897
REMARK minimizedRMSD -1
REMARK  2 active torsions:
REMARK  status: ('A' for Active; 'I' for Inactive)
REMARK    1  A    between atoms: C1_2  and  C2_3 
REMARK    2  A    between atoms: C2_3  and  C3_4 
ROOT
ATOM      1  C3  UNL d   1      -3.005   4.757  -0.452  0.00  0.00    -0.075 A 
ATOM      2  C4  UNL d   1      -3.776   5.538   0.420  0.00  0.00     0.002 A 
ATOM      3  C5  UNL d   1      -5.037   5.995   0.034  0.00  0.00     0.002 A 
ATOM      4  C6  UNL d   1      -5.537   5.685  -1.229  0.00  0.00    -0.004 A 
ATOM      5  C7  UNL d   1      -4.772   4.924  -2.109  0.00  0.00     0.002 A 
ATOM      6  C8  UNL d   1      -3.512   4.462  -1.724  0.00  0.00     0.002 A 
ENDROOT
BRANCH   1   7
ATOM      7  C2  UNL d   1      -1.652   4.235  -0.030  0.00  0.00     0.056 C 
BRANCH   7   8
ATOM      8  C1  UNL d   1      -0.487   5.164  -0.384  0.00  0.00     0.007 C 
ATOM      9  C   UNL d   1       0.878   4.559  -0.081  0.00  0.00     0.009 C 
ENDBRANCH   7   8
ENDBRANCH   1   7
TORSDOF 2
ENDMDL
