MODEL 1
REMARK minimizedAffinity 10.6967688
REMARK minimizedRMSD -1
REMARK  2 active torsions:
REMARK  status: ('A' for Active; 'I' for Inactive)
REMARK    1  A    between atoms: C1_2  and  C2_3 
REMARK    2  A    between atoms: C2_3  and  C3_4 
ROOT
ATOM      1  C3  UNL d   1      -2.449   0.518  -1.284  0.00  0.00    -0.075 A 
ATOM      2  C4  UNL d   1      -2.694   1.076  -2.547  0.00  0.00     0.002 A 
ATOM      3  C5  UNL d   1      -2.073   0.557  -3.684  0.00  0.00     0.002 A 
ATOM      4  C6  UNL d   1      -1.193  -0.518  -3.571  0.00  0.00    -0.004 A 
ATOM      5  C7  UNL d   1      -0.929  -1.069  -2.319  0.00  0.00     0.002 A 
ATOM      6  C8  UNL d   1      -1.553  -0.554  -1.181  0.00  0.00     0.002 A 
ENDROOT
BRANCH   1   7
ATOM      7  C2  UNL d   1      -3.140   1.056  -0.054  0.00  0.00     0.056 C 
BRANCH   7   8
ATOM      8  C1  UNL d   1      -3.435  -0.005   1.010  0.00  0.00     0.007 C 
ATOM      9  C   UNL d   1      -3.750   0.587   2.378  0.00  0.00     0.009 C 
ENDBRANCH   7   8
ENDBRANCH   1   7
TORSDOF 2
ENDMDL
