MODEL 1
REMARK minimizedAffinity 0.862613201
REMARK minimizedRMSD -1
REMARK  2 active torsions:
REMARK  status: ('A' for Active; 'I' for Inactive)
REMARK    1  A    between atoms: C1_2  and  C2_3 
REMARK    2  A    between atoms: C2_3  and  C3_4 
ROOT
ATOM      1  C3  UNL d   1      -0.505   1.843  -0.276  0.00  0.00    -0.075 A 
ATOM      2  C4  UNL d   1      -1.841   1.473  -0.488  0.00  0.00     0.002 A 
ATOM      3  C5  UNL d   1      -2.151   0.331  -1.227  0.00  0.00     0.002 A 
ATOM      4  C6  UNL d   1      -1.132  -0.449  -1.770  0.00  0.00    -0.004 A 
ATOM      5  C7  UNL d   1       0.198  -0.082  -1.579  0.00  0.00     0.002 A 
ATOM      6  C8  UNL d   1       0.511   1.058  -0.837  0.00  0.00     0.002 A 
ENDROOT
BRANCH   1   7
ATOM      7  C2  UNL d   1      -0.162   3.061   0.548  0.00  0.00     0.056 C 
BRANCH   7   8
ATOM      8  C1  UNL d   1      -0.202   4.376  -0.238  0.00  0.00     0.007 C 
ATOM      9  C   UNL d   1       1.084   5.184  -0.121  0.00  0.00     0.009 C 
ENDBRANCH   7   8
ENDBRANCH   1   7
TORSDOF 2
ENDMDL
