MODEL 1
REMARK minimizedAffinity 9.1658802
REMARK minimizedRMSD -1
REMARK  2 active torsions:
REMARK  status: ('A' for Active; 'I' for Inactive)
REMARK    1  A    between atoms: C1_2  and  C2_3 
REMARK    2  A    between atoms: C2_3  and  C3_4 
ROOT
ATOM      1  C3  UNL d   1       2.030   2.270   2.280  0.00  0.00    -0.075 A 
ATOM      2  C4  UNL d   1       2.742   3.463   2.088  0.00  0.00     0.002 A 
ATOM      3  C5  UNL d   1       2.255   4.447   1.226  0.00  0.00     0.002 A 
ATOM      4  C6  UNL d   1       1.059   4.247   0.541  0.00  0.00    -0.004 A 
ATOM      5  C7  UNL d   1       0.352   3.059   0.712  0.00  0.00     0.002 A 
ATOM      6  C8  UNL d   1       0.835   2.075   1.576  0.00  0.00     0.002 A 
ENDROOT
BRANCH   1   7
ATOM      7  C2  UNL d   1       2.537   1.214   3.233  0.00  0.00     0.056 C 
BRANCH   7   8
ATOM      8  C1  UNL d   1       1.532   0.823   4.322  0.00  0.00     0.007 C 
ATOM      9  C   UNL d   1       1.798  -0.553   4.918  0.00  0.00     0.009 C 
ENDBRANCH   7   8
ENDBRANCH   1   7
TORSDOF 2
ENDMDL
