MODEL 1
REMARK minimizedAffinity 9.71717548
REMARK minimizedRMSD -1
REMARK  2 active torsions:
REMARK  status: ('A' for Active; 'I' for Inactive)
REMARK    1  A    between atoms: C1_2  and  C2_3 
REMARK    2  A    between atoms: C2_3  and  C3_4 
ROOT
ATOM      1  C3  UNL d   1       1.794   2.220   2.845  0.00  0.00    -0.075 A 
ATOM      2  C4  UNL d   1       3.117   2.148   3.304  0.00  0.00     0.002 A 
ATOM      3  C5  UNL d   1       3.486   1.198   4.257  0.00  0.00     0.002 A 
ATOM      4  C6  UNL d   1       2.538   0.317   4.769  0.00  0.00    -0.004 A 
ATOM      5  C7  UNL d   1       1.216   0.389   4.333  0.00  0.00     0.002 A 
ATOM      6  C8  UNL d   1       0.845   1.336   3.377  0.00  0.00     0.002 A 
ENDROOT
BRANCH   1   7
ATOM      7  C2  UNL d   1       1.394   3.226   1.793  0.00  0.00     0.056 C 
BRANCH   7   8
ATOM      8  C1  UNL d   1       0.110   2.864   1.039  0.00  0.00     0.007 C 
ATOM      9  C   UNL d   1      -0.241   3.857  -0.061  0.00  0.00     0.009 C 
ENDBRANCH   7   8
ENDBRANCH   1   7
TORSDOF 2
ENDMDL
