MODEL 1
REMARK minimizedAffinity 8.96436024
REMARK minimizedRMSD -1
REMARK  2 active torsions:
REMARK  status: ('A' for Active; 'I' for Inactive)
REMARK    1  A    between atoms: C1_2  and  C2_3 
REMARK    2  A    between atoms: C2_3  and  C3_4 
ROOT
ATOM      1  C3  UNL d   1       0.216   3.267   0.133  0.00  0.00    -0.075 A 
ATOM      2  C4  UNL d   1      -0.302   4.229  -0.748  0.00  0.00     0.002 A 
ATOM      3  C5  UNL d   1       0.223   5.521  -0.773  0.00  0.00     0.002 A 
ATOM      4  C6  UNL d   1       1.262   5.872   0.086  0.00  0.00    -0.004 A 
ATOM      5  C7  UNL d   1       1.773   4.930   0.976  0.00  0.00     0.002 A 
ATOM      6  C8  UNL d   1       1.253   3.634   1.001  0.00  0.00     0.002 A 
ENDROOT
BRANCH   1   7
ATOM      7  C2  UNL d   1      -0.326   1.858   0.144  0.00  0.00     0.056 C 
BRANCH   7   8
ATOM      8  C1  UNL d   1       0.538   0.851  -0.622  0.00  0.00     0.007 C 
ATOM      9  C   UNL d   1      -0.277  -0.228  -1.323  0.00  0.00     0.009 C 
ENDBRANCH   7   8
ENDBRANCH   1   7
TORSDOF 2
ENDMDL
