MODEL 1
REMARK minimizedAffinity -0.930167913
REMARK minimizedRMSD -1
REMARK  0 active torsions:
REMARK  status: ('A' for Active; 'I' for Inactive)
ROOT
ATOM      1  C   UNL d   1       1.910   5.988   5.680  0.00  0.00     0.172 C 
ATOM      2  N   UNL d   1       3.275   5.992   5.208  0.00  0.00    -0.070 N 
ATOM      3  C1  UNL d   1       4.393   5.994   5.998  0.00  0.00    -0.004 A 
ATOM      4  C2  UNL d   1       5.495   5.998   5.171  0.00  0.00    -0.047 A 
ATOM      5  C3  UNL d   1       5.023   6.000   3.837  0.00  0.00    -0.047 A 
ATOM      6  C4  UNL d   1       3.645   5.996   3.889  0.00  0.00    -0.004 A 
ENDROOT
TORSDOF 0
ENDMDL
