MODEL 1
REMARK minimizedAffinity -2.01207995
REMARK minimizedRMSD -1
REMARK  0 active torsions:
REMARK  status: ('A' for Active; 'I' for Inactive)
ROOT
ATOM      1  C   UNL d   1      -2.376   0.003   1.325  0.00  0.00     0.172 C 
ATOM      2  N   UNL d   1      -3.660   0.662   1.292  0.00  0.00    -0.070 N 
ATOM      3  C1  UNL d   1      -4.871   0.065   1.519  0.00  0.00    -0.004 A 
ATOM      4  C2  UNL d   1      -5.848   1.030   1.397  0.00  0.00    -0.047 A 
ATOM      5  C3  UNL d   1      -5.201   2.249   1.084  0.00  0.00    -0.047 A 
ATOM      6  C4  UNL d   1      -3.848   1.993   1.025  0.00  0.00    -0.004 A 
ENDROOT
TORSDOF 0
ENDMDL
