MODEL 1
REMARK minimizedAffinity 2.16196918
REMARK minimizedRMSD -1
REMARK  0 active torsions:
REMARK  status: ('A' for Active; 'I' for Inactive)
ROOT
ATOM      1  C   UNL d   1      -0.894  -4.920  -3.022  0.00  0.00     0.172 C 
ATOM      2  N   UNL d   1      -1.905  -4.235  -2.250  0.00  0.00    -0.070 N 
ATOM      3  C1  UNL d   1      -2.224  -4.495  -0.944  0.00  0.00    -0.004 A 
ATOM      4  C2  UNL d   1      -3.233  -3.631  -0.576  0.00  0.00    -0.047 A 
ATOM      5  C3  UNL d   1      -3.530  -2.825  -1.701  0.00  0.00    -0.047 A 
ATOM      6  C4  UNL d   1      -2.694  -3.220  -2.723  0.00  0.00    -0.004 A 
ENDROOT
TORSDOF 0
ENDMDL
