MODEL 1
REMARK minimizedAffinity 6.18280411
REMARK minimizedRMSD -1
REMARK  0 active torsions:
REMARK  status: ('A' for Active; 'I' for Inactive)
ROOT
ATOM      1  C   UNL d   1      -2.266  -2.671  -2.862  0.00  0.00     0.172 C 
ATOM      2  N   UNL d   1      -2.331  -3.452  -1.649  0.00  0.00    -0.070 N 
ATOM      3  C1  UNL d   1      -1.991  -3.013  -0.398  0.00  0.00    -0.004 A 
ATOM      4  C2  UNL d   1      -2.194  -4.052   0.484  0.00  0.00    -0.047 A 
ATOM      5  C3  UNL d   1      -2.672  -5.155  -0.263  0.00  0.00    -0.047 A 
ATOM      6  C4  UNL d   1      -2.748  -4.756  -1.581  0.00  0.00    -0.004 A 
ENDROOT
TORSDOF 0
ENDMDL
