MODEL 1
REMARK minimizedAffinity 3.96964073
REMARK minimizedRMSD -1
REMARK  0 active torsions:
REMARK  status: ('A' for Active; 'I' for Inactive)
ROOT
ATOM      1  C   UNL d   1       1.681   5.998   4.741  0.00  0.00     0.172 C 
ATOM      2  N   UNL d   1       3.122   5.996   4.829  0.00  0.00    -0.070 N 
ATOM      3  C1  UNL d   1       3.987   5.992   3.767  0.00  0.00    -0.004 A 
ATOM      4  C2  UNL d   1       5.271   5.991   4.268  0.00  0.00    -0.047 A 
ATOM      5  C3  UNL d   1       5.175   5.993   5.680  0.00  0.00    -0.047 A 
ATOM      6  C4  UNL d   1       3.833   5.996   6.000  0.00  0.00    -0.004 A 
ENDROOT
TORSDOF 0
ENDMDL
