MODEL 1
REMARK minimizedAffinity 1.85469222
REMARK minimizedRMSD -1
REMARK  0 active torsions:
REMARK  status: ('A' for Active; 'I' for Inactive)
ROOT
ATOM      1  C   UNL d   1      -5.279   2.077   0.370  0.00  0.00     0.172 C 
ATOM      2  N   UNL d   1      -4.077   1.318   0.628  0.00  0.00    -0.070 N 
ATOM      3  C1  UNL d   1      -2.797   1.752   0.410  0.00  0.00    -0.004 A 
ATOM      4  C2  UNL d   1      -1.939   0.739   0.782  0.00  0.00    -0.047 A 
ATOM      5  C3  UNL d   1      -2.732  -0.341   1.238  0.00  0.00    -0.047 A 
ATOM      6  C4  UNL d   1      -4.051   0.044   1.132  0.00  0.00    -0.004 A 
ENDROOT
TORSDOF 0
ENDMDL
