MODEL 1
REMARK minimizedAffinity -2.38712668
REMARK minimizedRMSD -1
REMARK  0 active torsions:
REMARK  status: ('A' for Active; 'I' for Inactive)
ROOT
ATOM      1  C   UNL d   1      -2.215   0.220   1.152  0.00  0.00     0.172 C 
ATOM      2  N   UNL d   1      -3.543   0.788   1.172  0.00  0.00    -0.070 N 
ATOM      3  C1  UNL d   1      -3.863   2.081   0.854  0.00  0.00    -0.004 A 
ATOM      4  C2  UNL d   1      -5.227   2.225   0.996  0.00  0.00    -0.047 A 
ATOM      5  C3  UNL d   1      -5.743   0.975   1.414  0.00  0.00    -0.047 A 
ATOM      6  C4  UNL d   1      -4.679   0.104   1.515  0.00  0.00    -0.004 A 
ENDROOT
TORSDOF 0
ENDMDL
