MODEL 1
REMARK minimizedAffinity -0.828024507
REMARK minimizedRMSD -1
REMARK  0 active torsions:
REMARK  status: ('A' for Active; 'I' for Inactive)
ROOT
ATOM      1  C   UNL d   1      -4.703   1.847   0.429  0.00  0.00     0.172 C 
ATOM      2  N   UNL d   1      -3.387   1.257   0.354  0.00  0.00    -0.070 N 
ATOM      3  C1  UNL d   1      -2.952   0.180   1.080  0.00  0.00    -0.004 A 
ATOM      4  C2  UNL d   1      -1.646  -0.071   0.721  0.00  0.00    -0.047 A 
ATOM      5  C3  UNL d   1      -1.282   0.888  -0.254  0.00  0.00    -0.047 A 
ATOM      6  C4  UNL d   1      -2.378   1.698  -0.462  0.00  0.00    -0.004 A 
ENDROOT
TORSDOF 0
ENDMDL
