MODEL 1
REMARK minimizedAffinity 1.54725623
REMARK minimizedRMSD -1
REMARK  0 active torsions:
REMARK  status: ('A' for Active; 'I' for Inactive)
ROOT
ATOM      1  C   UNL d   1      -5.950   1.758   0.657  0.00  0.00     0.172 C 
ATOM      2  N   UNL d   1      -4.575   1.767   0.215  0.00  0.00    -0.070 N 
ATOM      3  C1  UNL d   1      -4.133   2.189  -1.011  0.00  0.00    -0.004 A 
ATOM      4  C2  UNL d   1      -2.764   2.039  -1.040  0.00  0.00    -0.047 A 
ATOM      5  C3  UNL d   1      -2.369   1.507   0.210  0.00  0.00    -0.047 A 
ATOM      6  C4  UNL d   1      -3.510   1.349   0.968  0.00  0.00    -0.004 A 
ENDROOT
TORSDOF 0
ENDMDL
