MODEL 1
REMARK minimizedAffinity 10.3319073
REMARK minimizedRMSD -1
REMARK  0 active torsions:
REMARK  status: ('A' for Active; 'I' for Inactive)
ROOT
ATOM      1  C   UNL d   1       4.859   2.509   0.564  0.00  0.00     0.172 C 
ATOM      2  N   UNL d   1       3.882   1.989  -0.363  0.00  0.00    -0.070 N 
ATOM      3  C1  UNL d   1       2.970   2.733  -1.063  0.00  0.00    -0.004 A 
ATOM      4  C2  UNL d   1       2.223   1.869  -1.834  0.00  0.00    -0.047 A 
ATOM      5  C3  UNL d   1       2.702   0.560  -1.589  0.00  0.00    -0.047 A 
ATOM      6  C4  UNL d   1       3.729   0.663  -0.675  0.00  0.00    -0.004 A 
ENDROOT
TORSDOF 0
ENDMDL
