MODEL 1
REMARK minimizedAffinity -2.23707485
REMARK minimizedRMSD -1
REMARK  0 active torsions:
REMARK  status: ('A' for Active; 'I' for Inactive)
ROOT
ATOM      1  C   UNL d   1       2.902  -6.000  -4.371  0.00  0.00     0.172 C 
ATOM      2  N   UNL d   1       1.627  -5.674  -3.777  0.00  0.00    -0.070 N 
ATOM      3  C1  UNL d   1       0.400  -5.997  -4.293  0.00  0.00    -0.004 A 
ATOM      4  C2  UNL d   1      -0.561  -5.511  -3.433  0.00  0.00    -0.047 A 
ATOM      5  C3  UNL d   1       0.112  -4.872  -2.364  0.00  0.00    -0.047 A 
ATOM      6  C4  UNL d   1       1.465  -4.988  -2.602  0.00  0.00    -0.004 A 
ENDROOT
TORSDOF 0
ENDMDL
