MODEL 1
REMARK minimizedAffinity 3.048594
REMARK minimizedRMSD -1
REMARK  0 active torsions:
REMARK  status: ('A' for Active; 'I' for Inactive)
ROOT
ATOM      1  C   UNL d   1       4.334   5.915   2.385  0.00  0.00     0.172 C 
ATOM      2  N   UNL d   1       4.099   5.942   3.810  0.00  0.00    -0.070 N 
ATOM      3  C1  UNL d   1       2.872   5.989   4.416  0.00  0.00    -0.004 A 
ATOM      4  C2  UNL d   1       3.074   6.000   5.779  0.00  0.00    -0.047 A 
ATOM      5  C3  UNL d   1       4.471   5.960   6.000  0.00  0.00    -0.047 A 
ATOM      6  C4  UNL d   1       5.082   5.924   4.764  0.00  0.00    -0.004 A 
ENDROOT
TORSDOF 0
ENDMDL
