MODEL 1
REMARK minimizedAffinity 5.33379126
REMARK minimizedRMSD -1
REMARK  0 active torsions:
REMARK  status: ('A' for Active; 'I' for Inactive)
ROOT
ATOM      1  C   UNL d   1       0.003   2.699   2.230  0.00  0.00     0.172 C 
ATOM      2  N   UNL d   1       0.863   1.815   1.479  0.00  0.00    -0.070 N 
ATOM      3  C1  UNL d   1       0.447   0.773   0.694  0.00  0.00    -0.004 A 
ATOM      4  C2  UNL d   1       1.567   0.181   0.151  0.00  0.00    -0.047 A 
ATOM      5  C3  UNL d   1       2.694   0.891   0.627  0.00  0.00    -0.047 A 
ATOM      6  C4  UNL d   1       2.230   1.898   1.447  0.00  0.00    -0.004 A 
ENDROOT
TORSDOF 0
ENDMDL
