MODEL 1
REMARK minimizedAffinity 3.28570294
REMARK minimizedRMSD -1
REMARK  0 active torsions:
REMARK  status: ('A' for Active; 'I' for Inactive)
ROOT
ATOM      1  C   UNL d   1      -0.746  -2.982   4.209  0.00  0.00     0.172 C 
ATOM      2  N   UNL d   1      -0.111  -4.209   3.787  0.00  0.00    -0.070 N 
ATOM      3  C1  UNL d   1      -0.368  -4.881   2.623  0.00  0.00    -0.004 A 
ATOM      4  C2  UNL d   1       0.439  -5.998   2.593  0.00  0.00    -0.047 A 
ATOM      5  C3  UNL d   1       1.208  -5.996   3.781  0.00  0.00    -0.047 A 
ATOM      6  C4  UNL d   1       0.847  -4.878   4.502  0.00  0.00    -0.004 A 
ENDROOT
TORSDOF 0
ENDMDL
