MODEL 1
REMARK minimizedAffinity 1.04001629
REMARK minimizedRMSD -1
REMARK  0 active torsions:
REMARK  status: ('A' for Active; 'I' for Inactive)
ROOT
ATOM      1  C   UNL d   1       2.487   1.199   0.728  0.00  0.00     0.172 C 
ATOM      2  N   UNL d   1       1.574   1.997   1.512  0.00  0.00    -0.070 N 
ATOM      3  C1  UNL d   1       0.362   2.473   1.088  0.00  0.00    -0.004 A 
ATOM      4  C2  UNL d   1      -0.199   3.184   2.127  0.00  0.00    -0.047 A 
ATOM      5  C3  UNL d   1       0.707   3.134   3.213  0.00  0.00    -0.047 A 
ATOM      6  C4  UNL d   1       1.796   2.393   2.805  0.00  0.00    -0.004 A 
ENDROOT
TORSDOF 0
ENDMDL
