MODEL 1
REMARK minimizedAffinity 1.26992524
REMARK minimizedRMSD -1
REMARK  0 active torsions:
REMARK  status: ('A' for Active; 'I' for Inactive)
ROOT
ATOM      1  C   UNL d   1       0.858   1.583  -4.105  0.00  0.00     0.172 C 
ATOM      2  N   UNL d   1      -0.440   1.801  -4.700  0.00  0.00    -0.070 N 
ATOM      3  C1  UNL d   1      -1.576   1.090  -4.420  0.00  0.00    -0.004 A 
ATOM      4  C2  UNL d   1      -2.596   1.604  -5.191  0.00  0.00    -0.047 A 
ATOM      5  C3  UNL d   1      -2.054   2.660  -5.962  0.00  0.00    -0.047 A 
ATOM      6  C4  UNL d   1      -0.717   2.760  -5.638  0.00  0.00    -0.004 A 
ENDROOT
TORSDOF 0
ENDMDL
