MODEL 1
REMARK minimizedAffinity 0.928541958
REMARK minimizedRMSD -1
REMARK  0 active torsions:
REMARK  status: ('A' for Active; 'I' for Inactive)
ROOT
ATOM      1  C   UNL d   1      -0.513   1.472   0.262  0.00  0.00     0.172 C 
ATOM      2  N   UNL d   1       0.147   1.980   1.441  0.00  0.00    -0.070 N 
ATOM      3  C1  UNL d   1       1.489   2.219   1.565  0.00  0.00    -0.004 A 
ATOM      4  C2  UNL d   1       1.718   2.698   2.837  0.00  0.00    -0.047 A 
ATOM      5  C3  UNL d   1       0.469   2.747   3.501  0.00  0.00    -0.047 A 
ATOM      6  C4  UNL d   1      -0.486   2.298   2.614  0.00  0.00    -0.004 A 
ENDROOT
TORSDOF 0
ENDMDL
