MODEL 1
REMARK minimizedAffinity 10.3049021
REMARK minimizedRMSD -1
REMARK  3 active torsions:
REMARK  status: ('A' for Active; 'I' for Inactive)
REMARK    1  A    between atoms: C3'_2  and  C2'_3 
REMARK    2  A    between atoms: C2'_3  and  C1'_4 
REMARK    3  A    between atoms: C1'_4  and  C1_5 
ROOT
ATOM      1  C1  N4B d   1      -3.435   0.344   3.939  0.00  0.00    -0.075 A 
ATOM      2  C2  N4B d   1      -3.688  -0.815   3.174  0.00  0.00     0.002 A 
ATOM      3  C3  N4B d   1      -3.895  -2.020   3.800  0.00  0.00     0.002 A 
ATOM      4  C4  N4B d   1      -3.835  -2.093   5.183  0.00  0.00    -0.004 A 
ATOM      5  C5  N4B d   1      -3.615  -0.964   5.917  0.00  0.00     0.002 A 
ATOM      6  C6  N4B d   1      -3.409   0.254   5.301  0.00  0.00     0.002 A 
ENDROOT
BRANCH   1   7
ATOM      7  C1' N4B d   1      -3.118   1.667   3.297  0.00  0.00     0.057 C 
BRANCH   7   8
ATOM      8  C2' N4B d   1      -1.883   1.511   2.413  0.00  0.00     0.009 C 
BRANCH   8   9
ATOM      9  C3' N4B d   1      -0.615   1.945   3.127  0.00  0.00     0.004 C 
ATOM     10  C4' N4B d   1       0.609   1.249   2.611  0.00  0.00     0.003 C 
ENDBRANCH   8   9
ENDBRANCH   7   8
ENDBRANCH   1   7
TORSDOF 3
ENDMDL
