MODEL 1
REMARK minimizedAffinity 5.25600433
REMARK minimizedRMSD -1
REMARK  3 active torsions:
REMARK  status: ('A' for Active; 'I' for Inactive)
REMARK    1  A    between atoms: C3'_2  and  C2'_3 
REMARK    2  A    between atoms: C2'_3  and  C1'_4 
REMARK    3  A    between atoms: C1'_4  and  C1_5 
ROOT
ATOM      1  C1  N4B d   1       3.100  -0.191  -0.081  0.00  0.00    -0.075 A 
ATOM      2  C2  N4B d   1       2.617   0.833  -0.925  0.00  0.00     0.002 A 
ATOM      3  C3  N4B d   1       3.267   2.041  -0.979  0.00  0.00     0.002 A 
ATOM      4  C4  N4B d   1       4.386   2.254  -0.187  0.00  0.00    -0.004 A 
ATOM      5  C5  N4B d   1       4.860   1.251   0.607  0.00  0.00     0.002 A 
ATOM      6  C6  N4B d   1       4.219   0.030   0.668  0.00  0.00     0.002 A 
ENDROOT
BRANCH   1   7
ATOM      7  C1' N4B d   1       2.373  -1.499   0.076  0.00  0.00     0.057 C 
BRANCH   7   8
ATOM      8  C2' N4B d   1       3.378  -2.644  -0.013  0.00  0.00     0.009 C 
BRANCH   8   9
ATOM      9  C3' N4B d   1       2.700  -3.975  -0.291  0.00  0.00     0.004 C 
ATOM     10  C4' N4B d   1       3.674  -5.109  -0.411  0.00  0.00     0.003 C 
ENDBRANCH   8   9
ENDBRANCH   7   8
ENDBRANCH   1   7
TORSDOF 3
ENDMDL
