MODEL 1
REMARK minimizedAffinity 26.1848335
REMARK minimizedRMSD -1
REMARK  3 active torsions:
REMARK  status: ('A' for Active; 'I' for Inactive)
REMARK    1  A    between atoms: C3'_2  and  C2'_3 
REMARK    2  A    between atoms: C2'_3  and  C1'_4 
REMARK    3  A    between atoms: C1'_4  and  C1_5 
ROOT
ATOM      1  C1  N4B d   1       2.527   0.646  -0.253  0.00  0.00    -0.075 A 
ATOM      2  C2  N4B d   1       3.819   1.005  -0.698  0.00  0.00     0.002 A 
ATOM      3  C3  N4B d   1       4.624   1.788   0.093  0.00  0.00     0.002 A 
ATOM      4  C4  N4B d   1       4.154   2.238   1.317  0.00  0.00    -0.004 A 
ATOM      5  C5  N4B d   1       2.915   1.867   1.750  0.00  0.00     0.002 A 
ATOM      6  C6  N4B d   1       2.096   1.076   0.968  0.00  0.00     0.002 A 
ENDROOT
BRANCH   1   7
ATOM      7  C1' N4B d   1       1.578  -0.137  -1.119  0.00  0.00     0.057 C 
BRANCH   7   8
ATOM      8  C2' N4B d   1       2.191  -1.500  -1.427  0.00  0.00     0.009 C 
BRANCH   8   9
ATOM      9  C3' N4B d   1       2.347  -2.349  -0.177  0.00  0.00     0.004 C 
ATOM     10  C4' N4B d   1       3.779  -2.666   0.135  0.00  0.00     0.003 C 
ENDBRANCH   8   9
ENDBRANCH   7   8
ENDBRANCH   1   7
TORSDOF 3
ENDMDL
