MODEL 1
REMARK minimizedAffinity 19.5906525
REMARK minimizedRMSD -1
REMARK  3 active torsions:
REMARK  status: ('A' for Active; 'I' for Inactive)
REMARK    1  A    between atoms: C3'_2  and  C2'_3 
REMARK    2  A    between atoms: C2'_3  and  C1'_4 
REMARK    3  A    between atoms: C1'_4  and  C1_5 
ROOT
ATOM      1  C1  N4B d   1      -1.577   0.773   2.917  0.00  0.00    -0.075 A 
ATOM      2  C2  N4B d   1      -1.550   1.798   1.947  0.00  0.00     0.002 A 
ATOM      3  C3  N4B d   1      -0.348   2.303   1.515  0.00  0.00     0.002 A 
ATOM      4  C4  N4B d   1       0.834   1.812   2.049  0.00  0.00    -0.004 A 
ATOM      5  C5  N4B d   1       0.800   0.804   2.968  0.00  0.00     0.002 A 
ATOM      6  C6  N4B d   1      -0.401   0.285   3.408  0.00  0.00     0.002 A 
ENDROOT
BRANCH   1   7
ATOM      7  C1' N4B d   1      -2.869   0.249   3.484  0.00  0.00     0.057 C 
BRANCH   7   8
ATOM      8  C2' N4B d   1      -4.017   1.139   3.018  0.00  0.00     0.009 C 
BRANCH   8   9
ATOM      9  C3' N4B d   1      -4.426   2.143   4.082  0.00  0.00     0.004 C 
ATOM     10  C4' N4B d   1      -5.723   2.827   3.768  0.00  0.00     0.003 C 
ENDBRANCH   8   9
ENDBRANCH   7   8
ENDBRANCH   1   7
TORSDOF 3
ENDMDL
