MODEL 1
REMARK minimizedAffinity 15.9477129
REMARK minimizedRMSD -1
REMARK  3 active torsions:
REMARK  status: ('A' for Active; 'I' for Inactive)
REMARK    1  A    between atoms: C3'_2  and  C2'_3 
REMARK    2  A    between atoms: C2'_3  and  C1'_4 
REMARK    3  A    between atoms: C1'_4  and  C1_5 
ROOT
ATOM      1  C1  N4B d   1       3.068  -2.352  -0.405  0.00  0.00    -0.075 A 
ATOM      2  C2  N4B d   1       2.122  -3.349  -0.082  0.00  0.00     0.002 A 
ATOM      3  C3  N4B d   1       2.546  -4.587   0.337  0.00  0.00     0.002 A 
ATOM      4  C4  N4B d   1       3.904  -4.854   0.422  0.00  0.00    -0.004 A 
ATOM      5  C5  N4B d   1       4.811  -3.877   0.132  0.00  0.00     0.002 A 
ATOM      6  C6  N4B d   1       4.399  -2.628  -0.287  0.00  0.00     0.002 A 
ENDROOT
BRANCH   1   7
ATOM      7  C1' N4B d   1       2.654  -1.012  -0.950  0.00  0.00     0.057 C 
BRANCH   7   8
ATOM      8  C2' N4B d   1       2.280  -1.163  -2.422  0.00  0.00     0.009 C 
BRANCH   8   9
ATOM      9  C3' N4B d   1       1.793   0.145  -3.021  0.00  0.00     0.004 C 
ATOM     10  C4' N4B d   1       2.311   1.348  -2.291  0.00  0.00     0.003 C 
ENDBRANCH   8   9
ENDBRANCH   7   8
ENDBRANCH   1   7
TORSDOF 3
ENDMDL
