MODEL 1
REMARK minimizedAffinity 7.04088736
REMARK minimizedRMSD -1
REMARK  3 active torsions:
REMARK  status: ('A' for Active; 'I' for Inactive)
REMARK    1  A    between atoms: C3'_2  and  C2'_3 
REMARK    2  A    between atoms: C2'_3  and  C1'_4 
REMARK    3  A    between atoms: C1'_4  and  C1_5 
ROOT
ATOM      1  C1  N4B d   1       3.195  -1.759  -0.388  0.00  0.00    -0.075 A 
ATOM      2  C2  N4B d   1       4.573  -1.859  -0.093  0.00  0.00     0.002 A 
ATOM      3  C3  N4B d   1       5.117  -3.074   0.244  0.00  0.00     0.002 A 
ATOM      4  C4  N4B d   1       4.303  -4.195   0.310  0.00  0.00    -0.004 A 
ATOM      5  C5  N4B d   1       2.978  -4.095  -0.001  0.00  0.00     0.002 A 
ATOM      6  C6  N4B d   1       2.419  -2.881  -0.345  0.00  0.00     0.002 A 
ENDROOT
BRANCH   1   7
ATOM      7  C1' N4B d   1       2.538  -0.437  -0.678  0.00  0.00     0.057 C 
BRANCH   7   8
ATOM      8  C2' N4B d   1       3.571   0.677  -0.535  0.00  0.00     0.009 C 
BRANCH   8   9
ATOM      9  C3' N4B d   1       3.956   0.913   0.915  0.00  0.00     0.004 C 
ATOM     10  C4' N4B d   1       4.065   2.369   1.258  0.00  0.00     0.003 C 
ENDBRANCH   8   9
ENDBRANCH   7   8
ENDBRANCH   1   7
TORSDOF 3
ENDMDL
