MODEL 1
REMARK minimizedAffinity 17.7454166
REMARK minimizedRMSD -1
REMARK  3 active torsions:
REMARK  status: ('A' for Active; 'I' for Inactive)
REMARK    1  A    between atoms: C3'_2  and  C2'_3 
REMARK    2  A    between atoms: C2'_3  and  C1'_4 
REMARK    3  A    between atoms: C1'_4  and  C1_5 
ROOT
ATOM      1  C1  N4B d   1      -4.001   1.311   3.761  0.00  0.00    -0.075 A 
ATOM      2  C2  N4B d   1      -5.062   2.189   3.446  0.00  0.00     0.002 A 
ATOM      3  C3  N4B d   1      -5.591   3.002   4.418  0.00  0.00     0.002 A 
ATOM      4  C4  N4B d   1      -5.091   2.943   5.710  0.00  0.00    -0.004 A 
ATOM      5  C5  N4B d   1      -4.049   2.111   5.999  0.00  0.00     0.002 A 
ATOM      6  C6  N4B d   1      -3.504   1.291   5.032  0.00  0.00     0.002 A 
ENDROOT
BRANCH   1   7
ATOM      7  C1' N4B d   1      -3.447   0.342   2.753  0.00  0.00     0.057 C 
BRANCH   7   8
ATOM      8  C2' N4B d   1      -2.157   0.909   2.168  0.00  0.00     0.009 C 
BRANCH   8   9
ATOM      9  C3' N4B d   1      -0.952   0.048   2.506  0.00  0.00     0.004 C 
ATOM     10  C4' N4B d   1       0.201   0.846   3.036  0.00  0.00     0.003 C 
ENDBRANCH   8   9
ENDBRANCH   7   8
ENDBRANCH   1   7
TORSDOF 3
ENDMDL
