MODEL 1
REMARK minimizedAffinity 16.9671955
REMARK minimizedRMSD -1
REMARK  3 active torsions:
REMARK  status: ('A' for Active; 'I' for Inactive)
REMARK    1  A    between atoms: C3'_2  and  C2'_3 
REMARK    2  A    between atoms: C2'_3  and  C1'_4 
REMARK    3  A    between atoms: C1'_4  and  C1_5 
ROOT
ATOM      1  C1  N4B d   1      -4.291  -0.554   2.626  0.00  0.00    -0.075 A 
ATOM      2  C2  N4B d   1      -4.091  -1.275   3.824  0.00  0.00     0.002 A 
ATOM      3  C3  N4B d   1      -4.854  -2.385   4.092  0.00  0.00     0.002 A 
ATOM      4  C4  N4B d   1      -5.831  -2.780   3.191  0.00  0.00    -0.004 A 
ATOM      5  C5  N4B d   1      -6.000  -2.093   2.024  0.00  0.00     0.002 A 
ATOM      6  C6  N4B d   1      -5.238  -0.978   1.740  0.00  0.00     0.002 A 
ENDROOT
BRANCH   1   7
ATOM      7  C1' N4B d   1      -3.540   0.716   2.329  0.00  0.00     0.057 C 
BRANCH   7   8
ATOM      8  C2' N4B d   1      -2.918   1.243   3.619  0.00  0.00     0.009 C 
BRANCH   8   9
ATOM      9  C3' N4B d   1      -3.952   1.889   4.526  0.00  0.00     0.004 C 
ATOM     10  C4' N4B d   1      -3.595   1.786   5.979  0.00  0.00     0.003 C 
ENDBRANCH   8   9
ENDBRANCH   7   8
ENDBRANCH   1   7
TORSDOF 3
ENDMDL
