MODEL 1
REMARK minimizedAffinity 7.0566349
REMARK minimizedRMSD -1
REMARK  3 active torsions:
REMARK  status: ('A' for Active; 'I' for Inactive)
REMARK    1  A    between atoms: C3'_2  and  C2'_3 
REMARK    2  A    between atoms: C2'_3  and  C1'_4 
REMARK    3  A    between atoms: C1'_4  and  C1_5 
ROOT
ATOM      1  C1  N4B d   1       1.623  -2.258  -1.447  0.00  0.00    -0.075 A 
ATOM      2  C2  N4B d   1       2.322  -3.260  -0.740  0.00  0.00     0.002 A 
ATOM      3  C3  N4B d   1       3.539  -2.977  -0.171  0.00  0.00     0.002 A 
ATOM      4  C4  N4B d   1       4.084  -1.709  -0.313  0.00  0.00    -0.004 A 
ATOM      5  C5  N4B d   1       3.390  -0.740  -0.976  0.00  0.00     0.002 A 
ATOM      6  C6  N4B d   1       2.164  -1.009  -1.549  0.00  0.00     0.002 A 
ENDROOT
BRANCH   1   7
ATOM      7  C1' N4B d   1       0.329  -2.544  -2.159  0.00  0.00     0.057 C 
BRANCH   7   8
ATOM      8  C2' N4B d   1       0.343  -3.984  -2.664  0.00  0.00     0.009 C 
BRANCH   8   9
ATOM      9  C3' N4B d   1      -0.903  -4.316  -3.467  0.00  0.00     0.004 C 
ATOM     10  C4' N4B d   1      -1.920  -5.080  -2.672  0.00  0.00     0.003 C 
ENDBRANCH   8   9
ENDBRANCH   7   8
ENDBRANCH   1   7
TORSDOF 3
ENDMDL
