MODEL 1
REMARK minimizedAffinity -3.57210994
REMARK minimizedRMSD -1
REMARK  0 active torsions:
REMARK  status: ('A' for Active; 'I' for Inactive)
ROOT
ATOM      1  C4' PXY d   1       1.439  -2.286  -1.160  0.00  0.00     0.077 C 
ATOM      2  C1' PXY d   1      -1.290   1.888   1.763  0.00  0.00     0.077 C 
ATOM      3  C1  PXY d   1      -0.577   0.800   0.985  0.00  0.00    -0.082 A 
ATOM      4  C2  PXY d   1      -0.441  -0.404   1.519  0.00  0.00     0.003 A 
ATOM      5  C3  PXY d   1       0.229  -1.391   0.842  0.00  0.00     0.003 A 
ATOM      6  C4  PXY d   1       0.719  -1.159  -0.415  0.00  0.00    -0.082 A 
ATOM      7  C5  PXY d   1       0.575   0.063  -0.971  0.00  0.00     0.003 A 
ATOM      8  C6  PXY d   1      -0.072   1.063  -0.251  0.00  0.00     0.003 A 
ENDROOT
TORSDOF 0
ENDMDL
