MODEL 1
REMARK minimizedAffinity -3.84238386
REMARK minimizedRMSD -1
REMARK  0 active torsions:
REMARK  status: ('A' for Active; 'I' for Inactive)
ROOT
ATOM      1  C4' PXY d   1      -2.456   2.060   1.653  0.00  0.00     0.077 C 
ATOM      2  C1' PXY d   1       1.175  -1.441  -1.170  0.00  0.00     0.077 C 
ATOM      3  C1  PXY d   1       0.218  -0.533  -0.422  0.00  0.00    -0.082 A 
ATOM      4  C2  PXY d   1      -0.213   0.578  -0.997  0.00  0.00     0.003 A 
ATOM      5  C3  PXY d   1      -1.052   1.427  -0.323  0.00  0.00     0.003 A 
ATOM      6  C4  PXY d   1      -1.498   1.109   0.932  0.00  0.00    -0.082 A 
ATOM      7  C5  PXY d   1      -1.071  -0.028   1.521  0.00  0.00     0.003 A 
ATOM      8  C6  PXY d   1      -0.186  -0.856   0.836  0.00  0.00     0.003 A 
ENDROOT
TORSDOF 0
ENDMDL
