MODEL 1
REMARK minimizedAffinity -2.3632865
REMARK minimizedRMSD -1
REMARK  0 active torsions:
REMARK  status: ('A' for Active; 'I' for Inactive)
ROOT
ATOM      1  C4' PXY d   1       1.660  -1.242  -1.095  0.00  0.00     0.077 C 
ATOM      2  C1' PXY d   1      -2.105   2.062   1.791  0.00  0.00     0.077 C 
ATOM      3  C1  PXY d   1      -1.122   1.201   1.023  0.00  0.00    -0.082 A 
ATOM      4  C2  PXY d   1      -0.728   0.045   1.531  0.00  0.00     0.003 A 
ATOM      5  C3  PXY d   1       0.185  -0.731   0.865  0.00  0.00     0.003 A 
ATOM      6  C4  PXY d   1       0.661  -0.344  -0.359  0.00  0.00    -0.082 A 
ATOM      7  C5  PXY d   1       0.256   0.829  -0.890  0.00  0.00     0.003 A 
ATOM      8  C6  PXY d   1      -0.640   1.622  -0.179  0.00  0.00     0.003 A 
ENDROOT
TORSDOF 0
ENDMDL
