MODEL 1
REMARK minimizedAffinity -2.04673076
REMARK minimizedRMSD -1
REMARK  0 active torsions:
REMARK  status: ('A' for Active; 'I' for Inactive)
ROOT
ATOM      1  C4' PXY d   1       0.762  -1.798  -1.545  0.00  0.00     0.077 C 
ATOM      2  C1' PXY d   1      -1.894   2.207   1.668  0.00  0.00     0.077 C 
ATOM      3  C1  PXY d   1      -1.189   1.155   0.835  0.00  0.00    -0.082 A 
ATOM      4  C2  PXY d   1      -1.333   1.158  -0.480  0.00  0.00     0.003 A 
ATOM      5  C3  PXY d   1      -0.728   0.195  -1.246  0.00  0.00     0.003 A 
ATOM      6  C4  PXY d   1       0.076  -0.749  -0.665  0.00  0.00    -0.082 A 
ATOM      7  C5  PXY d   1       0.237  -0.752   0.676  0.00  0.00     0.003 A 
ATOM      8  C6  PXY d   1      -0.419   0.210   1.439  0.00  0.00     0.003 A 
ENDROOT
TORSDOF 0
ENDMDL
