MODEL 1
REMARK minimizedAffinity -3.18477893
REMARK minimizedRMSD -1
REMARK  0 active torsions:
REMARK  status: ('A' for Active; 'I' for Inactive)
ROOT
ATOM      1  C4' PXY d   1      -2.238   2.670   1.183  0.00  0.00     0.077 C 
ATOM      2  C1' PXY d   1       1.968  -0.800  -0.734  0.00  0.00     0.077 C 
ATOM      3  C1  PXY d   1       0.870   0.120  -0.239  0.00  0.00    -0.082 A 
ATOM      4  C2  PXY d   1       0.324  -0.092   0.947  0.00  0.00     0.003 A 
ATOM      5  C3  PXY d   1      -0.693   0.710   1.397  0.00  0.00     0.003 A 
ATOM      6  C4  PXY d   1      -1.120   1.773   0.646  0.00  0.00    -0.082 A 
ATOM      7  C5  PXY d   1      -0.561   2.002  -0.561  0.00  0.00     0.003 A 
ATOM      8  C6  PXY d   1       0.442   1.151  -1.017  0.00  0.00     0.003 A 
ENDROOT
TORSDOF 0
ENDMDL
