MODEL 1
REMARK minimizedAffinity -3.97025275
REMARK minimizedRMSD -1
REMARK  0 active torsions:
REMARK  status: ('A' for Active; 'I' for Inactive)
ROOT
ATOM      1  C4' PXY d   1      -2.122   2.528   1.815  0.00  0.00     0.077 C 
ATOM      2  C1' PXY d   1       1.426  -1.490  -0.349  0.00  0.00     0.077 C 
ATOM      3  C1  PXY d   1       0.490  -0.445   0.226  0.00  0.00    -0.082 A 
ATOM      4  C2  PXY d   1       0.206   0.638  -0.479  0.00  0.00     0.003 A 
ATOM      5  C3  PXY d   1      -0.613   1.608   0.039  0.00  0.00     0.003 A 
ATOM      6  C4  PXY d   1      -1.190   1.443   1.270  0.00  0.00    -0.082 A 
ATOM      7  C5  PXY d   1      -0.914   0.335   1.991  0.00  0.00     0.003 A 
ATOM      8  C6  PXY d   1      -0.047  -0.618   1.464  0.00  0.00     0.003 A 
ENDROOT
TORSDOF 0
ENDMDL
