MODEL 1
REMARK minimizedAffinity -3.19501662
REMARK minimizedRMSD -1
REMARK  0 active torsions:
REMARK  status: ('A' for Active; 'I' for Inactive)
ROOT
ATOM      1  C4' PXY d   1      -2.244   2.996   1.346  0.00  0.00     0.077 C 
ATOM      2  C1' PXY d   1       1.112  -1.400  -0.336  0.00  0.00     0.077 C 
ATOM      3  C1  PXY d   1       0.238  -0.239   0.096  0.00  0.00    -0.082 A 
ATOM      4  C2  PXY d   1      -0.335  -0.261   1.289  0.00  0.00     0.003 A 
ATOM      5  C3  PXY d   1      -1.154   0.765   1.683  0.00  0.00     0.003 A 
ATOM      6  C4  PXY d   1      -1.346   1.851   0.871  0.00  0.00    -0.082 A 
ATOM      7  C5  PXY d   1      -0.755   1.885  -0.343  0.00  0.00     0.003 A 
ATOM      8  C6  PXY d   1       0.039   0.814  -0.741  0.00  0.00     0.003 A 
ENDROOT
TORSDOF 0
ENDMDL
