MODEL 1
REMARK minimizedAffinity -4.58675289
REMARK minimizedRMSD -1
REMARK  0 active torsions:
REMARK  status: ('A' for Active; 'I' for Inactive)
ROOT
ATOM      1  C4' PXY d   1       1.869  -1.297  -0.312  0.00  0.00     0.077 C 
ATOM      2  C1' PXY d   1      -2.588   2.081   1.152  0.00  0.00     0.077 C 
ATOM      3  C1  PXY d   1      -1.421   1.198   0.755  0.00  0.00    -0.082 A 
ATOM      4  C2  PXY d   1      -1.004   0.254   1.584  0.00  0.00     0.003 A 
ATOM      5  C3  PXY d   1       0.069  -0.533   1.255  0.00  0.00     0.003 A 
ATOM      6  C4  PXY d   1       0.689  -0.387   0.042  0.00  0.00    -0.082 A 
ATOM      7  C5  PXY d   1       0.263   0.566  -0.813  0.00  0.00     0.003 A 
ATOM      8  C6  PXY d   1      -0.803   1.382  -0.442  0.00  0.00     0.003 A 
ENDROOT
TORSDOF 0
ENDMDL
