MODEL 1
REMARK minimizedAffinity 0.916292191
REMARK minimizedRMSD -1
REMARK  0 active torsions:
REMARK  status: ('A' for Active; 'I' for Inactive)
ROOT
ATOM      1  C4' PXY d   1      -0.318   2.053   3.016  0.00  0.00     0.077 C 
ATOM      2  C1' PXY d   1       0.434  -1.486  -1.491  0.00  0.00     0.077 C 
ATOM      3  C1  PXY d   1       0.235  -0.548  -0.317  0.00  0.00    -0.082 A 
ATOM      4  C2  PXY d   1       0.732  -0.867   0.867  0.00  0.00     0.003 A 
ATOM      5  C3  PXY d   1       0.534  -0.045   1.946  0.00  0.00     0.003 A 
ATOM      6  C4  PXY d   1      -0.134   1.141   1.801  0.00  0.00    -0.082 A 
ATOM      7  C5  PXY d   1      -0.635   1.479   0.594  0.00  0.00     0.003 A 
ATOM      8  C6  PXY d   1      -0.458   0.611  -0.481  0.00  0.00     0.003 A 
ENDROOT
TORSDOF 0
ENDMDL
