MODEL 1
REMARK minimizedAffinity -4.04560995
REMARK minimizedRMSD -1
REMARK  0 active torsions:
REMARK  status: ('A' for Active; 'I' for Inactive)
ROOT
ATOM      1  C4' PXY d   1      -2.580   1.855   1.482  0.00  0.00     0.077 C 
ATOM      2  C1' PXY d   1       1.812  -1.236  -0.657  0.00  0.00     0.077 C 
ATOM      3  C1  PXY d   1       0.662  -0.431  -0.085  0.00  0.00    -0.082 A 
ATOM      4  C2  PXY d   1      -0.253   0.071  -0.898  0.00  0.00     0.003 A 
ATOM      5  C3  PXY d   1      -1.283   0.828  -0.400  0.00  0.00     0.003 A 
ATOM      6  C4  PXY d   1      -1.406   1.028   0.949  0.00  0.00    -0.082 A 
ATOM      7  C5  PXY d   1      -0.482   0.510   1.786  0.00  0.00     0.003 A 
ATOM      8  C6  PXY d   1       0.578  -0.220   1.257  0.00  0.00     0.003 A 
ENDROOT
TORSDOF 0
ENDMDL
