MODEL 1
REMARK minimizedAffinity -2.72714996
REMARK minimizedRMSD -1
REMARK  0 active torsions:
REMARK  status: ('A' for Active; 'I' for Inactive)
ROOT
ATOM      1  C4' PXY d   1      -2.210   2.611   1.117  0.00  0.00     0.077 C 
ATOM      2  C1' PXY d   1       1.587  -1.401  -0.587  0.00  0.00     0.077 C 
ATOM      3  C1  PXY d   1       0.595  -0.341  -0.150  0.00  0.00    -0.082 A 
ATOM      4  C2  PXY d   1       0.155  -0.333   1.098  0.00  0.00     0.003 A 
ATOM      5  C3  PXY d   1      -0.767   0.599   1.501  0.00  0.00     0.003 A 
ATOM      6  C4  PXY d   1      -1.201   1.565   0.634  0.00  0.00    -0.082 A 
ATOM      7  C5  PXY d   1      -0.748   1.570  -0.638  0.00  0.00     0.003 A 
ATOM      8  C6  PXY d   1       0.156   0.590  -1.039  0.00  0.00     0.003 A 
ENDROOT
TORSDOF 0
ENDMDL
