MODEL 1
REMARK minimizedAffinity -4.24820757
REMARK minimizedRMSD -1
REMARK  0 active torsions:
REMARK  status: ('A' for Active; 'I' for Inactive)
ROOT
ATOM      1  C4' PXY d   1       1.176  -1.798  -1.049  0.00  0.00     0.077 C 
ATOM      2  C1' PXY d   1      -2.107   2.320   1.335  0.00  0.00     0.077 C 
ATOM      3  C1  PXY d   1      -1.251   1.242   0.698  0.00  0.00    -0.082 A 
ATOM      4  C2  PXY d   1      -0.778   0.257   1.443  0.00  0.00     0.003 A 
ATOM      5  C3  PXY d   1       0.023  -0.708   0.890  0.00  0.00     0.003 A 
ATOM      6  C4  PXY d   1       0.300  -0.694  -0.451  0.00  0.00    -0.082 A 
ATOM      7  C5  PXY d   1      -0.188   0.302  -1.220  0.00  0.00     0.003 A 
ATOM      8  C6  PXY d   1      -0.965   1.295  -0.631  0.00  0.00     0.003 A 
ENDROOT
TORSDOF 0
ENDMDL
