MODEL 1
REMARK minimizedAffinity -4.85374022
REMARK minimizedRMSD -1
REMARK  0 active torsions:
REMARK  status: ('A' for Active; 'I' for Inactive)
ROOT
ATOM      1  C4' PXY d   1       1.861  -1.301  -1.520  0.00  0.00     0.077 C 
ATOM      2  C1' PXY d   1      -1.452   2.184   1.688  0.00  0.00     0.077 C 
ATOM      3  C1  PXY d   1      -0.585   1.278   0.836  0.00  0.00    -0.082 A 
ATOM      4  C2  PXY d   1      -0.406   0.017   1.196  0.00  0.00     0.003 A 
ATOM      5  C3  PXY d   1       0.400  -0.808   0.455  0.00  0.00     0.003 A 
ATOM      6  C4  PXY d   1       0.986  -0.353  -0.696  0.00  0.00    -0.082 A 
ATOM      7  C5  PXY d   1       0.800   0.929  -1.075  0.00  0.00     0.003 A 
ATOM      8  C6  PXY d   1       0.011   1.762  -0.287  0.00  0.00     0.003 A 
ENDROOT
TORSDOF 0
ENDMDL
