MODEL 1
REMARK minimizedAffinity -1.88437951
REMARK minimizedRMSD -1
REMARK  0 active torsions:
REMARK  status: ('A' for Active; 'I' for Inactive)
ROOT
ATOM      1  C4' PXY d   1      -1.504   1.878   0.408  0.00  0.00     0.077 C 
ATOM      2  C1' PXY d   1       1.863  -2.595  -1.033  0.00  0.00     0.077 C 
ATOM      3  C1  PXY d   1       0.976  -1.428  -0.644  0.00  0.00    -0.082 A 
ATOM      4  C2  PXY d   1       0.544  -0.596  -1.578  0.00  0.00     0.003 A 
ATOM      5  C3  PXY d   1      -0.232   0.483  -1.239  0.00  0.00     0.003 A 
ATOM      6  C4  PXY d   1      -0.614   0.681   0.060  0.00  0.00    -0.082 A 
ATOM      7  C5  PXY d   1      -0.186  -0.170   1.017  0.00  0.00     0.003 A 
ATOM      8  C6  PXY d   1       0.635  -1.235   0.659  0.00  0.00     0.003 A 
ENDROOT
TORSDOF 0
ENDMDL
