MODEL 1
REMARK minimizedAffinity -4.11138725
REMARK minimizedRMSD -1
REMARK  0 active torsions:
REMARK  status: ('A' for Active; 'I' for Inactive)
ROOT
ATOM      1  C4' PXY d   1      -2.081   1.751   2.241  0.00  0.00     0.077 C 
ATOM      2  C1' PXY d   1       0.602  -1.151  -1.978  0.00  0.00     0.077 C 
ATOM      3  C1  PXY d   1      -0.102  -0.401  -0.864  0.00  0.00    -0.082 A 
ATOM      4  C2  PXY d   1      -0.826   0.669  -1.152  0.00  0.00     0.003 A 
ATOM      5  C3  PXY d   1      -1.442   1.378  -0.153  0.00  0.00     0.003 A 
ATOM      6  C4  PXY d   1      -1.361   0.957   1.147  0.00  0.00    -0.082 A 
ATOM      7  C5  PXY d   1      -0.632  -0.139   1.448  0.00  0.00     0.003 A 
ATOM      8  C6  PXY d   1       0.020  -0.821   0.424  0.00  0.00     0.003 A 
ENDROOT
TORSDOF 0
ENDMDL
