MODEL 1
REMARK minimizedAffinity -4.50618315
REMARK minimizedRMSD -1
REMARK  0 active torsions:
REMARK  status: ('A' for Active; 'I' for Inactive)
ROOT
ATOM      1  C4' PXY d   1       1.266  -1.817  -1.116  0.00  0.00     0.077 C 
ATOM      2  C1' PXY d   1      -1.941   2.550   0.898  0.00  0.00     0.077 C 
ATOM      3  C1  PXY d   1      -1.094   1.413   0.362  0.00  0.00    -0.082 A 
ATOM      4  C2  PXY d   1      -1.534   0.169   0.456  0.00  0.00     0.003 A 
ATOM      5  C3  PXY d   1      -0.767  -0.874   0.005  0.00  0.00     0.003 A 
ATOM      6  C4  PXY d   1       0.440  -0.637  -0.597  0.00  0.00    -0.082 A 
ATOM      7  C5  PXY d   1       0.891   0.631  -0.706  0.00  0.00     0.003 A 
ATOM      8  C6  PXY d   1       0.115   1.672  -0.205  0.00  0.00     0.003 A 
ENDROOT
TORSDOF 0
ENDMDL
