MODEL 1
REMARK minimizedAffinity -0.68664521
REMARK minimizedRMSD -1
REMARK  0 active torsions:
REMARK  status: ('A' for Active; 'I' for Inactive)
ROOT
ATOM      1  C4' PXY d   1       1.272  -1.658  -1.334  0.00  0.00     0.077 C 
ATOM      2  C1' PXY d   1      -1.185   2.195   2.205  0.00  0.00     0.077 C 
ATOM      3  C1  PXY d   1      -0.544   1.192   1.267  0.00  0.00    -0.082 A 
ATOM      4  C2  PXY d   1      -0.394  -0.064   1.655  0.00  0.00     0.003 A 
ATOM      5  C3  PXY d   1       0.212  -0.977   0.831  0.00  0.00     0.003 A 
ATOM      6  C4  PXY d   1       0.622  -0.613  -0.423  0.00  0.00    -0.082 A 
ATOM      7  C5  PXY d   1       0.463   0.664  -0.831  0.00  0.00     0.003 A 
ATOM      8  C6  PXY d   1      -0.118   1.585   0.036  0.00  0.00     0.003 A 
ENDROOT
TORSDOF 0
ENDMDL
