MODEL 1
REMARK minimizedAffinity -2.85318303
REMARK minimizedRMSD -1
REMARK  0 active torsions:
REMARK  status: ('A' for Active; 'I' for Inactive)
ROOT
ATOM      1  C4' PXY d   1      -0.253   3.543  -1.326  0.00  0.00     0.077 C 
ATOM      2  C1' PXY d   1      -0.264  -1.302   1.827  0.00  0.00     0.077 C 
ATOM      3  C1  PXY d   1      -0.272  -0.028   1.006  0.00  0.00    -0.082 A 
ATOM      4  C2  PXY d   1       0.389   0.017  -0.139  0.00  0.00     0.003 A 
ATOM      5  C3  PXY d   1       0.419   1.171  -0.879  0.00  0.00     0.003 A 
ATOM      6  C4  PXY d   1      -0.280   2.275  -0.468  0.00  0.00    -0.082 A 
ATOM      7  C5  PXY d   1      -0.966   2.234   0.694  0.00  0.00     0.003 A 
ATOM      8  C6  PXY d   1      -0.950   1.066   1.450  0.00  0.00     0.003 A 
ENDROOT
TORSDOF 0
ENDMDL
