MODEL 1
REMARK minimizedAffinity -4.93732738
REMARK minimizedRMSD -1
REMARK  0 active torsions:
REMARK  status: ('A' for Active; 'I' for Inactive)
ROOT
ATOM      1  C4' PXY d   1       0.194  -3.062  -1.603  0.00  0.00     0.077 C 
ATOM      2  C1' PXY d   1      -0.747   1.128   2.267  0.00  0.00     0.077 C 
ATOM      3  C1  PXY d   1      -0.502   0.020   1.261  0.00  0.00    -0.082 A 
ATOM      4  C2  PXY d   1       0.209   0.270   0.173  0.00  0.00     0.003 A 
ATOM      5  C3  PXY d   1       0.413  -0.712  -0.762  0.00  0.00     0.003 A 
ATOM      6  C4  PXY d   1      -0.070  -1.976  -0.556  0.00  0.00    -0.082 A 
ATOM      7  C5  PXY d   1      -0.787  -2.242   0.557  0.00  0.00     0.003 A 
ATOM      8  C6  PXY d   1      -1.018  -1.220   1.474  0.00  0.00     0.003 A 
ENDROOT
TORSDOF 0
ENDMDL
