MODEL 1
REMARK minimizedAffinity -1.63824773
REMARK minimizedRMSD -1
REMARK  0 active torsions:
REMARK  status: ('A' for Active; 'I' for Inactive)
ROOT
ATOM      1  C1  DEN d   1      -2.634   1.810  -1.692  0.00  0.00     0.130 A 
ATOM      2  C2  DEN d   1      -2.724   3.261  -1.832  0.00  0.00    -0.031 A 
ATOM      3  C3  DEN d   1      -1.498   3.732  -2.507  0.00  0.00     0.027 A 
ATOM      4  C4  DEN d   1       0.520   2.362  -3.347  0.00  0.00     0.027 A 
ATOM      5  C5  DEN d   1       1.057   1.097  -3.441  0.00  0.00    -0.003 A 
ATOM      6  C6  DEN d   1       0.422  -0.005  -2.933  0.00  0.00     0.001 A 
ATOM      7  C7  DEN d   1      -0.808   0.130  -2.347  0.00  0.00     0.017 A 
ATOM      8  C8  DEN d   1      -1.353   1.403  -2.241  0.00  0.00    -0.094 A 
ATOM      9  C9  DEN d   1      -0.702   2.504  -2.772  0.00  0.00    -0.072 A 
ENDROOT
TORSDOF 0
ENDMDL
