MODEL 1
REMARK minimizedAffinity -4.42434359
REMARK minimizedRMSD -1
REMARK  0 active torsions:
REMARK  status: ('A' for Active; 'I' for Inactive)
ROOT
ATOM      1  C1  DEN d   1      -0.545   1.148  -2.731  0.00  0.00     0.130 A 
ATOM      2  C2  DEN d   1      -1.064   2.511  -2.820  0.00  0.00    -0.031 A 
ATOM      3  C3  DEN d   1      -1.456   2.938  -1.462  0.00  0.00     0.027 A 
ATOM      4  C4  DEN d   1      -1.306   1.633   0.758  0.00  0.00     0.027 A 
ATOM      5  C5  DEN d   1      -0.944   0.435   1.333  0.00  0.00    -0.003 A 
ATOM      6  C6  DEN d   1      -0.459  -0.613   0.595  0.00  0.00     0.001 A 
ATOM      7  C7  DEN d   1      -0.281  -0.467  -0.755  0.00  0.00     0.017 A 
ATOM      8  C8  DEN d   1      -0.651   0.736  -1.344  0.00  0.00    -0.094 A 
ATOM      9  C9  DEN d   1      -1.128   1.787  -0.579  0.00  0.00    -0.072 A 
ENDROOT
TORSDOF 0
ENDMDL
