MODEL 1
REMARK minimizedAffinity -3.34994674
REMARK minimizedRMSD -1
REMARK  0 active torsions:
REMARK  status: ('A' for Active; 'I' for Inactive)
ROOT
ATOM      1  C1  DEN d   1       1.170  -2.188   2.012  0.00  0.00     0.130 A 
ATOM      2  C2  DEN d   1       2.025  -2.589   0.899  0.00  0.00    -0.031 A 
ATOM      3  C3  DEN d   1       1.685  -1.746  -0.265  0.00  0.00     0.027 A 
ATOM      4  C4  DEN d   1      -0.072   0.133  -0.449  0.00  0.00     0.027 A 
ATOM      5  C5  DEN d   1      -1.050   0.826   0.230  0.00  0.00    -0.003 A 
ATOM      6  C6  DEN d   1      -1.377   0.542   1.530  0.00  0.00     0.001 A 
ATOM      7  C7  DEN d   1      -0.689  -0.430   2.206  0.00  0.00     0.017 A 
ATOM      8  C8  DEN d   1       0.293  -1.138   1.526  0.00  0.00    -0.094 A 
ATOM      9  C9  DEN d   1       0.617  -0.829   0.216  0.00  0.00    -0.072 A 
ENDROOT
TORSDOF 0
ENDMDL
