MODEL 1
REMARK minimizedAffinity -4.46551418
REMARK minimizedRMSD -1
REMARK  0 active torsions:
REMARK  status: ('A' for Active; 'I' for Inactive)
ROOT
ATOM      1  C1  DEN d   1      -1.181   0.072   1.501  0.00  0.00     0.130 A 
ATOM      2  C2  DEN d   1      -0.563  -0.592   2.646  0.00  0.00    -0.031 A 
ATOM      3  C3  DEN d   1       0.599  -1.360   2.155  0.00  0.00     0.027 A 
ATOM      4  C4  DEN d   1       1.499  -1.580  -0.252  0.00  0.00     0.027 A 
ATOM      5  C5  DEN d   1       1.301  -1.209  -1.563  0.00  0.00    -0.003 A 
ATOM      6  C6  DEN d   1       0.250  -0.418  -1.947  0.00  0.00     0.001 A 
ATOM      7  C7  DEN d   1      -0.617   0.064  -1.002  0.00  0.00     0.017 A 
ATOM      8  C8  DEN d   1      -0.428  -0.313   0.321  0.00  0.00    -0.094 A 
ATOM      9  C9  DEN d   1       0.648  -1.102   0.691  0.00  0.00    -0.072 A 
ENDROOT
TORSDOF 0
ENDMDL
