MODEL 1
REMARK minimizedAffinity 6.84610128
REMARK minimizedRMSD -1
REMARK  1 active torsions:
REMARK  status: ('A' for Active; 'I' for Inactive)
REMARK    1  A    between atoms: C1_2  and  C2_3 
ROOT
ATOM      1  C2  UNL d   1       1.670  -1.352   1.155  0.00  0.00    -0.077 A 
ATOM      2  C3  UNL d   1       0.371  -1.663   1.580  0.00  0.00     0.002 A 
ATOM      3  C4  UNL d   1      -0.118  -1.155   2.785  0.00  0.00     0.002 A 
ATOM      4  C5  UNL d   1       0.682  -0.329   3.571  0.00  0.00    -0.004 A 
ATOM      5  C6  UNL d   1       1.976  -0.015   3.158  0.00  0.00     0.002 A 
ATOM      6  C7  UNL d   1       2.468  -0.523   1.955  0.00  0.00     0.002 A 
ENDROOT
BRANCH   1   7
ATOM      7  C1  UNL d   1       2.183  -1.859  -0.168  0.00  0.00     0.055 C 
ATOM      8  C   UNL d   1       1.459  -1.199  -1.332  0.00  0.00     0.019 C 
ENDBRANCH   1   7
TORSDOF 1
ENDMDL
