MODEL 1
REMARK minimizedAffinity -4.59882021
REMARK minimizedRMSD -1
REMARK  1 active torsions:
REMARK  status: ('A' for Active; 'I' for Inactive)
REMARK    1  A    between atoms: C1_2  and  C2_3 
ROOT
ATOM      1  C2  UNL d   1       0.555   0.075   0.631  0.00  0.00    -0.077 A 
ATOM      2  C3  UNL d   1       1.939   0.042   0.854  0.00  0.00     0.002 A 
ATOM      3  C4  UNL d   1       2.468  -0.718   1.899  0.00  0.00     0.002 A 
ATOM      4  C5  UNL d   1       1.622  -1.454   2.726  0.00  0.00    -0.004 A 
ATOM      5  C6  UNL d   1       0.244  -1.426   2.514  0.00  0.00     0.002 A 
ATOM      6  C7  UNL d   1      -0.287  -0.666   1.470  0.00  0.00     0.002 A 
ENDROOT
BRANCH   1   7
ATOM      7  C1  UNL d   1      -0.014   0.855  -0.526  0.00  0.00     0.055 C 
ATOM      8  C   UNL d   1      -0.182   2.325  -0.172  0.00  0.00     0.019 C 
ENDBRANCH   1   7
TORSDOF 1
ENDMDL
