MODEL 1
REMARK minimizedAffinity -3.16793656
REMARK minimizedRMSD -1
REMARK  1 active torsions:
REMARK  status: ('A' for Active; 'I' for Inactive)
REMARK    1  A    between atoms: C1_2  and  C2_3 
ROOT
ATOM      1  C2  UNL d   1      -0.190  -0.719   1.021  0.00  0.00    -0.077 A 
ATOM      2  C3  UNL d   1      -0.164  -1.468   2.206  0.00  0.00     0.002 A 
ATOM      3  C4  UNL d   1       0.948  -1.420   3.048  0.00  0.00     0.002 A 
ATOM      4  C5  UNL d   1       2.040  -0.621   2.718  0.00  0.00    -0.004 A 
ATOM      5  C6  UNL d   1       2.025   0.127   1.541  0.00  0.00     0.002 A 
ATOM      6  C7  UNL d   1       0.915   0.079   0.697  0.00  0.00     0.002 A 
ENDROOT
BRANCH   1   7
ATOM      7  C1  UNL d   1      -1.409  -0.732   0.136  0.00  0.00     0.055 C 
ATOM      8  C   UNL d   1      -2.674  -0.992   0.939  0.00  0.00     0.019 C 
ENDBRANCH   1   7
TORSDOF 1
ENDMDL
