MODEL 1
REMARK minimizedAffinity -1.76265669
REMARK minimizedRMSD -1
REMARK  1 active torsions:
REMARK  status: ('A' for Active; 'I' for Inactive)
REMARK    1  A    between atoms: C1_2  and  C2_3 
ROOT
ATOM      1  C2  UNL d   1       0.245  -0.860  -0.349  0.00  0.00    -0.077 A 
ATOM      2  C3  UNL d   1      -0.869  -0.513  -1.127  0.00  0.00     0.002 A 
ATOM      3  C4  UNL d   1      -2.075  -0.163  -0.518  0.00  0.00     0.002 A 
ATOM      4  C5  UNL d   1      -2.178  -0.153   0.872  0.00  0.00    -0.004 A 
ATOM      5  C6  UNL d   1      -1.076  -0.497   1.654  0.00  0.00     0.002 A 
ATOM      6  C7  UNL d   1       0.130  -0.848   1.047  0.00  0.00     0.002 A 
ENDROOT
BRANCH   1   7
ATOM      7  C1  UNL d   1       1.561  -1.189  -1.004  0.00  0.00     0.055 C 
ATOM      8  C   UNL d   1       2.570  -0.066  -0.816  0.00  0.00     0.019 C 
ENDBRANCH   1   7
TORSDOF 1
ENDMDL
