MODEL 1
REMARK minimizedAffinity 0.37322709
REMARK minimizedRMSD -1
REMARK  1 active torsions:
REMARK  status: ('A' for Active; 'I' for Inactive)
REMARK    1  A    between atoms: C1_2  and  C2_3 
ROOT
ATOM      1  C2  UNL d   1       0.121  -1.114   0.291  0.00  0.00    -0.077 A 
ATOM      2  C3  UNL d   1      -1.157  -0.688   0.681  0.00  0.00     0.002 A 
ATOM      3  C4  UNL d   1      -2.122  -0.380  -0.279  0.00  0.00     0.002 A 
ATOM      4  C5  UNL d   1      -1.821  -0.497  -1.635  0.00  0.00    -0.004 A 
ATOM      5  C6  UNL d   1      -0.553  -0.917  -2.032  0.00  0.00     0.002 A 
ATOM      6  C7  UNL d   1       0.414  -1.225  -1.074  0.00  0.00     0.002 A 
ENDROOT
BRANCH   1   7
ATOM      7  C1  UNL d   1       1.147  -1.494   1.326  0.00  0.00     0.055 C 
ATOM      8  C   UNL d   1       1.092  -2.982   1.639  0.00  0.00     0.019 C 
ENDBRANCH   1   7
TORSDOF 1
ENDMDL
