MODEL 1
REMARK minimizedAffinity 4.242208
REMARK minimizedRMSD -1
REMARK  0 active torsions:
REMARK  status: ('A' for Active; 'I' for Inactive)
ROOT
ATOM      1  C   UNL d   1      -0.205   1.071  -3.309  0.00  0.00     0.020 A 
ATOM      2  C1  UNL d   1      -1.006  -0.004  -3.692  0.00  0.00     0.020 A 
ATOM      3  C2  UNL d   1      -2.043  -0.433  -2.860  0.00  0.00     0.034 A 
ATOM      4  C3  UNL d   1      -2.280   0.213  -1.642  0.00  0.00     0.017 A 
ATOM      5  C4  UNL d   1      -1.475   1.292  -1.258  0.00  0.00     0.017 A 
ATOM      6  C5  UNL d   1      -0.439   1.717  -2.095  0.00  0.00     0.034 A 
ATOM      7 Cl   UNL d   1      -1.707   2.139   0.230  0.00  0.00    -0.070 Cl
ATOM      8 Cl1  UNL d   1      -3.579  -0.370  -0.663  0.00  0.00    -0.070 Cl
ENDROOT
TORSDOF 0
ENDMDL
