MODEL 1
REMARK minimizedAffinity 12.2778349
REMARK minimizedRMSD -1
REMARK  0 active torsions:
REMARK  status: ('A' for Active; 'I' for Inactive)
ROOT
ATOM      1  C   UNL d   1      -0.421   3.809  -0.991  0.00  0.00     0.020 A 
ATOM      2  C1  UNL d   1       0.946   3.683  -0.747  0.00  0.00     0.020 A 
ATOM      3  C2  UNL d   1       1.392   3.136   0.458  0.00  0.00     0.034 A 
ATOM      4  C3  UNL d   1       0.471   2.714   1.423  0.00  0.00     0.017 A 
ATOM      5  C4  UNL d   1      -0.901   2.841   1.177  0.00  0.00     0.017 A 
ATOM      6  C5  UNL d   1      -1.343   3.389  -0.031  0.00  0.00     0.034 A 
ATOM      7 Cl   UNL d   1      -2.098   2.343   2.320  0.00  0.00    -0.070 Cl
ATOM      8 Cl1  UNL d   1       1.093   2.047   2.891  0.00  0.00    -0.070 Cl
ENDROOT
TORSDOF 0
ENDMDL
