MODEL 1
REMARK minimizedAffinity 7.97506428
REMARK minimizedRMSD -1
REMARK  0 active torsions:
REMARK  status: ('A' for Active; 'I' for Inactive)
ROOT
ATOM      1  C   UNL d   1      -0.465   0.877  -1.967  0.00  0.00     0.020 A 
ATOM      2  C1  UNL d   1      -1.689   1.491  -2.229  0.00  0.00     0.020 A 
ATOM      3  C2  UNL d   1      -2.272   2.324  -1.272  0.00  0.00     0.034 A 
ATOM      4  C3  UNL d   1      -1.631   2.545  -0.048  0.00  0.00     0.017 A 
ATOM      5  C4  UNL d   1      -0.402   1.929   0.215  0.00  0.00     0.017 A 
ATOM      6  C5  UNL d   1       0.178   1.096  -0.748  0.00  0.00     0.034 A 
ATOM      7 Cl   UNL d   1       0.450   2.155   1.702  0.00  0.00    -0.070 Cl
ATOM      8 Cl1  UNL d   1      -2.409   3.587   1.090  0.00  0.00    -0.070 Cl
ENDROOT
TORSDOF 0
ENDMDL
