MODEL 1
REMARK minimizedAffinity 5.66872358
REMARK minimizedRMSD -1
REMARK  0 active torsions:
REMARK  status: ('A' for Active; 'I' for Inactive)
ROOT
ATOM      1  C   UNL d   1      -0.043   1.009  -2.889  0.00  0.00     0.020 A 
ATOM      2  C1  UNL d   1      -0.960   0.003  -3.192  0.00  0.00     0.020 A 
ATOM      3  C2  UNL d   1      -1.885  -0.412  -2.231  0.00  0.00     0.034 A 
ATOM      4  C3  UNL d   1      -1.895   0.179  -0.963  0.00  0.00     0.017 A 
ATOM      5  C4  UNL d   1      -0.974   1.189  -0.659  0.00  0.00     0.017 A 
ATOM      6  C5  UNL d   1      -0.051   1.600  -1.625  0.00  0.00     0.034 A 
ATOM      7 Cl   UNL d   1      -0.926   1.966   0.884  0.00  0.00    -0.070 Cl
ATOM      8 Cl1  UNL d   1      -3.066  -0.383   0.177  0.00  0.00    -0.070 Cl
ENDROOT
TORSDOF 0
ENDMDL
