MODEL 1
REMARK minimizedAffinity -3.56204247
REMARK minimizedRMSD -1
REMARK  2 active torsions:
REMARK  status: ('A' for Active; 'I' for Inactive)
REMARK    1  A    between atoms: C2'_3  and  C1'_4 
REMARK    2  A    between atoms: C1'_4  and  C1_5 
ROOT
ATOM      1  C1  I4B d   1       0.215  -0.978   0.517  0.00  0.00    -0.075 A 
ATOM      2  C2  I4B d   1      -1.151  -0.935   0.636  0.00  0.00     0.003 A 
ATOM      3  C3  I4B d   1      -1.749  -0.427   1.815  0.00  0.00     0.002 A 
ATOM      4  C4  I4B d   1      -0.947  -0.024   2.863  0.00  0.00    -0.004 A 
ATOM      5  C5  I4B d   1       0.439  -0.047   2.732  0.00  0.00     0.002 A 
ATOM      6  C6  I4B d   1       1.024  -0.516   1.547  0.00  0.00     0.003 A 
ENDROOT
BRANCH   1   7
ATOM      7  C1' I4B d   1       0.813  -1.551  -0.729  0.00  0.00     0.060 C 
BRANCH   7   8
ATOM      8  C2' I4B d   1       0.250  -0.787  -1.910  0.00  0.00    -0.013 C 
ATOM      9  C4' I4B d   1       0.523   0.689  -1.785  0.00  0.00     0.013 C 
ATOM     10  C3' I4B d   1       0.864  -1.347  -3.159  0.00  0.00     0.013 C 
ENDBRANCH   7   8
ENDBRANCH   1   7
TORSDOF 2
ENDMDL
