MODEL 1
REMARK minimizedAffinity -6.85328913
REMARK minimizedRMSD -1
REMARK  2 active torsions:
REMARK  status: ('A' for Active; 'I' for Inactive)
REMARK    1  A    between atoms: C2'_3  and  C1'_4 
REMARK    2  A    between atoms: C1'_4  and  C1_5 
ROOT
ATOM      1  C1  I4B d   1       0.035  -0.021  -0.027  0.00  0.00    -0.075 A 
ATOM      2  C2  I4B d   1      -1.070  -0.445   0.668  0.00  0.00     0.003 A 
ATOM      3  C3  I4B d   1      -1.006  -0.618   2.072  0.00  0.00     0.002 A 
ATOM      4  C4  I4B d   1       0.188  -0.405   2.729  0.00  0.00    -0.004 A 
ATOM      5  C5  I4B d   1       1.302   0.046   2.026  0.00  0.00     0.002 A 
ATOM      6  C6  I4B d   1       1.222   0.251   0.641  0.00  0.00     0.003 A 
ENDROOT
BRANCH   1   7
ATOM      7  C1' I4B d   1      -0.058   0.119  -1.514  0.00  0.00     0.060 C 
BRANCH   7   8
ATOM      8  C2' I4B d   1       0.942  -0.834  -2.136  0.00  0.00    -0.013 C 
ATOM      9  C4' I4B d   1       0.246  -1.957  -2.861  0.00  0.00     0.013 C 
ATOM     10  C3' I4B d   1       1.814  -0.047  -3.067  0.00  0.00     0.013 C 
ENDBRANCH   7   8
ENDBRANCH   1   7
TORSDOF 2
ENDMDL
