MODEL 1
REMARK minimizedAffinity -1.10045576
REMARK minimizedRMSD -1
REMARK  2 active torsions:
REMARK  status: ('A' for Active; 'I' for Inactive)
REMARK    1  A    between atoms: C2'_3  and  C1'_4 
REMARK    2  A    between atoms: C1'_4  and  C1_5 
ROOT
ATOM      1  C1  I4B d   1       0.564  -0.537  -1.423  0.00  0.00    -0.075 A 
ATOM      2  C2  I4B d   1       1.803  -0.284  -1.958  0.00  0.00     0.003 A 
ATOM      3  C3  I4B d   1       2.162  -0.828  -3.214  0.00  0.00     0.002 A 
ATOM      4  C4  I4B d   1       1.276  -1.656  -3.874  0.00  0.00    -0.004 A 
ATOM      5  C5  I4B d   1       0.012  -1.893  -3.342  0.00  0.00     0.002 A 
ATOM      6  C6  I4B d   1      -0.351  -1.320  -2.114  0.00  0.00     0.003 A 
ENDROOT
BRANCH   1   7
ATOM      7  C1' I4B d   1       0.231   0.027  -0.079  0.00  0.00     0.060 C 
BRANCH   7   8
ATOM      8  C2' I4B d   1      -0.965  -0.731   0.462  0.00  0.00    -0.013 C 
ATOM      9  C4' I4B d   1      -0.805  -1.025   1.930  0.00  0.00     0.013 C 
ATOM     10  C3' I4B d   1      -2.191   0.094   0.205  0.00  0.00     0.013 C 
ENDBRANCH   7   8
ENDBRANCH   1   7
TORSDOF 2
ENDMDL
