MODEL 1
REMARK minimizedAffinity -4.95599937
REMARK minimizedRMSD -1
REMARK  2 active torsions:
REMARK  status: ('A' for Active; 'I' for Inactive)
REMARK    1  A    between atoms: C2'_3  and  C1'_4 
REMARK    2  A    between atoms: C1'_4  and  C1_5 
ROOT
ATOM      1  C1  I4B d   1      -0.315   0.073   0.760  0.00  0.00    -0.075 A 
ATOM      2  C2  I4B d   1       0.997   0.461   0.870  0.00  0.00     0.003 A 
ATOM      3  C3  I4B d   1       1.638   0.457   2.132  0.00  0.00     0.002 A 
ATOM      4  C4  I4B d   1       0.920   0.110   3.258  0.00  0.00    -0.004 A 
ATOM      5  C5  I4B d   1      -0.404  -0.304   3.142  0.00  0.00     0.002 A 
ATOM      6  C6  I4B d   1      -1.022  -0.335   1.884  0.00  0.00     0.003 A 
ENDROOT
BRANCH   1   7
ATOM      7  C1' I4B d   1      -0.971   0.121  -0.583  0.00  0.00     0.060 C 
BRANCH   7   8
ATOM      8  C2' I4B d   1      -0.009   0.782  -1.549  0.00  0.00    -0.013 C 
ATOM      9  C4' I4B d   1       0.434  -0.179  -2.621  0.00  0.00     0.013 C 
ATOM     10  C3' I4B d   1      -0.696   1.976  -2.142  0.00  0.00     0.013 C 
ENDBRANCH   7   8
ENDBRANCH   1   7
TORSDOF 2
ENDMDL
