MODEL 1
REMARK minimizedAffinity -5.84345102
REMARK minimizedRMSD -1
REMARK  2 active torsions:
REMARK  status: ('A' for Active; 'I' for Inactive)
REMARK    1  A    between atoms: C2'_3  and  C1'_4 
REMARK    2  A    between atoms: C1'_4  and  C1_5 
ROOT
ATOM      1  C1  I4B d   1      -0.033   0.014  -0.228  0.00  0.00    -0.075 A 
ATOM      2  C2  I4B d   1       1.256   0.343   0.109  0.00  0.00     0.003 A 
ATOM      3  C3  I4B d   1       1.684   0.260   1.456  0.00  0.00     0.002 A 
ATOM      4  C4  I4B d   1       0.783  -0.107   2.434  0.00  0.00    -0.004 A 
ATOM      5  C5  I4B d   1      -0.517  -0.462   2.088  0.00  0.00     0.002 A 
ATOM      6  C6  I4B d   1      -0.925  -0.414   0.747  0.00  0.00     0.003 A 
ENDROOT
BRANCH   1   7
ATOM      7  C1' I4B d   1      -0.461   0.145  -1.655  0.00  0.00     0.060 C 
BRANCH   7   8
ATOM      8  C2' I4B d   1       0.425  -0.753  -2.493  0.00  0.00    -0.013 C 
ATOM      9  C4' I4B d   1      -0.365  -1.875  -3.113  0.00  0.00     0.013 C 
ATOM     10  C3' I4B d   1       1.081   0.093  -3.543  0.00  0.00     0.013 C 
ENDBRANCH   7   8
ENDBRANCH   1   7
TORSDOF 2
ENDMDL
