MODEL 1
REMARK minimizedAffinity -4.90553856
REMARK minimizedRMSD -1
REMARK  2 active torsions:
REMARK  status: ('A' for Active; 'I' for Inactive)
REMARK    1  A    between atoms: C2'_3  and  C1'_4 
REMARK    2  A    between atoms: C1'_4  and  C1_5 
ROOT
ATOM      1  C1  I4B d   1      -0.111  -0.071   0.130  0.00  0.00    -0.075 A 
ATOM      2  C2  I4B d   1      -1.120  -0.792   0.717  0.00  0.00     0.003 A 
ATOM      3  C3  I4B d   1      -1.112  -1.023   2.114  0.00  0.00     0.002 A 
ATOM      4  C4  I4B d   1      -0.057  -0.560   2.873  0.00  0.00    -0.004 A 
ATOM      5  C5  I4B d   1       0.954   0.191   2.279  0.00  0.00     0.002 A 
ATOM      6  C6  I4B d   1       0.921   0.448   0.901  0.00  0.00     0.003 A 
ENDROOT
BRANCH   1   7
ATOM      7  C1' I4B d   1      -0.134   0.126  -1.353  0.00  0.00     0.060 C 
BRANCH   7   8
ATOM      8  C2' I4B d   1       0.877  -0.823  -1.965  0.00  0.00    -0.013 C 
ATOM      9  C4' I4B d   1       0.199  -2.022  -2.575  0.00  0.00     0.013 C 
ATOM     10  C3' I4B d   1       1.661  -0.063  -2.993  0.00  0.00     0.013 C 
ENDBRANCH   7   8
ENDBRANCH   1   7
TORSDOF 2
ENDMDL
