MODEL 1
REMARK minimizedAffinity -4.18277454
REMARK minimizedRMSD -1
REMARK  2 active torsions:
REMARK  status: ('A' for Active; 'I' for Inactive)
REMARK    1  A    between atoms: C2'_3  and  C1'_4 
REMARK    2  A    between atoms: C1'_4  and  C1_5 
ROOT
ATOM      1  C1  I4B d   1      -1.271   0.245   0.295  0.00  0.00    -0.075 A 
ATOM      2  C2  I4B d   1      -0.424  -0.087   1.322  0.00  0.00     0.003 A 
ATOM      3  C3  I4B d   1      -0.941  -0.359   2.612  0.00  0.00     0.002 A 
ATOM      4  C4  I4B d   1      -2.297  -0.238   2.841  0.00  0.00    -0.004 A 
ATOM      5  C5  I4B d   1      -3.156   0.076   1.792  0.00  0.00     0.002 A 
ATOM      6  C6  I4B d   1      -2.642   0.308   0.508  0.00  0.00     0.003 A 
ENDROOT
BRANCH   1   7
ATOM      7  C1' I4B d   1      -0.688   0.558  -1.047  0.00  0.00     0.060 C 
BRANCH   7   8
ATOM      8  C2' I4B d   1       0.787   0.214  -1.007  0.00  0.00    -0.013 C 
ATOM      9  C4' I4B d   1       1.331  -0.015  -2.392  0.00  0.00     0.013 C 
ATOM     10  C3' I4B d   1       1.506   1.338  -0.322  0.00  0.00     0.013 C 
ENDBRANCH   7   8
ENDBRANCH   1   7
TORSDOF 2
ENDMDL
