MODEL 1
REMARK minimizedAffinity -4.66153097
REMARK minimizedRMSD -1
REMARK  2 active torsions:
REMARK  status: ('A' for Active; 'I' for Inactive)
REMARK    1  A    between atoms: C2'_3  and  C1'_4 
REMARK    2  A    between atoms: C1'_4  and  C1_5 
ROOT
ATOM      1  C1  I4B d   1      -0.319   0.018  -0.165  0.00  0.00    -0.075 A 
ATOM      2  C2  I4B d   1       0.817   0.452   0.470  0.00  0.00     0.003 A 
ATOM      3  C3  I4B d   1       0.857   0.534   1.883  0.00  0.00     0.002 A 
ATOM      4  C4  I4B d   1      -0.272   0.223   2.614  0.00  0.00    -0.004 A 
ATOM      5  C5  I4B d   1      -1.416  -0.239   1.969  0.00  0.00     0.002 A 
ATOM      6  C6  I4B d   1      -1.436  -0.354   0.572  0.00  0.00     0.003 A 
ENDROOT
BRANCH   1   7
ATOM      7  C1' I4B d   1      -0.337  -0.026  -1.660  0.00  0.00     0.060 C 
BRANCH   7   8
ATOM      8  C2' I4B d   1       0.785  -0.937  -2.114  0.00  0.00    -0.013 C 
ATOM      9  C4' I4B d   1       0.246  -2.184  -2.764  0.00  0.00     0.013 C 
ATOM     10  C3' I4B d   1       1.654  -0.165  -3.061  0.00  0.00     0.013 C 
ENDBRANCH   7   8
ENDBRANCH   1   7
TORSDOF 2
ENDMDL
