MODEL 1
REMARK minimizedAffinity -3.98116374
REMARK minimizedRMSD -1
REMARK  1 active torsions:
REMARK  status: ('A' for Active; 'I' for Inactive)
REMARK    1  A    between atoms: C3_4  and  O_7 
ROOT
ATOM      1  C   UNL d   1      -0.773  -0.049  -0.426  0.00  0.00    -0.033 A 
ATOM      2  C1  UNL d   1       0.200   0.769   0.151  0.00  0.00     0.039 A 
ATOM      3  C2  UNL d   1       1.484   0.270   0.385  0.00  0.00    -0.080 A 
ATOM      4  C3  UNL d   1       1.780  -1.044   0.037  0.00  0.00     0.150 A 
ATOM      5  C4  UNL d   1       0.816  -1.863  -0.542  0.00  0.00    -0.007 A 
ATOM      6  C5  UNL d   1      -0.465  -1.364  -0.774  0.00  0.00     0.039 A 
ENDROOT
BRANCH   4   7
ATOM      7  O   UNL d   1       3.017  -1.576   0.250  0.00  0.00    -0.526 OA
ATOM      8  H5  UNL d   1       3.571  -0.905   0.683  0.00  0.00     0.418 HD
ENDBRANCH   4   7
TORSDOF 1
ENDMDL
