MODEL 1
REMARK minimizedAffinity -2.84557509
REMARK minimizedRMSD -1
REMARK  1 active torsions:
REMARK  status: ('A' for Active; 'I' for Inactive)
REMARK    1  A    between atoms: C3_4  and  O_7 
ROOT
ATOM      1  C   UNL d   1      -1.366  -0.240   0.137  0.00  0.00    -0.033 A 
ATOM      2  C1  UNL d   1      -1.469  -1.628   0.253  0.00  0.00     0.039 A 
ATOM      3  C2  UNL d   1      -0.316  -2.414   0.293  0.00  0.00    -0.080 A 
ATOM      4  C3  UNL d   1       0.932  -1.802   0.217  0.00  0.00     0.150 A 
ATOM      5  C4  UNL d   1       1.042  -0.420   0.106  0.00  0.00    -0.007 A 
ATOM      6  C5  UNL d   1      -0.110   0.364   0.065  0.00  0.00     0.039 A 
ENDROOT
BRANCH   4   7
ATOM      7  O   UNL d   1       2.085  -2.528   0.248  0.00  0.00    -0.526 OA
ATOM      8  H5  UNL d   1       1.854  -3.471   0.298  0.00  0.00     0.418 HD
ENDBRANCH   4   7
TORSDOF 1
ENDMDL
