MODEL 1
REMARK minimizedAffinity -5.12227297
REMARK minimizedRMSD -1
REMARK  1 active torsions:
REMARK  status: ('A' for Active; 'I' for Inactive)
REMARK    1  A    between atoms: C3_4  and  O_7 
ROOT
ATOM      1  C   UNL d   1      -0.099   0.023  -0.807  0.00  0.00    -0.033 A 
ATOM      2  C1  UNL d   1       0.667   0.807   0.059  0.00  0.00     0.039 A 
ATOM      3  C2  UNL d   1       1.783   0.259   0.695  0.00  0.00    -0.080 A 
ATOM      4  C3  UNL d   1       2.122  -1.070   0.457  0.00  0.00     0.150 A 
ATOM      5  C4  UNL d   1       1.365  -1.854  -0.407  0.00  0.00    -0.007 A 
ATOM      6  C5  UNL d   1       0.251  -1.307  -1.041  0.00  0.00     0.039 A 
ENDROOT
BRANCH   4   7
ATOM      7  O   UNL d   1       3.199  -1.649   1.059  0.00  0.00    -0.526 OA
ATOM      8  H5  UNL d   1       3.609  -0.996   1.650  0.00  0.00     0.418 HD
ENDBRANCH   4   7
TORSDOF 1
ENDMDL
