MODEL 1
REMARK minimizedAffinity -2.47086716
REMARK minimizedRMSD -1
REMARK  1 active torsions:
REMARK  status: ('A' for Active; 'I' for Inactive)
REMARK    1  A    between atoms: C3_4  and  O_7 
ROOT
ATOM      1  C   UNL d   1       1.730  -0.823  -0.484  0.00  0.00    -0.033 A 
ATOM      2  C1  UNL d   1       1.535   0.555  -0.381  0.00  0.00     0.039 A 
ATOM      3  C2  UNL d   1       0.241   1.077  -0.339  0.00  0.00    -0.080 A 
ATOM      4  C3  UNL d   1      -0.848   0.211  -0.399  0.00  0.00     0.150 A 
ATOM      5  C4  UNL d   1      -0.660  -1.163  -0.498  0.00  0.00    -0.007 A 
ATOM      6  C5  UNL d   1       0.633  -1.683  -0.541  0.00  0.00     0.039 A 
ENDROOT
BRANCH   4   7
ATOM      7  O   UNL d   1      -2.130   0.675  -0.366  0.00  0.00    -0.526 OA
ATOM      8  H5  UNL d   1      -2.105   1.645  -0.325  0.00  0.00     0.418 HD
ENDBRANCH   4   7
TORSDOF 1
ENDMDL
