MODEL 1
REMARK minimizedAffinity -2.8723166
REMARK minimizedRMSD -1
REMARK  1 active torsions:
REMARK  status: ('A' for Active; 'I' for Inactive)
REMARK    1  A    between atoms: C3_4  and  O_7 
ROOT
ATOM      1  C   UNL d   1       0.576   1.478  -0.161  0.00  0.00    -0.033 A 
ATOM      2  C1  UNL d   1       1.758   2.067   0.293  0.00  0.00     0.039 A 
ATOM      3  C2  UNL d   1       2.862   1.271   0.604  0.00  0.00    -0.080 A 
ATOM      4  C3  UNL d   1       2.772  -0.110   0.456  0.00  0.00     0.150 A 
ATOM      5  C4  UNL d   1       1.600  -0.704   0.001  0.00  0.00    -0.007 A 
ATOM      6  C5  UNL d   1       0.498   0.092  -0.309  0.00  0.00     0.039 A 
ENDROOT
BRANCH   4   7
ATOM      7  O   UNL d   1       3.822  -0.928   0.751  0.00  0.00    -0.526 OA
ATOM      8  H5  UNL d   1       4.555  -0.382   1.082  0.00  0.00     0.418 HD
ENDBRANCH   4   7
TORSDOF 1
ENDMDL
