MODEL 1
REMARK minimizedAffinity -4.03770113
REMARK minimizedRMSD -1
REMARK  1 active torsions:
REMARK  status: ('A' for Active; 'I' for Inactive)
REMARK    1  A    between atoms: C3_4  and  O_7 
ROOT
ATOM      1  C   UNL d   1       1.926  -1.053   0.146  0.00  0.00    -0.033 A 
ATOM      2  C1  UNL d   1       0.961  -2.010  -0.173  0.00  0.00     0.039 A 
ATOM      3  C2  UNL d   1      -0.364  -1.625  -0.386  0.00  0.00    -0.080 A 
ATOM      4  C3  UNL d   1      -0.710  -0.281  -0.278  0.00  0.00     0.150 A 
ATOM      5  C4  UNL d   1       0.246   0.679   0.036  0.00  0.00    -0.007 A 
ATOM      6  C5  UNL d   1       1.569   0.292   0.250  0.00  0.00     0.039 A 
ENDROOT
BRANCH   4   7
ATOM      7  O   UNL d   1      -1.992   0.142  -0.472  0.00  0.00    -0.526 OA
ATOM      8  H5  UNL d   1      -2.548  -0.634  -0.653  0.00  0.00     0.418 HD
ENDBRANCH   4   7
TORSDOF 1
ENDMDL
