MODEL 1
REMARK minimizedAffinity 4.09241199
REMARK minimizedRMSD -1
REMARK  0 active torsions:
REMARK  status: ('A' for Active; 'I' for Inactive)
ROOT
ATOM      1  C2' OXE d   1       2.378  -0.436  -1.477  0.00  0.00     0.078 C 
ATOM      2  C1' OXE d   1       3.577   0.410   0.916  0.00  0.00     0.078 C 
ATOM      3  C1  OXE d   1       4.208   0.850  -0.381  0.00  0.00    -0.078 A 
ATOM      4  C2  OXE d   1       3.643   0.393  -1.547  0.00  0.00    -0.078 A 
ATOM      5  C3  OXE d   1       4.153   0.812  -2.772  0.00  0.00     0.003 A 
ATOM      6  C4  OXE d   1       5.329   1.570  -2.827  0.00  0.00    -0.002 A 
ATOM      7  C5  OXE d   1       5.944   2.013  -1.652  0.00  0.00    -0.002 A 
ATOM      8  C6  OXE d   1       5.374   1.698  -0.423  0.00  0.00     0.003 A 
ENDROOT
TORSDOF 0
ENDMDL
