MODEL 1
REMARK minimizedAffinity 9.80369186
REMARK minimizedRMSD -1
REMARK  0 active torsions:
REMARK  status: ('A' for Active; 'I' for Inactive)
ROOT
ATOM      1  C2' OXE d   1       2.992  -0.291   1.172  0.00  0.00     0.078 C 
ATOM      2  C1' OXE d   1       1.786  -0.872  -1.296  0.00  0.00     0.078 C 
ATOM      3  C1  OXE d   1       2.979   0.052  -1.295  0.00  0.00    -0.078 A 
ATOM      4  C2  OXE d   1       3.533   0.368  -0.078  0.00  0.00    -0.078 A 
ATOM      5  C3  OXE d   1       4.668   1.172  -0.026  0.00  0.00     0.003 A 
ATOM      6  C4  OXE d   1       5.157   1.785  -1.186  0.00  0.00    -0.002 A 
ATOM      7  C5  OXE d   1       4.582   1.509  -2.431  0.00  0.00    -0.002 A 
ATOM      8  C6  OXE d   1       3.521   0.613  -2.508  0.00  0.00     0.003 A 
ENDROOT
TORSDOF 0
ENDMDL
