MODEL 1
REMARK minimizedAffinity 6.41557169
REMARK minimizedRMSD -1
REMARK  0 active torsions:
REMARK  status: ('A' for Active; 'I' for Inactive)
ROOT
ATOM      1  C2' OXE d   1      -1.558   0.827  -2.433  0.00  0.00     0.078 C 
ATOM      2  C1' OXE d   1      -3.765   0.030  -0.892  0.00  0.00     0.078 C 
ATOM      3  C1  OXE d   1      -4.014   0.424  -2.326  0.00  0.00    -0.078 A 
ATOM      4  C2  OXE d   1      -2.936   0.858  -3.059  0.00  0.00    -0.078 A 
ATOM      5  C3  OXE d   1      -3.100   1.181  -4.403  0.00  0.00     0.003 A 
ATOM      6  C4  OXE d   1      -4.379   1.217  -4.971  0.00  0.00    -0.002 A 
ATOM      7  C5  OXE d   1      -5.497   0.817  -4.231  0.00  0.00    -0.002 A 
ATOM      8  C6  OXE d   1      -5.326   0.378  -2.923  0.00  0.00     0.003 A 
ENDROOT
TORSDOF 0
ENDMDL
