MODEL 1
REMARK minimizedAffinity 5.08912754
REMARK minimizedRMSD -1
REMARK  0 active torsions:
REMARK  status: ('A' for Active; 'I' for Inactive)
ROOT
ATOM      1  C2' OXE d   1       4.004  -1.109  -4.023  0.00  0.00     0.078 C 
ATOM      2  C1' OXE d   1       1.897  -1.683  -2.259  0.00  0.00     0.078 C 
ATOM      3  C1  OXE d   1       2.962  -0.720  -1.794  0.00  0.00    -0.078 A 
ATOM      4  C2  OXE d   1       4.013  -0.481  -2.646  0.00  0.00    -0.078 A 
ATOM      5  C3  OXE d   1       4.994   0.440  -2.289  0.00  0.00     0.003 A 
ATOM      6  C4  OXE d   1       5.001   1.008  -1.009  0.00  0.00    -0.002 A 
ATOM      7  C5  OXE d   1       3.960   0.747  -0.111  0.00  0.00    -0.002 A 
ATOM      8  C6  OXE d   1       2.913  -0.080  -0.503  0.00  0.00     0.003 A 
ENDROOT
TORSDOF 0
ENDMDL
