MODEL 1
REMARK minimizedAffinity 0.805972278
REMARK minimizedRMSD -1
REMARK  0 active torsions:
REMARK  status: ('A' for Active; 'I' for Inactive)
ROOT
ATOM      1  C2' OXE d   1      -1.250   1.802  -1.133  0.00  0.00     0.078 C 
ATOM      2  C1' OXE d   1      -0.834   3.865   0.725  0.00  0.00     0.078 C 
ATOM      3  C1  OXE d   1      -2.096   3.050   0.850  0.00  0.00    -0.078 A 
ATOM      4  C2  OXE d   1      -2.315   2.073  -0.091  0.00  0.00    -0.078 A 
ATOM      5  C3  OXE d   1      -3.437   1.256   0.010  0.00  0.00     0.003 A 
ATOM      6  C4  OXE d   1      -4.421   1.520   0.971  0.00  0.00    -0.002 A 
ATOM      7  C5  OXE d   1      -4.238   2.536   1.915  0.00  0.00    -0.002 A 
ATOM      8  C6  OXE d   1      -3.064   3.281   1.895  0.00  0.00     0.003 A 
ENDROOT
TORSDOF 0
ENDMDL
