MODEL 1
REMARK minimizedAffinity 13.6703997
REMARK minimizedRMSD -1
REMARK  0 active torsions:
REMARK  status: ('A' for Active; 'I' for Inactive)
ROOT
ATOM      1  C2' OXE d   1      -6.000   3.760  -4.892  0.00  0.00     0.078 C 
ATOM      2  C1' OXE d   1      -5.995   2.937  -2.208  0.00  0.00     0.078 C 
ATOM      3  C1  OXE d   1      -5.186   2.130  -3.193  0.00  0.00    -0.078 A 
ATOM      4  C2  OXE d   1      -5.232   2.513  -4.512  0.00  0.00    -0.078 A 
ATOM      5  C3  OXE d   1      -4.461   1.836  -5.453  0.00  0.00     0.003 A 
ATOM      6  C4  OXE d   1      -3.762   0.677  -5.095  0.00  0.00    -0.002 A 
ATOM      7  C5  OXE d   1      -3.734   0.247  -3.764  0.00  0.00    -0.002 A 
ATOM      8  C6  OXE d   1      -4.405   0.985  -2.795  0.00  0.00     0.003 A 
ENDROOT
TORSDOF 0
ENDMDL
