MODEL 1
REMARK minimizedAffinity 2.54827666
REMARK minimizedRMSD -1
REMARK  0 active torsions:
REMARK  status: ('A' for Active; 'I' for Inactive)
ROOT
ATOM      1  C2' OXE d   1       2.226   2.434   2.587  0.00  0.00     0.078 C 
ATOM      2  C1' OXE d   1       1.359   2.263   5.252  0.00  0.00     0.078 C 
ATOM      3  C1  OXE d   1       2.596   3.078   4.965  0.00  0.00    -0.078 A 
ATOM      4  C2  OXE d   1       3.039   3.118   3.665  0.00  0.00    -0.078 A 
ATOM      5  C3  OXE d   1       4.144   3.899   3.337  0.00  0.00     0.003 A 
ATOM      6  C4  OXE d   1       4.896   4.520   4.342  0.00  0.00    -0.002 A 
ATOM      7  C5  OXE d   1       4.485   4.459   5.678  0.00  0.00    -0.002 A 
ATOM      8  C6  OXE d   1       3.315   3.779   6.000  0.00  0.00     0.003 A 
ENDROOT
TORSDOF 0
ENDMDL
