MODEL 1
REMARK minimizedAffinity -5.64142179
REMARK minimizedRMSD -1
REMARK  0 active torsions:
REMARK  status: ('A' for Active; 'I' for Inactive)
ROOT
ATOM      1  C2' OXE d   1      -0.068   1.224  -0.090  0.00  0.00     0.078 C 
ATOM      2  C1' OXE d   1      -0.903  -0.654   1.822  0.00  0.00     0.078 C 
ATOM      3  C1  OXE d   1      -0.539  -1.162   0.449  0.00  0.00    -0.078 A 
ATOM      4  C2  OXE d   1      -0.177  -0.231  -0.494  0.00  0.00    -0.078 A 
ATOM      5  C3  OXE d   1       0.221  -0.651  -1.760  0.00  0.00     0.003 A 
ATOM      6  C4  OXE d   1       0.108  -1.997  -2.129  0.00  0.00    -0.002 A 
ATOM      7  C5  OXE d   1      -0.297  -2.957  -1.195  0.00  0.00    -0.002 A 
ATOM      8  C6  OXE d   1      -0.583  -2.562   0.108  0.00  0.00     0.003 A 
ENDROOT
TORSDOF 0
ENDMDL
