MODEL 1
REMARK minimizedAffinity -5.68608284
REMARK minimizedRMSD -1
REMARK  0 active torsions:
REMARK  status: ('A' for Active; 'I' for Inactive)
ROOT
ATOM      1  C2' OXE d   1      -1.484  -0.350   1.913  0.00  0.00     0.078 C 
ATOM      2  C1' OXE d   1      -0.163   1.072  -0.115  0.00  0.00     0.078 C 
ATOM      3  C1  OXE d   1      -0.296  -0.422  -0.276  0.00  0.00    -0.078 A 
ATOM      4  C2  OXE d   1      -0.902  -1.115   0.744  0.00  0.00    -0.078 A 
ATOM      5  C3  OXE d   1      -1.099  -2.488   0.622  0.00  0.00     0.003 A 
ATOM      6  C4  OXE d   1      -0.549  -3.190  -0.458  0.00  0.00    -0.002 A 
ATOM      7  C5  OXE d   1       0.107  -2.507  -1.488  0.00  0.00    -0.002 A 
ATOM      8  C6  OXE d   1       0.205  -1.121  -1.433  0.00  0.00     0.003 A 
ENDROOT
TORSDOF 0
ENDMDL
