MODEL 1
REMARK minimizedAffinity -4.82623672
REMARK minimizedRMSD -1
REMARK  0 active torsions:
REMARK  status: ('A' for Active; 'I' for Inactive)
ROOT
ATOM      1  C2' OXE d   1      -1.871   0.161   1.977  0.00  0.00     0.078 C 
ATOM      2  C1' OXE d   1      -0.299   1.396   0.006  0.00  0.00     0.078 C 
ATOM      3  C1  OXE d   1      -0.234  -0.107   0.118  0.00  0.00    -0.078 A 
ATOM      4  C2  OXE d   1      -0.970  -0.699   1.116  0.00  0.00    -0.078 A 
ATOM      5  C3  OXE d   1      -0.989  -2.086   1.229  0.00  0.00     0.003 A 
ATOM      6  C4  OXE d   1      -0.146  -2.873   0.435  0.00  0.00    -0.002 A 
ATOM      7  C5  OXE d   1       0.643  -2.287  -0.560  0.00  0.00    -0.002 A 
ATOM      8  C6  OXE d   1       0.579  -0.912  -0.760  0.00  0.00     0.003 A 
ENDROOT
TORSDOF 0
ENDMDL
