MODEL 1
REMARK minimizedAffinity -5.13232374
REMARK minimizedRMSD -1
REMARK  0 active torsions:
REMARK  status: ('A' for Active; 'I' for Inactive)
ROOT
ATOM      1  C2' OXE d   1      -0.009  -2.987  -0.272  0.00  0.00     0.078 C 
ATOM      2  C1' OXE d   1       0.844  -1.335  -2.375  0.00  0.00     0.078 C 
ATOM      3  C1  OXE d   1       0.234  -0.674  -1.165  0.00  0.00    -0.078 A 
ATOM      4  C2  OXE d   1      -0.223  -1.493  -0.160  0.00  0.00    -0.078 A 
ATOM      5  C3  OXE d   1      -0.745  -0.932   1.003  0.00  0.00     0.003 A 
ATOM      6  C4  OXE d   1      -0.949   0.450   1.094  0.00  0.00    -0.002 A 
ATOM      7  C5  OXE d   1      -0.527   1.299   0.065  0.00  0.00    -0.002 A 
ATOM      8  C6  OXE d   1       0.103   0.758  -1.050  0.00  0.00     0.003 A 
ENDROOT
TORSDOF 0
ENDMDL
