MODEL 1
REMARK minimizedAffinity -3.71648192
REMARK minimizedRMSD -1
REMARK  0 active torsions:
REMARK  status: ('A' for Active; 'I' for Inactive)
ROOT
ATOM      1  C2' OXE d   1       0.279   1.743  -0.669  0.00  0.00     0.078 C 
ATOM      2  C1' OXE d   1       0.657  -0.588  -2.186  0.00  0.00     0.078 C 
ATOM      3  C1  OXE d   1       0.008  -0.728  -0.832  0.00  0.00    -0.078 A 
ATOM      4  C2  OXE d   1      -0.131   0.412  -0.076  0.00  0.00    -0.078 A 
ATOM      5  C3  OXE d   1      -0.773   0.348   1.157  0.00  0.00     0.003 A 
ATOM      6  C4  OXE d   1      -1.139  -0.889   1.702  0.00  0.00    -0.002 A 
ATOM      7  C5  OXE d   1      -0.971  -2.067   0.966  0.00  0.00    -0.002 A 
ATOM      8  C6  OXE d   1      -0.439  -1.998  -0.317  0.00  0.00     0.003 A 
ENDROOT
TORSDOF 0
ENDMDL
