MODEL 1
REMARK minimizedAffinity -3.89836025
REMARK minimizedRMSD -1
REMARK  0 active torsions:
REMARK  status: ('A' for Active; 'I' for Inactive)
ROOT
ATOM      1  C2' OXE d   1      -2.147   0.088   1.102  0.00  0.00     0.078 C 
ATOM      2  C1' OXE d   1       0.052   1.201  -0.241  0.00  0.00     0.078 C 
ATOM      3  C1  OXE d   1      -0.028  -0.302  -0.148  0.00  0.00    -0.078 A 
ATOM      4  C2  OXE d   1      -1.083  -0.837   0.551  0.00  0.00    -0.078 A 
ATOM      5  C3  OXE d   1      -1.235  -2.219   0.620  0.00  0.00     0.003 A 
ATOM      6  C4  OXE d   1      -0.241  -3.067   0.117  0.00  0.00    -0.002 A 
ATOM      7  C5  OXE d   1       0.862  -2.542  -0.564  0.00  0.00    -0.002 A 
ATOM      8  C6  OXE d   1       0.962  -1.166  -0.742  0.00  0.00     0.003 A 
ENDROOT
TORSDOF 0
ENDMDL
