MODEL 1
REMARK minimizedAffinity -3.55287099
REMARK minimizedRMSD -1
REMARK  0 active torsions:
REMARK  status: ('A' for Active; 'I' for Inactive)
ROOT
ATOM      1  C2' OXE d   1      -0.513  -2.436   1.044  0.00  0.00     0.078 C 
ATOM      2  C1' OXE d   1      -1.168  -0.106   2.466  0.00  0.00     0.078 C 
ATOM      3  C1  OXE d   1      -0.543   0.054   1.103  0.00  0.00    -0.078 A 
ATOM      4  C2  OXE d   1      -0.183  -1.091   0.434  0.00  0.00    -0.078 A 
ATOM      5  C3  OXE d   1       0.346  -1.001  -0.851  0.00  0.00     0.003 A 
ATOM      6  C4  OXE d   1       0.657   0.247  -1.403  0.00  0.00    -0.002 A 
ATOM      7  C5  OXE d   1       0.335   1.426  -0.722  0.00  0.00    -0.002 A 
ATOM      8  C6  OXE d   1      -0.303   1.347   0.511  0.00  0.00     0.003 A 
ENDROOT
TORSDOF 0
ENDMDL
