MODEL 1
REMARK minimizedAffinity -2.28452563
REMARK minimizedRMSD -1
REMARK  0 active torsions:
REMARK  status: ('A' for Active; 'I' for Inactive)
ROOT
ATOM      1  C2' OXE d   1       0.209   3.447  -0.667  0.00  0.00     0.078 C 
ATOM      2  C1' OXE d   1       2.150   2.651   1.199  0.00  0.00     0.078 C 
ATOM      3  C1  OXE d   1       1.040   1.681   0.881  0.00  0.00    -0.078 A 
ATOM      4  C2  OXE d   1       0.069   2.097   0.002  0.00  0.00    -0.078 A 
ATOM      5  C3  OXE d   1      -0.947   1.220  -0.368  0.00  0.00     0.003 A 
ATOM      6  C4  OXE d   1      -1.076  -0.023   0.263  0.00  0.00    -0.002 A 
ATOM      7  C5  OXE d   1      -0.120  -0.450   1.191  0.00  0.00    -0.002 A 
ATOM      8  C6  OXE d   1       0.965   0.370   1.479  0.00  0.00     0.003 A 
ENDROOT
TORSDOF 0
ENDMDL
