MODEL 1
REMARK minimizedAffinity -4.05316067
REMARK minimizedRMSD -1
REMARK  0 active torsions:
REMARK  status: ('A' for Active; 'I' for Inactive)
ROOT
ATOM      1  C2' OXE d   1      -2.106   0.436   1.193  0.00  0.00     0.078 C 
ATOM      2  C1' OXE d   1      -0.101   1.100  -0.656  0.00  0.00     0.078 C 
ATOM      3  C1  OXE d   1      -0.083  -0.289  -0.067  0.00  0.00    -0.078 A 
ATOM      4  C2  OXE d   1      -1.040  -0.589   0.872  0.00  0.00    -0.078 A 
ATOM      5  C3  OXE d   1      -1.102  -1.873   1.407  0.00  0.00     0.003 A 
ATOM      6  C4  OXE d   1      -0.106  -2.812   1.112  0.00  0.00    -0.002 A 
ATOM      7  C5  OXE d   1       0.901  -2.513   0.188  0.00  0.00    -0.002 A 
ATOM      8  C6  OXE d   1       0.902  -1.273  -0.441  0.00  0.00     0.003 A 
ENDROOT
TORSDOF 0
ENDMDL
