MODEL 1
REMARK minimizedAffinity -4.89173985
REMARK minimizedRMSD -1
REMARK  0 active torsions:
REMARK  status: ('A' for Active; 'I' for Inactive)
ROOT
ATOM      1  C2' OXE d   1       0.361  -3.463   0.335  0.00  0.00     0.078 C 
ATOM      2  C1' OXE d   1      -1.699  -2.472   1.963  0.00  0.00     0.078 C 
ATOM      3  C1  OXE d   1      -0.994  -1.500   1.051  0.00  0.00    -0.078 A 
ATOM      4  C2  OXE d   1       0.044  -1.984   0.292  0.00  0.00    -0.078 A 
ATOM      5  C3  OXE d   1       0.692  -1.142  -0.607  0.00  0.00     0.003 A 
ATOM      6  C4  OXE d   1       0.400   0.227  -0.634  0.00  0.00    -0.002 A 
ATOM      7  C5  OXE d   1      -0.627   0.749   0.160  0.00  0.00    -0.002 A 
ATOM      8  C6  OXE d   1      -1.361  -0.107   0.975  0.00  0.00     0.003 A 
ENDROOT
TORSDOF 0
ENDMDL
