MODEL 1
REMARK minimizedAffinity -4.97611332
REMARK minimizedRMSD -1
REMARK  0 active torsions:
REMARK  status: ('A' for Active; 'I' for Inactive)
ROOT
ATOM      1  C2' OXE d   1       1.180  -1.463  -2.010  0.00  0.00     0.078 C 
ATOM      2  C1' OXE d   1       0.104   1.020  -1.264  0.00  0.00     0.078 C 
ATOM      3  C1  OXE d   1      -0.175  -0.163  -0.372  0.00  0.00    -0.078 A 
ATOM      4  C2  OXE d   1       0.316  -1.384  -0.769  0.00  0.00    -0.078 A 
ATOM      5  C3  OXE d   1       0.134  -2.498   0.045  0.00  0.00     0.003 A 
ATOM      6  C4  OXE d   1      -0.674  -2.418   1.186  0.00  0.00    -0.002 A 
ATOM      7  C5  OXE d   1      -1.217  -1.193   1.587  0.00  0.00    -0.002 A 
ATOM      8  C6  OXE d   1      -0.942  -0.050   0.844  0.00  0.00     0.003 A 
ENDROOT
TORSDOF 0
ENDMDL
