MODEL 1
REMARK minimizedAffinity -1.16229391
REMARK minimizedRMSD -1
REMARK  0 active torsions:
REMARK  status: ('A' for Active; 'I' for Inactive)
ROOT
ATOM      1  C2' OXE d   1       0.151  -2.898  -0.289  0.00  0.00     0.078 C 
ATOM      2  C1' OXE d   1       0.573  -1.684  -2.785  0.00  0.00     0.078 C 
ATOM      3  C1  OXE d   1       0.296  -0.787  -1.604  0.00  0.00    -0.078 A 
ATOM      4  C2  OXE d   1       0.044  -1.392  -0.396  0.00  0.00    -0.078 A 
ATOM      5  C3  OXE d   1      -0.164  -0.610   0.736  0.00  0.00     0.003 A 
ATOM      6  C4  OXE d   1      -0.271   0.781   0.627  0.00  0.00    -0.002 A 
ATOM      7  C5  OXE d   1      -0.057   1.415  -0.602  0.00  0.00    -0.002 A 
ATOM      8  C6  OXE d   1       0.269   0.650  -1.716  0.00  0.00     0.003 A 
ENDROOT
TORSDOF 0
ENDMDL
