MODEL 1
REMARK minimizedAffinity -2.95799541
REMARK minimizedRMSD -1
REMARK  0 active torsions:
REMARK  status: ('A' for Active; 'I' for Inactive)
ROOT
ATOM      1  C2' OXE d   1      -0.142   1.334  -0.493  0.00  0.00     0.078 C 
ATOM      2  C1' OXE d   1      -2.324   0.493   1.059  0.00  0.00     0.078 C 
ATOM      3  C1  OXE d   1      -1.268  -0.528   0.718  0.00  0.00    -0.078 A 
ATOM      4  C2  OXE d   1      -0.227  -0.119  -0.081  0.00  0.00    -0.078 A 
ATOM      5  C3  OXE d   1       0.802  -1.007  -0.380  0.00  0.00     0.003 A 
ATOM      6  C4  OXE d   1       0.710  -2.352  -0.002  0.00  0.00    -0.002 A 
ATOM      7  C5  OXE d   1      -0.361  -2.799   0.778  0.00  0.00    -0.002 A 
ATOM      8  C6  OXE d   1      -1.335  -1.892   1.182  0.00  0.00     0.003 A 
ENDROOT
TORSDOF 0
ENDMDL
