MODEL 1
REMARK minimizedAffinity -5.18620777
REMARK minimizedRMSD -1
REMARK  0 active torsions:
REMARK  status: ('A' for Active; 'I' for Inactive)
ROOT
ATOM      1  C2' OXE d   1      -0.048  -3.729  -0.235  0.00  0.00     0.078 C 
ATOM      2  C1' OXE d   1       0.526  -1.882  -2.270  0.00  0.00     0.078 C 
ATOM      3  C1  OXE d   1       0.111  -1.341  -0.925  0.00  0.00    -0.078 A 
ATOM      4  C2  OXE d   1      -0.213  -2.252   0.051  0.00  0.00    -0.078 A 
ATOM      5  C3  OXE d   1      -0.548  -1.807   1.326  0.00  0.00     0.003 A 
ATOM      6  C4  OXE d   1      -0.708  -0.439   1.580  0.00  0.00    -0.002 A 
ATOM      7  C5  OXE d   1      -0.421   0.505   0.589  0.00  0.00    -0.002 A 
ATOM      8  C6  OXE d   1       0.029   0.073  -0.654  0.00  0.00     0.003 A 
ENDROOT
TORSDOF 0
ENDMDL
