MODEL 1
REMARK minimizedAffinity -4.40956354
REMARK minimizedRMSD -1
REMARK  0 active torsions:
REMARK  status: ('A' for Active; 'I' for Inactive)
ROOT
ATOM      1  C2' OXE d   1      -0.758  -0.520   1.598  0.00  0.00     0.078 C 
ATOM      2  C1' OXE d   1       0.562   0.338  -0.726  0.00  0.00     0.078 C 
ATOM      3  C1  OXE d   1       0.335  -1.143  -0.551  0.00  0.00    -0.078 A 
ATOM      4  C2  OXE d   1      -0.270  -1.558   0.611  0.00  0.00    -0.078 A 
ATOM      5  C3  OXE d   1      -0.552  -2.908   0.797  0.00  0.00     0.003 A 
ATOM      6  C4  OXE d   1      -0.088  -3.862  -0.116  0.00  0.00    -0.002 A 
ATOM      7  C5  OXE d   1       0.566  -3.464  -1.287  0.00  0.00    -0.002 A 
ATOM      8  C6  OXE d   1       0.747  -2.109  -1.540  0.00  0.00     0.003 A 
ENDROOT
TORSDOF 0
ENDMDL
