MODEL 1
REMARK minimizedAffinity -3.02035689
REMARK minimizedRMSD -1
REMARK  0 active torsions:
REMARK  status: ('A' for Active; 'I' for Inactive)
ROOT
ATOM      1  C2' OXE d   1       0.946  -0.928  -2.094  0.00  0.00     0.078 C 
ATOM      2  C1' OXE d   1       0.308   1.629  -1.129  0.00  0.00     0.078 C 
ATOM      3  C1  OXE d   1      -0.024   0.444  -0.256  0.00  0.00    -0.078 A 
ATOM      4  C2  OXE d   1       0.249  -0.806  -0.756  0.00  0.00    -0.078 A 
ATOM      5  C3  OXE d   1       0.014  -1.930   0.030  0.00  0.00     0.003 A 
ATOM      6  C4  OXE d   1      -0.641  -1.808   1.262  0.00  0.00    -0.002 A 
ATOM      7  C5  OXE d   1      -0.964  -0.547   1.773  0.00  0.00    -0.002 A 
ATOM      8  C6  OXE d   1      -0.625   0.590   1.047  0.00  0.00     0.003 A 
ENDROOT
TORSDOF 0
ENDMDL
