MODEL 1
REMARK minimizedAffinity -2.18827152
REMARK minimizedRMSD -1
REMARK  1 active torsions:
REMARK  status: ('A' for Active; 'I' for Inactive)
REMARK    1  A    between atoms: C1_2  and  C2_3 
ROOT
ATOM      1  C2  UNL d   1       0.288  -2.593   0.442  0.00  0.00    -0.076 A 
ATOM      2  C3  UNL d   1      -0.072  -3.946   0.313  0.00  0.00     0.004 A 
ATOM      3  C4  UNL d   1      -0.234  -4.528  -0.943  0.00  0.00    -0.003 A 
ATOM      4  C5  UNL d   1      -0.038  -3.767  -2.090  0.00  0.00     0.000 A 
ATOM      5  C6  UNL d   1       0.337  -2.428  -1.981  0.00  0.00     0.000 A 
ATOM      6  C7  UNL d   1       0.521  -1.830  -0.722  0.00  0.00    -0.073 A 
ATOM      7  C8  UNL d   1       0.919  -0.381  -0.663  0.00  0.00     0.078 C 
ENDROOT
BRANCH   1   8
ATOM      8  C1  UNL d   1       0.423  -2.009   1.830  0.00  0.00     0.053 C 
ATOM      9  C   UNL d   1      -0.879  -1.408   2.338  0.00  0.00     0.018 C 
ENDBRANCH   1   8
TORSDOF 1
ENDMDL
