MODEL 1
REMARK minimizedAffinity 10.5176411
REMARK minimizedRMSD -1
REMARK  1 active torsions:
REMARK  status: ('A' for Active; 'I' for Inactive)
REMARK    1  A    between atoms: C1_2  and  C2_3 
ROOT
ATOM      1  C2  UNL d   1       0.146  -1.357  -1.076  0.00  0.00    -0.076 A 
ATOM      2  C3  UNL d   1      -0.906  -1.532  -0.160  0.00  0.00     0.004 A 
ATOM      3  C4  UNL d   1      -1.006  -2.694   0.604  0.00  0.00    -0.003 A 
ATOM      4  C5  UNL d   1      -0.055  -3.699   0.466  0.00  0.00     0.000 A 
ATOM      5  C6  UNL d   1       1.006  -3.534  -0.425  0.00  0.00     0.000 A 
ATOM      6  C7  UNL d   1       1.130  -2.362  -1.191  0.00  0.00    -0.073 A 
ATOM      7  C8  UNL d   1       2.291  -2.240  -2.140  0.00  0.00     0.078 C 
ENDROOT
BRANCH   1   8
ATOM      8  C1  UNL d   1       0.187  -0.088  -1.897  0.00  0.00     0.053 C 
ATOM      9  C   UNL d   1       0.043   1.163  -1.044  0.00  0.00     0.018 C 
ENDBRANCH   1   8
TORSDOF 1
ENDMDL
