MODEL 1
REMARK minimizedAffinity 10.1882639
REMARK minimizedRMSD -1
REMARK  1 active torsions:
REMARK  status: ('A' for Active; 'I' for Inactive)
REMARK    1  A    between atoms: C1_2  and  C2_3 
ROOT
ATOM      1  C2  UNL d   1      -1.121  -2.585   1.449  0.00  0.00    -0.076 A 
ATOM      2  C3  UNL d   1       0.277  -2.648   1.577  0.00  0.00     0.004 A 
ATOM      3  C4  UNL d   1       1.019  -3.597   0.877  0.00  0.00    -0.003 A 
ATOM      4  C5  UNL d   1       0.375  -4.500   0.037  0.00  0.00     0.000 A 
ATOM      5  C6  UNL d   1      -1.010  -4.441  -0.114  0.00  0.00     0.000 A 
ATOM      6  C7  UNL d   1      -1.771  -3.479   0.571  0.00  0.00    -0.073 A 
ATOM      7  C8  UNL d   1      -3.262  -3.465   0.375  0.00  0.00     0.078 C 
ENDROOT
BRANCH   1   8
ATOM      8  C1  UNL d   1      -1.876  -1.552   2.254  0.00  0.00     0.053 C 
ATOM      9  C   UNL d   1      -1.125  -1.125   3.506  0.00  0.00     0.018 C 
ENDBRANCH   1   8
TORSDOF 1
ENDMDL
