MODEL 1
REMARK minimizedAffinity 10.5630846
REMARK minimizedRMSD -1
REMARK  1 active torsions:
REMARK  status: ('A' for Active; 'I' for Inactive)
REMARK    1  A    between atoms: C1_2  and  C2_3 
ROOT
ATOM      1  C2  UNL d   1       0.588  -1.803  -1.611  0.00  0.00    -0.076 A 
ATOM      2  C3  UNL d   1      -0.136  -1.679  -0.413  0.00  0.00     0.004 A 
ATOM      3  C4  UNL d   1      -0.304  -2.769   0.440  0.00  0.00    -0.003 A 
ATOM      4  C5  UNL d   1       0.250  -4.000   0.108  0.00  0.00     0.000 A 
ATOM      5  C6  UNL d   1       0.987  -4.137  -1.068  0.00  0.00     0.000 A 
ATOM      6  C7  UNL d   1       1.179  -3.044  -1.931  0.00  0.00    -0.073 A 
ATOM      7  C8  UNL d   1       1.977  -3.250  -3.189  0.00  0.00     0.078 C 
ENDROOT
BRANCH   1   8
ATOM      8  C1  UNL d   1       0.714  -0.594  -2.510  0.00  0.00     0.053 C 
ATOM      9  C   UNL d   1       0.846   0.703  -1.726  0.00  0.00     0.018 C 
ENDBRANCH   1   8
TORSDOF 1
ENDMDL
