MODEL 1
REMARK minimizedAffinity 2.7104075
REMARK minimizedRMSD -1
REMARK  1 active torsions:
REMARK  status: ('A' for Active; 'I' for Inactive)
REMARK    1  A    between atoms: C1_2  and  C2_3 
ROOT
ATOM      1  C2  UNL d   1       0.210  -2.903  -0.275  0.00  0.00    -0.076 A 
ATOM      2  C3  UNL d   1       0.216  -1.542  -0.629  0.00  0.00     0.004 A 
ATOM      3  C4  UNL d   1       0.744  -1.121  -1.849  0.00  0.00    -0.003 A 
ATOM      4  C5  UNL d   1       1.274  -2.054  -2.734  0.00  0.00     0.000 A 
ATOM      5  C6  UNL d   1       1.261  -3.409  -2.406  0.00  0.00     0.000 A 
ATOM      6  C7  UNL d   1       0.717  -3.852  -1.188  0.00  0.00    -0.073 A 
ATOM      7  C8  UNL d   1       0.734  -5.325  -0.883  0.00  0.00     0.078 C 
ENDROOT
BRANCH   1   8
ATOM      8  C1  UNL d   1      -0.351  -3.298   1.073  0.00  0.00     0.053 C 
ATOM      9  C   UNL d   1      -0.685  -2.094   1.940  0.00  0.00     0.018 C 
ENDBRANCH   1   8
TORSDOF 1
ENDMDL
