MODEL 1
REMARK minimizedAffinity 12.0839033
REMARK minimizedRMSD -1
REMARK  1 active torsions:
REMARK  status: ('A' for Active; 'I' for Inactive)
REMARK    1  A    between atoms: C1_2  and  C2_3 
ROOT
ATOM      1  C2  UNL d   1      -0.354   3.490  -0.178  0.00  0.00    -0.076 A 
ATOM      2  C3  UNL d   1       0.938   3.106   0.222  0.00  0.00     0.004 A 
ATOM      3  C4  UNL d   1       1.488   1.895  -0.195  0.00  0.00    -0.003 A 
ATOM      4  C5  UNL d   1       0.755   1.049  -1.020  0.00  0.00     0.000 A 
ATOM      5  C6  UNL d   1      -0.521   1.422  -1.441  0.00  0.00     0.000 A 
ATOM      6  C7  UNL d   1      -1.083   2.646  -1.043  0.00  0.00    -0.073 A 
ATOM      7  C8  UNL d   1      -2.466   2.995  -1.522  0.00  0.00     0.078 C 
ENDROOT
BRANCH   1   8
ATOM      8  C1  UNL d   1      -0.909   4.802   0.328  0.00  0.00     0.053 C 
ATOM      9  C   UNL d   1      -0.102   5.999  -0.151  0.00  0.00     0.018 C 
ENDBRANCH   1   8
TORSDOF 1
ENDMDL
