MODEL 1
REMARK minimizedAffinity 7.27411652
REMARK minimizedRMSD -1
REMARK  1 active torsions:
REMARK  status: ('A' for Active; 'I' for Inactive)
REMARK    1  A    between atoms: C1_2  and  C2_3 
ROOT
ATOM      1  C2  UNL d   1       1.138  -1.738  -0.754  0.00  0.00    -0.076 A 
ATOM      2  C3  UNL d   1       0.124  -2.707  -0.843  0.00  0.00     0.004 A 
ATOM      3  C4  UNL d   1       0.047  -3.753   0.075  0.00  0.00    -0.003 A 
ATOM      4  C5  UNL d   1       0.984  -3.846   1.099  0.00  0.00     0.000 A 
ATOM      5  C6  UNL d   1       1.987  -2.884   1.213  0.00  0.00     0.000 A 
ATOM      6  C7  UNL d   1       2.069  -1.814   0.305  0.00  0.00    -0.073 A 
ATOM      7  C8  UNL d   1       3.174  -0.808   0.471  0.00  0.00     0.078 C 
ENDROOT
BRANCH   1   8
ATOM      8  C1  UNL d   1       1.187  -0.642  -1.794  0.00  0.00     0.053 C 
ATOM      9  C   UNL d   1       0.243   0.507  -1.475  0.00  0.00     0.018 C 
ENDBRANCH   1   8
TORSDOF 1
ENDMDL
