MODEL 1
REMARK minimizedAffinity -0.852120519
REMARK minimizedRMSD -1
REMARK  1 active torsions:
REMARK  status: ('A' for Active; 'I' for Inactive)
REMARK    1  A    between atoms: C1_2  and  C2_3 
ROOT
ATOM      1  C2  UNL d   1       0.283   1.608   0.695  0.00  0.00    -0.076 A 
ATOM      2  C3  UNL d   1       1.053   1.965  -0.426  0.00  0.00     0.004 A 
ATOM      3  C4  UNL d   1       1.299   1.050  -1.448  0.00  0.00    -0.003 A 
ATOM      4  C5  UNL d   1       0.779  -0.237  -1.366  0.00  0.00     0.000 A 
ATOM      5  C6  UNL d   1      -0.002  -0.603  -0.269  0.00  0.00     0.000 A 
ATOM      6  C7  UNL d   1      -0.273   0.313   0.762  0.00  0.00    -0.073 A 
ATOM      7  C8  UNL d   1      -1.116  -0.136   1.923  0.00  0.00     0.078 C 
ENDROOT
BRANCH   1   8
ATOM      8  C1  UNL d   1       0.073   2.635   1.785  0.00  0.00     0.053 C 
ATOM      9  C   UNL d   1       0.643   3.997   1.421  0.00  0.00     0.018 C 
ENDBRANCH   1   8
TORSDOF 1
ENDMDL
