MODEL 1
REMARK minimizedAffinity -5.20712996
REMARK minimizedRMSD -1
REMARK  1 active torsions:
REMARK  status: ('A' for Active; 'I' for Inactive)
REMARK    1  A    between atoms: C1_2  and  C2_3 
ROOT
ATOM      1  C2  UNL d   1       0.642  -0.955  -0.640  0.00  0.00    -0.076 A 
ATOM      2  C3  UNL d   1       1.291  -2.060  -1.219  0.00  0.00     0.004 A 
ATOM      3  C4  UNL d   1       0.907  -3.363  -0.906  0.00  0.00    -0.003 A 
ATOM      4  C5  UNL d   1      -0.132  -3.582  -0.008  0.00  0.00     0.000 A 
ATOM      5  C6  UNL d   1      -0.798  -2.498   0.562  0.00  0.00     0.000 A 
ATOM      6  C7  UNL d   1      -0.434  -1.178   0.244  0.00  0.00    -0.073 A 
ATOM      7  C8  UNL d   1      -1.183  -0.047   0.894  0.00  0.00     0.078 C 
ENDROOT
BRANCH   1   8
ATOM      8  C1  UNL d   1       1.120   0.434  -0.998  0.00  0.00     0.053 C 
ATOM      9  C   UNL d   1       0.504   0.948  -2.290  0.00  0.00     0.018 C 
ENDBRANCH   1   8
TORSDOF 1
ENDMDL
