MODEL 1
REMARK minimizedAffinity 4.50747967
REMARK minimizedRMSD -1
REMARK  1 active torsions:
REMARK  status: ('A' for Active; 'I' for Inactive)
REMARK    1  A    between atoms: C1_2  and  C2_3 
ROOT
ATOM      1  C2  UNL d   1      -0.363  -0.771  -0.572  0.00  0.00    -0.076 A 
ATOM      2  C3  UNL d   1      -0.399  -0.156   0.691  0.00  0.00     0.004 A 
ATOM      3  C4  UNL d   1      -1.141  -0.705   1.736  0.00  0.00    -0.003 A 
ATOM      4  C5  UNL d   1      -1.857  -1.880   1.534  0.00  0.00     0.000 A 
ATOM      5  C6  UNL d   1      -1.818  -2.513   0.293  0.00  0.00     0.000 A 
ATOM      6  C7  UNL d   1      -1.062  -1.981  -0.766  0.00  0.00    -0.073 A 
ATOM      7  C8  UNL d   1      -1.061  -2.703  -2.086  0.00  0.00     0.078 C 
ENDROOT
BRANCH   1   8
ATOM      8  C1  UNL d   1       0.437  -0.114  -1.675  0.00  0.00     0.053 C 
ATOM      9  C   UNL d   1       1.927  -0.077  -1.371  0.00  0.00     0.018 C 
ENDBRANCH   1   8
TORSDOF 1
ENDMDL
