MODEL 1
REMARK minimizedAffinity -2.91950297
REMARK minimizedRMSD -1
REMARK  1 active torsions:
REMARK  status: ('A' for Active; 'I' for Inactive)
REMARK    1  A    between atoms: C1_2  and  C2_3 
ROOT
ATOM      1  C2  UNL d   1       0.224  -0.762  -0.334  0.00  0.00    -0.076 A 
ATOM      2  C3  UNL d   1      -0.168   0.528   0.065  0.00  0.00     0.004 A 
ATOM      3  C4  UNL d   1      -1.226   0.714   0.953  0.00  0.00    -0.003 A 
ATOM      4  C5  UNL d   1      -1.909  -0.387   1.457  0.00  0.00     0.000 A 
ATOM      5  C6  UNL d   1      -1.523  -1.675   1.086  0.00  0.00     0.000 A 
ATOM      6  C7  UNL d   1      -0.448  -1.880   0.204  0.00  0.00    -0.073 A 
ATOM      7  C8  UNL d   1      -0.078  -3.290  -0.167  0.00  0.00     0.078 C 
ENDROOT
BRANCH   1   8
ATOM      8  C1  UNL d   1       1.361  -0.900  -1.321  0.00  0.00     0.053 C 
ATOM      9  C   UNL d   1       0.894  -0.805  -2.766  0.00  0.00     0.018 C 
ENDBRANCH   1   8
TORSDOF 1
ENDMDL
