MODEL 1
REMARK minimizedAffinity -2.25804543
REMARK minimizedRMSD -1
REMARK  0 active torsions:
REMARK  status: ('A' for Active; 'I' for Inactive)
ROOT
ATOM      1  C1  DEN d   1       2.512   1.628   0.557  0.00  0.00     0.130 A 
ATOM      2  C2  DEN d   1       1.658   2.332  -0.396  0.00  0.00    -0.031 A 
ATOM      3  C3  DEN d   1       0.367   1.620  -0.466  0.00  0.00     0.027 A 
ATOM      4  C4  DEN d   1      -0.392  -0.491   0.807  0.00  0.00     0.027 A 
ATOM      5  C5  DEN d   1      -0.009  -1.452   1.717  0.00  0.00    -0.003 A 
ATOM      6  C6  DEN d   1       1.242  -1.472   2.274  0.00  0.00     0.001 A 
ATOM      7  C7  DEN d   1       2.141  -0.487   1.961  0.00  0.00     0.017 A 
ATOM      8  C8  DEN d   1       1.765   0.480   1.038  0.00  0.00    -0.094 A 
ATOM      9  C9  DEN d   1       0.491   0.491   0.495  0.00  0.00    -0.072 A 
ENDROOT
TORSDOF 0
ENDMDL
