MODEL 1
REMARK minimizedAffinity 9.27285099
REMARK minimizedRMSD -1
REMARK  0 active torsions:
REMARK  status: ('A' for Active; 'I' for Inactive)
ROOT
ATOM      1  C1  DEN d   1       0.002  -1.549   0.792  0.00  0.00     0.130 A 
ATOM      2  C2  DEN d   1       0.903  -0.579   1.409  0.00  0.00    -0.031 A 
ATOM      3  C3  DEN d   1       2.159  -0.564   0.632  0.00  0.00     0.027 A 
ATOM      4  C4  DEN d   1       2.791  -1.937  -1.457  0.00  0.00     0.027 A 
ATOM      5  C5  DEN d   1       2.357  -2.900  -2.341  0.00  0.00    -0.003 A 
ATOM      6  C6  DEN d   1       1.131  -3.499  -2.224  0.00  0.00     0.001 A 
ATOM      7  C7  DEN d   1       0.277  -3.109  -1.226  0.00  0.00     0.017 A 
ATOM      8  C8  DEN d   1       0.711  -2.144  -0.326  0.00  0.00    -0.094 A 
ATOM      9  C9  DEN d   1       1.949  -1.542  -0.469  0.00  0.00    -0.072 A 
ENDROOT
TORSDOF 0
ENDMDL
