MODEL 1
REMARK minimizedAffinity 0.472600162
REMARK minimizedRMSD -1
REMARK  0 active torsions:
REMARK  status: ('A' for Active; 'I' for Inactive)
ROOT
ATOM      1  C1  DEN d   1       2.272  -5.202   2.942  0.00  0.00     0.130 A 
ATOM      2  C2  DEN d   1       2.714  -4.913   4.303  0.00  0.00    -0.031 A 
ATOM      3  C3  DEN d   1       2.437  -3.490   4.581  0.00  0.00     0.027 A 
ATOM      4  C4  DEN d   1       1.367  -1.715   3.045  0.00  0.00     0.027 A 
ATOM      5  C5  DEN d   1       0.839  -1.485   1.794  0.00  0.00    -0.003 A 
ATOM      6  C6  DEN d   1       0.783  -2.460   0.834  0.00  0.00     0.001 A 
ATOM      7  C7  DEN d   1       1.222  -3.725   1.125  0.00  0.00     0.017 A 
ATOM      8  C8  DEN d   1       1.763  -3.963   2.382  0.00  0.00    -0.094 A 
ATOM      9  C9  DEN d   1       1.799  -2.967   3.343  0.00  0.00    -0.072 A 
ENDROOT
TORSDOF 0
ENDMDL
