MODEL 1
REMARK minimizedAffinity 0.611647725
REMARK minimizedRMSD -1
REMARK  0 active torsions:
REMARK  status: ('A' for Active; 'I' for Inactive)
ROOT
ATOM      1  C1  DEN d   1      -5.618   0.693  -2.163  0.00  0.00     0.130 A 
ATOM      2  C2  DEN d   1      -4.659   1.322  -3.067  0.00  0.00    -0.031 A 
ATOM      3  C3  DEN d   1      -3.787   2.204  -2.266  0.00  0.00     0.027 A 
ATOM      4  C4  DEN d   1      -3.827   2.653   0.274  0.00  0.00     0.027 A 
ATOM      5  C5  DEN d   1      -4.469   2.358   1.456  0.00  0.00    -0.003 A 
ATOM      6  C6  DEN d   1      -5.551   1.520   1.510  0.00  0.00     0.001 A 
ATOM      7  C7  DEN d   1      -5.997   0.913   0.365  0.00  0.00     0.017 A 
ATOM      8  C8  DEN d   1      -5.359   1.211  -0.832  0.00  0.00    -0.094 A 
ATOM      9  C9  DEN d   1      -4.259   2.051  -0.863  0.00  0.00    -0.072 A 
ENDROOT
TORSDOF 0
ENDMDL
