MODEL 1
REMARK minimizedAffinity 6.0355792
REMARK minimizedRMSD -1
REMARK  0 active torsions:
REMARK  status: ('A' for Active; 'I' for Inactive)
ROOT
ATOM      1  C1  DEN d   1       1.569  -4.287   0.042  0.00  0.00     0.130 A 
ATOM      2  C2  DEN d   1       1.467  -3.711  -1.295  0.00  0.00    -0.031 A 
ATOM      3  C3  DEN d   1       1.433  -2.241  -1.158  0.00  0.00     0.027 A 
ATOM      4  C4  DEN d   1       1.531  -0.809   0.986  0.00  0.00     0.027 A 
ATOM      5  C5  DEN d   1       1.608  -0.850   2.360  0.00  0.00    -0.003 A 
ATOM      6  C6  DEN d   1       1.643  -2.030   3.055  0.00  0.00     0.001 A 
ATOM      7  C7  DEN d   1       1.646  -3.219   2.374  0.00  0.00     0.017 A 
ATOM      8  C8  DEN d   1       1.561  -3.186   0.988  0.00  0.00    -0.094 A 
ATOM      9  C9  DEN d   1       1.539  -1.983   0.304  0.00  0.00    -0.072 A 
ENDROOT
TORSDOF 0
ENDMDL
