MODEL 1
REMARK minimizedAffinity 5.31441355
REMARK minimizedRMSD -1
REMARK  0 active torsions:
REMARK  status: ('A' for Active; 'I' for Inactive)
ROOT
ATOM      1  C1  DEN d   1      -5.940   3.532  -1.916  0.00  0.00     0.130 A 
ATOM      2  C2  DEN d   1      -5.988   2.275  -2.657  0.00  0.00    -0.031 A 
ATOM      3  C3  DEN d   1      -5.980   1.168  -1.680  0.00  0.00     0.027 A 
ATOM      4  C4  DEN d   1      -5.902   1.278   0.896  0.00  0.00     0.027 A 
ATOM      5  C5  DEN d   1      -5.841   2.123   1.982  0.00  0.00    -0.003 A 
ATOM      6  C6  DEN d   1      -5.775   3.484   1.845  0.00  0.00     0.001 A 
ATOM      7  C7  DEN d   1      -5.814   4.044   0.595  0.00  0.00     0.017 A 
ATOM      8  C8  DEN d   1      -5.868   3.198  -0.505  0.00  0.00    -0.094 A 
ATOM      9  C9  DEN d   1      -5.947   1.825  -0.345  0.00  0.00    -0.072 A 
ENDROOT
TORSDOF 0
ENDMDL
