MODEL 1
REMARK minimizedAffinity 7.44097948
REMARK minimizedRMSD -1
REMARK  0 active torsions:
REMARK  status: ('A' for Active; 'I' for Inactive)
ROOT
ATOM      1  C1  DEN d   1      -5.750   3.122   2.310  0.00  0.00     0.130 A 
ATOM      2  C2  DEN d   1      -5.882   4.500   1.846  0.00  0.00    -0.031 A 
ATOM      3  C3  DEN d   1      -6.000   4.476   0.374  0.00  0.00     0.027 A 
ATOM      4  C4  DEN d   1      -5.997   2.450  -1.222  0.00  0.00     0.027 A 
ATOM      5  C5  DEN d   1      -5.899   1.078  -1.293  0.00  0.00    -0.003 A 
ATOM      6  C6  DEN d   1      -5.711   0.300  -0.182  0.00  0.00     0.001 A 
ATOM      7  C7  DEN d   1      -5.661   0.886   1.056  0.00  0.00     0.017 A 
ATOM      8  C8  DEN d   1      -5.752   2.269   1.136  0.00  0.00    -0.094 A 
ATOM      9  C9  DEN d   1      -5.954   3.037   0.001  0.00  0.00    -0.072 A 
ENDROOT
TORSDOF 0
ENDMDL
