MODEL 1
REMARK minimizedAffinity -0.889458835
REMARK minimizedRMSD -1
REMARK  0 active torsions:
REMARK  status: ('A' for Active; 'I' for Inactive)
ROOT
ATOM      1  C1  DEN d   1      -3.655   2.991   1.053  0.00  0.00     0.130 A 
ATOM      2  C2  DEN d   1      -4.953   3.155   1.701  0.00  0.00    -0.031 A 
ATOM      3  C3  DEN d   1      -6.000   3.018   0.668  0.00  0.00     0.027 A 
ATOM      4  C4  DEN d   1      -5.738   2.568  -1.858  0.00  0.00     0.027 A 
ATOM      5  C5  DEN d   1      -4.830   2.367  -2.874  0.00  0.00    -0.003 A 
ATOM      6  C6  DEN d   1      -3.477   2.395  -2.660  0.00  0.00     0.001 A 
ATOM      7  C7  DEN d   1      -2.994   2.583  -1.392  0.00  0.00     0.017 A 
ATOM      8  C8  DEN d   1      -3.903   2.792  -0.364  0.00  0.00    -0.094 A 
ATOM      9  C9  DEN d   1      -5.267   2.749  -0.598  0.00  0.00    -0.072 A 
ENDROOT
TORSDOF 0
ENDMDL
