MODEL 1
REMARK minimizedAffinity 0.836954832
REMARK minimizedRMSD -1
REMARK  0 active torsions:
REMARK  status: ('A' for Active; 'I' for Inactive)
ROOT
ATOM      1  C1  DEN d   1       1.534  -0.687   4.129  0.00  0.00     0.130 A 
ATOM      2  C2  DEN d   1       1.511  -1.854   3.252  0.00  0.00    -0.031 A 
ATOM      3  C3  DEN d   1       1.983  -1.431   1.918  0.00  0.00     0.027 A 
ATOM      4  C4  DEN d   1       2.747   0.903   1.131  0.00  0.00     0.027 A 
ATOM      5  C5  DEN d   1       2.930   2.213   1.516  0.00  0.00    -0.003 A 
ATOM      6  C6  DEN d   1       2.630   2.652   2.778  0.00  0.00     0.001 A 
ATOM      7  C7  DEN d   1       2.174   1.763   3.715  0.00  0.00     0.017 A 
ATOM      8  C8  DEN d   1       1.981   0.443   3.333  0.00  0.00    -0.094 A 
ATOM      9  C9  DEN d   1       2.301   0.016   2.055  0.00  0.00    -0.072 A 
ENDROOT
TORSDOF 0
ENDMDL
