MODEL 1
REMARK minimizedAffinity 9.68262005
REMARK minimizedRMSD -1
REMARK  0 active torsions:
REMARK  status: ('A' for Active; 'I' for Inactive)
ROOT
ATOM      1  C1  DEN d   1      -5.907  -5.784  -2.287  0.00  0.00     0.130 A 
ATOM      2  C2  DEN d   1      -5.987  -4.655  -1.365  0.00  0.00    -0.031 A 
ATOM      3  C3  DEN d   1      -5.999  -3.413  -2.163  0.00  0.00     0.027 A 
ATOM      4  C4  DEN d   1      -5.906  -3.131  -4.725  0.00  0.00     0.027 A 
ATOM      5  C5  DEN d   1      -5.820  -3.800  -5.926  0.00  0.00    -0.003 A 
ATOM      6  C6  DEN d   1      -5.723  -5.165  -5.996  0.00  0.00     0.001 A 
ATOM      7  C7  DEN d   1      -5.756  -5.907  -4.845  0.00  0.00     0.017 A 
ATOM      8  C8  DEN d   1      -5.835  -5.239  -3.631  0.00  0.00    -0.094 A 
ATOM      9  C9  DEN d   1      -5.944  -3.860  -3.582  0.00  0.00    -0.072 A 
ENDROOT
TORSDOF 0
ENDMDL
