MODEL 1
REMARK minimizedAffinity 2.46478701
REMARK minimizedRMSD -1
REMARK  0 active torsions:
REMARK  status: ('A' for Active; 'I' for Inactive)
ROOT
ATOM      1  C   UNL d   1       5.694   0.469  -6.000  0.00  0.00     0.023 A 
ATOM      2  C1  UNL d   1       4.518   1.023  -5.493  0.00  0.00     0.003 A 
ATOM      3  C2  UNL d   1       3.645   0.240  -4.736  0.00  0.00     0.048 A 
ATOM      4  C3  UNL d   1       3.954  -1.098  -4.488  0.00  0.00     0.023 A 
ATOM      5  C4  UNL d   1       5.129  -1.656  -4.993  0.00  0.00     0.048 A 
ATOM      6  C5  UNL d   1       5.999  -0.869  -5.750  0.00  0.00     0.003 A 
ATOM      7  I   UNL d   1       2.656  -2.266  -3.361  0.00  0.00    -0.146 I 
ENDROOT
TORSDOF 0
ENDMDL
