MODEL 1
REMARK minimizedAffinity 9.63886452
REMARK minimizedRMSD -1
REMARK  0 active torsions:
REMARK  status: ('A' for Active; 'I' for Inactive)
ROOT
ATOM      1  C   UNL d   1       5.127   1.500  -6.000  0.00  0.00     0.023 A 
ATOM      2  C1  UNL d   1       5.619   0.252  -5.619  0.00  0.00     0.003 A 
ATOM      3  C2  UNL d   1       5.108  -0.386  -4.486  0.00  0.00     0.048 A 
ATOM      4  C3  UNL d   1       4.104   0.230  -3.740  0.00  0.00     0.023 A 
ATOM      5  C4  UNL d   1       3.607   1.478  -4.119  0.00  0.00     0.048 A 
ATOM      6  C5  UNL d   1       4.122   2.112  -5.251  0.00  0.00     0.003 A 
ATOM      7  I   UNL d   1       3.341  -0.717  -2.055  0.00  0.00    -0.146 I 
ENDROOT
TORSDOF 0
ENDMDL
