MODEL 1
REMARK minimizedAffinity 12.6530027
REMARK minimizedRMSD -1
REMARK  0 active torsions:
REMARK  status: ('A' for Active; 'I' for Inactive)
ROOT
ATOM      1  C   UNL d   1       1.274  -1.049   1.605  0.00  0.00     0.023 A 
ATOM      2  C1  UNL d   1       0.069  -1.649   1.237  0.00  0.00     0.003 A 
ATOM      3  C2  UNL d   1      -1.028  -0.858   0.890  0.00  0.00     0.048 A 
ATOM      4  C3  UNL d   1      -0.913   0.532   0.910  0.00  0.00     0.023 A 
ATOM      5  C4  UNL d   1       0.291   1.136   1.276  0.00  0.00     0.048 A 
ATOM      6  C5  UNL d   1       1.385   0.341   1.624  0.00  0.00     0.003 A 
ATOM      7  I   UNL d   1      -2.544   1.711   0.393  0.00  0.00    -0.146 I 
ENDROOT
TORSDOF 0
ENDMDL
