MODEL 1
REMARK minimizedAffinity 11.2766523
REMARK minimizedRMSD -1
REMARK  0 active torsions:
REMARK  status: ('A' for Active; 'I' for Inactive)
ROOT
ATOM      1  C   UNL d   1       0.891  -1.215   3.101  0.00  0.00     0.023 A 
ATOM      2  C1  UNL d   1       0.729  -1.814   1.851  0.00  0.00     0.003 A 
ATOM      3  C2  UNL d   1       1.199  -3.110   1.631  0.00  0.00     0.048 A 
ATOM      4  C3  UNL d   1       1.830  -3.802   2.664  0.00  0.00     0.023 A 
ATOM      5  C4  UNL d   1       1.993  -3.208   3.916  0.00  0.00     0.048 A 
ATOM      6  C5  UNL d   1       1.522  -1.911   4.132  0.00  0.00     0.003 A 
ATOM      7  I   UNL d   1       2.530  -5.732   2.338  0.00  0.00    -0.146 I 
ENDROOT
TORSDOF 0
ENDMDL
