MODEL 1
REMARK minimizedAffinity 1.46308792
REMARK minimizedRMSD -1
REMARK  0 active torsions:
REMARK  status: ('A' for Active; 'I' for Inactive)
ROOT
ATOM      1  C   UNL d   1       5.335   0.033  -5.998  0.00  0.00     0.023 A 
ATOM      2  C1  UNL d   1       5.994  -1.123  -5.578  0.00  0.00     0.003 A 
ATOM      3  C2  UNL d   1       5.473  -1.882  -4.528  0.00  0.00     0.048 A 
ATOM      4  C3  UNL d   1       4.292  -1.480  -3.904  0.00  0.00     0.023 A 
ATOM      5  C4  UNL d   1       3.629  -0.325  -4.322  0.00  0.00     0.048 A 
ATOM      6  C5  UNL d   1       4.154   0.431  -5.371  0.00  0.00     0.003 A 
ATOM      7  I   UNL d   1       3.514  -2.609  -2.341  0.00  0.00    -0.146 I 
ENDROOT
TORSDOF 0
ENDMDL
