MODEL 1
REMARK minimizedAffinity 13.4380312
REMARK minimizedRMSD -1
REMARK  0 active torsions:
REMARK  status: ('A' for Active; 'I' for Inactive)
ROOT
ATOM      1  C   UNL d   1       3.473  -0.773  -2.613  0.00  0.00     0.023 A 
ATOM      2  C1  UNL d   1       4.244  -0.662  -1.456  0.00  0.00     0.003 A 
ATOM      3  C2  UNL d   1       3.635  -0.717  -0.201  0.00  0.00     0.048 A 
ATOM      4  C3  UNL d   1       2.253  -0.884  -0.110  0.00  0.00     0.023 A 
ATOM      5  C4  UNL d   1       1.478  -0.996  -1.265  0.00  0.00     0.048 A 
ATOM      6  C5  UNL d   1       2.091  -0.939  -2.518  0.00  0.00     0.003 A 
ATOM      7  I   UNL d   1       1.344  -0.967   1.757  0.00  0.00    -0.146 I 
ENDROOT
TORSDOF 0
ENDMDL
