MODEL 1
REMARK minimizedAffinity 19.9973316
REMARK minimizedRMSD -1
REMARK  0 active torsions:
REMARK  status: ('A' for Active; 'I' for Inactive)
ROOT
ATOM      1  C   UNL d   1       1.090  -0.781   3.130  0.00  0.00     0.023 A 
ATOM      2  C1  UNL d   1       1.327  -2.076   2.671  0.00  0.00     0.003 A 
ATOM      3  C2  UNL d   1       1.851  -2.279   1.392  0.00  0.00     0.048 A 
ATOM      4  C3  UNL d   1       2.137  -1.183   0.580  0.00  0.00     0.023 A 
ATOM      5  C4  UNL d   1       1.902   0.115   1.036  0.00  0.00     0.048 A 
ATOM      6  C5  UNL d   1       1.377   0.313   2.314  0.00  0.00     0.003 A 
ATOM      7  I   UNL d   1       2.917  -1.483  -1.323  0.00  0.00    -0.146 I 
ENDROOT
TORSDOF 0
ENDMDL
