MODEL 1
REMARK minimizedAffinity 8.70859814
REMARK minimizedRMSD -1
REMARK  0 active torsions:
REMARK  status: ('A' for Active; 'I' for Inactive)
ROOT
ATOM      1  C   UNL d   1      -5.340   2.579  -3.890  0.00  0.00     0.023 A 
ATOM      2  C1  UNL d   1      -6.000   3.113  -2.784  0.00  0.00     0.003 A 
ATOM      3  C2  UNL d   1      -5.408   3.054  -1.520  0.00  0.00     0.048 A 
ATOM      4  C3  UNL d   1      -4.155   2.461  -1.371  0.00  0.00     0.023 A 
ATOM      5  C4  UNL d   1      -3.490   1.926  -2.476  0.00  0.00     0.048 A 
ATOM      6  C5  UNL d   1      -4.086   1.986  -3.737  0.00  0.00     0.003 A 
ATOM      7  I   UNL d   1      -3.271   2.372   0.508  0.00  0.00    -0.146 I 
ENDROOT
TORSDOF 0
ENDMDL
