MODEL 1
REMARK minimizedAffinity 0.621290684
REMARK minimizedRMSD -1
REMARK  0 active torsions:
REMARK  status: ('A' for Active; 'I' for Inactive)
ROOT
ATOM      1  C4' PXY d   1      -5.905   6.000  -6.000  0.00  0.00     0.077 C 
ATOM      2  C1' PXY d   1      -1.064   2.878  -5.521  0.00  0.00     0.077 C 
ATOM      3  C1  PXY d   1      -2.328   3.706  -5.639  0.00  0.00    -0.082 A 
ATOM      4  C2  PXY d   1      -3.486   3.104  -5.858  0.00  0.00     0.003 A 
ATOM      5  C3  PXY d   1      -4.634   3.841  -6.000  0.00  0.00     0.003 A 
ATOM      6  C4  PXY d   1      -4.605   5.203  -5.864  0.00  0.00    -0.082 A 
ATOM      7  C5  PXY d   1      -3.429   5.823  -5.630  0.00  0.00     0.003 A 
ATOM      8  C6  PXY d   1      -2.268   5.061  -5.530  0.00  0.00     0.003 A 
ENDROOT
TORSDOF 0
ENDMDL
