MODEL 1
REMARK minimizedAffinity 0.157802224
REMARK minimizedRMSD -1
REMARK  0 active torsions:
REMARK  status: ('A' for Active; 'I' for Inactive)
ROOT
ATOM      1  C4' PXY d   1      -1.558   2.999   1.450  0.00  0.00     0.077 C 
ATOM      2  C1' PXY d   1       2.422  -0.955   0.059  0.00  0.00     0.077 C 
ATOM      3  C1  PXY d   1       1.370   0.075   0.417  0.00  0.00    -0.082 A 
ATOM      4  C2  PXY d   1       1.740   1.303   0.741  0.00  0.00     0.003 A 
ATOM      5  C3  PXY d   1       0.804   2.239   1.099  0.00  0.00     0.003 A 
ATOM      6  C4  PXY d   1      -0.530   1.929   1.072  0.00  0.00    -0.082 A 
ATOM      7  C5  PXY d   1      -0.917   0.681   0.732  0.00  0.00     0.003 A 
ATOM      8  C6  PXY d   1       0.052  -0.265   0.413  0.00  0.00     0.003 A 
ENDROOT
TORSDOF 0
ENDMDL
