MODEL 1
REMARK minimizedAffinity 0.494985223
REMARK minimizedRMSD -1
REMARK  0 active torsions:
REMARK  status: ('A' for Active; 'I' for Inactive)
ROOT
ATOM      1  C4' PXY d   1       2.951   2.505   1.908  0.00  0.00     0.077 C 
ATOM      2  C1' PXY d   1      -2.237   0.737   0.071  0.00  0.00     0.077 C 
ATOM      3  C1  PXY d   1      -0.873   1.188   0.554  0.00  0.00    -0.082 A 
ATOM      4  C2  PXY d   1      -0.733   2.390   1.089  0.00  0.00     0.003 A 
ATOM      5  C3  PXY d   1       0.500   2.827   1.502  0.00  0.00     0.003 A 
ATOM      6  C4  PXY d   1       1.590   2.004   1.415  0.00  0.00    -0.082 A 
ATOM      7  C5  PXY d   1       1.454   0.772   0.881  0.00  0.00     0.003 A 
ATOM      8  C6  PXY d   1       0.202   0.364   0.429  0.00  0.00     0.003 A 
ENDROOT
TORSDOF 0
ENDMDL
