MODEL 1
REMARK minimizedAffinity -1.06672049
REMARK minimizedRMSD -1
REMARK  0 active torsions:
REMARK  status: ('A' for Active; 'I' for Inactive)
ROOT
ATOM      1  C4' PXY d   1       3.004  -0.192  -2.065  0.00  0.00     0.077 C 
ATOM      2  C1' PXY d   1      -1.595   0.402   1.387  0.00  0.00     0.077 C 
ATOM      3  C1  PXY d   1      -0.382   0.255   0.489  0.00  0.00    -0.082 A 
ATOM      4  C2  PXY d   1      -0.537  -0.171  -0.754  0.00  0.00     0.003 A 
ATOM      5  C3  PXY d   1       0.552  -0.340  -1.570  0.00  0.00     0.003 A 
ATOM      6  C4  PXY d   1       1.807  -0.020  -1.125  0.00  0.00    -0.082 A 
ATOM      7  C5  PXY d   1       1.972   0.425   0.139  0.00  0.00     0.003 A 
ATOM      8  C6  PXY d   1       0.858   0.551   0.964  0.00  0.00     0.003 A 
ENDROOT
TORSDOF 0
ENDMDL
