MODEL 1
REMARK minimizedAffinity -1.01007724
REMARK minimizedRMSD -1
REMARK  0 active torsions:
REMARK  status: ('A' for Active; 'I' for Inactive)
ROOT
ATOM      1  C4' PXY d   1       2.012   0.487   0.449  0.00  0.00     0.077 C 
ATOM      2  C1' PXY d   1      -3.704   0.676   1.286  0.00  0.00     0.077 C 
ATOM      3  C1  PXY d   1      -2.206   0.638   1.060  0.00  0.00    -0.082 A 
ATOM      4  C2  PXY d   1      -1.577  -0.526   1.033  0.00  0.00     0.003 A 
ATOM      5  C3  PXY d   1      -0.218  -0.577   0.862  0.00  0.00     0.003 A 
ATOM      6  C4  PXY d   1       0.499   0.573   0.665  0.00  0.00    -0.082 A 
ATOM      7  C5  PXY d   1      -0.136   1.764   0.681  0.00  0.00     0.003 A 
ATOM      8  C6  PXY d   1      -1.511   1.796   0.897  0.00  0.00     0.003 A 
ENDROOT
TORSDOF 0
ENDMDL
