MODEL 1
REMARK minimizedAffinity 4.04127884
REMARK minimizedRMSD -1
REMARK  0 active torsions:
REMARK  status: ('A' for Active; 'I' for Inactive)
ROOT
ATOM      1  C4' PXY d   1       2.554   2.324   1.751  0.00  0.00     0.077 C 
ATOM      2  C1' PXY d   1      -2.896   0.813   0.556  0.00  0.00     0.077 C 
ATOM      3  C1  PXY d   1      -1.463   1.197   0.870  0.00  0.00    -0.082 A 
ATOM      4  C2  PXY d   1      -1.204   2.382   1.397  0.00  0.00     0.003 A 
ATOM      5  C3  PXY d   1       0.089   2.758   1.658  0.00  0.00     0.003 A 
ATOM      6  C4  PXY d   1       1.122   1.891   1.426  0.00  0.00    -0.082 A 
ATOM      7  C5  PXY d   1       0.865   0.675   0.899  0.00  0.00     0.003 A 
ATOM      8  C6  PXY d   1      -0.450   0.328   0.603  0.00  0.00     0.003 A 
ENDROOT
TORSDOF 0
ENDMDL
