MODEL 1
REMARK minimizedAffinity 2.64148355
REMARK minimizedRMSD -1
REMARK  0 active torsions:
REMARK  status: ('A' for Active; 'I' for Inactive)
ROOT
ATOM      1  C4' PXY d   1      -2.234   0.743   0.194  0.00  0.00     0.077 C 
ATOM      2  C1' PXY d   1       2.969   2.780   1.677  0.00  0.00     0.077 C 
ATOM      3  C1  PXY d   1       1.599   2.254   1.298  0.00  0.00    -0.082 A 
ATOM      4  C2  PXY d   1       1.492   1.073   0.710  0.00  0.00     0.003 A 
ATOM      5  C3  PXY d   1       0.264   0.596   0.331  0.00  0.00     0.003 A 
ATOM      6  C4  PXY d   1      -0.872   1.310   0.604  0.00  0.00    -0.082 A 
ATOM      7  C5  PXY d   1      -0.772   2.511   1.213  0.00  0.00     0.003 A 
ATOM      8  C6  PXY d   1       0.488   2.997   1.552  0.00  0.00     0.003 A 
ENDROOT
TORSDOF 0
ENDMDL
