MODEL 1
REMARK minimizedAffinity 3.3024745
REMARK minimizedRMSD -1
REMARK  0 active torsions:
REMARK  status: ('A' for Active; 'I' for Inactive)
ROOT
ATOM      1  C4' PXY d   1      -4.102   1.503   0.585  0.00  0.00     0.077 C 
ATOM      2  C1' PXY d   1       1.668   1.434   0.927  0.00  0.00     0.077 C 
ATOM      3  C1  PXY d   1       0.155   1.440   0.833  0.00  0.00    -0.082 A 
ATOM      4  C2  PXY d   1      -0.488   2.588   0.696  0.00  0.00     0.003 A 
ATOM      5  C3  PXY d   1      -1.858   2.615   0.642  0.00  0.00     0.003 A 
ATOM      6  C4  PXY d   1      -2.575   1.449   0.674  0.00  0.00    -0.082 A 
ATOM      7  C5  PXY d   1      -1.926   0.272   0.803  0.00  0.00     0.003 A 
ATOM      8  C6  PXY d   1      -0.537   0.270   0.898  0.00  0.00     0.003 A 
ENDROOT
TORSDOF 0
ENDMDL
