MODEL 1
REMARK minimizedAffinity 1.20191705
REMARK minimizedRMSD -1
REMARK  0 active torsions:
REMARK  status: ('A' for Active; 'I' for Inactive)
ROOT
ATOM      1  C4' PXY d   1      -3.481   1.153   0.946  0.00  0.00     0.077 C 
ATOM      2  C1' PXY d   1       2.289   1.491   1.066  0.00  0.00     0.077 C 
ATOM      3  C1  PXY d   1       0.776   1.391   1.027  0.00  0.00    -0.082 A 
ATOM      4  C2  PXY d   1       0.045   2.482   1.186  0.00  0.00     0.003 A 
ATOM      5  C3  PXY d   1      -1.324   2.405   1.186  0.00  0.00     0.003 A 
ATOM      6  C4  PXY d   1      -1.951   1.207   0.968  0.00  0.00    -0.082 A 
ATOM      7  C5  PXY d   1      -1.211   0.092   0.795  0.00  0.00     0.003 A 
ATOM      8  C6  PXY d   1       0.177   0.185   0.839  0.00  0.00     0.003 A 
ENDROOT
TORSDOF 0
ENDMDL
