MODEL 1
REMARK minimizedAffinity 1.29270399
REMARK minimizedRMSD -1
REMARK  0 active torsions:
REMARK  status: ('A' for Active; 'I' for Inactive)
ROOT
ATOM      1  C4' PXY d   1      -1.878   0.958  -0.030  0.00  0.00     0.077 C 
ATOM      2  C1' PXY d   1       2.789   2.941   2.744  0.00  0.00     0.077 C 
ATOM      3  C1  PXY d   1       1.558   2.425   2.027  0.00  0.00    -0.082 A 
ATOM      4  C2  PXY d   1       1.686   1.493   1.097  0.00  0.00     0.003 A 
ATOM      5  C3  PXY d   1       0.586   1.037   0.415  0.00  0.00     0.003 A 
ATOM      6  C4  PXY d   1      -0.663   1.503   0.726  0.00  0.00    -0.082 A 
ATOM      7  C5  PXY d   1      -0.803   2.446   1.682  0.00  0.00     0.003 A 
ATOM      8  C6  PXY d   1       0.330   2.925   2.333  0.00  0.00     0.003 A 
ENDROOT
TORSDOF 0
ENDMDL
