MODEL 1
REMARK minimizedAffinity 2.31962943
REMARK minimizedRMSD -1
REMARK  0 active torsions:
REMARK  status: ('A' for Active; 'I' for Inactive)
ROOT
ATOM      1  C4' PXY d   1       2.605  -0.005   0.387  0.00  0.00     0.077 C 
ATOM      2  C1' PXY d   1      -3.039   0.638   1.454  0.00  0.00     0.077 C 
ATOM      3  C1  PXY d   1      -1.559   0.458   1.180  0.00  0.00    -0.082 A 
ATOM      4  C2  PXY d   1      -0.787   1.522   1.029  0.00  0.00     0.003 A 
ATOM      5  C3  PXY d   1       0.547   1.377   0.749  0.00  0.00     0.003 A 
ATOM      6  C4  PXY d   1       1.108   0.130   0.675  0.00  0.00    -0.082 A 
ATOM      7  C5  PXY d   1       0.329  -0.961   0.838  0.00  0.00     0.003 A 
ATOM      8  C6  PXY d   1      -1.031  -0.792   1.081  0.00  0.00     0.003 A 
ENDROOT
TORSDOF 0
ENDMDL
