MODEL 1
REMARK minimizedAffinity 0.0977430418
REMARK minimizedRMSD -1
REMARK  0 active torsions:
REMARK  status: ('A' for Active; 'I' for Inactive)
ROOT
ATOM      1  C4' PXY d   1      -5.999   2.724  -5.999  0.00  0.00     0.077 C 
ATOM      2  C1' PXY d   1      -1.352   5.999  -4.951  0.00  0.00     0.077 C 
ATOM      3  C1  PXY d   1      -2.564   5.132  -5.234  0.00  0.00    -0.082 A 
ATOM      4  C2  PXY d   1      -3.778   5.633  -5.074  0.00  0.00     0.003 A 
ATOM      5  C3  PXY d   1      -4.884   4.854  -5.294  0.00  0.00     0.003 A 
ATOM      6  C4  PXY d   1      -4.747   3.565  -5.734  0.00  0.00    -0.082 A 
ATOM      7  C5  PXY d   1      -3.512   3.050  -5.910  0.00  0.00     0.003 A 
ATOM      8  C6  PXY d   1      -2.401   3.844  -5.642  0.00  0.00     0.003 A 
ENDROOT
TORSDOF 0
ENDMDL
