MODEL 1
REMARK minimizedAffinity 5.50542212
REMARK minimizedRMSD -1
REMARK  0 active torsions:
REMARK  status: ('A' for Active; 'I' for Inactive)
ROOT
ATOM      1  C4' PXY d   1       1.933   0.791   0.743  0.00  0.00     0.077 C 
ATOM      2  C1' PXY d   1      -3.796   1.548   0.592  0.00  0.00     0.077 C 
ATOM      3  C1  PXY d   1      -2.295   1.338   0.637  0.00  0.00    -0.082 A 
ATOM      4  C2  PXY d   1      -1.488   2.386   0.666  0.00  0.00     0.003 A 
ATOM      5  C3  PXY d   1      -0.128   2.214   0.675  0.00  0.00     0.003 A 
ATOM      6  C4  PXY d   1       0.411   0.956   0.707  0.00  0.00    -0.082 A 
ATOM      7  C5  PXY d   1      -0.406  -0.119   0.688  0.00  0.00     0.003 A 
ATOM      8  C6  PXY d   1      -1.783   0.077   0.638  0.00  0.00     0.003 A 
ENDROOT
TORSDOF 0
ENDMDL
