MODEL 1
REMARK minimizedAffinity 5.20524549
REMARK minimizedRMSD -1
REMARK  0 active torsions:
REMARK  status: ('A' for Active; 'I' for Inactive)
ROOT
ATOM      1  C4' PXY d   1      -4.129  -5.887  -0.760  0.00  0.00     0.077 C 
ATOM      2  C1' PXY d   1       0.246  -2.342  -2.068  0.00  0.00     0.077 C 
ATOM      3  C1  PXY d   1      -0.895  -3.281  -1.731  0.00  0.00    -0.082 A 
ATOM      4  C2  PXY d   1      -2.099  -2.788  -1.490  0.00  0.00     0.003 A 
ATOM      5  C3  PXY d   1      -3.135  -3.621  -1.153  0.00  0.00     0.003 A 
ATOM      6  C4  PXY d   1      -2.949  -4.977  -1.113  0.00  0.00    -0.082 A 
ATOM      7  C5  PXY d   1      -1.726  -5.488  -1.368  0.00  0.00     0.003 A 
ATOM      8  C6  PXY d   1      -0.678  -4.623  -1.669  0.00  0.00     0.003 A 
ENDROOT
TORSDOF 0
ENDMDL
