MODEL 1
REMARK minimizedAffinity 17.2918625
REMARK minimizedRMSD -1
REMARK  0 active torsions:
REMARK  status: ('A' for Active; 'I' for Inactive)
ROOT
ATOM      1  C4' PXY d   1       0.513   0.478  -2.996  0.00  0.00     0.077 C 
ATOM      2  C1' PXY d   1       5.999  -1.292  -2.556  0.00  0.00     0.077 C 
ATOM      3  C1  PXY d   1       4.556  -0.838  -2.664  0.00  0.00    -0.082 A 
ATOM      4  C2  PXY d   1       4.185  -0.076  -3.680  0.00  0.00     0.003 A 
ATOM      5  C3  PXY d   1       2.892   0.370  -3.776  0.00  0.00     0.003 A 
ATOM      6  C4  PXY d   1       1.957  -0.012  -2.851  0.00  0.00    -0.082 A 
ATOM      7  C5  PXY d   1       2.326  -0.797  -1.817  0.00  0.00     0.003 A 
ATOM      8  C6  PXY d   1       3.652  -1.206  -1.716  0.00  0.00     0.003 A 
ENDROOT
TORSDOF 0
ENDMDL
