MODEL 1
REMARK minimizedAffinity 2.74253225
REMARK minimizedRMSD -1
REMARK  0 active torsions:
REMARK  status: ('A' for Active; 'I' for Inactive)
ROOT
ATOM      1  C4' PXY d   1       2.965  -1.005  -3.345  0.00  0.00     0.077 C 
ATOM      2  C1' PXY d   1       1.437   1.460   1.656  0.00  0.00     0.077 C 
ATOM      3  C1  PXY d   1       1.841   0.803   0.351  0.00  0.00    -0.082 A 
ATOM      4  C2  PXY d   1       2.160   1.556  -0.689  0.00  0.00     0.003 A 
ATOM      5  C3  PXY d   1       2.497   0.978  -1.886  0.00  0.00     0.003 A 
ATOM      6  C4  PXY d   1       2.560  -0.385  -2.005  0.00  0.00    -0.082 A 
ATOM      7  C5  PXY d   1       2.246  -1.160  -0.945  0.00  0.00     0.003 A 
ATOM      8  C6  PXY d   1       1.866  -0.554   0.249  0.00  0.00     0.003 A 
ENDROOT
TORSDOF 0
ENDMDL
