MODEL 1
REMARK minimizedAffinity 12.4102106
REMARK minimizedRMSD -1
REMARK  0 active torsions:
REMARK  status: ('A' for Active; 'I' for Inactive)
ROOT
ATOM      1  C4' PXY d   1       3.158  -0.561  -2.618  0.00  0.00     0.077 C 
ATOM      2  C1' PXY d   1      -0.628   3.359  -4.545  0.00  0.00     0.077 C 
ATOM      3  C1  PXY d   1       0.358   2.330  -4.029  0.00  0.00    -0.082 A 
ATOM      4  C2  PXY d   1       1.603   2.335  -4.476  0.00  0.00     0.003 A 
ATOM      5  C3  PXY d   1       2.499   1.391  -4.044  0.00  0.00     0.003 A 
ATOM      6  C4  PXY d   1       2.131   0.466  -3.104  0.00  0.00    -0.082 A 
ATOM      7  C5  PXY d   1       0.865   0.461  -2.636  0.00  0.00     0.003 A 
ATOM      8  C6  PXY d   1      -0.040   1.401  -3.118  0.00  0.00     0.003 A 
ENDROOT
TORSDOF 0
ENDMDL
