MODEL 1
REMARK minimizedAffinity 9.00918579
REMARK minimizedRMSD -1
REMARK  0 active torsions:
REMARK  status: ('A' for Active; 'I' for Inactive)
ROOT
ATOM      1  C4' PXY d   1       1.435   1.135   0.805  0.00  0.00     0.077 C 
ATOM      2  C1' PXY d   1      -4.343   1.275   0.696  0.00  0.00     0.077 C 
ATOM      3  C1  PXY d   1      -2.827   1.251   0.720  0.00  0.00    -0.082 A 
ATOM      4  C2  PXY d   1      -2.191   0.093   0.655  0.00  0.00     0.003 A 
ATOM      5  C3  PXY d   1      -0.821   0.050   0.707  0.00  0.00     0.003 A 
ATOM      6  C4  PXY d   1      -0.094   1.208   0.774  0.00  0.00    -0.082 A 
ATOM      7  C5  PXY d   1      -0.736   2.394   0.830  0.00  0.00     0.003 A 
ATOM      8  C6  PXY d   1      -2.128   2.414   0.817  0.00  0.00     0.003 A 
ENDROOT
TORSDOF 0
ENDMDL
