MODEL 1
REMARK minimizedAffinity 10.6863899
REMARK minimizedRMSD -1
REMARK  1 active torsions:
REMARK  status: ('A' for Active; 'I' for Inactive)
REMARK    1  A    between atoms: C1_2  and  C2_3 
ROOT
ATOM      1  C2  UNL d   1       0.519   3.700   0.420  0.00  0.00    -0.081 A 
ATOM      2  C3  UNL d   1       1.011   4.975   0.115  0.00  0.00     0.006 A 
ATOM      3  C4  UNL d   1       0.552   5.660  -1.013  0.00  0.00     0.002 A 
ATOM      4  C5  UNL d   1      -0.412   5.086  -1.848  0.00  0.00    -0.080 A 
ATOM      5  C6  UNL d   1      -0.936   5.824  -3.045  0.00  0.00     0.076 C 
ATOM      6  C7  UNL d   1      -0.891   3.805  -1.553  0.00  0.00     0.002 A 
ATOM      7  C8  UNL d   1      -0.432   3.120  -0.426  0.00  0.00     0.006 A 
ENDROOT
BRANCH   1   8
ATOM      8  C1  UNL d   1       0.965   2.986   1.671  0.00  0.00     0.054 C 
ATOM      9  C   UNL d   1      -0.219   2.647   2.566  0.00  0.00     0.018 C 
ENDBRANCH   1   8
TORSDOF 1
ENDMDL
