MODEL 1
REMARK minimizedAffinity 6.38917732
REMARK minimizedRMSD -1
REMARK  1 active torsions:
REMARK  status: ('A' for Active; 'I' for Inactive)
REMARK    1  A    between atoms: C1_2  and  C2_3 
ROOT
ATOM      1  C2  UNL d   1       0.267   3.211   1.510  0.00  0.00    -0.081 A 
ATOM      2  C3  UNL d   1       1.355   2.370   1.245  0.00  0.00     0.006 A 
ATOM      3  C4  UNL d   1       1.559   1.216   2.005  0.00  0.00     0.002 A 
ATOM      4  C5  UNL d   1       0.675   0.879   3.036  0.00  0.00    -0.080 A 
ATOM      5  C6  UNL d   1       0.866  -0.373   3.840  0.00  0.00     0.076 C 
ATOM      6  C7  UNL d   1      -0.402   1.728   3.312  0.00  0.00     0.002 A 
ATOM      7  C8  UNL d   1      -0.606   2.883   2.553  0.00  0.00     0.006 A 
ENDROOT
BRANCH   1   8
ATOM      8  C1  UNL d   1       0.007   4.421   0.651  0.00  0.00     0.054 C 
ATOM      9  C   UNL d   1       0.997   4.504  -0.502  0.00  0.00     0.018 C 
ENDBRANCH   1   8
TORSDOF 1
ENDMDL
