MODEL 1
REMARK minimizedAffinity 4.66765642
REMARK minimizedRMSD -1
REMARK  1 active torsions:
REMARK  status: ('A' for Active; 'I' for Inactive)
REMARK    1  A    between atoms: C1_2  and  C2_3 
ROOT
ATOM      1  C2  UNL d   1       0.055   0.892  -1.124  0.00  0.00    -0.081 A 
ATOM      2  C3  UNL d   1       1.181   0.211  -1.603  0.00  0.00     0.006 A 
ATOM      3  C4  UNL d   1       1.135  -1.168  -1.824  0.00  0.00     0.002 A 
ATOM      4  C5  UNL d   1      -0.040  -1.886  -1.578  0.00  0.00    -0.080 A 
ATOM      5  C6  UNL d   1      -0.113  -3.361  -1.840  0.00  0.00     0.076 C 
ATOM      6  C7  UNL d   1      -1.160  -1.209  -1.083  0.00  0.00     0.002 A 
ATOM      7  C8  UNL d   1      -1.113   0.169  -0.861  0.00  0.00     0.006 A 
ENDROOT
BRANCH   1   8
ATOM      8  C1  UNL d   1       0.083   2.388  -0.946  0.00  0.00     0.054 C 
ATOM      9  C   UNL d   1       0.260   2.768   0.517  0.00  0.00     0.018 C 
ENDBRANCH   1   8
TORSDOF 1
ENDMDL
