MODEL 1
REMARK minimizedAffinity 7.072896
REMARK minimizedRMSD -1
REMARK  1 active torsions:
REMARK  status: ('A' for Active; 'I' for Inactive)
REMARK    1  A    between atoms: C1_2  and  C2_3 
ROOT
ATOM      1  C2  UNL d   1       1.197   1.834   2.035  0.00  0.00    -0.081 A 
ATOM      2  C3  UNL d   1       1.973   0.705   1.745  0.00  0.00     0.006 A 
ATOM      3  C4  UNL d   1       2.066  -0.345   2.662  0.00  0.00     0.002 A 
ATOM      4  C5  UNL d   1       1.380  -0.287   3.880  0.00  0.00    -0.080 A 
ATOM      5  C6  UNL d   1       1.447  -1.420   4.860  0.00  0.00     0.076 C 
ATOM      6  C7  UNL d   1       0.619   0.849   4.177  0.00  0.00     0.002 A 
ATOM      7  C8  UNL d   1       0.526   1.899   3.261  0.00  0.00     0.006 A 
ENDROOT
BRANCH   1   8
ATOM      8  C1  UNL d   1       1.042   2.939   1.021  0.00  0.00     0.054 C 
ATOM      9  C   UNL d   1      -0.424   3.260   0.772  0.00  0.00     0.018 C 
ENDBRANCH   1   8
TORSDOF 1
ENDMDL
