MODEL 1
REMARK minimizedAffinity 8.726017
REMARK minimizedRMSD -1
REMARK  1 active torsions:
REMARK  status: ('A' for Active; 'I' for Inactive)
REMARK    1  A    between atoms: C1_2  and  C2_3 
ROOT
ATOM      1  C2  UNL d   1       0.682   2.248   2.612  0.00  0.00    -0.081 A 
ATOM      2  C3  UNL d   1      -0.673   2.597   2.652  0.00  0.00     0.006 A 
ATOM      3  C4  UNL d   1      -1.417   2.686   1.473  0.00  0.00     0.002 A 
ATOM      4  C5  UNL d   1      -0.820   2.420   0.236  0.00  0.00    -0.080 A 
ATOM      5  C6  UNL d   1      -1.614   2.482  -1.035  0.00  0.00     0.076 C 
ATOM      6  C7  UNL d   1       0.539   2.089   0.194  0.00  0.00     0.002 A 
ATOM      7  C8  UNL d   1       1.283   2.000   1.373  0.00  0.00     0.006 A 
ENDROOT
BRANCH   1   8
ATOM      8  C1  UNL d   1       1.470   2.089   3.887  0.00  0.00     0.054 C 
ATOM      9  C   UNL d   1       1.376   0.667   4.421  0.00  0.00     0.018 C 
ENDBRANCH   1   8
TORSDOF 1
ENDMDL
