MODEL 1
REMARK minimizedAffinity 3.54124618
REMARK minimizedRMSD -1
REMARK  1 active torsions:
REMARK  status: ('A' for Active; 'I' for Inactive)
REMARK    1  A    between atoms: C1_2  and  C2_3 
ROOT
ATOM      1  C2  UNL d   1      -0.779   3.257  -0.102  0.00  0.00    -0.081 A 
ATOM      2  C3  UNL d   1      -1.500   4.125  -0.930  0.00  0.00     0.006 A 
ATOM      3  C4  UNL d   1      -0.833   5.021  -1.770  0.00  0.00     0.002 A 
ATOM      4  C5  UNL d   1       0.565   5.058  -1.801  0.00  0.00    -0.080 A 
ATOM      5  C6  UNL d   1       1.294   5.993  -2.719  0.00  0.00     0.076 C 
ATOM      6  C7  UNL d   1       1.286   4.202  -0.961  0.00  0.00     0.002 A 
ATOM      7  C8  UNL d   1       0.620   3.307  -0.121  0.00  0.00     0.006 A 
ENDROOT
BRANCH   1   8
ATOM      8  C1  UNL d   1      -1.494   2.245   0.756  0.00  0.00     0.054 C 
ATOM      9  C   UNL d   1      -1.315   2.550   2.236  0.00  0.00     0.018 C 
ENDBRANCH   1   8
TORSDOF 1
ENDMDL
