MODEL 1
REMARK minimizedAffinity 0.341405094
REMARK minimizedRMSD -1
REMARK  1 active torsions:
REMARK  status: ('A' for Active; 'I' for Inactive)
REMARK    1  A    between atoms: C1_2  and  C2_3 
ROOT
ATOM      1  C2  UNL d   1       0.182   2.446   1.448  0.00  0.00    -0.081 A 
ATOM      2  C3  UNL d   1       0.090   2.289   0.060  0.00  0.00     0.006 A 
ATOM      3  C4  UNL d   1      -0.218   3.379  -0.757  0.00  0.00     0.002 A 
ATOM      4  C5  UNL d   1      -0.432   4.645  -0.201  0.00  0.00    -0.080 A 
ATOM      5  C6  UNL d   1      -0.733   5.830  -1.070  0.00  0.00     0.076 C 
ATOM      6  C7  UNL d   1      -0.358   4.798   1.187  0.00  0.00     0.002 A 
ATOM      7  C8  UNL d   1      -0.050   3.709   2.005  0.00  0.00     0.006 A 
ENDROOT
BRANCH   1   8
ATOM      8  C1  UNL d   1       0.577   1.286   2.326  0.00  0.00     0.054 C 
ATOM      9  C   UNL d   1      -0.136   1.340   3.669  0.00  0.00     0.018 C 
ENDBRANCH   1   8
TORSDOF 1
ENDMDL
