MODEL 1
REMARK minimizedAffinity -1.84903157
REMARK minimizedRMSD -1
REMARK  0 active torsions:
REMARK  status: ('A' for Active; 'I' for Inactive)
ROOT
ATOM      1  N1  IND d   1       1.690  -2.065  -1.207  0.00  0.00    -0.196 N 
ATOM      2  C2  IND d   1       2.835  -1.798  -0.509  0.00  0.00     0.054 A 
ATOM      3  C3  IND d   1       2.642  -0.754   0.328  0.00  0.00    -0.031 A 
ATOM      4  C4  IND d   1       0.501   0.598   0.792  0.00  0.00     0.051 A 
ATOM      5  C5  IND d   1      -0.790   0.748   0.371  0.00  0.00    -0.031 A 
ATOM      6  C6  IND d   1      -1.333  -0.050  -0.616  0.00  0.00     0.015 A 
ATOM      7  C7  IND d   1      -0.604  -1.040  -1.212  0.00  0.00    -0.016 A 
ATOM      8  C8  IND d   1       0.710  -1.190  -0.792  0.00  0.00    -0.047 A 
ATOM      9  C9  IND d   1       1.279  -0.356   0.178  0.00  0.00    -0.096 A 
ATOM     10  HN1 IND d   1       1.597  -2.677  -1.804  0.00  0.00     0.298 HD
ENDROOT
TORSDOF 0
ENDMDL
