MODEL 1
REMARK minimizedAffinity -4.45392179
REMARK minimizedRMSD -1
REMARK  0 active torsions:
REMARK  status: ('A' for Active; 'I' for Inactive)
ROOT
ATOM      1  N1  IND d   1      -0.102   1.449   0.567  0.00  0.00    -0.196 N 
ATOM      2  C2  IND d   1      -1.259   1.072  -0.056  0.00  0.00     0.054 A 
ATOM      3  C3  IND d   1      -1.166  -0.206  -0.486  0.00  0.00    -0.031 A 
ATOM      4  C4  IND d   1       0.751  -1.898  -0.187  0.00  0.00     0.051 A 
ATOM      5  C5  IND d   1       2.030  -2.005   0.283  0.00  0.00    -0.031 A 
ATOM      6  C6  IND d   1       2.675  -0.945   0.887  0.00  0.00     0.015 A 
ATOM      7  C7  IND d   1       2.059   0.263   1.054  0.00  0.00    -0.016 A 
ATOM      8  C8  IND d   1       0.764   0.377   0.571  0.00  0.00    -0.047 A 
ATOM      9  C9  IND d   1       0.119  -0.682  -0.081  0.00  0.00    -0.096 A 
ATOM     10  HN1 IND d   1       0.059   2.226   0.901  0.00  0.00     0.298 HD
ENDROOT
TORSDOF 0
ENDMDL
