MODEL 1
REMARK minimizedAffinity -3.75961375
REMARK minimizedRMSD -1
REMARK  0 active torsions:
REMARK  status: ('A' for Active; 'I' for Inactive)
ROOT
ATOM      1  N1  IND d   1      -1.038   1.476   0.205  0.00  0.00    -0.196 N 
ATOM      2  C2  IND d   1      -2.106   0.794  -0.307  0.00  0.00     0.054 A 
ATOM      3  C3  IND d   1      -1.718  -0.422  -0.754  0.00  0.00    -0.031 A 
ATOM      4  C4  IND d   1       0.599  -1.539  -0.650  0.00  0.00     0.051 A 
ATOM      5  C5  IND d   1       1.898  -1.294  -0.303  0.00  0.00    -0.031 A 
ATOM      6  C6  IND d   1       2.292  -0.091   0.244  0.00  0.00     0.015 A 
ATOM      7  C7  IND d   1       1.396   0.914   0.477  0.00  0.00    -0.016 A 
ATOM      8  C8  IND d   1       0.077   0.672   0.120  0.00  0.00    -0.047 A 
ATOM      9  C9  IND d   1      -0.321  -0.532  -0.475  0.00  0.00    -0.096 A 
ATOM     10  HN1 IND d   1      -1.059   2.273   0.527  0.00  0.00     0.298 HD
ENDROOT
TORSDOF 0
ENDMDL
