MODEL 1
REMARK minimizedAffinity -4.71945763
REMARK minimizedRMSD -1
REMARK  0 active torsions:
REMARK  status: ('A' for Active; 'I' for Inactive)
ROOT
ATOM      1  N1  IND d   1      -1.014   0.149   0.128  0.00  0.00    -0.196 N 
ATOM      2  C2  IND d   1      -0.732   1.177   0.983  0.00  0.00     0.054 A 
ATOM      3  C3  IND d   1       0.530   1.065   1.455  0.00  0.00    -0.031 A 
ATOM      4  C4  IND d   1       2.342  -0.670   0.879  0.00  0.00     0.051 A 
ATOM      5  C5  IND d   1       2.544  -1.824   0.175  0.00  0.00    -0.031 A 
ATOM      6  C6  IND d   1       1.551  -2.389  -0.599  0.00  0.00     0.015 A 
ATOM      7  C7  IND d   1       0.317  -1.813  -0.706  0.00  0.00    -0.016 A 
ATOM      8  C8  IND d   1       0.106  -0.645   0.013  0.00  0.00    -0.047 A 
ATOM      9  C9  IND d   1       1.097  -0.090   0.833  0.00  0.00    -0.096 A 
ATOM     10  HN1 IND d   1      -1.765   0.019  -0.271  0.00  0.00     0.298 HD
ENDROOT
TORSDOF 0
ENDMDL
