MODEL 1
REMARK minimizedAffinity 4.47145462
REMARK minimizedRMSD -1
REMARK  2 active torsions:
REMARK  status: ('A' for Active; 'I' for Inactive)
REMARK    1  A    between atoms: C1_2  and  C2_3 
REMARK    2  A    between atoms: C2_3  and  C3_4 
ROOT
ATOM      1  C3  UNL d   1      -2.652   0.046  -2.180  0.00  0.00    -0.075 A 
ATOM      2  C4  UNL d   1      -3.768  -0.193  -1.364  0.00  0.00     0.002 A 
ATOM      3  C5  UNL d   1      -3.745   0.154  -0.013  0.00  0.00     0.002 A 
ATOM      4  C6  UNL d   1      -2.606   0.734   0.541  0.00  0.00    -0.004 A 
ATOM      5  C7  UNL d   1      -1.486   0.961  -0.256  0.00  0.00     0.002 A 
ATOM      6  C8  UNL d   1      -1.508   0.619  -1.609  0.00  0.00     0.002 A 
ENDROOT
BRANCH   1   7
ATOM      7  C2  UNL d   1      -2.681  -0.300  -3.650  0.00  0.00     0.056 C 
BRANCH   7   8
ATOM      8  C1  UNL d   1      -3.494   0.678  -4.505  0.00  0.00     0.007 C 
ATOM      9  C   UNL d   1      -4.987   0.374  -4.509  0.00  0.00     0.009 C 
ENDBRANCH   7   8
ENDBRANCH   1   7
TORSDOF 2
ENDMDL
