MODEL 1
REMARK minimizedAffinity 0.880704999
REMARK minimizedRMSD -1
REMARK  2 active torsions:
REMARK  status: ('A' for Active; 'I' for Inactive)
REMARK    1  A    between atoms: C1_2  and  C2_3 
REMARK    2  A    between atoms: C2_3  and  C3_4 
ROOT
ATOM      1  C3  UNL d   1       3.159  -1.148  -0.717  0.00  0.00    -0.075 A 
ATOM      2  C4  UNL d   1       3.361  -1.195  -2.104  0.00  0.00     0.002 A 
ATOM      3  C5  UNL d   1       3.220  -2.396  -2.800  0.00  0.00     0.002 A 
ATOM      4  C6  UNL d   1       2.888  -3.565  -2.119  0.00  0.00    -0.004 A 
ATOM      5  C7  UNL d   1       2.701  -3.533  -0.738  0.00  0.00     0.002 A 
ATOM      6  C8  UNL d   1       2.837  -2.332  -0.040  0.00  0.00     0.002 A 
ENDROOT
BRANCH   1   7
ATOM      7  C2  UNL d   1       3.280   0.154   0.038  0.00  0.00     0.056 C 
BRANCH   7   8
ATOM      8  C1  UNL d   1       4.100   1.224  -0.692  0.00  0.00     0.007 C 
ATOM      9  C   UNL d   1       4.103   2.569   0.022  0.00  0.00     0.009 C 
ENDBRANCH   7   8
ENDBRANCH   1   7
TORSDOF 2
ENDMDL
