MODEL 1
REMARK minimizedAffinity 5.7228837
REMARK minimizedRMSD -1
REMARK  2 active torsions:
REMARK  status: ('A' for Active; 'I' for Inactive)
REMARK    1  A    between atoms: C1_2  and  C2_3 
REMARK    2  A    between atoms: C2_3  and  C3_4 
ROOT
ATOM      1  C3  UNL d   1      -3.470   0.113  -0.727  0.00  0.00    -0.075 A 
ATOM      2  C4  UNL d   1      -4.830   0.332  -0.463  0.00  0.00     0.002 A 
ATOM      3  C5  UNL d   1      -5.224   1.141   0.602  0.00  0.00     0.002 A 
ATOM      4  C6  UNL d   1      -4.266   1.733   1.423  0.00  0.00    -0.004 A 
ATOM      5  C7  UNL d   1      -2.912   1.509   1.181  0.00  0.00     0.002 A 
ATOM      6  C8  UNL d   1      -2.515   0.703   0.112  0.00  0.00     0.002 A 
ENDROOT
BRANCH   1   7
ATOM      7  C2  UNL d   1      -3.037  -0.738  -1.896  0.00  0.00     0.056 C 
BRANCH   7   8
ATOM      8  C1  UNL d   1      -2.290   0.036  -2.988  0.00  0.00     0.007 C 
ATOM      9  C   UNL d   1      -3.196   0.498  -4.122  0.00  0.00     0.009 C 
ENDBRANCH   7   8
ENDBRANCH   1   7
TORSDOF 2
ENDMDL
