MODEL 1
REMARK minimizedAffinity 4.00190878
REMARK minimizedRMSD -1
REMARK  2 active torsions:
REMARK  status: ('A' for Active; 'I' for Inactive)
REMARK    1  A    between atoms: C1_2  and  C2_3 
REMARK    2  A    between atoms: C2_3  and  C3_4 
ROOT
ATOM      1  C3  UNL d   1       4.162   1.327  -0.739  0.00  0.00    -0.075 A 
ATOM      2  C4  UNL d   1       4.776   1.136  -1.985  0.00  0.00     0.002 A 
ATOM      3  C5  UNL d   1       4.544  -0.028  -2.718  0.00  0.00     0.002 A 
ATOM      4  C6  UNL d   1       3.705  -1.019  -2.211  0.00  0.00    -0.004 A 
ATOM      5  C7  UNL d   1       3.103  -0.847  -0.967  0.00  0.00     0.002 A 
ATOM      6  C8  UNL d   1       3.330   0.319  -0.233  0.00  0.00     0.002 A 
ENDROOT
BRANCH   1   7
ATOM      7  C2  UNL d   1       4.385   2.597   0.046  0.00  0.00     0.056 C 
BRANCH   7   8
ATOM      8  C1  UNL d   1       5.830   3.106   0.011  0.00  0.00     0.007 C 
ATOM      9  C   UNL d   1       6.000   4.374  -0.816  0.00  0.00     0.009 C 
ENDBRANCH   7   8
ENDBRANCH   1   7
TORSDOF 2
ENDMDL
