MODEL 1
REMARK minimizedAffinity -0.620164216
REMARK minimizedRMSD -1
REMARK  2 active torsions:
REMARK  status: ('A' for Active; 'I' for Inactive)
REMARK    1  A    between atoms: C1_2  and  C2_3 
REMARK    2  A    between atoms: C2_3  and  C3_4 
ROOT
ATOM      1  C3  UNL d   1       4.136   1.118  -0.423  0.00  0.00    -0.075 A 
ATOM      2  C4  UNL d   1       3.329   2.100   0.170  0.00  0.00     0.002 A 
ATOM      3  C5  UNL d   1       3.854   2.958   1.137  0.00  0.00     0.002 A 
ATOM      4  C6  UNL d   1       5.185   2.840   1.530  0.00  0.00    -0.004 A 
ATOM      5  C7  UNL d   1       5.991   1.857   0.960  0.00  0.00     0.002 A 
ATOM      6  C8  UNL d   1       5.470   1.000  -0.011  0.00  0.00     0.002 A 
ENDROOT
BRANCH   1   7
ATOM      7  C2  UNL d   1       3.582   0.206  -1.491  0.00  0.00     0.056 C 
BRANCH   7   8
ATOM      8  C1  UNL d   1       2.495  -0.751  -0.992  0.00  0.00     0.007 C 
ATOM      9  C   UNL d   1       3.045  -1.905  -0.164  0.00  0.00     0.009 C 
ENDBRANCH   7   8
ENDBRANCH   1   7
TORSDOF 2
ENDMDL
