MODEL 1
REMARK minimizedAffinity 0.121017478
REMARK minimizedRMSD -1
REMARK  2 active torsions:
REMARK  status: ('A' for Active; 'I' for Inactive)
REMARK    1  A    between atoms: C1_2  and  C2_3 
REMARK    2  A    between atoms: C2_3  and  C3_4 
ROOT
ATOM      1  C3  UNL d   1       4.113   1.107  -0.309  0.00  0.00    -0.075 A 
ATOM      2  C4  UNL d   1       4.403   2.100   0.638  0.00  0.00     0.002 A 
ATOM      3  C5  UNL d   1       5.337   3.097   0.356  0.00  0.00     0.002 A 
ATOM      4  C6  UNL d   1       6.000   3.108  -0.869  0.00  0.00    -0.004 A 
ATOM      5  C7  UNL d   1       5.732   2.117  -1.811  0.00  0.00     0.002 A 
ATOM      6  C8  UNL d   1       4.794   1.121  -1.533  0.00  0.00     0.002 A 
ENDROOT
BRANCH   1   7
ATOM      7  C2  UNL d   1       3.081   0.042  -0.022  0.00  0.00     0.056 C 
BRANCH   7   8
ATOM      8  C1  UNL d   1       2.929  -0.996  -1.138  0.00  0.00     0.007 C 
ATOM      9  C   UNL d   1       2.774  -2.419  -0.617  0.00  0.00     0.009 C 
ENDBRANCH   7   8
ENDBRANCH   1   7
TORSDOF 2
ENDMDL
