MODEL 1
REMARK minimizedAffinity 5.64368582
REMARK minimizedRMSD -1
REMARK  2 active torsions:
REMARK  status: ('A' for Active; 'I' for Inactive)
REMARK    1  A    between atoms: C1_2  and  C2_3 
REMARK    2  A    between atoms: C2_3  and  C3_4 
ROOT
ATOM      1  C3  UNL d   1      -3.242  -0.208  -1.556  0.00  0.00    -0.075 A 
ATOM      2  C4  UNL d   1      -4.604  -0.347  -1.254  0.00  0.00     0.002 A 
ATOM      3  C5  UNL d   1      -5.127   0.187  -0.076  0.00  0.00     0.002 A 
ATOM      4  C6  UNL d   1      -4.295   0.856   0.819  0.00  0.00    -0.004 A 
ATOM      5  C7  UNL d   1      -2.936   0.985   0.537  0.00  0.00     0.002 A 
ATOM      6  C8  UNL d   1      -2.412   0.456  -0.643  0.00  0.00     0.002 A 
ENDROOT
BRANCH   1   7
ATOM      7  C2  UNL d   1      -2.676  -0.757  -2.844  0.00  0.00     0.056 C 
BRANCH   7   8
ATOM      8  C1  UNL d   1      -2.533   0.286  -3.957  0.00  0.00     0.007 C 
ATOM      9  C   UNL d   1      -3.793   0.443  -4.798  0.00  0.00     0.009 C 
ENDBRANCH   7   8
ENDBRANCH   1   7
TORSDOF 2
ENDMDL
