MODEL 1
REMARK minimizedAffinity 0.0484455377
REMARK minimizedRMSD -1
REMARK  0 active torsions:
REMARK  status: ('A' for Active; 'I' for Inactive)
ROOT
ATOM      1  C1  DEN d   1      -4.088   4.872  -5.959  0.00  0.00     0.130 A 
ATOM      2  C2  DEN d   1      -5.068   5.954  -5.998  0.00  0.00    -0.031 A 
ATOM      3  C3  DEN d   1      -5.993   5.774  -4.861  0.00  0.00     0.027 A 
ATOM      4  C4  DEN d   1      -6.000   3.936  -3.051  0.00  0.00     0.027 A 
ATOM      5  C5  DEN d   1      -5.370   2.794  -2.609  0.00  0.00    -0.003 A 
ATOM      6  C6  DEN d   1      -4.299   2.250  -3.266  0.00  0.00     0.001 A 
ATOM      7  C7  DEN d   1      -3.796   2.873  -4.377  0.00  0.00     0.017 A 
ATOM      8  C8  DEN d   1      -4.430   4.021  -4.834  0.00  0.00    -0.094 A 
ATOM      9  C9  DEN d   1      -5.505   4.563  -4.148  0.00  0.00    -0.072 A 
ENDROOT
TORSDOF 0
ENDMDL
