MODEL 1
REMARK minimizedAffinity 22.038887
REMARK minimizedRMSD -1
REMARK  0 active torsions:
REMARK  status: ('A' for Active; 'I' for Inactive)
ROOT
ATOM      1  C1  DEN d   1       0.427   2.562   1.125  0.00  0.00     0.130 A 
ATOM      2  C2  DEN d   1       0.105   1.143   1.005  0.00  0.00    -0.031 A 
ATOM      3  C3  DEN d   1      -0.484   0.919  -0.330  0.00  0.00     0.027 A 
ATOM      4  C4  DEN d   1      -0.922   2.622  -2.217  0.00  0.00     0.027 A 
ATOM      5  C5  DEN d   1      -0.826   3.948  -2.577  0.00  0.00    -0.003 A 
ATOM      6  C6  DEN d   1      -0.341   4.903  -1.723  0.00  0.00     0.001 A 
ATOM      7  C7  DEN d   1       0.109   4.538  -0.481  0.00  0.00     0.017 A 
ATOM      8  C8  DEN d   1       0.008   3.204  -0.109  0.00  0.00    -0.094 A 
ATOM      9  C9  DEN d   1      -0.474   2.252  -0.991  0.00  0.00    -0.072 A 
ENDROOT
TORSDOF 0
ENDMDL
