MODEL 1
REMARK minimizedAffinity 4.64955807
REMARK minimizedRMSD -1
REMARK  0 active torsions:
REMARK  status: ('A' for Active; 'I' for Inactive)
ROOT
ATOM      1  C1  DEN d   1      -0.745   1.548  -3.729  0.00  0.00     0.130 A 
ATOM      2  C2  DEN d   1      -1.890   2.177  -3.076  0.00  0.00    -0.031 A 
ATOM      3  C3  DEN d   1      -1.984   1.642  -1.703  0.00  0.00     0.027 A 
ATOM      4  C4  DEN d   1      -0.473  -0.087  -0.529  0.00  0.00     0.027 A 
ATOM      5  C5  DEN d   1       0.620  -0.911  -0.683  0.00  0.00    -0.003 A 
ATOM      6  C6  DEN d   1       1.308  -0.998  -1.864  0.00  0.00     0.001 A 
ATOM      7  C7  DEN d   1       0.938  -0.214  -2.925  0.00  0.00     0.017 A 
ATOM      8  C8  DEN d   1      -0.168   0.614  -2.779  0.00  0.00    -0.094 A 
ATOM      9  C9  DEN d   1      -0.843   0.696  -1.573  0.00  0.00    -0.072 A 
ENDROOT
TORSDOF 0
ENDMDL
