MODEL 1
REMARK minimizedAffinity 8.09848595
REMARK minimizedRMSD -1
REMARK  0 active torsions:
REMARK  status: ('A' for Active; 'I' for Inactive)
ROOT
ATOM      1  C1  DEN d   1      -0.043   2.145  -2.467  0.00  0.00     0.130 A 
ATOM      2  C2  DEN d   1      -1.111   2.880  -1.794  0.00  0.00    -0.031 A 
ATOM      3  C3  DEN d   1      -2.377   2.590  -2.497  0.00  0.00     0.027 A 
ATOM      4  C4  DEN d   1      -2.786   1.080  -4.547  0.00  0.00     0.027 A 
ATOM      5  C5  DEN d   1      -2.184   0.256  -5.472  0.00  0.00    -0.003 A 
ATOM      6  C6  DEN d   1      -0.833   0.033  -5.482  0.00  0.00     0.001 A 
ATOM      7  C7  DEN d   1      -0.044   0.606  -4.519  0.00  0.00     0.017 A 
ATOM      8  C8  DEN d   1      -0.642   1.443  -3.587  0.00  0.00    -0.094 A 
ATOM      9  C9  DEN d   1      -2.012   1.646  -3.587  0.00  0.00    -0.072 A 
ENDROOT
TORSDOF 0
ENDMDL
