MODEL 1
REMARK minimizedAffinity 1.96905458
REMARK minimizedRMSD -1
REMARK  0 active torsions:
REMARK  status: ('A' for Active; 'I' for Inactive)
ROOT
ATOM      1  C1  DEN d   1      -0.475   5.997  -3.937  0.00  0.00     0.130 A 
ATOM      2  C2  DEN d   1      -1.927   5.851  -3.999  0.00  0.00    -0.031 A 
ATOM      3  C3  DEN d   1      -2.328   4.847  -2.993  0.00  0.00     0.027 A 
ATOM      4  C4  DEN d   1      -0.850   3.517  -1.350  0.00  0.00     0.027 A 
ATOM      5  C5  DEN d   1       0.443   3.292  -0.933  0.00  0.00    -0.003 A 
ATOM      6  C6  DEN d   1       1.515   3.922  -1.507  0.00  0.00     0.001 A 
ATOM      7  C7  DEN d   1       1.309   4.843  -2.500  0.00  0.00     0.017 A 
ATOM      8  C8  DEN d   1       0.009   5.070  -2.930  0.00  0.00    -0.094 A 
ATOM      9  C9  DEN d   1      -1.063   4.431  -2.329  0.00  0.00    -0.072 A 
ENDROOT
TORSDOF 0
ENDMDL
