MODEL 1
REMARK minimizedAffinity -2.10734439
REMARK minimizedRMSD -1
REMARK  0 active torsions:
REMARK  status: ('A' for Active; 'I' for Inactive)
ROOT
ATOM      1  C1  DEN d   1       1.275   2.895   0.299  0.00  0.00     0.130 A 
ATOM      2  C2  DEN d   1       0.239   3.550  -0.495  0.00  0.00    -0.031 A 
ATOM      3  C3  DEN d   1      -1.072   3.211   0.094  0.00  0.00     0.027 A 
ATOM      4  C4  DEN d   1      -1.595   1.747   2.152  0.00  0.00     0.027 A 
ATOM      5  C5  DEN d   1      -1.043   0.968   3.145  0.00  0.00    -0.003 A 
ATOM      6  C6  DEN d   1       0.306   0.750   3.238  0.00  0.00     0.001 A 
ATOM      7  C7  DEN d   1       1.154   1.356   2.348  0.00  0.00     0.017 A 
ATOM      8  C8  DEN d   1       0.604   2.137   1.340  0.00  0.00    -0.094 A 
ATOM      9  C9  DEN d   1      -0.761   2.354   1.270  0.00  0.00    -0.072 A 
ENDROOT
TORSDOF 0
ENDMDL
