MODEL 1
REMARK minimizedAffinity 8.39460754
REMARK minimizedRMSD -1
REMARK  0 active torsions:
REMARK  status: ('A' for Active; 'I' for Inactive)
ROOT
ATOM      1  C1  DEN d   1      -3.314   4.619  -1.227  0.00  0.00     0.130 A 
ATOM      2  C2  DEN d   1      -3.569   4.318  -2.633  0.00  0.00    -0.031 A 
ATOM      3  C3  DEN d   1      -2.335   3.748  -3.209  0.00  0.00     0.027 A 
ATOM      4  C4  DEN d   1      -0.068   3.298  -2.066  0.00  0.00     0.027 A 
ATOM      5  C5  DEN d   1       0.634   3.400  -0.885  0.00  0.00    -0.003 A 
ATOM      6  C6  DEN d   1       0.083   3.941   0.247  0.00  0.00     0.001 A 
ATOM      7  C7  DEN d   1      -1.220   4.361   0.234  0.00  0.00     0.017 A 
ATOM      8  C8  DEN d   1      -1.931   4.269  -0.956  0.00  0.00    -0.094 A 
ATOM      9  C9  DEN d   1      -1.361   3.707  -2.085  0.00  0.00    -0.072 A 
ENDROOT
TORSDOF 0
ENDMDL
