MODEL 1
REMARK minimizedAffinity 3.79007888
REMARK minimizedRMSD -1
REMARK  0 active torsions:
REMARK  status: ('A' for Active; 'I' for Inactive)
ROOT
ATOM      1  C1  DEN d   1       1.366  -5.998  -1.922  0.00  0.00     0.130 A 
ATOM      2  C2  DEN d   1      -0.076  -6.000  -2.154  0.00  0.00    -0.031 A 
ATOM      3  C3  DEN d   1      -0.749  -5.849  -0.849  0.00  0.00     0.027 A 
ATOM      4  C4  DEN d   1       0.297  -5.608   1.497  0.00  0.00     0.027 A 
ATOM      5  C5  DEN d   1       1.481  -5.562   2.199  0.00  0.00    -0.003 A 
ATOM      6  C6  DEN d   1       2.699  -5.691   1.585  0.00  0.00     0.001 A 
ATOM      7  C7  DEN d   1       2.762  -5.827   0.224  0.00  0.00     0.017 A 
ATOM      8  C8  DEN d   1       1.572  -5.882  -0.490  0.00  0.00    -0.094 A 
ATOM      9  C9  DEN d   1       0.351  -5.737   0.147  0.00  0.00    -0.072 A 
ENDROOT
TORSDOF 0
ENDMDL
