MODEL 1
REMARK minimizedAffinity -2.60947466
REMARK minimizedRMSD -1
REMARK  0 active torsions:
REMARK  status: ('A' for Active; 'I' for Inactive)
ROOT
ATOM      1  C1  DEN d   1       1.680  -0.076   2.878  0.00  0.00     0.130 A 
ATOM      2  C2  DEN d   1       1.736  -1.153   1.894  0.00  0.00    -0.031 A 
ATOM      3  C3  DEN d   1       1.337  -0.598   0.585  0.00  0.00     0.027 A 
ATOM      4  C4  DEN d   1       0.647   1.815  -0.011  0.00  0.00     0.027 A 
ATOM      5  C5  DEN d   1       0.438   3.080   0.493  0.00  0.00    -0.003 A 
ATOM      6  C6  DEN d   1       0.594   3.371   1.822  0.00  0.00     0.001 A 
ATOM      7  C7  DEN d   1       1.014   2.395   2.686  0.00  0.00     0.017 A 
ATOM      8  C8  DEN d   1       1.220   1.115   2.187  0.00  0.00    -0.094 A 
ATOM      9  C9  DEN d   1       1.069   0.844   0.838  0.00  0.00    -0.072 A 
ENDROOT
TORSDOF 0
ENDMDL
