MODEL 1
REMARK minimizedAffinity -3.60734057
REMARK minimizedRMSD -1
REMARK  2 active torsions:
REMARK  status: ('A' for Active; 'I' for Inactive)
REMARK    1  A    between atoms: C1_2  and  C2_3 
REMARK    2  A    between atoms: C2_3  and  C3_4 
ROOT
ATOM      1  C3  UNL d   1      -1.793  -0.342   1.266  0.00  0.00    -0.075 A 
ATOM      2  C4  UNL d   1      -3.001  -0.704   0.652  0.00  0.00     0.002 A 
ATOM      3  C5  UNL d   1      -4.200  -0.104   1.039  0.00  0.00     0.002 A 
ATOM      4  C6  UNL d   1      -4.208   0.854   2.050  0.00  0.00    -0.004 A 
ATOM      5  C7  UNL d   1      -3.017   1.209   2.679  0.00  0.00     0.002 A 
ATOM      6  C8  UNL d   1      -1.815   0.614   2.290  0.00  0.00     0.002 A 
ENDROOT
BRANCH   1   7
ATOM      7  C2  UNL d   1      -0.488  -0.965   0.831  0.00  0.00     0.056 C 
BRANCH   7   8
ATOM      8  C1  UNL d   1      -0.648  -2.103  -0.183  0.00  0.00     0.007 C 
ATOM      9  C   UNL d   1      -0.294  -1.692  -1.606  0.00  0.00     0.009 C 
ENDBRANCH   7   8
ENDBRANCH   1   7
TORSDOF 2
ENDMDL
