MODEL 1
REMARK minimizedAffinity -4.50717688
REMARK minimizedRMSD -1
REMARK  2 active torsions:
REMARK  status: ('A' for Active; 'I' for Inactive)
REMARK    1  A    between atoms: C1_2  and  C2_3 
REMARK    2  A    between atoms: C2_3  and  C3_4 
ROOT
ATOM      1  C3  UNL d   1       1.100  -0.385   0.657  0.00  0.00    -0.075 A 
ATOM      2  C4  UNL d   1       1.750  -1.332  -0.148  0.00  0.00     0.002 A 
ATOM      3  C5  UNL d   1       1.013  -2.254  -0.891  0.00  0.00     0.002 A 
ATOM      4  C6  UNL d   1      -0.379  -2.249  -0.830  0.00  0.00    -0.004 A 
ATOM      5  C7  UNL d   1      -1.034  -1.324  -0.021  0.00  0.00     0.002 A 
ATOM      6  C8  UNL d   1      -0.299  -0.397   0.720  0.00  0.00     0.002 A 
ENDROOT
BRANCH   1   7
ATOM      7  C2  UNL d   1       1.892   0.635   1.441  0.00  0.00     0.056 C 
BRANCH   7   8
ATOM      8  C1  UNL d   1       1.592   2.087   1.054  0.00  0.00     0.007 C 
ATOM      9  C   UNL d   1       2.567   3.085   1.666  0.00  0.00     0.009 C 
ENDBRANCH   7   8
ENDBRANCH   1   7
TORSDOF 2
ENDMDL
