MODEL 1
REMARK minimizedAffinity -1.14651763
REMARK minimizedRMSD -1
REMARK  2 active torsions:
REMARK  status: ('A' for Active; 'I' for Inactive)
REMARK    1  A    between atoms: C1_2  and  C2_3 
REMARK    2  A    between atoms: C2_3  and  C3_4 
ROOT
ATOM      1  C3  UNL d   1      -2.498  -0.196   0.941  0.00  0.00    -0.075 A 
ATOM      2  C4  UNL d   1      -3.350   0.200  -0.100  0.00  0.00     0.002 A 
ATOM      3  C5  UNL d   1      -4.458   1.008   0.159  0.00  0.00     0.002 A 
ATOM      4  C6  UNL d   1      -4.732   1.422   1.461  0.00  0.00    -0.004 A 
ATOM      5  C7  UNL d   1      -3.902   1.021   2.505  0.00  0.00     0.002 A 
ATOM      6  C8  UNL d   1      -2.791   0.216   2.248  0.00  0.00     0.002 A 
ENDROOT
BRANCH   1   7
ATOM      7  C2  UNL d   1      -1.282  -1.046   0.663  0.00  0.00     0.056 C 
BRANCH   7   8
ATOM      8  C1  UNL d   1      -0.887  -1.105  -0.817  0.00  0.00     0.007 C 
ATOM      9  C   UNL d   1       0.195  -2.137  -1.109  0.00  0.00     0.009 C 
ENDBRANCH   7   8
ENDBRANCH   1   7
TORSDOF 2
ENDMDL
