MODEL 1
REMARK minimizedAffinity -4.71469021
REMARK minimizedRMSD -1
REMARK  2 active torsions:
REMARK  status: ('A' for Active; 'I' for Inactive)
REMARK    1  A    between atoms: C1_2  and  C2_3 
REMARK    2  A    between atoms: C2_3  and  C3_4 
ROOT
ATOM      1  C3  UNL d   1      -0.885  -0.309   0.911  0.00  0.00    -0.075 A 
ATOM      2  C4  UNL d   1      -2.034   0.421   0.574  0.00  0.00     0.002 A 
ATOM      3  C5  UNL d   1      -2.816   1.010   1.568  0.00  0.00     0.002 A 
ATOM      4  C6  UNL d   1      -2.467   0.869   2.909  0.00  0.00    -0.004 A 
ATOM      5  C7  UNL d   1      -1.336   0.132   3.257  0.00  0.00     0.002 A 
ATOM      6  C8  UNL d   1      -0.549  -0.455   2.264  0.00  0.00     0.002 A 
ENDROOT
BRANCH   1   7
ATOM      7  C2  UNL d   1      -0.018  -0.923  -0.161  0.00  0.00     0.056 C 
BRANCH   7   8
ATOM      8  C1  UNL d   1      -0.688  -2.073  -0.922  0.00  0.00     0.007 C 
ATOM      9  C   UNL d   1      -0.279  -2.141  -2.387  0.00  0.00     0.009 C 
ENDBRANCH   7   8
ENDBRANCH   1   7
TORSDOF 2
ENDMDL
