MODEL 1
REMARK minimizedAffinity 1.21107399
REMARK minimizedRMSD -1
REMARK  2 active torsions:
REMARK  status: ('A' for Active; 'I' for Inactive)
REMARK    1  A    between atoms: C1_2  and  C2_3 
REMARK    2  A    between atoms: C2_3  and  C3_4 
ROOT
ATOM      1  C3  UNL d   1      -1.888  -0.616   1.909  0.00  0.00    -0.075 A 
ATOM      2  C4  UNL d   1      -2.824  -1.216   1.053  0.00  0.00     0.002 A 
ATOM      3  C5  UNL d   1      -2.450  -1.630  -0.226  0.00  0.00     0.002 A 
ATOM      4  C6  UNL d   1      -1.142  -1.442  -0.668  0.00  0.00    -0.004 A 
ATOM      5  C7  UNL d   1      -0.209  -0.832   0.168  0.00  0.00     0.002 A 
ATOM      6  C8  UNL d   1      -0.579  -0.421   1.449  0.00  0.00     0.002 A 
ENDROOT
BRANCH   1   7
ATOM      7  C2  UNL d   1      -2.279  -0.193   3.304  0.00  0.00     0.056 C 
BRANCH   7   8
ATOM      8  C1  UNL d   1      -3.325  -1.099   3.962  0.00  0.00     0.007 C 
ATOM      9  C   UNL d   1      -2.719  -2.314   4.651  0.00  0.00     0.009 C 
ENDBRANCH   7   8
ENDBRANCH   1   7
TORSDOF 2
ENDMDL
