MODEL 1
REMARK minimizedAffinity -5.16822433
REMARK minimizedRMSD -1
REMARK  2 active torsions:
REMARK  status: ('A' for Active; 'I' for Inactive)
REMARK    1  A    between atoms: C1_2  and  C2_3 
REMARK    2  A    between atoms: C2_3  and  C3_4 
ROOT
ATOM      1  C3  UNL d   1      -0.718  -0.173   1.124  0.00  0.00    -0.075 A 
ATOM      2  C4  UNL d   1      -1.995  -0.041   0.559  0.00  0.00     0.002 A 
ATOM      3  C5  UNL d   1      -3.071   0.390   1.334  0.00  0.00     0.002 A 
ATOM      4  C6  UNL d   1      -2.888   0.685   2.683  0.00  0.00    -0.004 A 
ATOM      5  C7  UNL d   1      -1.628   0.541   3.259  0.00  0.00     0.002 A 
ATOM      6  C8  UNL d   1      -0.548   0.114   2.485  0.00  0.00     0.002 A 
ENDROOT
BRANCH   1   7
ATOM      7  C2  UNL d   1       0.458  -0.611   0.283  0.00  0.00     0.056 C 
BRANCH   7   8
ATOM      8  C1  UNL d   1       0.140  -1.754  -0.686  0.00  0.00     0.007 C 
ATOM      9  C   UNL d   1       0.441  -1.410  -2.139  0.00  0.00     0.009 C 
ENDBRANCH   7   8
ENDBRANCH   1   7
TORSDOF 2
ENDMDL
