MODEL 1
REMARK minimizedAffinity -5.20309353
REMARK minimizedRMSD -1
REMARK  2 active torsions:
REMARK  status: ('A' for Active; 'I' for Inactive)
REMARK    1  A    between atoms: C1_2  and  C2_3 
REMARK    2  A    between atoms: C2_3  and  C3_4 
ROOT
ATOM      1  C3  UNL d   1      -0.687  -0.651   1.378  0.00  0.00    -0.075 A 
ATOM      2  C4  UNL d   1      -0.653  -1.114   0.054  0.00  0.00     0.002 A 
ATOM      3  C5  UNL d   1       0.479  -1.761  -0.442  0.00  0.00     0.002 A 
ATOM      4  C6  UNL d   1       1.593  -1.945   0.374  0.00  0.00    -0.004 A 
ATOM      5  C7  UNL d   1       1.577  -1.475   1.685  0.00  0.00     0.002 A 
ATOM      6  C8  UNL d   1       0.444  -0.831   2.185  0.00  0.00     0.002 A 
ENDROOT
BRANCH   1   7
ATOM      7  C2  UNL d   1      -1.920   0.024   1.929  0.00  0.00     0.056 C 
BRANCH   7   8
ATOM      8  C1  UNL d   1      -2.791   0.698   0.864  0.00  0.00     0.007 C 
ATOM      9  C   UNL d   1      -4.049  -0.092   0.529  0.00  0.00     0.009 C 
ENDBRANCH   7   8
ENDBRANCH   1   7
TORSDOF 2
ENDMDL
