MODEL 1
REMARK minimizedAffinity -1.39552402
REMARK minimizedRMSD -1
REMARK  2 active torsions:
REMARK  status: ('A' for Active; 'I' for Inactive)
REMARK    1  A    between atoms: C1_2  and  C2_3 
REMARK    2  A    between atoms: C2_3  and  C3_4 
ROOT
ATOM      1  C3  UNL d   1      -1.058  -1.024   0.810  0.00  0.00    -0.075 A 
ATOM      2  C4  UNL d   1      -1.759  -0.807  -0.384  0.00  0.00     0.002 A 
ATOM      3  C5  UNL d   1      -2.926  -0.042  -0.391  0.00  0.00     0.002 A 
ATOM      4  C6  UNL d   1      -3.411   0.506   0.795  0.00  0.00    -0.004 A 
ATOM      5  C7  UNL d   1      -2.731   0.282   1.990  0.00  0.00     0.002 A 
ATOM      6  C8  UNL d   1      -1.561  -0.479   1.999  0.00  0.00     0.002 A 
ENDROOT
BRANCH   1   7
ATOM      7  C2  UNL d   1       0.222  -1.827   0.820  0.00  0.00     0.056 C 
BRANCH   7   8
ATOM      8  C1  UNL d   1       1.129  -1.540   2.021  0.00  0.00     0.007 C 
ATOM      9  C   UNL d   1       2.602  -1.802   1.737  0.00  0.00     0.009 C 
ENDBRANCH   7   8
ENDBRANCH   1   7
TORSDOF 2
ENDMDL
