MODEL 1
REMARK minimizedAffinity 6.69899178
REMARK minimizedRMSD -1
REMARK  0 active torsions:
REMARK  status: ('A' for Active; 'I' for Inactive)
ROOT
ATOM      1  C2' OXE d   1       1.122   2.907   3.068  0.00  0.00     0.078 C 
ATOM      2  C1' OXE d   1      -1.475   3.565   3.905  0.00  0.00     0.078 C 
ATOM      3  C1  OXE d   1      -1.310   2.963   2.532  0.00  0.00    -0.078 A 
ATOM      4  C2  OXE d   1      -0.031   2.687   2.112  0.00  0.00    -0.078 A 
ATOM      5  C3  OXE d   1       0.174   2.079   0.877  0.00  0.00     0.003 A 
ATOM      6  C4  OXE d   1      -0.897   1.888  -0.005  0.00  0.00    -0.002 A 
ATOM      7  C5  OXE d   1      -2.204   2.199   0.387  0.00  0.00    -0.002 A 
ATOM      8  C6  OXE d   1      -2.432   2.696   1.665  0.00  0.00     0.003 A 
ENDROOT
TORSDOF 0
ENDMDL
