MODEL 1
REMARK minimizedAffinity -2.17930317
REMARK minimizedRMSD -1
REMARK  0 active torsions:
REMARK  status: ('A' for Active; 'I' for Inactive)
ROOT
ATOM      1  C2' OXE d   1       2.683   2.656   2.281  0.00  0.00     0.078 C 
ATOM      2  C1' OXE d   1       2.474   0.299   0.770  0.00  0.00     0.078 C 
ATOM      3  C1  OXE d   1       1.230   1.133   0.948  0.00  0.00    -0.078 A 
ATOM      4  C2  OXE d   1       1.331   2.260   1.727  0.00  0.00    -0.078 A 
ATOM      5  C3  OXE d   1       0.227   3.095   1.879  0.00  0.00     0.003 A 
ATOM      6  C4  OXE d   1      -1.022   2.717   1.373  0.00  0.00    -0.002 A 
ATOM      7  C5  OXE d   1      -1.156   1.552   0.609  0.00  0.00    -0.002 A 
ATOM      8  C6  OXE d   1      -0.033   0.773   0.352  0.00  0.00     0.003 A 
ENDROOT
TORSDOF 0
ENDMDL
