MODEL 1
REMARK minimizedAffinity 0.26486522
REMARK minimizedRMSD -1
REMARK  0 active torsions:
REMARK  status: ('A' for Active; 'I' for Inactive)
ROOT
ATOM      1  C2' OXE d   1       1.651   0.060   0.022  0.00  0.00     0.078 C 
ATOM      2  C1' OXE d   1      -0.818   1.307   0.500  0.00  0.00     0.078 C 
ATOM      3  C1  OXE d   1       0.409   1.911   1.135  0.00  0.00    -0.078 A 
ATOM      4  C2  OXE d   1       1.607   1.267   0.934  0.00  0.00    -0.078 A 
ATOM      5  C3  OXE d   1       2.778   1.812   1.452  0.00  0.00     0.003 A 
ATOM      6  C4  OXE d   1       2.727   2.923   2.303  0.00  0.00    -0.002 A 
ATOM      7  C5  OXE d   1       1.513   3.571   2.553  0.00  0.00    -0.002 A 
ATOM      8  C6  OXE d   1       0.353   3.104   1.944  0.00  0.00     0.003 A 
ENDROOT
TORSDOF 0
ENDMDL
