MODEL 1
REMARK minimizedAffinity -2.55180979
REMARK minimizedRMSD -1
REMARK  0 active torsions:
REMARK  status: ('A' for Active; 'I' for Inactive)
ROOT
ATOM      1  C2' OXE d   1      -1.825   3.259   3.696  0.00  0.00     0.078 C 
ATOM      2  C1' OXE d   1      -1.714   2.398   1.027  0.00  0.00     0.078 C 
ATOM      3  C1  OXE d   1      -0.413   2.532   1.777  0.00  0.00    -0.078 A 
ATOM      4  C2  OXE d   1      -0.472   2.998   3.068  0.00  0.00    -0.078 A 
ATOM      5  C3  OXE d   1       0.693   3.088   3.824  0.00  0.00     0.003 A 
ATOM      6  C4  OXE d   1       1.941   2.855   3.232  0.00  0.00    -0.002 A 
ATOM      7  C5  OXE d   1       2.027   2.417   1.906  0.00  0.00    -0.002 A 
ATOM      8  C6  OXE d   1       0.860   2.210   1.180  0.00  0.00     0.003 A 
ENDROOT
TORSDOF 0
ENDMDL
