MODEL 1
REMARK minimizedAffinity 1.66166592
REMARK minimizedRMSD -1
REMARK  0 active torsions:
REMARK  status: ('A' for Active; 'I' for Inactive)
ROOT
ATOM      1  C2' OXE d   1      -5.838   3.041  -5.986  0.00  0.00     0.078 C 
ATOM      2  C1' OXE d   1      -5.992   5.844  -5.970  0.00  0.00     0.078 C 
ATOM      3  C1  OXE d   1      -4.621   5.215  -5.970  0.00  0.00    -0.078 A 
ATOM      4  C2  OXE d   1      -4.555   3.843  -5.931  0.00  0.00    -0.078 A 
ATOM      5  C3  OXE d   1      -3.316   3.210  -5.986  0.00  0.00     0.003 A 
ATOM      6  C4  OXE d   1      -2.135   3.959  -5.925  0.00  0.00    -0.002 A 
ATOM      7  C5  OXE d   1      -2.180   5.357  -5.924  0.00  0.00    -0.002 A 
ATOM      8  C6  OXE d   1      -3.411   5.999  -5.989  0.00  0.00     0.003 A 
ENDROOT
TORSDOF 0
ENDMDL
