MODEL 1
REMARK minimizedAffinity 5.49249744
REMARK minimizedRMSD -1
REMARK  0 active torsions:
REMARK  status: ('A' for Active; 'I' for Inactive)
ROOT
ATOM      1  C2' OXE d   1       1.723   2.602   1.717  0.00  0.00     0.078 C 
ATOM      2  C1' OXE d   1       1.417   0.511  -0.130  0.00  0.00     0.078 C 
ATOM      3  C1  OXE d   1       0.173   1.224   0.338  0.00  0.00    -0.078 A 
ATOM      4  C2  OXE d   1       0.327   2.214   1.277  0.00  0.00    -0.078 A 
ATOM      5  C3  OXE d   1      -0.782   2.941   1.702  0.00  0.00     0.003 A 
ATOM      6  C4  OXE d   1      -2.069   2.569   1.298  0.00  0.00    -0.002 A 
ATOM      7  C5  OXE d   1      -2.253   1.537   0.372  0.00  0.00    -0.002 A 
ATOM      8  C6  OXE d   1      -1.141   0.883  -0.149  0.00  0.00     0.003 A 
ENDROOT
TORSDOF 0
ENDMDL
