MODEL 1
REMARK minimizedAffinity 4.24557209
REMARK minimizedRMSD -1
REMARK  0 active torsions:
REMARK  status: ('A' for Active; 'I' for Inactive)
ROOT
ATOM      1  C2' OXE d   1       2.872   1.289   0.631  0.00  0.00     0.078 C 
ATOM      2  C1' OXE d   1       1.872   2.753   2.808  0.00  0.00     0.078 C 
ATOM      3  C1  OXE d   1       3.322   2.943   2.438  0.00  0.00    -0.078 A 
ATOM      4  C2  OXE d   1       3.815   2.188   1.401  0.00  0.00    -0.078 A 
ATOM      5  C3  OXE d   1       5.131   2.364   0.984  0.00  0.00     0.003 A 
ATOM      6  C4  OXE d   1       5.999   3.190   1.708  0.00  0.00    -0.002 A 
ATOM      7  C5  OXE d   1       5.528   3.938   2.792  0.00  0.00    -0.002 A 
ATOM      8  C6  OXE d   1       4.185   3.859   3.143  0.00  0.00     0.003 A 
ENDROOT
TORSDOF 0
ENDMDL
