MODEL 1
REMARK minimizedAffinity 1.41936755
REMARK minimizedRMSD -1
REMARK  0 active torsions:
REMARK  status: ('A' for Active; 'I' for Inactive)
ROOT
ATOM      1  C2' OXE d   1      -1.590   3.131  -5.960  0.00  0.00     0.078 C 
ATOM      2  C1' OXE d   1      -1.949   5.915  -5.992  0.00  0.00     0.078 C 
ATOM      3  C1  OXE d   1      -3.182   5.047  -5.962  0.00  0.00    -0.078 A 
ATOM      4  C2  OXE d   1      -2.998   3.685  -5.994  0.00  0.00    -0.078 A 
ATOM      5  C3  OXE d   1      -4.099   2.839  -5.913  0.00  0.00     0.003 A 
ATOM      6  C4  OXE d   1      -5.398   3.360  -5.954  0.00  0.00    -0.002 A 
ATOM      7  C5  OXE d   1      -5.609   4.743  -5.962  0.00  0.00    -0.002 A 
ATOM      8  C6  OXE d   1      -4.514   5.599  -5.923  0.00  0.00     0.003 A 
ENDROOT
TORSDOF 0
ENDMDL
