MODEL 1
REMARK minimizedAffinity 1.99616408
REMARK minimizedRMSD -1
REMARK  0 active torsions:
REMARK  status: ('A' for Active; 'I' for Inactive)
ROOT
ATOM      1  C2' OXE d   1      -0.736  -1.560   0.537  0.00  0.00     0.078 C 
ATOM      2  C1' OXE d   1       1.599  -0.056   0.128  0.00  0.00     0.078 C 
ATOM      3  C1  OXE d   1       0.312   0.694   0.365  0.00  0.00    -0.078 A 
ATOM      4  C2  OXE d   1      -0.834  -0.049   0.518  0.00  0.00    -0.078 A 
ATOM      5  C3  OXE d   1      -2.039   0.591   0.794  0.00  0.00     0.003 A 
ATOM      6  C4  OXE d   1      -2.122   1.988   0.765  0.00  0.00    -0.002 A 
ATOM      7  C5  OXE d   1      -0.974   2.764   0.571  0.00  0.00    -0.002 A 
ATOM      8  C6  OXE d   1       0.255   2.134   0.413  0.00  0.00     0.003 A 
ENDROOT
TORSDOF 0
ENDMDL
