MODEL 1
REMARK minimizedAffinity 8.11210442
REMARK minimizedRMSD -1
REMARK  0 active torsions:
REMARK  status: ('A' for Active; 'I' for Inactive)
ROOT
ATOM      1  C2' OXE d   1      -0.971  -1.628   0.145  0.00  0.00     0.078 C 
ATOM      2  C1' OXE d   1       0.942   0.424   0.043  0.00  0.00     0.078 C 
ATOM      3  C1  OXE d   1      -0.462   0.791   0.456  0.00  0.00    -0.078 A 
ATOM      4  C2  OXE d   1      -1.402  -0.211   0.459  0.00  0.00    -0.078 A 
ATOM      5  C3  OXE d   1      -2.699   0.062   0.884  0.00  0.00     0.003 A 
ATOM      6  C4  OXE d   1      -3.092   1.377   1.162  0.00  0.00    -0.002 A 
ATOM      7  C5  OXE d   1      -2.159   2.419   1.128  0.00  0.00    -0.002 A 
ATOM      8  C6  OXE d   1      -0.833   2.136   0.819  0.00  0.00     0.003 A 
ENDROOT
TORSDOF 0
ENDMDL
