MODEL 1
REMARK minimizedAffinity 6.91176844
REMARK minimizedRMSD -1
REMARK  0 active torsions:
REMARK  status: ('A' for Active; 'I' for Inactive)
ROOT
ATOM      1  C2' OXE d   1      -3.550  -5.010  -0.420  0.00  0.00     0.078 C 
ATOM      2  C1' OXE d   1      -0.783  -5.351  -0.745  0.00  0.00     0.078 C 
ATOM      3  C1  OXE d   1      -1.342  -3.959  -0.896  0.00  0.00    -0.078 A 
ATOM      4  C2  OXE d   1      -2.703  -3.808  -0.781  0.00  0.00    -0.078 A 
ATOM      5  C3  OXE d   1      -3.265  -2.537  -0.857  0.00  0.00     0.003 A 
ATOM      6  C4  OXE d   1      -2.477  -1.433  -1.201  0.00  0.00    -0.002 A 
ATOM      7  C5  OXE d   1      -1.094  -1.571  -1.362  0.00  0.00    -0.002 A 
ATOM      8  C6  OXE d   1      -0.506  -2.816  -1.171  0.00  0.00     0.003 A 
ENDROOT
TORSDOF 0
ENDMDL
