MODEL 1
REMARK minimizedAffinity 5.09777975
REMARK minimizedRMSD -1
REMARK  0 active torsions:
REMARK  status: ('A' for Active; 'I' for Inactive)
ROOT
ATOM      1  C2' OXE d   1      -1.529   3.619   3.175  0.00  0.00     0.078 C 
ATOM      2  C1' OXE d   1       0.685   4.167   1.537  0.00  0.00     0.078 C 
ATOM      3  C1  OXE d   1      -0.336   3.177   1.033  0.00  0.00    -0.078 A 
ATOM      4  C2  OXE d   1      -1.391   2.880   1.861  0.00  0.00    -0.078 A 
ATOM      5  C3  OXE d   1      -2.390   2.015   1.422  0.00  0.00     0.003 A 
ATOM      6  C4  OXE d   1      -2.250   1.328   0.210  0.00  0.00    -0.002 A 
ATOM      7  C5  OXE d   1      -1.162   1.587  -0.631  0.00  0.00    -0.002 A 
ATOM      8  C6  OXE d   1      -0.221   2.537  -0.254  0.00  0.00     0.003 A 
ENDROOT
TORSDOF 0
ENDMDL
