MODEL 1
REMARK minimizedAffinity 7.00987339
REMARK minimizedRMSD -1
REMARK  0 active torsions:
REMARK  status: ('A' for Active; 'I' for Inactive)
ROOT
ATOM      1  C2' OXE d   1      -1.739   3.279   3.585  0.00  0.00     0.078 C 
ATOM      2  C1' OXE d   1      -0.648   2.911   1.025  0.00  0.00     0.078 C 
ATOM      3  C1  OXE d   1       0.303   3.195   2.160  0.00  0.00    -0.078 A 
ATOM      4  C2  OXE d   1      -0.243   3.421   3.401  0.00  0.00    -0.078 A 
ATOM      5  C3  OXE d   1       0.592   3.633   4.493  0.00  0.00     0.003 A 
ATOM      6  C4  OXE d   1       1.974   3.772   4.313  0.00  0.00    -0.002 A 
ATOM      7  C5  OXE d   1       2.547   3.586   3.050  0.00  0.00    -0.002 A 
ATOM      8  C6  OXE d   1       1.731   3.256   1.974  0.00  0.00     0.003 A 
ENDROOT
TORSDOF 0
ENDMDL
