MODEL 1
REMARK minimizedAffinity 9.05901337
REMARK minimizedRMSD -1
REMARK  0 active torsions:
REMARK  status: ('A' for Active; 'I' for Inactive)
ROOT
ATOM      1  C2' OXE d   1      -0.797   0.218  -0.354  0.00  0.00     0.078 C 
ATOM      2  C1' OXE d   1       2.004   0.166  -0.525  0.00  0.00     0.078 C 
ATOM      3  C1  OXE d   1       1.376   1.161   0.418  0.00  0.00    -0.078 A 
ATOM      4  C2  OXE d   1       0.003   1.212   0.460  0.00  0.00    -0.078 A 
ATOM      5  C3  OXE d   1      -0.628   2.074   1.353  0.00  0.00     0.003 A 
ATOM      6  C4  OXE d   1       0.120   2.996   2.096  0.00  0.00    -0.002 A 
ATOM      7  C5  OXE d   1       1.517   2.989   2.037  0.00  0.00    -0.002 A 
ATOM      8  C6  OXE d   1       2.161   2.051   1.237  0.00  0.00     0.003 A 
ENDROOT
TORSDOF 0
ENDMDL
