MODEL 1
REMARK minimizedAffinity 0.699339092
REMARK minimizedRMSD -1
REMARK  0 active torsions:
REMARK  status: ('A' for Active; 'I' for Inactive)
ROOT
ATOM      1  C2' OXE d   1      -0.679   3.213   0.614  0.00  0.00     0.078 C 
ATOM      2  C1' OXE d   1       0.882   0.900   0.923  0.00  0.00     0.078 C 
ATOM      3  C1  OXE d   1      -0.616   0.735   0.858  0.00  0.00    -0.078 A 
ATOM      4  C2  OXE d   1      -1.374   1.876   0.754  0.00  0.00    -0.078 A 
ATOM      5  C3  OXE d   1      -2.757   1.776   0.635  0.00  0.00     0.003 A 
ATOM      6  C4  OXE d   1      -3.393   0.537   0.775  0.00  0.00    -0.002 A 
ATOM      7  C5  OXE d   1      -2.642  -0.634   0.922  0.00  0.00    -0.002 A 
ATOM      8  C6  OXE d   1      -1.254  -0.557   0.922  0.00  0.00     0.003 A 
ENDROOT
TORSDOF 0
ENDMDL
