MODEL 1
REMARK minimizedAffinity 5.95751476
REMARK minimizedRMSD -1
REMARK  0 active torsions:
REMARK  status: ('A' for Active; 'I' for Inactive)
ROOT
ATOM      1  C2' OXE d   1      -1.118  -3.709  -2.584  0.00  0.00     0.078 C 
ATOM      2  C1' OXE d   1      -1.847  -2.201  -0.331  0.00  0.00     0.078 C 
ATOM      3  C1  OXE d   1      -2.541  -3.523  -0.547  0.00  0.00    -0.078 A 
ATOM      4  C2  OXE d   1      -2.211  -4.232  -1.677  0.00  0.00    -0.078 A 
ATOM      5  C3  OXE d   1      -2.781  -5.483  -1.897  0.00  0.00     0.003 A 
ATOM      6  C4  OXE d   1      -3.798  -5.955  -1.059  0.00  0.00    -0.002 A 
ATOM      7  C5  OXE d   1      -4.177  -5.230   0.076  0.00  0.00    -0.002 A 
ATOM      8  C6  OXE d   1      -3.530  -4.035   0.369  0.00  0.00     0.003 A 
ENDROOT
TORSDOF 0
ENDMDL
