MODEL 1
REMARK minimizedAffinity 12.4191895
REMARK minimizedRMSD -1
REMARK  0 active torsions:
REMARK  status: ('A' for Active; 'I' for Inactive)
ROOT
ATOM      1  C2' OXE d   1       1.732   1.399   1.402  0.00  0.00     0.078 C 
ATOM      2  C1' OXE d   1       1.048  -1.310   1.128  0.00  0.00     0.078 C 
ATOM      3  C1  OXE d   1       1.616  -0.602  -0.077  0.00  0.00    -0.078 A 
ATOM      4  C2  OXE d   1       1.903   0.736   0.053  0.00  0.00    -0.078 A 
ATOM      5  C3  OXE d   1       2.480   1.424  -1.011  0.00  0.00     0.003 A 
ATOM      6  C4  OXE d   1       2.626   0.805  -2.259  0.00  0.00    -0.002 A 
ATOM      7  C5  OXE d   1       2.302  -0.546  -2.424  0.00  0.00    -0.002 A 
ATOM      8  C6  OXE d   1       1.836  -1.273  -1.334  0.00  0.00     0.003 A 
ENDROOT
TORSDOF 0
ENDMDL
