MODEL 1
REMARK minimizedAffinity 2.73062253
REMARK minimizedRMSD -1
REMARK  0 active torsions:
REMARK  status: ('A' for Active; 'I' for Inactive)
ROOT
ATOM      1  C2' OXE d   1       1.712   0.207   0.582  0.00  0.00     0.078 C 
ATOM      2  C1' OXE d   1       1.568   2.674   1.914  0.00  0.00     0.078 C 
ATOM      3  C1  OXE d   1       0.272   1.977   1.583  0.00  0.00    -0.078 A 
ATOM      4  C2  OXE d   1       0.350   0.793   0.890  0.00  0.00    -0.078 A 
ATOM      5  C3  OXE d   1      -0.812   0.081   0.608  0.00  0.00     0.003 A 
ATOM      6  C4  OXE d   1      -2.067   0.634   0.887  0.00  0.00    -0.002 A 
ATOM      7  C5  OXE d   1      -2.171   1.858   1.557  0.00  0.00    -0.002 A 
ATOM      8  C6  OXE d   1      -1.013   2.520   1.949  0.00  0.00     0.003 A 
ENDROOT
TORSDOF 0
ENDMDL
