MODEL 1
REMARK minimizedAffinity -4.27817869
REMARK minimizedRMSD -1
REMARK  0 active torsions:
REMARK  status: ('A' for Active; 'I' for Inactive)
ROOT
ATOM      1  N1  IND d   1      -2.943   2.312   1.227  0.00  0.00    -0.196 N 
ATOM      2  C2  IND d   1      -3.551   1.127   0.917  0.00  0.00     0.054 A 
ATOM      3  C3  IND d   1      -2.767   0.399   0.090  0.00  0.00    -0.031 A 
ATOM      4  C4  IND d   1      -0.406   0.913  -0.798  0.00  0.00     0.051 A 
ATOM      5  C5  IND d   1       0.548   1.891  -0.818  0.00  0.00    -0.031 A 
ATOM      6  C6  IND d   1       0.385   3.082  -0.141  0.00  0.00     0.015 A 
ATOM      7  C7  IND d   1      -0.738   3.336   0.593  0.00  0.00    -0.016 A 
ATOM      8  C8  IND d   1      -1.712   2.348   0.610  0.00  0.00    -0.047 A 
ATOM      9  C9  IND d   1      -1.571   1.155  -0.110  0.00  0.00    -0.096 A 
ATOM     10  HN1 IND d   1      -3.274   2.930   1.725  0.00  0.00     0.298 HD
ENDROOT
TORSDOF 0
ENDMDL
