MODEL 1
REMARK minimizedAffinity 0.530906558
REMARK minimizedRMSD -1
REMARK  0 active torsions:
REMARK  status: ('A' for Active; 'I' for Inactive)
ROOT
ATOM      1  N1  IND d   1       0.756   0.409  -0.481  0.00  0.00    -0.196 N 
ATOM      2  C2  IND d   1       0.041  -0.756  -0.462  0.00  0.00     0.054 A 
ATOM      3  C3  IND d   1      -1.035  -0.634   0.348  0.00  0.00    -0.031 A 
ATOM      4  C4  IND d   1      -1.870   1.417   1.661  0.00  0.00     0.051 A 
ATOM      5  C5  IND d   1      -1.530   2.700   1.985  0.00  0.00    -0.031 A 
ATOM      6  C6  IND d   1      -0.389   3.299   1.491  0.00  0.00     0.015 A 
ATOM      7  C7  IND d   1       0.452   2.637   0.642  0.00  0.00    -0.016 A 
ATOM      8  C8  IND d   1       0.114   1.331   0.317  0.00  0.00    -0.047 A 
ATOM      9  C9  IND d   1      -1.020   0.704   0.849  0.00  0.00    -0.096 A 
ATOM     10  HN1 IND d   1       1.484   0.544  -0.918  0.00  0.00     0.298 HD
ENDROOT
TORSDOF 0
ENDMDL
