MODEL 1
REMARK minimizedAffinity -0.454948127
REMARK minimizedRMSD -1
REMARK  0 active torsions:
REMARK  status: ('A' for Active; 'I' for Inactive)
ROOT
ATOM      1  N1  IND d   1       0.700  -0.481   0.539  0.00  0.00    -0.196 N 
ATOM      2  C2  IND d   1       1.902  -0.205  -0.050  0.00  0.00     0.054 A 
ATOM      3  C3  IND d   1       1.928   1.073  -0.492  0.00  0.00    -0.031 A 
ATOM      4  C4  IND d   1       0.147   2.918  -0.264  0.00  0.00     0.051 A 
ATOM      5  C5  IND d   1      -1.132   3.133   0.166  0.00  0.00    -0.031 A 
ATOM      6  C6  IND d   1      -1.881   2.135   0.757  0.00  0.00     0.015 A 
ATOM      7  C7  IND d   1      -1.371   0.882   0.951  0.00  0.00    -0.016 A 
ATOM      8  C8  IND d   1      -0.074   0.658   0.509  0.00  0.00    -0.047 A 
ATOM      9  C9  IND d   1       0.675   1.655  -0.130  0.00  0.00    -0.096 A 
ATOM     10  HN1 IND d   1       0.467  -1.238   0.872  0.00  0.00     0.298 HD
ENDROOT
TORSDOF 0
ENDMDL
