MODEL 1
REMARK minimizedAffinity -3.53246069
REMARK minimizedRMSD -1
REMARK  0 active torsions:
REMARK  status: ('A' for Active; 'I' for Inactive)
ROOT
ATOM      1  N1  IND d   1      -1.208   1.319   0.365  0.00  0.00    -0.196 N 
ATOM      2  C2  IND d   1      -0.754   2.606   0.430  0.00  0.00     0.054 A 
ATOM      3  C3  IND d   1       0.597   2.626   0.489  0.00  0.00    -0.031 A 
ATOM      4  C4  IND d   1       2.267   0.669   0.389  0.00  0.00     0.051 A 
ATOM      5  C5  IND d   1       2.327  -0.696   0.365  0.00  0.00    -0.031 A 
ATOM      6  C6  IND d   1       1.188  -1.475   0.338  0.00  0.00     0.015 A 
ATOM      7  C7  IND d   1      -0.058  -0.915   0.320  0.00  0.00    -0.016 A 
ATOM      8  C8  IND d   1      -0.122   0.471   0.351  0.00  0.00    -0.047 A 
ATOM      9  C9  IND d   1       1.029   1.266   0.423  0.00  0.00    -0.096 A 
ATOM     10  HN1 IND d   1      -2.033   1.079   0.338  0.00  0.00     0.298 HD
ENDROOT
TORSDOF 0
ENDMDL
