MODEL 1
REMARK minimizedAffinity -2.08433223
REMARK minimizedRMSD -1
REMARK  0 active torsions:
REMARK  status: ('A' for Active; 'I' for Inactive)
ROOT
ATOM      1  N1  IND d   1      -1.510   0.658   0.778  0.00  0.00    -0.196 N 
ATOM      2  C2  IND d   1      -1.327   2.005   0.923  0.00  0.00     0.054 A 
ATOM      3  C3  IND d   1      -0.067   2.348   0.574  0.00  0.00    -0.031 A 
ATOM      4  C4  IND d   1       1.830   0.878  -0.358  0.00  0.00     0.051 A 
ATOM      5  C5  IND d   1       2.150  -0.422  -0.632  0.00  0.00    -0.031 A 
ATOM      6  C6  IND d   1       1.247  -1.449  -0.449  0.00  0.00     0.015 A 
ATOM      7  C7  IND d   1      -0.019  -1.212   0.007  0.00  0.00    -0.016 A 
ATOM      8  C8  IND d   1      -0.345   0.107   0.293  0.00  0.00    -0.047 A 
ATOM      9  C9  IND d   1       0.581   1.148   0.149  0.00  0.00    -0.096 A 
ATOM     10  HN1 IND d   1      -2.232   0.228   0.961  0.00  0.00     0.298 HD
ENDROOT
TORSDOF 0
ENDMDL
