MODEL 1
REMARK minimizedAffinity -4.24231672
REMARK minimizedRMSD -1
REMARK  0 active torsions:
REMARK  status: ('A' for Active; 'I' for Inactive)
ROOT
ATOM      1  N1  IND d   1      -0.844  -0.530   0.791  0.00  0.00    -0.196 N 
ATOM      2  C2  IND d   1       0.058  -1.467   0.367  0.00  0.00     0.054 A 
ATOM      3  C3  IND d   1       1.085  -0.872  -0.279  0.00  0.00    -0.031 A 
ATOM      4  C4  IND d   1       1.543   1.632  -0.667  0.00  0.00     0.051 A 
ATOM      5  C5  IND d   1       0.987   2.868  -0.495  0.00  0.00    -0.031 A 
ATOM      6  C6  IND d   1      -0.232   3.038   0.129  0.00  0.00     0.015 A 
ATOM      7  C7  IND d   1      -0.937   1.975   0.617  0.00  0.00    -0.016 A 
ATOM      8  C8  IND d   1      -0.378   0.717   0.438  0.00  0.00    -0.047 A 
ATOM      9  C9  IND d   1       0.838   0.534  -0.232  0.00  0.00    -0.096 A 
ATOM     10  HN1 IND d   1      -1.578  -0.693   1.208  0.00  0.00     0.298 HD
ENDROOT
TORSDOF 0
ENDMDL
