MODEL 1
REMARK minimizedAffinity -2.07317972
REMARK minimizedRMSD -1
REMARK  0 active torsions:
REMARK  status: ('A' for Active; 'I' for Inactive)
ROOT
ATOM      1  N1  IND d   1      -2.697  -3.730  -0.985  0.00  0.00    -0.196 N 
ATOM      2  C2  IND d   1      -2.950  -5.012  -0.585  0.00  0.00     0.054 A 
ATOM      3  C3  IND d   1      -2.090  -5.869  -1.180  0.00  0.00    -0.031 A 
ATOM      4  C4  IND d   1      -0.122  -5.373  -2.765  0.00  0.00     0.051 A 
ATOM      5  C5  IND d   1       0.480  -4.354  -3.448  0.00  0.00    -0.031 A 
ATOM      6  C6  IND d   1       0.048  -3.048  -3.340  0.00  0.00     0.015 A 
ATOM      7  C7  IND d   1      -1.001  -2.710  -2.533  0.00  0.00    -0.016 A 
ATOM      8  C8  IND d   1      -1.620  -3.743  -1.844  0.00  0.00    -0.047 A 
ATOM      9  C9  IND d   1      -1.213  -5.076  -1.982  0.00  0.00    -0.096 A 
ATOM     10  HN1 IND d   1      -3.137  -3.032  -0.741  0.00  0.00     0.298 HD
ENDROOT
TORSDOF 0
ENDMDL
