MODEL 1
REMARK minimizedAffinity -3.55237341
REMARK minimizedRMSD -1
REMARK  0 active torsions:
REMARK  status: ('A' for Active; 'I' for Inactive)
ROOT
ATOM      1  N1  IND d   1       0.771  -0.673  -0.975  0.00  0.00    -0.196 N 
ATOM      2  C2  IND d   1       0.196  -1.811  -0.480  0.00  0.00     0.054 A 
ATOM      3  C3  IND d   1      -0.728  -1.502   0.457  0.00  0.00    -0.031 A 
ATOM      4  C4  IND d   1      -1.532   0.807   1.262  0.00  0.00     0.051 A 
ATOM      5  C5  IND d   1      -1.278   2.143   1.129  0.00  0.00    -0.031 A 
ATOM      6  C6  IND d   1      -0.309   2.618   0.268  0.00  0.00     0.015 A 
ATOM      7  C7  IND d   1       0.436   1.772  -0.503  0.00  0.00    -0.016 A 
ATOM      8  C8  IND d   1       0.185   0.414  -0.365  0.00  0.00    -0.047 A 
ATOM      9  C9  IND d   1      -0.767  -0.076   0.538  0.00  0.00    -0.096 A 
ATOM     10  HN1 IND d   1       1.394  -0.642  -1.567  0.00  0.00     0.298 HD
ENDROOT
TORSDOF 0
ENDMDL
