MODEL 1
REMARK minimizedAffinity 10.1279106
REMARK minimizedRMSD -1
REMARK  0 active torsions:
REMARK  status: ('A' for Active; 'I' for Inactive)
ROOT
ATOM      1  N1  IND d   1       5.026   4.594  -4.494  0.00  0.00    -0.196 N 
ATOM      2  C2  IND d   1       6.000   4.297  -5.405  0.00  0.00     0.054 A 
ATOM      3  C3  IND d   1       5.741   3.111  -6.000  0.00  0.00    -0.031 A 
ATOM      4  C4  IND d   1       3.725   1.538  -5.704  0.00  0.00     0.051 A 
ATOM      5  C5  IND d   1       2.594   1.366  -4.956  0.00  0.00    -0.031 A 
ATOM      6  C6  IND d   1       2.206   2.281  -3.999  0.00  0.00     0.015 A 
ATOM      7  C7  IND d   1       2.933   3.413  -3.760  0.00  0.00    -0.016 A 
ATOM      8  C8  IND d   1       4.086   3.588  -4.513  0.00  0.00    -0.047 A 
ATOM      9  C9  IND d   1       4.507   2.641  -5.456  0.00  0.00    -0.096 A 
ATOM     10  HN1 IND d   1       5.004   5.293  -3.993  0.00  0.00     0.298 HD
ENDROOT
TORSDOF 0
ENDMDL
