MODEL 1
REMARK minimizedAffinity -0.645718277
REMARK minimizedRMSD -1
REMARK  0 active torsions:
REMARK  status: ('A' for Active; 'I' for Inactive)
ROOT
ATOM      1  N1  IND d   1       3.293   4.701  -3.327  0.00  0.00    -0.196 N 
ATOM      2  C2  IND d   1       1.999   4.564  -3.748  0.00  0.00     0.054 A 
ATOM      3  C3  IND d   1       1.938   3.749  -4.824  0.00  0.00    -0.031 A 
ATOM      4  C4  IND d   1       3.824   2.448  -6.000  0.00  0.00     0.051 A 
ATOM      5  C5  IND d   1       5.180   2.282  -5.999  0.00  0.00    -0.031 A 
ATOM      6  C6  IND d   1       5.993   2.924  -5.087  0.00  0.00     0.015 A 
ATOM      7  C7  IND d   1       5.476   3.752  -4.131  0.00  0.00    -0.016 A 
ATOM      8  C8  IND d   1       4.100   3.928  -4.133  0.00  0.00    -0.047 A 
ATOM      9  C9  IND d   1       3.274   3.313  -5.082  0.00  0.00    -0.096 A 
ATOM     10  HN1 IND d   1       3.558   5.187  -2.669  0.00  0.00     0.298 HD
ENDROOT
TORSDOF 0
ENDMDL
