MODEL 1
REMARK minimizedAffinity -3.73384237
REMARK minimizedRMSD -1
REMARK  0 active torsions:
REMARK  status: ('A' for Active; 'I' for Inactive)
ROOT
ATOM      1  N1  IND d   1       0.490   0.046  -0.669  0.00  0.00    -0.196 N 
ATOM      2  C2  IND d   1      -0.278   0.506   0.364  0.00  0.00     0.054 A 
ATOM      3  C3  IND d   1      -1.190  -0.425   0.722  0.00  0.00    -0.031 A 
ATOM      4  C4  IND d   1      -1.535  -2.811  -0.183  0.00  0.00     0.051 A 
ATOM      5  C5  IND d   1      -1.099  -3.668  -1.154  0.00  0.00    -0.031 A 
ATOM      6  C6  IND d   1      -0.088  -3.325  -2.029  0.00  0.00     0.015 A 
ATOM      7  C7  IND d   1       0.534  -2.111  -1.957  0.00  0.00    -0.016 A 
ATOM      8  C8  IND d   1       0.089  -1.235  -0.977  0.00  0.00    -0.047 A 
ATOM      9  C9  IND d   1      -0.965  -1.561  -0.114  0.00  0.00    -0.096 A 
ATOM     10  HN1 IND d   1       1.119   0.484  -1.060  0.00  0.00     0.298 HD
ENDROOT
TORSDOF 0
ENDMDL
