MODEL 1
REMARK minimizedAffinity -3.45743799
REMARK minimizedRMSD -1
REMARK  0 active torsions:
REMARK  status: ('A' for Active; 'I' for Inactive)
ROOT
ATOM      1  N1  IND d   1      -1.000  -2.143  -2.449  0.00  0.00    -0.196 N 
ATOM      2  C2  IND d   1      -0.954  -3.508  -2.385  0.00  0.00     0.054 A 
ATOM      3  C3  IND d   1      -0.172  -3.904  -1.356  0.00  0.00    -0.031 A 
ATOM      4  C4  IND d   1       1.048  -2.486   0.412  0.00  0.00     0.051 A 
ATOM      5  C5  IND d   1       1.332  -1.191   0.746  0.00  0.00    -0.031 A 
ATOM      6  C6  IND d   1       0.840  -0.126   0.019  0.00  0.00     0.015 A 
ATOM      7  C7  IND d   1       0.034  -0.317  -1.068  0.00  0.00    -0.016 A 
ATOM      8  C8  IND d   1      -0.250  -1.630  -1.414  0.00  0.00    -0.047 A 
ATOM      9  C9  IND d   1       0.280  -2.716  -0.705  0.00  0.00    -0.096 A 
ATOM     10  HN1 IND d   1      -1.427  -1.683  -3.037  0.00  0.00     0.298 HD
ENDROOT
TORSDOF 0
ENDMDL
