MODEL 1
REMARK minimizedAffinity -3.21527624
REMARK minimizedRMSD -1
REMARK  0 active torsions:
REMARK  status: ('A' for Active; 'I' for Inactive)
ROOT
ATOM      1  N1  IND d   1       0.628   0.075   0.461  0.00  0.00    -0.196 N 
ATOM      2  C2  IND d   1       0.068  -1.132   0.145  0.00  0.00     0.054 A 
ATOM      3  C3  IND d   1      -1.281  -1.048   0.181  0.00  0.00    -0.031 A 
ATOM      4  C4  IND d   1      -2.782   0.993   0.638  0.00  0.00     0.051 A 
ATOM      5  C5  IND d   1      -2.729   2.306   1.012  0.00  0.00    -0.031 A 
ATOM      6  C6  IND d   1      -1.531   2.957   1.223  0.00  0.00     0.015 A 
ATOM      7  C7  IND d   1      -0.335   2.318   1.056  0.00  0.00    -0.016 A 
ATOM      8  C8  IND d   1      -0.384   0.983   0.684  0.00  0.00    -0.047 A 
ATOM      9  C9  IND d   1      -1.598   0.305   0.509  0.00  0.00    -0.096 A 
ATOM     10  HN1 IND d   1       1.470   0.238   0.513  0.00  0.00     0.298 HD
ENDROOT
TORSDOF 0
ENDMDL
