MODEL 1
REMARK minimizedAffinity -3.95385385
REMARK minimizedRMSD -1
REMARK  0 active torsions:
REMARK  status: ('A' for Active; 'I' for Inactive)
ROOT
ATOM      1  N1  IND d   1       1.163  -1.222  -0.013  0.00  0.00    -0.196 N 
ATOM      2  C2  IND d   1       0.186  -2.109  -0.372  0.00  0.00     0.054 A 
ATOM      3  C3  IND d   1      -0.992  -1.468  -0.541  0.00  0.00    -0.031 A 
ATOM      4  C4  IND d   1      -1.524   1.046  -0.383  0.00  0.00     0.051 A 
ATOM      5  C5  IND d   1      -0.963   2.247  -0.048  0.00  0.00    -0.031 A 
ATOM      6  C6  IND d   1       0.363   2.355   0.320  0.00  0.00     0.015 A 
ATOM      7  C7  IND d   1       1.183   1.263   0.357  0.00  0.00    -0.016 A 
ATOM      8  C8  IND d   1       0.615   0.041   0.024  0.00  0.00    -0.047 A 
ATOM      9  C9  IND d   1      -0.740  -0.081  -0.309  0.00  0.00    -0.096 A 
ATOM     10  HN1 IND d   1       1.981  -1.421   0.160  0.00  0.00     0.298 HD
ENDROOT
TORSDOF 0
ENDMDL
