MODEL 1
REMARK minimizedAffinity -0.211330354
REMARK minimizedRMSD -1
REMARK  0 active torsions:
REMARK  status: ('A' for Active; 'I' for Inactive)
ROOT
ATOM      1  N1  IND d   1       0.783  -1.114   0.603  0.00  0.00    -0.196 N 
ATOM      2  C2  IND d   1      -0.224  -0.191   0.630  0.00  0.00     0.054 A 
ATOM      3  C3  IND d   1      -1.130  -0.454  -0.338  0.00  0.00    -0.031 A 
ATOM      4  C4  IND d   1      -1.211  -2.406  -2.015  0.00  0.00     0.051 A 
ATOM      5  C5  IND d   1      -0.491  -3.483  -2.449  0.00  0.00    -0.031 A 
ATOM      6  C6  IND d   1       0.713  -3.835  -1.875  0.00  0.00     0.015 A 
ATOM      7  C7  IND d   1       1.239  -3.125  -0.833  0.00  0.00    -0.016 A 
ATOM      8  C8  IND d   1       0.515  -2.026  -0.394  0.00  0.00    -0.047 A 
ATOM      9  C9  IND d   1      -0.687  -1.639  -1.001  0.00  0.00    -0.096 A 
ATOM     10  HN1 IND d   1       1.470  -1.123   1.121  0.00  0.00     0.298 HD
ENDROOT
TORSDOF 0
ENDMDL
