MODEL 1
REMARK minimizedAffinity -2.05571222
REMARK minimizedRMSD -1
REMARK  0 active torsions:
REMARK  status: ('A' for Active; 'I' for Inactive)
ROOT
ATOM      1  C   UNL d   1      -2.487   0.375  -4.876  0.00  0.00    -0.002 A 
ATOM      2  C1  UNL d   1      -2.196  -0.843  -5.475  0.00  0.00     0.010 A 
ATOM      3  C2  UNL d   1      -0.888  -1.154  -5.853  0.00  0.00     0.041 A 
ATOM      4  C3  UNL d   1       0.132  -0.212  -5.616  0.00  0.00    -0.075 A 
ATOM      5  S   UNL d   1       1.807  -0.376  -5.994  0.00  0.00     0.015 SA
ATOM      6  C4  UNL d   1       2.175   1.166  -5.369  0.00  0.00     0.022 A 
ATOM      7  C5  UNL d   1       1.060   1.804  -4.880  0.00  0.00     0.026 A 
ATOM      8  C6  UNL d   1      -0.136   1.021  -5.014  0.00  0.00    -0.082 A 
ATOM      9  C7  UNL d   1      -1.472   1.307  -4.642  0.00  0.00     0.045 A 
ENDROOT
TORSDOF 0
ENDMDL
