MODEL 1
REMARK minimizedAffinity 5.17833424
REMARK minimizedRMSD -1
REMARK  0 active torsions:
REMARK  status: ('A' for Active; 'I' for Inactive)
ROOT
ATOM      1  C   UNL d   1      -0.045  -2.856  -4.946  0.00  0.00    -0.002 A 
ATOM      2  C1  UNL d   1      -1.141  -3.351  -5.638  0.00  0.00     0.010 A 
ATOM      3  C2  UNL d   1      -2.195  -2.509  -5.996  0.00  0.00     0.041 A 
ATOM      4  C3  UNL d   1      -2.128  -1.146  -5.645  0.00  0.00    -0.075 A 
ATOM      5  S   UNL d   1      -3.300   0.073  -5.979  0.00  0.00     0.015 SA
ATOM      6  C4  UNL d   1      -2.374   1.280  -5.213  0.00  0.00     0.022 A 
ATOM      7  C5  UNL d   1      -1.195   0.783  -4.708  0.00  0.00     0.026 A 
ATOM      8  C6  UNL d   1      -1.034  -0.623  -4.949  0.00  0.00    -0.082 A 
ATOM      9  C7  UNL d   1       0.019  -1.503  -4.600  0.00  0.00     0.045 A 
ENDROOT
TORSDOF 0
ENDMDL
