MODEL 1
REMARK minimizedAffinity 5.68443251
REMARK minimizedRMSD -1
REMARK  0 active torsions:
REMARK  status: ('A' for Active; 'I' for Inactive)
ROOT
ATOM      1  C   UNL d   1       1.029  -1.889   3.823  0.00  0.00    -0.002 A 
ATOM      2  C1  UNL d   1       0.839  -0.772   3.022  0.00  0.00     0.010 A 
ATOM      3  C2  UNL d   1      -0.434  -0.220   2.864  0.00  0.00     0.041 A 
ATOM      4  C3  UNL d   1      -1.523  -0.815   3.531  0.00  0.00    -0.075 A 
ATOM      5  S   UNL d   1      -3.171  -0.311   3.486  0.00  0.00     0.015 SA
ATOM      6  C4  UNL d   1      -3.661  -1.567   4.529  0.00  0.00     0.022 A 
ATOM      7  C5  UNL d   1      -2.606  -2.361   4.912  0.00  0.00     0.026 A 
ATOM      8  C6  UNL d   1      -1.356  -1.940   4.344  0.00  0.00    -0.082 A 
ATOM      9  C7  UNL d   1      -0.053  -2.477   4.484  0.00  0.00     0.045 A 
ENDROOT
TORSDOF 0
ENDMDL
