MODEL 1
REMARK minimizedAffinity 9.73830318
REMARK minimizedRMSD -1
REMARK  0 active torsions:
REMARK  status: ('A' for Active; 'I' for Inactive)
ROOT
ATOM      1  C   UNL d   1      -5.096  -0.123  -5.298  0.00  0.00    -0.002 A 
ATOM      2  C1  UNL d   1      -4.869  -0.842  -4.133  0.00  0.00     0.010 A 
ATOM      3  C2  UNL d   1      -3.576  -0.979  -3.624  0.00  0.00     0.041 A 
ATOM      4  C3  UNL d   1      -2.505  -0.375  -4.312  0.00  0.00    -0.075 A 
ATOM      5  S   UNL d   1      -0.838  -0.409  -3.875  0.00  0.00     0.015 SA
ATOM      6  C4  UNL d   1      -0.388   0.530  -5.224  0.00  0.00     0.022 A 
ATOM      7  C5  UNL d   1      -1.471   0.870  -6.000  0.00  0.00     0.026 A 
ATOM      8  C6  UNL d   1      -2.709   0.354  -5.487  0.00  0.00    -0.082 A 
ATOM      9  C7  UNL d   1      -4.031   0.475  -5.978  0.00  0.00     0.045 A 
ENDROOT
TORSDOF 0
ENDMDL
