MODEL 1
REMARK minimizedAffinity 6.68415785
REMARK minimizedRMSD -1
REMARK  0 active torsions:
REMARK  status: ('A' for Active; 'I' for Inactive)
ROOT
ATOM      1  C   UNL d   1      -4.367   1.298   0.776  0.00  0.00    -0.002 A 
ATOM      2  C1  UNL d   1      -4.607   0.329  -0.188  0.00  0.00     0.010 A 
ATOM      3  C2  UNL d   1      -3.712  -0.727  -0.372  0.00  0.00     0.041 A 
ATOM      4  C3  UNL d   1      -2.561  -0.794   0.439  0.00  0.00    -0.075 A 
ATOM      5  S   UNL d   1      -1.326  -1.996   0.393  0.00  0.00     0.015 SA
ATOM      6  C4  UNL d   1      -0.451  -1.252   1.652  0.00  0.00     0.022 A 
ATOM      7  C5  UNL d   1      -1.072  -0.113   2.108  0.00  0.00     0.026 A 
ATOM      8  C6  UNL d   1      -2.298   0.170   1.417  0.00  0.00    -0.082 A 
ATOM      9  C7  UNL d   1      -3.225   1.228   1.578  0.00  0.00     0.045 A 
ENDROOT
TORSDOF 0
ENDMDL
