MODEL 1
REMARK minimizedAffinity -3.7655499
REMARK minimizedRMSD -1
REMARK  2 active torsions:
REMARK  status: ('A' for Active; 'I' for Inactive)
REMARK    1  A    between atoms: C1_2  and  C2_3 
REMARK    2  A    between atoms: C2_3  and  C3_4 
ROOT
ATOM      1  C3  UNL d   1      -0.660   0.338  -0.616  0.00  0.00    -0.075 A 
ATOM      2  C4  UNL d   1      -1.466  -0.678  -0.082  0.00  0.00     0.002 A 
ATOM      3  C5  UNL d   1      -1.442  -0.955   1.286  0.00  0.00     0.002 A 
ATOM      4  C6  UNL d   1      -0.608  -0.229   2.132  0.00  0.00    -0.004 A 
ATOM      5  C7  UNL d   1       0.209   0.771   1.610  0.00  0.00     0.002 A 
ATOM      6  C8  UNL d   1       0.185   1.054   0.243  0.00  0.00     0.002 A 
ENDROOT
BRANCH   1   7
ATOM      7  C2  UNL d   1      -0.703   0.663  -2.090  0.00  0.00     0.056 C 
BRANCH   7   8
ATOM      8  C1  UNL d   1      -0.898   2.152  -2.395  0.00  0.00     0.007 C 
ATOM      9  C   UNL d   1       0.218   2.742  -3.247  0.00  0.00     0.009 C 
ENDBRANCH   7   8
ENDBRANCH   1   7
TORSDOF 2
ENDMDL
