MODEL 1
REMARK minimizedAffinity -6.0489378
REMARK minimizedRMSD -1
REMARK  2 active torsions:
REMARK  status: ('A' for Active; 'I' for Inactive)
REMARK    1  A    between atoms: C1_2  and  C2_3 
REMARK    2  A    between atoms: C2_3  and  C3_4 
ROOT
ATOM      1  C3  UNL d   1       0.592  -0.545  -0.007  0.00  0.00    -0.075 A 
ATOM      2  C4  UNL d   1       1.780  -1.229   0.289  0.00  0.00     0.002 A 
ATOM      3  C5  UNL d   1       2.111  -1.536   1.609  0.00  0.00     0.002 A 
ATOM      4  C6  UNL d   1       1.266  -1.154   2.649  0.00  0.00    -0.004 A 
ATOM      5  C7  UNL d   1       0.091  -0.460   2.368  0.00  0.00     0.002 A 
ATOM      6  C8  UNL d   1      -0.245  -0.156   1.047  0.00  0.00     0.002 A 
ENDROOT
BRANCH   1   7
ATOM      7  C2  UNL d   1       0.214  -0.236  -1.436  0.00  0.00     0.056 C 
BRANCH   7   8
ATOM      8  C1  UNL d   1      -1.174   0.394  -1.591  0.00  0.00     0.007 C 
ATOM      9  C   UNL d   1      -1.209   1.528  -2.607  0.00  0.00     0.009 C 
ENDBRANCH   7   8
ENDBRANCH   1   7
TORSDOF 2
ENDMDL
