MODEL 1
REMARK minimizedAffinity -5.21426439
REMARK minimizedRMSD -1
REMARK  2 active torsions:
REMARK  status: ('A' for Active; 'I' for Inactive)
REMARK    1  A    between atoms: C1_2  and  C2_3 
REMARK    2  A    between atoms: C2_3  and  C3_4 
ROOT
ATOM      1  C3  UNL d   1      -0.152   0.832  -1.124  0.00  0.00    -0.075 A 
ATOM      2  C4  UNL d   1       0.640   1.883  -1.610  0.00  0.00     0.002 A 
ATOM      3  C5  UNL d   1       0.124   2.788  -2.538  0.00  0.00     0.002 A 
ATOM      4  C6  UNL d   1      -1.184   2.648  -2.998  0.00  0.00    -0.004 A 
ATOM      5  C7  UNL d   1      -1.974   1.599  -2.534  0.00  0.00     0.002 A 
ATOM      6  C8  UNL d   1      -1.461   0.694  -1.602  0.00  0.00     0.002 A 
ENDROOT
BRANCH   1   7
ATOM      7  C2  UNL d   1       0.392  -0.133  -0.097  0.00  0.00     0.056 C 
BRANCH   7   8
ATOM      8  C1  UNL d   1      -0.358  -0.109   1.239  0.00  0.00     0.007 C 
ATOM      9  C   UNL d   1       0.566  -0.193   2.447  0.00  0.00     0.009 C 
ENDBRANCH   7   8
ENDBRANCH   1   7
TORSDOF 2
ENDMDL
