MODEL 1
REMARK minimizedAffinity -3.79800105
REMARK minimizedRMSD -1
REMARK  2 active torsions:
REMARK  status: ('A' for Active; 'I' for Inactive)
REMARK    1  A    between atoms: C1_2  and  C2_3 
REMARK    2  A    between atoms: C2_3  and  C3_4 
ROOT
ATOM      1  C3  UNL d   1      -0.842   1.013  -1.828  0.00  0.00    -0.075 A 
ATOM      2  C4  UNL d   1       0.290   1.820  -2.009  0.00  0.00     0.002 A 
ATOM      3  C5  UNL d   1       0.179   3.068  -2.624  0.00  0.00     0.002 A 
ATOM      4  C6  UNL d   1      -1.060   3.519  -3.073  0.00  0.00    -0.004 A 
ATOM      5  C7  UNL d   1      -2.188   2.718  -2.913  0.00  0.00     0.002 A 
ATOM      6  C8  UNL d   1      -2.081   1.471  -2.294  0.00  0.00     0.002 A 
ENDROOT
BRANCH   1   7
ATOM      7  C2  UNL d   1      -0.734  -0.326  -1.137  0.00  0.00     0.056 C 
BRANCH   7   8
ATOM      8  C1  UNL d   1      -0.972  -0.268   0.376  0.00  0.00     0.007 C 
ATOM      9  C   UNL d   1       0.312  -0.357   1.189  0.00  0.00     0.009 C 
ENDBRANCH   7   8
ENDBRANCH   1   7
TORSDOF 2
ENDMDL
