MODEL 1
REMARK minimizedAffinity -2.98209238
REMARK minimizedRMSD -1
REMARK  1 active torsions:
REMARK  status: ('A' for Active; 'I' for Inactive)
REMARK    1  A    between atoms: N_2  and  C1_3 
ROOT
ATOM      1  C1  UNL d   1       0.168   0.465   0.343  0.00  0.00     0.143 A 
ATOM      2  C2  UNL d   1       1.202   0.660   1.265  0.00  0.00    -0.057 A 
ATOM      3  C3  UNL d   1       2.197  -0.307   1.455  0.00  0.00     0.033 A 
ATOM      4  C4  UNL d   1       2.159  -1.502   0.744  0.00  0.00    -0.042 A 
ATOM      5  C5  UNL d   1       1.126  -1.728  -0.159  0.00  0.00     0.033 A 
ATOM      6  C6  UNL d   1       0.139  -0.756  -0.349  0.00  0.00    -0.057 A 
ENDROOT
BRANCH   1   7
ATOM      7  N   UNL d   1      -0.904   1.345   0.180  0.00  0.00    -0.732 N 
ATOM      8  C   UNL d   1      -2.239   0.965   0.590  0.00  0.00     0.284 C 
ATOM      9  H3  UNL d   1      -0.657   2.305   0.409  0.00  0.00     0.395 HD
ENDBRANCH   1   7
TORSDOF 1
ENDMDL
