MODEL 1
REMARK minimizedAffinity -3.49206758
REMARK minimizedRMSD -1
REMARK  1 active torsions:
REMARK  status: ('A' for Active; 'I' for Inactive)
REMARK    1  A    between atoms: N_2  and  C1_3 
ROOT
ATOM      1  C1  UNL d   1      -0.103  -0.252   0.223  0.00  0.00     0.143 A 
ATOM      2  C2  UNL d   1       0.275  -1.320  -0.598  0.00  0.00    -0.057 A 
ATOM      3  C3  UNL d   1       1.504  -1.968  -0.427  0.00  0.00     0.033 A 
ATOM      4  C4  UNL d   1       2.392  -1.539   0.554  0.00  0.00    -0.042 A 
ATOM      5  C5  UNL d   1       2.049  -0.464   1.365  0.00  0.00     0.033 A 
ATOM      6  C6  UNL d   1       0.817   0.175   1.194  0.00  0.00    -0.057 A 
ENDROOT
BRANCH   1   7
ATOM      7  N   UNL d   1      -1.268   0.496   0.039  0.00  0.00    -0.732 N 
ATOM      8  C   UNL d   1      -2.227   0.644   1.113  0.00  0.00     0.284 C 
ATOM      9  H3  UNL d   1      -1.102   1.349  -0.490  0.00  0.00     0.395 HD
ENDBRANCH   1   7
TORSDOF 1
ENDMDL
