MODEL 1
REMARK minimizedAffinity -4.68266439
REMARK minimizedRMSD -1
REMARK  1 active torsions:
REMARK  status: ('A' for Active; 'I' for Inactive)
REMARK    1  A    between atoms: N_2  and  C1_3 
ROOT
ATOM      1  C1  UNL d   1      -0.069   0.529  -0.071  0.00  0.00     0.143 A 
ATOM      2  C2  UNL d   1       0.432  -0.776  -0.026  0.00  0.00    -0.057 A 
ATOM      3  C3  UNL d   1       1.767  -1.030   0.313  0.00  0.00     0.033 A 
ATOM      4  C4  UNL d   1       2.634   0.023   0.585  0.00  0.00    -0.042 A 
ATOM      5  C5  UNL d   1       2.164   1.330   0.522  0.00  0.00     0.033 A 
ATOM      6  C6  UNL d   1       0.829   1.577   0.189  0.00  0.00    -0.057 A 
ENDROOT
BRANCH   1   7
ATOM      7  N   UNL d   1      -1.360   0.853  -0.497  0.00  0.00    -0.732 N 
ATOM      8  C   UNL d   1      -2.414   1.096   0.464  0.00  0.00     0.284 C 
ATOM      9  H3  UNL d   1      -1.359   1.497  -1.285  0.00  0.00     0.395 HD
ENDBRANCH   1   7
TORSDOF 1
ENDMDL
