MODEL 1
REMARK minimizedAffinity -4.01955509
REMARK minimizedRMSD -1
REMARK  1 active torsions:
REMARK  status: ('A' for Active; 'I' for Inactive)
REMARK    1  A    between atoms: N_2  and  C1_3 
ROOT
ATOM      1  C1  UNL d   1      -0.076  -0.078  -0.489  0.00  0.00     0.143 A 
ATOM      2  C2  UNL d   1       1.072   0.352   0.186  0.00  0.00    -0.057 A 
ATOM      3  C3  UNL d   1       2.200  -0.470   0.295  0.00  0.00     0.033 A 
ATOM      4  C4  UNL d   1       2.190  -1.751  -0.247  0.00  0.00    -0.042 A 
ATOM      5  C5  UNL d   1       1.051  -2.208  -0.900  0.00  0.00     0.033 A 
ATOM      6  C6  UNL d   1      -0.070  -1.380  -1.012  0.00  0.00    -0.057 A 
ENDROOT
BRANCH   1   7
ATOM      7  N   UNL d   1      -1.264   0.654  -0.546  0.00  0.00    -0.732 N 
ATOM      8  C   UNL d   1      -2.097   0.800   0.628  0.00  0.00     0.284 C 
ATOM      9  H3  UNL d   1      -1.171   1.504  -1.098  0.00  0.00     0.395 HD
ENDBRANCH   1   7
TORSDOF 1
ENDMDL
