MODEL 1
REMARK minimizedAffinity -6.23634958
REMARK minimizedRMSD -1
REMARK  2 active torsions:
REMARK  status: ('A' for Active; 'I' for Inactive)
REMARK    1  A    between atoms: C2'_3  and  C1'_4 
REMARK    2  A    between atoms: C1'_4  and  C1_5 
ROOT
ATOM      1  C1  I4B d   1       0.280  -0.279  -0.251  0.00  0.00    -0.075 A 
ATOM      2  C2  I4B d   1      -0.280  -0.470   0.987  0.00  0.00     0.003 A 
ATOM      3  C3  I4B d   1      -0.651  -1.770   1.410  0.00  0.00     0.002 A 
ATOM      4  C4  I4B d   1      -0.492  -2.836   0.548  0.00  0.00    -0.004 A 
ATOM      5  C5  I4B d   1       0.097  -2.644  -0.699  0.00  0.00     0.002 A 
ATOM      6  C6  I4B d   1       0.497  -1.360  -1.096  0.00  0.00     0.003 A 
ENDROOT
BRANCH   1   7
ATOM      7  C1' I4B d   1       0.629   1.111  -0.678  0.00  0.00     0.060 C 
BRANCH   7   8
ATOM      8  C2' I4B d   1       1.531   1.712   0.381  0.00  0.00    -0.013 C 
ATOM      9  C4' I4B d   1       2.982   1.582  -0.000  0.00  0.00     0.013 C 
ATOM     10  C3' I4B d   1       1.143   3.150   0.558  0.00  0.00     0.013 C 
ENDBRANCH   7   8
ENDBRANCH   1   7
TORSDOF 2
ENDMDL
