MODEL 1
REMARK minimizedAffinity -2.78042293
REMARK minimizedRMSD -1
REMARK  2 active torsions:
REMARK  status: ('A' for Active; 'I' for Inactive)
REMARK    1  A    between atoms: C2'_3  and  C1'_4 
REMARK    2  A    between atoms: C1'_4  and  C1_5 
ROOT
ATOM      1  C1  I4B d   1      -0.060   0.379  -0.335  0.00  0.00    -0.075 A 
ATOM      2  C2  I4B d   1      -0.967   0.191   0.678  0.00  0.00     0.003 A 
ATOM      3  C3  I4B d   1      -1.303  -1.118   1.101  0.00  0.00     0.002 A 
ATOM      4  C4  I4B d   1      -0.748  -2.204   0.454  0.00  0.00    -0.004 A 
ATOM      5  C5  I4B d   1       0.189  -2.011  -0.557  0.00  0.00     0.002 A 
ATOM      6  C6  I4B d   1       0.545  -0.712  -0.946  0.00  0.00     0.003 A 
ENDROOT
BRANCH   1   7
ATOM      7  C1' I4B d   1       0.246   1.774  -0.779  0.00  0.00     0.060 C 
BRANCH   7   8
ATOM      8  C2' I4B d   1       0.868   2.510   0.390  0.00  0.00    -0.013 C 
ATOM      9  C4' I4B d   1       2.320   2.815   0.134  0.00  0.00     0.013 C 
ATOM     10  C3' I4B d   1       0.083   3.768   0.616  0.00  0.00     0.013 C 
ENDBRANCH   7   8
ENDBRANCH   1   7
TORSDOF 2
ENDMDL
