MODEL 1
REMARK minimizedAffinity -2.19034553
REMARK minimizedRMSD -1
REMARK  2 active torsions:
REMARK  status: ('A' for Active; 'I' for Inactive)
REMARK    1  A    between atoms: C2'_3  and  C1'_4 
REMARK    2  A    between atoms: C1'_4  and  C1_5 
ROOT
ATOM      1  C1  I4B d   1       0.060  -0.186  -0.274  0.00  0.00    -0.075 A 
ATOM      2  C2  I4B d   1      -0.836  -0.261   0.763  0.00  0.00     0.003 A 
ATOM      3  C3  I4B d   1      -1.202  -1.519   1.300  0.00  0.00     0.002 A 
ATOM      4  C4  I4B d   1      -0.690  -2.672   0.740  0.00  0.00    -0.004 A 
ATOM      5  C5  I4B d   1       0.235  -2.593  -0.297  0.00  0.00     0.002 A 
ATOM      6  C6  I4B d   1       0.623  -1.342  -0.799  0.00  0.00     0.003 A 
ENDROOT
BRANCH   1   7
ATOM      7  C1' I4B d   1       0.399   1.157  -0.839  0.00  0.00     0.060 C 
BRANCH   7   8
ATOM      8  C2' I4B d   1       1.279   1.875   0.163  0.00  0.00    -0.013 C 
ATOM      9  C4' I4B d   1       2.674   2.063  -0.372  0.00  0.00     0.013 C 
ATOM     10  C3' I4B d   1       0.639   3.194   0.481  0.00  0.00     0.013 C 
ENDBRANCH   7   8
ENDBRANCH   1   7
TORSDOF 2
ENDMDL
