MODEL 1
REMARK minimizedAffinity -6.55648851
REMARK minimizedRMSD -1
REMARK  2 active torsions:
REMARK  status: ('A' for Active; 'I' for Inactive)
REMARK    1  A    between atoms: C2'_3  and  C1'_4 
REMARK    2  A    between atoms: C1'_4  and  C1_5 
ROOT
ATOM      1  C1  I4B d   1       0.159   0.292   0.089  0.00  0.00    -0.075 A 
ATOM      2  C2  I4B d   1      -0.075   0.310   1.442  0.00  0.00     0.003 A 
ATOM      3  C3  I4B d   1      -0.327  -0.897   2.138  0.00  0.00     0.002 A 
ATOM      4  C4  I4B d   1      -0.385  -2.085   1.439  0.00  0.00    -0.004 A 
ATOM      5  C5  I4B d   1      -0.124  -2.105   0.071  0.00  0.00     0.002 A 
ATOM      6  C6  I4B d   1       0.161  -0.910  -0.606  0.00  0.00     0.003 A 
ENDROOT
BRANCH   1   7
ATOM      7  C1' I4B d   1       0.389   1.589  -0.620  0.00  0.00     0.060 C 
BRANCH   7   8
ATOM      8  C2' I4B d   1       0.996   2.561   0.370  0.00  0.00    -0.013 C 
ATOM      9  C4' I4B d   1       2.401   2.934  -0.023  0.00  0.00     0.013 C 
ATOM     10  C3' I4B d   1       0.113   3.771   0.432  0.00  0.00     0.013 C 
ENDBRANCH   7   8
ENDBRANCH   1   7
TORSDOF 2
ENDMDL
