MODEL 1
REMARK minimizedAffinity -1.46026599
REMARK minimizedRMSD -1
REMARK  2 active torsions:
REMARK  status: ('A' for Active; 'I' for Inactive)
REMARK    1  A    between atoms: C2'_3  and  C1'_4 
REMARK    2  A    between atoms: C1'_4  and  C1_5 
ROOT
ATOM      1  C1  I4B d   1       0.448  -0.239   0.127  0.00  0.00    -0.075 A 
ATOM      2  C2  I4B d   1       0.235  -1.358  -0.639  0.00  0.00     0.003 A 
ATOM      3  C3  I4B d   1      -0.704  -2.335  -0.228  0.00  0.00     0.002 A 
ATOM      4  C4  I4B d   1      -1.366  -2.178   0.972  0.00  0.00    -0.004 A 
ATOM      5  C5  I4B d   1      -1.166  -1.032   1.736  0.00  0.00     0.002 A 
ATOM      6  C6  I4B d   1      -0.262  -0.050   1.305  0.00  0.00     0.003 A 
ENDROOT
BRANCH   1   7
ATOM      7  C1' I4B d   1       1.471   0.756  -0.320  0.00  0.00     0.060 C 
BRANCH   7   8
ATOM      8  C2' I4B d   1       0.752   2.048  -0.652  0.00  0.00    -0.013 C 
ATOM      9  C4' I4B d   1       1.666   3.235  -0.502  0.00  0.00     0.013 C 
ATOM     10  C3' I4B d   1       0.230   1.941  -2.053  0.00  0.00     0.013 C 
ENDBRANCH   7   8
ENDBRANCH   1   7
TORSDOF 2
ENDMDL
