MODEL 1
REMARK minimizedAffinity -4.79980421
REMARK minimizedRMSD -1
REMARK  2 active torsions:
REMARK  status: ('A' for Active; 'I' for Inactive)
REMARK    1  A    between atoms: C2'_3  and  C1'_4 
REMARK    2  A    between atoms: C1'_4  and  C1_5 
ROOT
ATOM      1  C1  I4B d   1       0.249  -1.486  -0.219  0.00  0.00    -0.075 A 
ATOM      2  C2  I4B d   1       0.120  -2.701   0.406  0.00  0.00     0.003 A 
ATOM      3  C3  I4B d   1       0.290  -3.901  -0.326  0.00  0.00     0.002 A 
ATOM      4  C4  I4B d   1       0.535  -3.841  -1.682  0.00  0.00    -0.004 A 
ATOM      5  C5  I4B d   1       0.687  -2.608  -2.310  0.00  0.00     0.002 A 
ATOM      6  C6  I4B d   1       0.556  -1.423  -1.572  0.00  0.00     0.003 A 
ENDROOT
BRANCH   1   7
ATOM      7  C1' I4B d   1       0.031  -0.239   0.577  0.00  0.00     0.060 C 
BRANCH   7   8
ATOM      8  C2' I4B d   1      -1.463  -0.048   0.746  0.00  0.00    -0.013 C 
ATOM      9  C4' I4B d   1      -1.892  -0.326   2.163  0.00  0.00     0.013 C 
ATOM     10  C3' I4B d   1      -1.798   1.358   0.345  0.00  0.00     0.013 C 
ENDBRANCH   7   8
ENDBRANCH   1   7
TORSDOF 2
ENDMDL
