MODEL 1
REMARK minimizedAffinity -3.43144488
REMARK minimizedRMSD -1
REMARK  2 active torsions:
REMARK  status: ('A' for Active; 'I' for Inactive)
REMARK    1  A    between atoms: C2'_3  and  C1'_4 
REMARK    2  A    between atoms: C1'_4  and  C1_5 
ROOT
ATOM      1  C1  I4B d   1       0.336   1.440   0.010  0.00  0.00    -0.075 A 
ATOM      2  C2  I4B d   1       0.067   1.257  -1.324  0.00  0.00     0.003 A 
ATOM      3  C3  I4B d   1      -0.044  -0.050  -1.856  0.00  0.00     0.002 A 
ATOM      4  C4  I4B d   1       0.171  -1.139  -1.036  0.00  0.00    -0.004 A 
ATOM      5  C5  I4B d   1       0.422  -0.952   0.321  0.00  0.00     0.002 A 
ATOM      6  C6  I4B d   1       0.492   0.345   0.850  0.00  0.00     0.003 A 
ENDROOT
BRANCH   1   7
ATOM      7  C1' I4B d   1       0.478   2.834   0.532  0.00  0.00     0.060 C 
BRANCH   7   8
ATOM      8  C2' I4B d   1       1.886   2.990   1.070  0.00  0.00    -0.013 C 
ATOM      9  C4' I4B d   1       2.831   3.464  -0.002  0.00  0.00     0.013 C 
ATOM     10  C3' I4B d   1       1.839   3.955   2.217  0.00  0.00     0.013 C 
ENDBRANCH   7   8
ENDBRANCH   1   7
TORSDOF 2
ENDMDL
