MODEL 1
REMARK minimizedAffinity -3.88526559
REMARK minimizedRMSD -1
REMARK  2 active torsions:
REMARK  status: ('A' for Active; 'I' for Inactive)
REMARK    1  A    between atoms: C2'_3  and  C1'_4 
REMARK    2  A    between atoms: C1'_4  and  C1_5 
ROOT
ATOM      1  C1  I4B d   1       0.168   0.839  -0.060  0.00  0.00    -0.075 A 
ATOM      2  C2  I4B d   1       0.420   0.098  -1.188  0.00  0.00     0.003 A 
ATOM      3  C3  I4B d   1       0.163  -1.294  -1.198  0.00  0.00     0.002 A 
ATOM      4  C4  I4B d   1      -0.296  -1.909  -0.050  0.00  0.00    -0.004 A 
ATOM      5  C5  I4B d   1      -0.572  -1.152   1.084  0.00  0.00     0.002 A 
ATOM      6  C6  I4B d   1      -0.351   0.233   1.076  0.00  0.00     0.003 A 
ENDROOT
BRANCH   1   7
ATOM      7  C1' I4B d   1       0.483   2.301  -0.074  0.00  0.00     0.060 C 
BRANCH   7   8
ATOM      8  C2' I4B d   1       1.818   2.498   0.615  0.00  0.00    -0.013 C 
ATOM      9  C4' I4B d   1       2.829   3.106  -0.321  0.00  0.00     0.013 C 
ATOM     10  C3' I4B d   1       1.597   3.371   1.814  0.00  0.00     0.013 C 
ENDBRANCH   7   8
ENDBRANCH   1   7
TORSDOF 2
ENDMDL
