MODEL 1
REMARK minimizedAffinity -1.79910433
REMARK minimizedRMSD -1
REMARK  2 active torsions:
REMARK  status: ('A' for Active; 'I' for Inactive)
REMARK    1  A    between atoms: C2'_3  and  C1'_4 
REMARK    2  A    between atoms: C1'_4  and  C1_5 
ROOT
ATOM      1  C1  I4B d   1      -0.095  -0.788   0.200  0.00  0.00    -0.075 A 
ATOM      2  C2  I4B d   1       0.979  -1.573  -0.137  0.00  0.00     0.003 A 
ATOM      3  C3  I4B d   1       0.908  -2.979   0.010  0.00  0.00     0.002 A 
ATOM      4  C4  I4B d   1      -0.230  -3.551   0.541  0.00  0.00    -0.004 A 
ATOM      5  C5  I4B d   1      -1.327  -2.755   0.861  0.00  0.00     0.002 A 
ATOM      6  C6  I4B d   1      -1.264  -1.366   0.678  0.00  0.00     0.003 A 
ENDROOT
BRANCH   1   7
ATOM      7  C1' I4B d   1       0.026   0.697   0.063  0.00  0.00     0.060 C 
BRANCH   7   8
ATOM      8  C2' I4B d   1       0.909   1.199   1.188  0.00  0.00    -0.013 C 
ATOM      9  C4' I4B d   1       1.166   2.677   1.061  0.00  0.00     0.013 C 
ATOM     10  C3' I4B d   1       0.232   0.876   2.487  0.00  0.00     0.013 C 
ENDBRANCH   7   8
ENDBRANCH   1   7
TORSDOF 2
ENDMDL
