MODEL 1
REMARK minimizedAffinity -3.36044717
REMARK minimizedRMSD -1
REMARK  2 active torsions:
REMARK  status: ('A' for Active; 'I' for Inactive)
REMARK    1  A    between atoms: C2'_3  and  C1'_4 
REMARK    2  A    between atoms: C1'_4  and  C1_5 
ROOT
ATOM      1  C1  I4B d   1       0.216   0.105   0.072  0.00  0.00    -0.075 A 
ATOM      2  C2  I4B d   1      -0.598  -0.253   1.118  0.00  0.00     0.003 A 
ATOM      3  C3  I4B d   1      -0.778  -1.618   1.446  0.00  0.00     0.002 A 
ATOM      4  C4  I4B d   1      -0.170  -2.588   0.676  0.00  0.00    -0.004 A 
ATOM      5  C5  I4B d   1       0.673  -2.223  -0.370  0.00  0.00     0.002 A 
ATOM      6  C6  I4B d   1       0.877  -0.868  -0.667  0.00  0.00     0.003 A 
ENDROOT
BRANCH   1   7
ATOM      7  C1' I4B d   1       0.357   1.555  -0.268  0.00  0.00     0.060 C 
BRANCH   7   8
ATOM      8  C2' I4B d   1       1.202   2.206   0.808  0.00  0.00    -0.013 C 
ATOM      9  C4' I4B d   1       2.654   2.246   0.412  0.00  0.00     0.013 C 
ATOM     10  C3' I4B d   1       0.667   3.587   1.044  0.00  0.00     0.013 C 
ENDBRANCH   7   8
ENDBRANCH   1   7
TORSDOF 2
ENDMDL
