MODEL 1
REMARK minimizedAffinity -6.35014105
REMARK minimizedRMSD -1
REMARK  2 active torsions:
REMARK  status: ('A' for Active; 'I' for Inactive)
REMARK    1  A    between atoms: C2'_3  and  C1'_4 
REMARK    2  A    between atoms: C1'_4  and  C1_5 
ROOT
ATOM      1  C1  I4B d   1      -0.019  -0.197   0.265  0.00  0.00    -0.075 A 
ATOM      2  C2  I4B d   1      -0.710  -0.963   1.171  0.00  0.00     0.003 A 
ATOM      3  C3  I4B d   1      -0.755  -2.371   1.026  0.00  0.00     0.002 A 
ATOM      4  C4  I4B d   1      -0.142  -2.963  -0.059  0.00  0.00    -0.004 A 
ATOM      5  C5  I4B d   1       0.578  -2.187  -0.963  0.00  0.00     0.002 A 
ATOM      6  C6  I4B d   1       0.650  -0.797  -0.794  0.00  0.00     0.003 A 
ENDROOT
BRANCH   1   7
ATOM      7  C1' I4B d   1      -0.019   1.290   0.430  0.00  0.00     0.060 C 
BRANCH   7   8
ATOM      8  C2' I4B d   1       0.774   1.886  -0.715  0.00  0.00    -0.013 C 
ATOM      9  C4' I4B d   1      -0.071   2.017  -1.954  0.00  0.00     0.013 C 
ATOM     10  C3' I4B d   1       1.295   3.220  -0.271  0.00  0.00     0.013 C 
ENDBRANCH   7   8
ENDBRANCH   1   7
TORSDOF 2
ENDMDL
