MODEL 1
REMARK minimizedAffinity -4.94712591
REMARK minimizedRMSD -1
REMARK  2 active torsions:
REMARK  status: ('A' for Active; 'I' for Inactive)
REMARK    1  A    between atoms: C2'_3  and  C1'_4 
REMARK    2  A    between atoms: C1'_4  and  C1_5 
ROOT
ATOM      1  C1  I4B d   1       0.421   1.297  -0.071  0.00  0.00    -0.075 A 
ATOM      2  C2  I4B d   1       0.218   1.046  -1.405  0.00  0.00     0.003 A 
ATOM      3  C3  I4B d   1       0.175  -0.287  -1.881  0.00  0.00     0.002 A 
ATOM      4  C4  I4B d   1       0.389  -1.329  -1.002  0.00  0.00    -0.004 A 
ATOM      5  C5  I4B d   1       0.571  -1.073   0.354  0.00  0.00     0.002 A 
ATOM      6  C6  I4B d   1       0.575   0.247   0.825  0.00  0.00     0.003 A 
ENDROOT
BRANCH   1   7
ATOM      7  C1' I4B d   1       0.493   2.718   0.392  0.00  0.00     0.060 C 
BRANCH   7   8
ATOM      8  C2' I4B d   1       1.809   2.905   1.119  0.00  0.00    -0.013 C 
ATOM      9  C4' I4B d   1       2.953   3.043   0.150  0.00  0.00     0.013 C 
ATOM     10  C3' I4B d   1       1.687   4.120   1.990  0.00  0.00     0.013 C 
ENDBRANCH   7   8
ENDBRANCH   1   7
TORSDOF 2
ENDMDL
