MODEL 1
REMARK minimizedAffinity -4.90544367
REMARK minimizedRMSD -1
REMARK  2 active torsions:
REMARK  status: ('A' for Active; 'I' for Inactive)
REMARK    1  A    between atoms: C2'_3  and  C1'_4 
REMARK    2  A    between atoms: C1'_4  and  C1_5 
ROOT
ATOM      1  C1  I4B d   1       0.163  -0.016   0.197  0.00  0.00    -0.075 A 
ATOM      2  C2  I4B d   1       0.097  -0.037   1.567  0.00  0.00     0.003 A 
ATOM      3  C3  I4B d   1      -0.171  -1.248   2.250  0.00  0.00     0.002 A 
ATOM      4  C4  I4B d   1      -0.415  -2.397   1.525  0.00  0.00    -0.004 A 
ATOM      5  C5  I4B d   1      -0.325  -2.379   0.136  0.00  0.00     0.002 A 
ATOM      6  C6  I4B d   1      -0.022  -1.184  -0.532  0.00  0.00     0.003 A 
ENDROOT
BRANCH   1   7
ATOM      7  C1' I4B d   1       0.415   1.287  -0.493  0.00  0.00     0.060 C 
BRANCH   7   8
ATOM      8  C2' I4B d   1       1.042   2.233   0.511  0.00  0.00    -0.013 C 
ATOM      9  C4' I4B d   1       2.467   2.552   0.143  0.00  0.00     0.013 C 
ATOM     10  C3' I4B d   1       0.205   3.476   0.562  0.00  0.00     0.013 C 
ENDBRANCH   7   8
ENDBRANCH   1   7
TORSDOF 2
ENDMDL
