MODEL 1
REMARK minimizedAffinity 5.75978661
REMARK minimizedRMSD -1
REMARK  1 active torsions:
REMARK  status: ('A' for Active; 'I' for Inactive)
REMARK    1  A    between atoms: C3_4  and  O_7 
ROOT
ATOM      1  C   UNL d   1       0.265  -1.485  -0.923  0.00  0.00    -0.033 A 
ATOM      2  C1  UNL d   1      -0.792  -0.573  -0.929  0.00  0.00     0.039 A 
ATOM      3  C2  UNL d   1      -0.584   0.742  -0.506  0.00  0.00    -0.080 A 
ATOM      4  C3  UNL d   1       0.683   1.131  -0.082  0.00  0.00     0.150 A 
ATOM      5  C4  UNL d   1       1.742   0.228  -0.078  0.00  0.00    -0.007 A 
ATOM      6  C5  UNL d   1       1.532  -1.084  -0.499  0.00  0.00     0.039 A 
ENDROOT
BRANCH   4   7
ATOM      7  O   UNL d   1       0.933   2.402   0.344  0.00  0.00    -0.526 OA
ATOM      8  H5  UNL d   1       0.103   2.905   0.313  0.00  0.00     0.418 HD
ENDBRANCH   4   7
TORSDOF 1
ENDMDL
