MODEL 1
REMARK minimizedAffinity 4.55662489
REMARK minimizedRMSD -1
REMARK  1 active torsions:
REMARK  status: ('A' for Active; 'I' for Inactive)
REMARK    1  A    between atoms: C3_4  and  O_7 
ROOT
ATOM      1  C   UNL d   1      -0.128  -1.390   0.111  0.00  0.00    -0.033 A 
ATOM      2  C1  UNL d   1       1.026  -1.104  -0.620  0.00  0.00     0.039 A 
ATOM      3  C2  UNL d   1       1.504   0.206  -0.689  0.00  0.00    -0.080 A 
ATOM      4  C3  UNL d   1       0.820   1.219  -0.022  0.00  0.00     0.150 A 
ATOM      5  C4  UNL d   1      -0.329   0.940   0.711  0.00  0.00    -0.007 A 
ATOM      6  C5  UNL d   1      -0.805  -0.369   0.777  0.00  0.00     0.039 A 
ENDROOT
BRANCH   4   7
ATOM      7  O   UNL d   1       1.245   2.514  -0.064  0.00  0.00    -0.526 OA
ATOM      8  H5  UNL d   1       2.033   2.560  -0.631  0.00  0.00     0.418 HD
ENDBRANCH   4   7
TORSDOF 1
ENDMDL
