MODEL 1
REMARK minimizedAffinity -4.54826593
REMARK minimizedRMSD -1
REMARK  1 active torsions:
REMARK  status: ('A' for Active; 'I' for Inactive)
REMARK    1  A    between atoms: C3_4  and  O_7 
ROOT
ATOM      1  C   UNL d   1      -0.424   0.522  -0.515  0.00  0.00    -0.033 A 
ATOM      2  C1  UNL d   1      -0.649  -0.795  -0.920  0.00  0.00     0.039 A 
ATOM      3  C2  UNL d   1       0.309  -1.779  -0.668  0.00  0.00    -0.080 A 
ATOM      4  C3  UNL d   1       1.486  -1.433  -0.009  0.00  0.00     0.150 A 
ATOM      5  C4  UNL d   1       1.715  -0.123   0.401  0.00  0.00    -0.007 A 
ATOM      6  C5  UNL d   1       0.758   0.858   0.147  0.00  0.00     0.039 A 
ENDROOT
BRANCH   4   7
ATOM      7  O   UNL d   1       2.452  -2.357   0.256  0.00  0.00    -0.526 OA
ATOM      8  H5  UNL d   1       2.170  -3.212  -0.110  0.00  0.00     0.418 HD
ENDBRANCH   4   7
TORSDOF 1
ENDMDL
