MODEL 1
REMARK minimizedAffinity 3.64383078
REMARK minimizedRMSD -1
REMARK  1 active torsions:
REMARK  status: ('A' for Active; 'I' for Inactive)
REMARK    1  A    between atoms: C3_4  and  O_7 
ROOT
ATOM      1  C   UNL d   1      -0.980  -0.866  -1.109  0.00  0.00    -0.033 A 
ATOM      2  C1  UNL d   1      -0.963  -2.251  -1.287  0.00  0.00     0.039 A 
ATOM      3  C2  UNL d   1       0.194  -2.979  -0.999  0.00  0.00    -0.080 A 
ATOM      4  C3  UNL d   1       1.323  -2.311  -0.533  0.00  0.00     0.150 A 
ATOM      5  C4  UNL d   1       1.311  -0.932  -0.350  0.00  0.00    -0.007 A 
ATOM      6  C5  UNL d   1       0.156  -0.207  -0.639  0.00  0.00     0.039 A 
ENDROOT
BRANCH   4   7
ATOM      7  O   UNL d   1       2.476  -2.978  -0.244  0.00  0.00    -0.526 OA
ATOM      8  H5  UNL d   1       2.346  -3.920  -0.445  0.00  0.00     0.418 HD
ENDBRANCH   4   7
TORSDOF 1
ENDMDL
