MODEL 1
REMARK minimizedAffinity 3.64331532
REMARK minimizedRMSD -1
REMARK  1 active torsions:
REMARK  status: ('A' for Active; 'I' for Inactive)
REMARK    1  A    between atoms: C3_4  and  O_7 
ROOT
ATOM      1  C   UNL d   1       4.275  -0.404  -1.898  0.00  0.00    -0.033 A 
ATOM      2  C1  UNL d   1       3.406   0.334  -1.092  0.00  0.00     0.039 A 
ATOM      3  C2  UNL d   1       2.220  -0.241  -0.631  0.00  0.00    -0.080 A 
ATOM      4  C3  UNL d   1       1.916  -1.554  -0.982  0.00  0.00     0.150 A 
ATOM      5  C4  UNL d   1       2.779  -2.296  -1.782  0.00  0.00    -0.007 A 
ATOM      6  C5  UNL d   1       3.962  -1.719  -2.242  0.00  0.00     0.039 A 
ENDROOT
BRANCH   4   7
ATOM      7  O   UNL d   1       0.768  -2.157  -0.561  0.00  0.00    -0.526 OA
ATOM      8  H5  UNL d   1       0.256  -1.515  -0.041  0.00  0.00     0.418 HD
ENDBRANCH   4   7
TORSDOF 1
ENDMDL
