MODEL 1
REMARK minimizedAffinity 3.44403434
REMARK minimizedRMSD -1
REMARK  1 active torsions:
REMARK  status: ('A' for Active; 'I' for Inactive)
REMARK    1  A    between atoms: C3_4  and  O_7 
ROOT
ATOM      1  C   UNL d   1      -1.212  -5.476   5.999  0.00  0.00    -0.033 A 
ATOM      2  C1  UNL d   1       0.185  -5.463   5.999  0.00  0.00     0.039 A 
ATOM      3  C2  UNL d   1       0.873  -4.248   5.997  0.00  0.00    -0.080 A 
ATOM      4  C3  UNL d   1       0.154  -3.056   5.995  0.00  0.00     0.150 A 
ATOM      5  C4  UNL d   1      -1.237  -3.062   5.999  0.00  0.00    -0.007 A 
ATOM      6  C5  UNL d   1      -1.922  -4.276   6.000  0.00  0.00     0.039 A 
ENDROOT
BRANCH   4   7
ATOM      7  O   UNL d   1       0.782  -1.845   5.988  0.00  0.00    -0.526 OA
ATOM      8  H5  UNL d   1       1.741  -1.997   5.957  0.00  0.00     0.418 HD
ENDBRANCH   4   7
TORSDOF 1
ENDMDL
