MODEL 1
REMARK minimizedAffinity 7.94090223
REMARK minimizedRMSD -1
REMARK  1 active torsions:
REMARK  status: ('A' for Active; 'I' for Inactive)
REMARK    1  A    between atoms: C3_4  and  O_7 
ROOT
ATOM      1  C   UNL d   1       1.735   0.422   1.956  0.00  0.00    -0.033 A 
ATOM      2  C1  UNL d   1       1.748  -0.915   2.359  0.00  0.00     0.039 A 
ATOM      3  C2  UNL d   1       1.751  -1.934   1.404  0.00  0.00    -0.080 A 
ATOM      4  C3  UNL d   1       1.743  -1.603   0.052  0.00  0.00     0.150 A 
ATOM      5  C4  UNL d   1       1.735  -0.273  -0.357  0.00  0.00    -0.007 A 
ATOM      6  C5  UNL d   1       1.730   0.743   0.598  0.00  0.00     0.039 A 
ENDROOT
BRANCH   4   7
ATOM      7  O   UNL d   1       1.742  -2.563  -0.916  0.00  0.00    -0.526 OA
ATOM      8  H5  UNL d   1       1.719  -3.434  -0.486  0.00  0.00     0.418 HD
ENDBRANCH   4   7
TORSDOF 1
ENDMDL
