MODEL 1
REMARK minimizedAffinity -3.25448775
REMARK minimizedRMSD -1
REMARK  0 active torsions:
REMARK  status: ('A' for Active; 'I' for Inactive)
ROOT
ATOM      1  C   UNL d   1      -2.096  -5.185  -5.214  0.00  0.00     0.078 C 
ATOM      2  C1  UNL d   1      -3.461  -4.563  -5.218  0.00  0.00    -0.077 A 
ATOM      3  C2  UNL d   1      -4.494  -5.095  -5.999  0.00  0.00    -0.001 A 
ATOM      4  C3  UNL d   1      -5.757  -4.500  -6.000  0.00  0.00     0.003 A 
ATOM      5  C4  UNL d   1      -5.998  -3.370  -5.222  0.00  0.00    -0.005 A 
ATOM      6  C5  UNL d   1      -4.976  -2.832  -4.442  0.00  0.00     0.003 A 
ATOM      7  C6  UNL d   1      -3.713  -3.425  -4.441  0.00  0.00    -0.001 A 
ENDROOT
TORSDOF 0
ENDMDL
