MODEL 1
REMARK minimizedAffinity -2.13994002
REMARK minimizedRMSD -1
REMARK  0 active torsions:
REMARK  status: ('A' for Active; 'I' for Inactive)
ROOT
ATOM      1  C   UNL d   1      -2.558  -5.907  -5.409  0.00  0.00     0.078 C 
ATOM      2  C1  UNL d   1      -3.764  -5.085  -5.066  0.00  0.00    -0.077 A 
ATOM      3  C2  UNL d   1      -4.787  -4.881  -6.000  0.00  0.00    -0.001 A 
ATOM      4  C3  UNL d   1      -5.900  -4.105  -5.670  0.00  0.00     0.003 A 
ATOM      5  C4  UNL d   1      -6.000  -3.527  -4.406  0.00  0.00    -0.005 A 
ATOM      6  C5  UNL d   1      -4.986  -3.723  -3.471  0.00  0.00     0.003 A 
ATOM      7  C6  UNL d   1      -3.872  -4.498  -3.799  0.00  0.00    -0.001 A 
ENDROOT
TORSDOF 0
ENDMDL
