MODEL 1
REMARK minimizedAffinity -0.352705866
REMARK minimizedRMSD -1
REMARK  0 active torsions:
REMARK  status: ('A' for Active; 'I' for Inactive)
ROOT
ATOM      1  C   UNL d   1      -3.016  -3.368  -2.525  0.00  0.00     0.078 C 
ATOM      2  C1  UNL d   1      -3.855  -3.645  -3.737  0.00  0.00    -0.077 A 
ATOM      3  C2  UNL d   1      -3.302  -4.242  -4.876  0.00  0.00    -0.001 A 
ATOM      4  C3  UNL d   1      -4.092  -4.486  -6.000  0.00  0.00     0.003 A 
ATOM      5  C4  UNL d   1      -5.441  -4.134  -5.996  0.00  0.00    -0.005 A 
ATOM      6  C5  UNL d   1      -6.000  -3.537  -4.868  0.00  0.00     0.003 A 
ATOM      7  C6  UNL d   1      -5.211  -3.293  -3.743  0.00  0.00    -0.001 A 
ENDROOT
TORSDOF 0
ENDMDL
