MODEL 1
REMARK minimizedAffinity -2.46896124
REMARK minimizedRMSD -1
REMARK  0 active torsions:
REMARK  status: ('A' for Active; 'I' for Inactive)
ROOT
ATOM      1  C   UNL d   1      -5.203  -3.262  -5.034  0.00  0.00     0.078 C 
ATOM      2  C1  UNL d   1      -4.001  -4.159  -5.034  0.00  0.00    -0.077 A 
ATOM      3  C2  UNL d   1      -3.856  -5.171  -4.077  0.00  0.00    -0.001 A 
ATOM      4  C3  UNL d   1      -2.727  -5.992  -4.083  0.00  0.00     0.003 A 
ATOM      5  C4  UNL d   1      -1.734  -5.808  -5.043  0.00  0.00    -0.005 A 
ATOM      6  C5  UNL d   1      -1.869  -4.802  -5.998  0.00  0.00     0.003 A 
ATOM      7  C6  UNL d   1      -2.997  -3.981  -5.993  0.00  0.00    -0.001 A 
ENDROOT
TORSDOF 0
ENDMDL
