MODEL 1
REMARK minimizedAffinity 0.914116561
REMARK minimizedRMSD -1
REMARK  0 active torsions:
REMARK  status: ('A' for Active; 'I' for Inactive)
ROOT
ATOM      1  C   UNL d   1       0.482  -0.356   0.757  0.00  0.00     0.078 C 
ATOM      2  C1  UNL d   1      -0.880  -0.912   0.469  0.00  0.00    -0.077 A 
ATOM      3  C2  UNL d   1      -1.864  -0.128  -0.145  0.00  0.00    -0.001 A 
ATOM      4  C3  UNL d   1      -3.131  -0.656  -0.399  0.00  0.00     0.003 A 
ATOM      5  C4  UNL d   1      -3.425  -1.970  -0.042  0.00  0.00    -0.005 A 
ATOM      6  C5  UNL d   1      -2.453  -2.758   0.572  0.00  0.00     0.003 A 
ATOM      7  C6  UNL d   1      -1.186  -2.231   0.827  0.00  0.00    -0.001 A 
ENDROOT
TORSDOF 0
ENDMDL
