MODEL 1
REMARK minimizedAffinity -3.31833982
REMARK minimizedRMSD -1
REMARK  0 active torsions:
REMARK  status: ('A' for Active; 'I' for Inactive)
ROOT
ATOM      1  C   UNL d   1      -1.591  -5.609  -4.875  0.00  0.00     0.078 C 
ATOM      2  C1  UNL d   1      -2.943  -5.096  -5.272  0.00  0.00    -0.077 A 
ATOM      3  C2  UNL d   1      -3.223  -3.724  -5.273  0.00  0.00    -0.001 A 
ATOM      4  C3  UNL d   1      -4.489  -3.261  -5.635  0.00  0.00     0.003 A 
ATOM      5  C4  UNL d   1      -5.486  -4.164  -5.999  0.00  0.00    -0.005 A 
ATOM      6  C5  UNL d   1      -5.218  -5.532  -6.000  0.00  0.00     0.003 A 
ATOM      7  C6  UNL d   1      -3.952  -5.996  -5.638  0.00  0.00    -0.001 A 
ENDROOT
TORSDOF 0
ENDMDL
