MODEL 1
REMARK minimizedAffinity -2.8812151
REMARK minimizedRMSD -1
REMARK  0 active torsions:
REMARK  status: ('A' for Active; 'I' for Inactive)
ROOT
ATOM      1  C   UNL d   1      -5.970  -2.629  -5.168  0.00  0.00     0.078 C 
ATOM      2  C1  UNL d   1      -5.028  -3.795  -5.189  0.00  0.00    -0.077 A 
ATOM      3  C2  UNL d   1      -5.279  -4.911  -5.997  0.00  0.00    -0.001 A 
ATOM      4  C3  UNL d   1      -4.398  -5.994  -6.000  0.00  0.00     0.003 A 
ATOM      5  C4  UNL d   1      -3.260  -5.972  -5.196  0.00  0.00    -0.005 A 
ATOM      6  C5  UNL d   1      -3.003  -4.867  -4.386  0.00  0.00     0.003 A 
ATOM      7  C6  UNL d   1      -3.883  -3.784  -4.382  0.00  0.00    -0.001 A 
ENDROOT
TORSDOF 0
ENDMDL
