MODEL 1
REMARK minimizedAffinity -3.2746942
REMARK minimizedRMSD -1
REMARK  0 active torsions:
REMARK  status: ('A' for Active; 'I' for Inactive)
ROOT
ATOM      1  C   UNL d   1      -1.735  -5.260  -5.400  0.00  0.00     0.078 C 
ATOM      2  C1  UNL d   1      -3.223  -5.072  -5.381  0.00  0.00    -0.077 A 
ATOM      3  C2  UNL d   1      -4.075  -5.995  -6.000  0.00  0.00    -0.001 A 
ATOM      4  C3  UNL d   1      -5.457  -5.803  -5.983  0.00  0.00     0.003 A 
ATOM      5  C4  UNL d   1      -6.000  -4.687  -5.349  0.00  0.00    -0.005 A 
ATOM      6  C5  UNL d   1      -5.161  -3.762  -4.732  0.00  0.00     0.003 A 
ATOM      7  C6  UNL d   1      -3.778  -3.953  -4.748  0.00  0.00    -0.001 A 
ENDROOT
TORSDOF 0
ENDMDL
