MODEL 1
REMARK minimizedAffinity 0.506251633
REMARK minimizedRMSD -1
REMARK  0 active torsions:
REMARK  status: ('A' for Active; 'I' for Inactive)
ROOT
ATOM      1  C   UNL d   1       3.224   0.934  -3.117  0.00  0.00     0.078 C 
ATOM      2  C1  UNL d   1       1.940   1.644  -3.428  0.00  0.00    -0.077 A 
ATOM      3  C2  UNL d   1       1.549   1.881  -4.751  0.00  0.00    -0.001 A 
ATOM      4  C3  UNL d   1       0.356   2.551  -5.026  0.00  0.00     0.003 A 
ATOM      5  C4  UNL d   1      -0.456   2.991  -3.982  0.00  0.00    -0.005 A 
ATOM      6  C5  UNL d   1      -0.074   2.761  -2.661  0.00  0.00     0.003 A 
ATOM      7  C6  UNL d   1       1.119   2.091  -2.385  0.00  0.00    -0.001 A 
ENDROOT
TORSDOF 0
ENDMDL
