MODEL 1
REMARK minimizedAffinity -0.410941124
REMARK minimizedRMSD -1
REMARK  0 active torsions:
REMARK  status: ('A' for Active; 'I' for Inactive)
ROOT
ATOM      1  C   UNL d   1      -4.678  -3.370  -3.944  0.00  0.00     0.078 C 
ATOM      2  C1  UNL d   1      -3.528  -4.245  -4.347  0.00  0.00    -0.077 A 
ATOM      3  C2  UNL d   1      -3.005  -5.199  -3.466  0.00  0.00    -0.001 A 
ATOM      4  C3  UNL d   1      -1.928  -6.000  -3.851  0.00  0.00     0.003 A 
ATOM      5  C4  UNL d   1      -1.365  -5.854  -5.117  0.00  0.00    -0.005 A 
ATOM      6  C5  UNL d   1      -1.877  -4.905  -6.000  0.00  0.00     0.003 A 
ATOM      7  C6  UNL d   1      -2.954  -4.104  -5.617  0.00  0.00    -0.001 A 
ENDROOT
TORSDOF 0
ENDMDL
