MODEL 1
REMARK minimizedAffinity 3.94713783
REMARK minimizedRMSD -1
REMARK  0 active torsions:
REMARK  status: ('A' for Active; 'I' for Inactive)
ROOT
ATOM      1  C   UNL d   1      -6.000  -3.828  -5.999  0.00  0.00     0.078 C 
ATOM      2  C1  UNL d   1      -4.774  -3.704  -5.144  0.00  0.00    -0.077 A 
ATOM      3  C2  UNL d   1      -3.520  -3.454  -5.714  0.00  0.00    -0.001 A 
ATOM      4  C3  UNL d   1      -2.386  -3.351  -4.907  0.00  0.00     0.003 A 
ATOM      5  C4  UNL d   1      -2.495  -3.497  -3.525  0.00  0.00    -0.005 A 
ATOM      6  C5  UNL d   1      -3.738  -3.748  -2.950  0.00  0.00     0.003 A 
ATOM      7  C6  UNL d   1      -4.873  -3.851  -3.755  0.00  0.00    -0.001 A 
ENDROOT
TORSDOF 0
ENDMDL
