MODEL 1
REMARK minimizedAffinity -2.1114583
REMARK minimizedRMSD -1
REMARK  0 active torsions:
REMARK  status: ('A' for Active; 'I' for Inactive)
ROOT
ATOM      1  C   UNL d   1      -4.126  -4.958  -5.994  0.00  0.00     0.078 C 
ATOM      2  C1  UNL d   1      -3.014  -5.326  -5.058  0.00  0.00    -0.077 A 
ATOM      3  C2  UNL d   1      -3.209  -5.326  -3.672  0.00  0.00    -0.001 A 
ATOM      4  C3  UNL d   1      -2.162  -5.661  -2.812  0.00  0.00     0.003 A 
ATOM      5  C4  UNL d   1      -0.912  -5.999  -3.329  0.00  0.00    -0.005 A 
ATOM      6  C5  UNL d   1      -0.709  -6.000  -4.707  0.00  0.00     0.003 A 
ATOM      7  C6  UNL d   1      -1.755  -5.665  -5.569  0.00  0.00    -0.001 A 
ENDROOT
TORSDOF 0
ENDMDL
