MODEL 1
REMARK minimizedAffinity -2.7023077
REMARK minimizedRMSD -1
REMARK  0 active torsions:
REMARK  status: ('A' for Active; 'I' for Inactive)
ROOT
ATOM      1  C   UNL d   1      -1.521  -5.575  -5.643  0.00  0.00     0.078 C 
ATOM      2  C1  UNL d   1      -2.947  -5.112  -5.643  0.00  0.00    -0.077 A 
ATOM      3  C2  UNL d   1      -3.279  -3.802  -5.277  0.00  0.00    -0.001 A 
ATOM      4  C3  UNL d   1      -4.612  -3.387  -5.272  0.00  0.00     0.003 A 
ATOM      5  C4  UNL d   1      -5.623  -4.276  -5.631  0.00  0.00    -0.005 A 
ATOM      6  C5  UNL d   1      -5.302  -5.582  -5.994  0.00  0.00     0.003 A 
ATOM      7  C6  UNL d   1      -3.970  -5.999  -6.000  0.00  0.00    -0.001 A 
ENDROOT
TORSDOF 0
ENDMDL
