MODEL 1
REMARK minimizedAffinity -2.9154079
REMARK minimizedRMSD -1
REMARK  0 active torsions:
REMARK  status: ('A' for Active; 'I' for Inactive)
ROOT
ATOM      1  C   UNL d   1      -2.041  -5.923  -4.894  0.00  0.00     0.078 C 
ATOM      2  C1  UNL d   1      -3.424  -5.364  -5.048  0.00  0.00    -0.077 A 
ATOM      3  C2  UNL d   1      -4.373  -6.000  -5.858  0.00  0.00    -0.001 A 
ATOM      4  C3  UNL d   1      -5.654  -5.463  -6.000  0.00  0.00     0.003 A 
ATOM      5  C4  UNL d   1      -5.997  -4.287  -5.336  0.00  0.00    -0.005 A 
ATOM      6  C5  UNL d   1      -5.059  -3.646  -4.529  0.00  0.00     0.003 A 
ATOM      7  C6  UNL d   1      -3.778  -4.181  -4.386  0.00  0.00    -0.001 A 
ENDROOT
TORSDOF 0
ENDMDL
