MODEL 1
REMARK minimizedAffinity -1.04901624
REMARK minimizedRMSD -1
REMARK  0 active torsions:
REMARK  status: ('A' for Active; 'I' for Inactive)
ROOT
ATOM      1  C   UNL d   1      -5.999  -2.768  -4.638  0.00  0.00     0.078 C 
ATOM      2  C1  UNL d   1      -5.040  -3.893  -4.890  0.00  0.00    -0.077 A 
ATOM      3  C2  UNL d   1      -3.775  -3.911  -4.290  0.00  0.00    -0.001 A 
ATOM      4  C3  UNL d   1      -2.889  -4.959  -4.542  0.00  0.00     0.003 A 
ATOM      5  C4  UNL d   1      -3.257  -5.997  -5.395  0.00  0.00    -0.005 A 
ATOM      6  C5  UNL d   1      -4.513  -5.987  -5.999  0.00  0.00     0.003 A 
ATOM      7  C6  UNL d   1      -5.401  -4.939  -5.748  0.00  0.00    -0.001 A 
ENDROOT
TORSDOF 0
ENDMDL
