MODEL 1
REMARK minimizedAffinity -3.40151644
REMARK minimizedRMSD -1
REMARK  0 active torsions:
REMARK  status: ('A' for Active; 'I' for Inactive)
ROOT
ATOM      1  C   UNL d   1      -1.011  -6.000  -4.261  0.00  0.00     0.078 C 
ATOM      2  C1  UNL d   1      -2.392  -5.508  -4.577  0.00  0.00    -0.077 A 
ATOM      3  C2  UNL d   1      -3.028  -4.569  -3.756  0.00  0.00    -0.001 A 
ATOM      4  C3  UNL d   1      -4.318  -4.127  -4.056  0.00  0.00     0.003 A 
ATOM      5  C4  UNL d   1      -4.983  -4.619  -5.177  0.00  0.00    -0.005 A 
ATOM      6  C5  UNL d   1      -4.359  -5.555  -5.999  0.00  0.00     0.003 A 
ATOM      7  C6  UNL d   1      -3.069  -5.999  -5.700  0.00  0.00    -0.001 A 
ENDROOT
TORSDOF 0
ENDMDL
