MODEL 1
REMARK minimizedAffinity -2.29435587
REMARK minimizedRMSD -1
REMARK  0 active torsions:
REMARK  status: ('A' for Active; 'I' for Inactive)
ROOT
ATOM      1  C   UNL d   1      -5.967  -2.944  -4.399  0.00  0.00     0.078 C 
ATOM      2  C1  UNL d   1      -4.962  -3.999  -4.755  0.00  0.00    -0.077 A 
ATOM      3  C2  UNL d   1      -3.672  -3.978  -4.212  0.00  0.00    -0.001 A 
ATOM      4  C3  UNL d   1      -2.744  -4.960  -4.559  0.00  0.00     0.003 A 
ATOM      5  C4  UNL d   1      -3.095  -5.971  -5.452  0.00  0.00    -0.005 A 
ATOM      6  C5  UNL d   1      -4.377  -5.999  -5.999  0.00  0.00     0.003 A 
ATOM      7  C6  UNL d   1      -5.306  -5.017  -5.653  0.00  0.00    -0.001 A 
ENDROOT
TORSDOF 0
ENDMDL
