MODEL 1
REMARK minimizedAffinity -6.28493929
REMARK minimizedRMSD -1
REMARK  3 active torsions:
REMARK  status: ('A' for Active; 'I' for Inactive)
REMARK    1  A    between atoms: C3'_2  and  C2'_3 
REMARK    2  A    between atoms: C2'_3  and  C1'_4 
REMARK    3  A    between atoms: C1'_4  and  C1_5 
ROOT
ATOM      1  C1  N4B d   1      -1.136  -0.046   0.676  0.00  0.00    -0.075 A 
ATOM      2  C2  N4B d   1      -0.374  -0.696   1.673  0.00  0.00     0.002 A 
ATOM      3  C3  N4B d   1      -0.935  -0.969   2.896  0.00  0.00     0.002 A 
ATOM      4  C4  N4B d   1      -2.243  -0.587   3.152  0.00  0.00    -0.004 A 
ATOM      5  C5  N4B d   1      -2.980   0.017   2.176  0.00  0.00     0.002 A 
ATOM      6  C6  N4B d   1      -2.431   0.294   0.940  0.00  0.00     0.002 A 
ENDROOT
BRANCH   1   7
ATOM      7  C1' N4B d   1      -0.540   0.350  -0.647  0.00  0.00     0.057 C 
BRANCH   7   8
ATOM      8  C2' N4B d   1       0.598  -0.607  -0.990  0.00  0.00     0.009 C 
BRANCH   8   9
ATOM      9  C3' N4B d   1       0.740  -0.805  -2.490  0.00  0.00     0.004 C 
ATOM     10  C4' N4B d   1       1.475   0.320  -3.157  0.00  0.00     0.003 C 
ENDBRANCH   8   9
ENDBRANCH   7   8
ENDBRANCH   1   7
TORSDOF 3
ENDMDL
