MODEL 1
REMARK minimizedAffinity -2.5618999
REMARK minimizedRMSD -1
REMARK  3 active torsions:
REMARK  status: ('A' for Active; 'I' for Inactive)
REMARK    1  A    between atoms: C3'_2  and  C2'_3 
REMARK    2  A    between atoms: C2'_3  and  C1'_4 
REMARK    3  A    between atoms: C1'_4  and  C1_5 
ROOT
ATOM      1  C1  N4B d   1       0.373  -0.174   0.524  0.00  0.00    -0.075 A 
ATOM      2  C2  N4B d   1       1.217   0.942   0.716  0.00  0.00     0.002 A 
ATOM      3  C3  N4B d   1       1.458   1.411   1.984  0.00  0.00     0.002 A 
ATOM      4  C4  N4B d   1       0.852   0.795   3.070  0.00  0.00    -0.004 A 
ATOM      5  C5  N4B d   1       0.058  -0.297   2.878  0.00  0.00     0.002 A 
ATOM      6  C6  N4B d   1      -0.189  -0.782   1.609  0.00  0.00     0.002 A 
ENDROOT
BRANCH   1   7
ATOM      7  C1' N4B d   1       0.012  -0.670  -0.849  0.00  0.00     0.057 C 
BRANCH   7   8
ATOM      8  C2' N4B d   1       0.356   0.405  -1.876  0.00  0.00     0.009 C 
BRANCH   8   9
ATOM      9  C3' N4B d   1       1.235  -0.135  -2.991  0.00  0.00     0.004 C 
ATOM     10  C4' N4B d   1       0.562  -1.208  -3.794  0.00  0.00     0.003 C 
ENDBRANCH   8   9
ENDBRANCH   7   8
ENDBRANCH   1   7
TORSDOF 3
ENDMDL
