MODEL 1
REMARK minimizedAffinity -3.27410722
REMARK minimizedRMSD -1
REMARK  3 active torsions:
REMARK  status: ('A' for Active; 'I' for Inactive)
REMARK    1  A    between atoms: C3'_2  and  C2'_3 
REMARK    2  A    between atoms: C2'_3  and  C1'_4 
REMARK    3  A    between atoms: C1'_4  and  C1_5 
ROOT
ATOM      1  C1  N4B d   1       0.097  -0.199  -1.622  0.00  0.00    -0.075 A 
ATOM      2  C2  N4B d   1       1.297   0.192  -2.255  0.00  0.00     0.002 A 
ATOM      3  C3  N4B d   1       1.650  -0.364  -3.460  0.00  0.00     0.002 A 
ATOM      4  C4  N4B d   1       0.831  -1.322  -4.040  0.00  0.00    -0.004 A 
ATOM      5  C5  N4B d   1      -0.339  -1.675  -3.434  0.00  0.00     0.002 A 
ATOM      6  C6  N4B d   1      -0.708  -1.122  -2.225  0.00  0.00     0.002 A 
ENDROOT
BRANCH   1   7
ATOM      7  C1' N4B d   1      -0.288   0.317  -0.262  0.00  0.00     0.057 C 
BRANCH   7   8
ATOM      8  C2' N4B d   1       0.945   0.332   0.635  0.00  0.00     0.009 C 
BRANCH   8   9
ATOM      9  C3' N4B d   1       0.726  -0.453   1.917  0.00  0.00     0.004 C 
ATOM     10  C4' N4B d   1      -0.059   0.313   2.940  0.00  0.00     0.003 C 
ENDBRANCH   8   9
ENDBRANCH   7   8
ENDBRANCH   1   7
TORSDOF 3
ENDMDL
