MODEL 1
REMARK minimizedAffinity -2.41099715
REMARK minimizedRMSD -1
REMARK  3 active torsions:
REMARK  status: ('A' for Active; 'I' for Inactive)
REMARK    1  A    between atoms: C3'_2  and  C2'_3 
REMARK    2  A    between atoms: C2'_3  and  C1'_4 
REMARK    3  A    between atoms: C1'_4  and  C1_5 
ROOT
ATOM      1  C1  N4B d   1       0.391  -0.297  -2.340  0.00  0.00    -0.075 A 
ATOM      2  C2  N4B d   1       1.573  -0.187  -3.106  0.00  0.00     0.002 A 
ATOM      3  C3  N4B d   1       1.906  -1.175  -4.000  0.00  0.00     0.002 A 
ATOM      4  C4  N4B d   1       1.087  -2.287  -4.130  0.00  0.00    -0.004 A 
ATOM      5  C5  N4B d   1      -0.065  -2.373  -3.406  0.00  0.00     0.002 A 
ATOM      6  C6  N4B d   1      -0.415  -1.386  -2.507  0.00  0.00     0.002 A 
ENDROOT
BRANCH   1   7
ATOM      7  C1' N4B d   1       0.029   0.716  -1.289  0.00  0.00     0.057 C 
BRANCH   7   8
ATOM      8  C2' N4B d   1      -0.222  -0.003   0.034  0.00  0.00     0.009 C 
BRANCH   8   9
ATOM      9  C3' N4B d   1       0.831   0.338   1.074  0.00  0.00     0.004 C 
ATOM     10  C4' N4B d   1       0.376   0.056   2.475  0.00  0.00     0.003 C 
ENDBRANCH   8   9
ENDBRANCH   7   8
ENDBRANCH   1   7
TORSDOF 3
ENDMDL
