MODEL 1
REMARK minimizedAffinity 0.477069408
REMARK minimizedRMSD -1
REMARK  3 active torsions:
REMARK  status: ('A' for Active; 'I' for Inactive)
REMARK    1  A    between atoms: C3'_2  and  C2'_3 
REMARK    2  A    between atoms: C2'_3  and  C1'_4 
REMARK    3  A    between atoms: C1'_4  and  C1_5 
ROOT
ATOM      1  C1  N4B d   1      -0.242   0.224   0.038  0.00  0.00    -0.075 A 
ATOM      2  C2  N4B d   1      -1.344   0.564   0.853  0.00  0.00     0.002 A 
ATOM      3  C3  N4B d   1      -1.271   0.390   2.213  0.00  0.00     0.002 A 
ATOM      4  C4  N4B d   1      -0.119  -0.138   2.777  0.00  0.00    -0.004 A 
ATOM      5  C5  N4B d   1       0.950  -0.440   1.985  0.00  0.00     0.002 A 
ATOM      6  C6  N4B d   1       0.892  -0.267   0.617  0.00  0.00     0.002 A 
ENDROOT
BRANCH   1   7
ATOM      7  C1' N4B d   1      -0.306   0.315  -1.462  0.00  0.00     0.057 C 
BRANCH   7   8
ATOM      8  C2' N4B d   1       1.060  -0.038  -2.044  0.00  0.00     0.009 C 
BRANCH   8   9
ATOM      9  C3' N4B d   1       1.008  -0.207  -3.553  0.00  0.00     0.004 C 
ATOM     10  C4' N4B d   1       0.451  -1.535  -3.969  0.00  0.00     0.003 C 
ENDBRANCH   8   9
ENDBRANCH   7   8
ENDBRANCH   1   7
TORSDOF 3
ENDMDL
