MODEL 1
REMARK minimizedAffinity -4.02071381
REMARK minimizedRMSD -1
REMARK  3 active torsions:
REMARK  status: ('A' for Active; 'I' for Inactive)
REMARK    1  A    between atoms: C3'_2  and  C2'_3 
REMARK    2  A    between atoms: C2'_3  and  C1'_4 
REMARK    3  A    between atoms: C1'_4  and  C1_5 
ROOT
ATOM      1  C1  N4B d   1      -0.189   0.061   0.266  0.00  0.00    -0.075 A 
ATOM      2  C2  N4B d   1      -1.434  -0.295   0.831  0.00  0.00     0.002 A 
ATOM      3  C3  N4B d   1      -1.581  -0.342   2.195  0.00  0.00     0.002 A 
ATOM      4  C4  N4B d   1      -0.496  -0.058   3.012  0.00  0.00    -0.004 A 
ATOM      5  C5  N4B d   1       0.695   0.310   2.459  0.00  0.00     0.002 A 
ATOM      6  C6  N4B d   1       0.856   0.365   1.089  0.00  0.00     0.002 A 
ENDROOT
BRANCH   1   7
ATOM      7  C1' N4B d   1       0.043   0.043  -1.220  0.00  0.00     0.057 C 
BRANCH   7   8
ATOM      8  C2' N4B d   1       0.535  -1.341  -1.633  0.00  0.00     0.009 C 
BRANCH   8   9
ATOM      9  C3' N4B d   1       1.137  -1.337  -3.028  0.00  0.00     0.004 C 
ATOM     10  C4' N4B d   1       0.545  -2.387  -3.919  0.00  0.00     0.003 C 
ENDBRANCH   8   9
ENDBRANCH   7   8
ENDBRANCH   1   7
TORSDOF 3
ENDMDL
