MODEL 1
REMARK minimizedAffinity -3.88593125
REMARK minimizedRMSD -1
REMARK  3 active torsions:
REMARK  status: ('A' for Active; 'I' for Inactive)
REMARK    1  A    between atoms: C3'_2  and  C2'_3 
REMARK    2  A    between atoms: C2'_3  and  C1'_4 
REMARK    3  A    between atoms: C1'_4  and  C1_5 
ROOT
ATOM      1  C1  N4B d   1       0.617  -0.148   0.193  0.00  0.00    -0.075 A 
ATOM      2  C2  N4B d   1       1.613  -0.371   1.170  0.00  0.00     0.002 A 
ATOM      3  C3  N4B d   1       1.274  -0.403   2.500  0.00  0.00     0.002 A 
ATOM      4  C4  N4B d   1      -0.044  -0.197   2.878  0.00  0.00    -0.004 A 
ATOM      5  C5  N4B d   1      -1.004  -0.008   1.927  0.00  0.00     0.002 A 
ATOM      6  C6  N4B d   1      -0.679   0.023   0.585  0.00  0.00     0.002 A 
ENDROOT
BRANCH   1   7
ATOM      7  C1' N4B d   1       0.952  -0.019  -1.268  0.00  0.00     0.057 C 
BRANCH   7   8
ATOM      8  C2' N4B d   1       0.399  -1.227  -2.017  0.00  0.00     0.009 C 
BRANCH   8   9
ATOM      9  C3' N4B d   1       1.369  -1.735  -3.071  0.00  0.00     0.004 C 
ATOM     10  C4' N4B d   1       2.101  -0.628  -3.768  0.00  0.00     0.003 C 
ENDBRANCH   8   9
ENDBRANCH   7   8
ENDBRANCH   1   7
TORSDOF 3
ENDMDL
