MODEL 1
REMARK minimizedAffinity -2.47815871
REMARK minimizedRMSD -1
REMARK  0 active torsions:
REMARK  status: ('A' for Active; 'I' for Inactive)
ROOT
ATOM      1  C   UNL d   1       2.320   2.410   0.311  0.00  0.00    -0.002 A 
ATOM      2  C1  UNL d   1       0.949   2.337   0.109  0.00  0.00     0.010 A 
ATOM      3  C2  UNL d   1       0.245   1.172   0.421  0.00  0.00     0.041 A 
ATOM      4  C3  UNL d   1       0.950   0.071   0.947  0.00  0.00    -0.075 A 
ATOM      5  S   UNL d   1       0.297  -1.458   1.403  0.00  0.00     0.015 SA
ATOM      6  C4  UNL d   1       1.823  -2.051   1.878  0.00  0.00     0.022 A 
ATOM      7  C5  UNL d   1       2.817  -1.119   1.699  0.00  0.00     0.026 A 
ATOM      8  C6  UNL d   1       2.330   0.120   1.160  0.00  0.00    -0.082 A 
ATOM      9  C7  UNL d   1       3.015   1.315   0.832  0.00  0.00     0.045 A 
ENDROOT
TORSDOF 0
ENDMDL
