MODEL 1
REMARK minimizedAffinity 7.00680542
REMARK minimizedRMSD -1
REMARK  0 active torsions:
REMARK  status: ('A' for Active; 'I' for Inactive)
ROOT
ATOM      1  C   UNL d   1      -2.869  -0.420  -2.459  0.00  0.00    -0.002 A 
ATOM      2  C1  UNL d   1      -2.776  -1.733  -2.899  0.00  0.00     0.010 A 
ATOM      3  C2  UNL d   1      -1.996  -2.661  -2.205  0.00  0.00     0.041 A 
ATOM      4  C3  UNL d   1      -1.307  -2.243  -1.050  0.00  0.00    -0.075 A 
ATOM      5  S   UNL d   1      -0.293  -3.205  -0.040  0.00  0.00     0.015 SA
ATOM      6  C4  UNL d   1       0.039  -1.896   1.000  0.00  0.00     0.022 A 
ATOM      7  C5  UNL d   1      -0.599  -0.746   0.601  0.00  0.00     0.026 A 
ATOM      8  C6  UNL d   1      -1.386  -0.927  -0.587  0.00  0.00    -0.082 A 
ATOM      9  C7  UNL d   1      -2.184  -0.010  -1.312  0.00  0.00     0.045 A 
ENDROOT
TORSDOF 0
ENDMDL
