MODEL 1
REMARK minimizedAffinity 4.65156603
REMARK minimizedRMSD -1
REMARK  0 active torsions:
REMARK  status: ('A' for Active; 'I' for Inactive)
ROOT
ATOM      1  C   UNL d   1       0.845  -2.736  -0.725  0.00  0.00    -0.002 A 
ATOM      2  C1  UNL d   1       0.005  -2.983   0.352  0.00  0.00     0.010 A 
ATOM      3  C2  UNL d   1      -1.361  -2.712   0.264  0.00  0.00     0.041 A 
ATOM      4  C3  UNL d   1      -1.875  -2.184  -0.936  0.00  0.00    -0.075 A 
ATOM      5  S   UNL d   1      -3.516  -1.775  -1.274  0.00  0.00     0.015 SA
ATOM      6  C4  UNL d   1      -3.141  -1.263  -2.856  0.00  0.00     0.022 A 
ATOM      7  C5  UNL d   1      -1.802  -1.394  -3.136  0.00  0.00     0.026 A 
ATOM      8  C6  UNL d   1      -1.050  -1.928  -2.035  0.00  0.00    -0.082 A 
ATOM      9  C7  UNL d   1       0.331  -2.213  -1.914  0.00  0.00     0.045 A 
ENDROOT
TORSDOF 0
ENDMDL
