MODEL 1
REMARK minimizedAffinity 11.6162653
REMARK minimizedRMSD -1
REMARK  0 active torsions:
REMARK  status: ('A' for Active; 'I' for Inactive)
ROOT
ATOM      1  C   UNL d   1       2.557   0.940   1.531  0.00  0.00    -0.002 A 
ATOM      2  C1  UNL d   1       3.239   0.600   2.691  0.00  0.00     0.010 A 
ATOM      3  C2  UNL d   1       2.950  -0.591   3.361  0.00  0.00     0.041 A 
ATOM      4  C3  UNL d   1       1.958  -1.444   2.838  0.00  0.00    -0.075 A 
ATOM      5  S   UNL d   1       1.437  -2.953   3.488  0.00  0.00     0.015 SA
ATOM      6  C4  UNL d   1       0.299  -3.183   2.240  0.00  0.00     0.022 A 
ATOM      7  C5  UNL d   1       0.303  -2.142   1.341  0.00  0.00     0.026 A 
ATOM      8  C6  UNL d   1       1.259  -1.123   1.671  0.00  0.00    -0.082 A 
ATOM      9  C7  UNL d   1       1.573   0.092   1.016  0.00  0.00     0.045 A 
ENDROOT
TORSDOF 0
ENDMDL
