MODEL 1
REMARK minimizedAffinity 6.08291674
REMARK minimizedRMSD -1
REMARK  0 active torsions:
REMARK  status: ('A' for Active; 'I' for Inactive)
ROOT
ATOM      1  C   UNL d   1      -1.983  -3.178  -0.903  0.00  0.00    -0.002 A 
ATOM      2  C1  UNL d   1      -1.636  -2.598   0.309  0.00  0.00     0.010 A 
ATOM      3  C2  UNL d   1      -0.475  -1.831   0.423  0.00  0.00     0.041 A 
ATOM      4  C3  UNL d   1       0.339  -1.654  -0.713  0.00  0.00    -0.075 A 
ATOM      5  S   UNL d   1       1.807  -0.755  -0.810  0.00  0.00     0.015 SA
ATOM      6  C4  UNL d   1       2.008  -1.119  -2.463  0.00  0.00     0.022 A 
ATOM      7  C5  UNL d   1       0.989  -1.906  -2.945  0.00  0.00     0.026 A 
ATOM      8  C6  UNL d   1       0.010  -2.227  -1.945  0.00  0.00    -0.082 A 
ATOM      9  C7  UNL d   1      -1.173  -3.000  -2.028  0.00  0.00     0.045 A 
ENDROOT
TORSDOF 0
ENDMDL
