MODEL 1
REMARK minimizedAffinity 2.57922006
REMARK minimizedRMSD -1
REMARK  0 active torsions:
REMARK  status: ('A' for Active; 'I' for Inactive)
ROOT
ATOM      1  C   UNL d   1       1.895   2.266   0.009  0.00  0.00    -0.002 A 
ATOM      2  C1  UNL d   1       2.972   1.923   0.815  0.00  0.00     0.010 A 
ATOM      3  C2  UNL d   1       2.890   0.832   1.683  0.00  0.00     0.041 A 
ATOM      4  C3  UNL d   1       1.697   0.084   1.727  0.00  0.00    -0.075 A 
ATOM      5  S   UNL d   1       1.369  -1.292   2.713  0.00  0.00     0.015 SA
ATOM      6  C4  UNL d   1      -0.207  -1.457   2.088  0.00  0.00     0.022 A 
ATOM      7  C5  UNL d   1      -0.493  -0.495   1.149  0.00  0.00     0.026 A 
ATOM      8  C6  UNL d   1       0.600   0.409   0.925  0.00  0.00    -0.082 A 
ATOM      9  C7  UNL d   1       0.713   1.521   0.056  0.00  0.00     0.045 A 
ENDROOT
TORSDOF 0
ENDMDL
