MODEL 1
REMARK minimizedAffinity 3.17634869
REMARK minimizedRMSD -1
REMARK  0 active torsions:
REMARK  status: ('A' for Active; 'I' for Inactive)
ROOT
ATOM      1  C   UNL d   1       0.509  -2.853   2.082  0.00  0.00    -0.002 A 
ATOM      2  C1  UNL d   1       0.012  -2.139   1.001  0.00  0.00     0.010 A 
ATOM      3  C2  UNL d   1       0.273  -0.773   0.871  0.00  0.00     0.041 A 
ATOM      4  C3  UNL d   1       1.051  -0.132   1.855  0.00  0.00    -0.075 A 
ATOM      5  S   UNL d   1       1.501   1.532   1.903  0.00  0.00     0.015 SA
ATOM      6  C4  UNL d   1       2.364   1.334   3.359  0.00  0.00     0.022 A 
ATOM      7  C5  UNL d   1       2.321   0.036   3.812  0.00  0.00     0.026 A 
ATOM      8  C6  UNL d   1       1.564  -0.830   2.952  0.00  0.00    -0.082 A 
ATOM      9  C7  UNL d   1       1.281  -2.213   3.056  0.00  0.00     0.045 A 
ENDROOT
TORSDOF 0
ENDMDL
