MODEL 1
REMARK minimizedAffinity -1.81447148
REMARK minimizedRMSD -1
REMARK  1 active torsions:
REMARK  status: ('A' for Active; 'I' for Inactive)
REMARK    1  A    between atoms: N_2  and  C1_3 
ROOT
ATOM      1  C1  UNL d   1       4.893  -1.168   4.328  0.00  0.00     0.143 A 
ATOM      2  C2  UNL d   1       5.966  -1.452   5.180  0.00  0.00    -0.057 A 
ATOM      3  C3  UNL d   1       5.963  -2.588   5.998  0.00  0.00     0.033 A 
ATOM      4  C4  UNL d   1       4.869  -3.448   5.999  0.00  0.00    -0.042 A 
ATOM      5  C5  UNL d   1       3.781  -3.172   5.179  0.00  0.00     0.033 A 
ATOM      6  C6  UNL d   1       3.793  -2.039   4.360  0.00  0.00    -0.057 A 
ENDROOT
BRANCH   1   7
ATOM      7  N   UNL d   1       4.794  -0.002   3.564  0.00  0.00    -0.732 N 
ATOM      8  C   UNL d   1       5.974   0.599   2.980  0.00  0.00     0.284 C 
ATOM      9  H3  UNL d   1       3.983  -0.008   2.950  0.00  0.00     0.395 HD
ENDBRANCH   1   7
TORSDOF 1
ENDMDL
