MODEL 1
REMARK minimizedAffinity 1.03078175
REMARK minimizedRMSD -1
REMARK  1 active torsions:
REMARK  status: ('A' for Active; 'I' for Inactive)
REMARK    1  A    between atoms: N_2  and  C1_3 
ROOT
ATOM      1  C1  UNL d   1       0.942  -0.831  -2.571  0.00  0.00     0.143 A 
ATOM      2  C2  UNL d   1       0.766   0.496  -2.167  0.00  0.00    -0.057 A 
ATOM      3  C3  UNL d   1       0.174   0.808  -0.937  0.00  0.00     0.033 A 
ATOM      4  C4  UNL d   1      -0.280  -0.205  -0.100  0.00  0.00    -0.042 A 
ATOM      5  C5  UNL d   1      -0.138  -1.531  -0.492  0.00  0.00     0.033 A 
ATOM      6  C6  UNL d   1       0.460  -1.837  -1.719  0.00  0.00    -0.057 A 
ENDROOT
BRANCH   1   7
ATOM      7  N   UNL d   1       1.433  -1.204  -3.825  0.00  0.00    -0.732 N 
ATOM      8  C   UNL d   1       0.630  -2.005  -4.723  0.00  0.00     0.284 C 
ATOM      9  H3  UNL d   1       1.943  -0.451  -4.282  0.00  0.00     0.395 HD
ENDBRANCH   1   7
TORSDOF 1
ENDMDL
