MODEL 1
REMARK minimizedAffinity -5.07338715
REMARK minimizedRMSD -1
REMARK  1 active torsions:
REMARK  status: ('A' for Active; 'I' for Inactive)
REMARK    1  A    between atoms: N_2  and  C1_3 
ROOT
ATOM      1  C1  UNL d   1      -3.400   2.866   5.198  0.00  0.00     0.143 A 
ATOM      2  C2  UNL d   1      -3.503   4.009   5.998  0.00  0.00    -0.057 A 
ATOM      3  C3  UNL d   1      -3.647   5.281   5.432  0.00  0.00     0.033 A 
ATOM      4  C4  UNL d   1      -3.660   5.436   4.050  0.00  0.00    -0.042 A 
ATOM      5  C5  UNL d   1      -3.534   4.317   3.235  0.00  0.00     0.033 A 
ATOM      6  C6  UNL d   1      -3.398   3.049   3.806  0.00  0.00    -0.057 A 
ENDROOT
BRANCH   1   7
ATOM      7  N   UNL d   1      -3.156   1.585   5.699  0.00  0.00    -0.732 N 
ATOM      8  C   UNL d   1      -2.844   0.491   4.805  0.00  0.00     0.284 C 
ATOM      9  H3  UNL d   1      -2.597   1.600   6.548  0.00  0.00     0.395 HD
ENDBRANCH   1   7
TORSDOF 1
ENDMDL
