MODEL 1
REMARK minimizedAffinity 6.71641016
REMARK minimizedRMSD -1
REMARK  1 active torsions:
REMARK  status: ('A' for Active; 'I' for Inactive)
REMARK    1  A    between atoms: N_2  and  C1_3 
ROOT
ATOM      1  C1  UNL d   1      -3.928   5.835   3.425  0.00  0.00     0.143 A 
ATOM      2  C2  UNL d   1      -5.319   5.896   3.561  0.00  0.00    -0.057 A 
ATOM      3  C3  UNL d   1      -5.922   5.992   4.821  0.00  0.00     0.033 A 
ATOM      4  C4  UNL d   1      -5.143   6.000   5.973  0.00  0.00    -0.042 A 
ATOM      5  C5  UNL d   1      -3.759   5.915   5.863  0.00  0.00     0.033 A 
ATOM      6  C6  UNL d   1      -3.163   5.825   4.602  0.00  0.00    -0.057 A 
ENDROOT
BRANCH   1   7
ATOM      7  N   UNL d   1      -3.274   5.639   2.207  0.00  0.00    -0.732 N 
ATOM      8  C   UNL d   1      -3.581   4.491   1.381  0.00  0.00     0.284 C 
ATOM      9  H3  UNL d   1      -3.154   6.505   1.686  0.00  0.00     0.395 HD
ENDBRANCH   1   7
TORSDOF 1
ENDMDL
