MODEL 1
REMARK minimizedAffinity 1.92340219
REMARK minimizedRMSD -1
REMARK  1 active torsions:
REMARK  status: ('A' for Active; 'I' for Inactive)
REMARK    1  A    between atoms: N_2  and  C1_3 
ROOT
ATOM      1  C1  UNL d   1       4.786   1.523   3.071  0.00  0.00     0.143 A 
ATOM      2  C2  UNL d   1       5.734   1.298   4.075  0.00  0.00    -0.057 A 
ATOM      3  C3  UNL d   1       5.999   0.007   4.548  0.00  0.00     0.033 A 
ATOM      4  C4  UNL d   1       5.296  -1.082   4.044  0.00  0.00    -0.042 A 
ATOM      5  C5  UNL d   1       4.331  -0.879   3.064  0.00  0.00     0.033 A 
ATOM      6  C6  UNL d   1       4.077   0.411   2.590  0.00  0.00    -0.057 A 
ENDROOT
BRANCH   1   7
ATOM      7  N   UNL d   1       4.408   2.793   2.629  0.00  0.00    -0.732 N 
ATOM      8  C   UNL d   1       3.263   2.960   1.760  0.00  0.00     0.284 C 
ATOM      9  H3  UNL d   1       4.482   3.497   3.360  0.00  0.00     0.395 HD
ENDBRANCH   1   7
TORSDOF 1
ENDMDL
