MODEL 1
REMARK minimizedAffinity 5.52683878
REMARK minimizedRMSD -1
REMARK  1 active torsions:
REMARK  status: ('A' for Active; 'I' for Inactive)
REMARK    1  A    between atoms: N_2  and  C1_3 
ROOT
ATOM      1  C1  UNL d   1       1.474   0.224  -1.986  0.00  0.00     0.143 A 
ATOM      2  C2  UNL d   1       0.545   0.791  -1.106  0.00  0.00    -0.057 A 
ATOM      3  C3  UNL d   1       0.932   1.741  -0.154  0.00  0.00     0.033 A 
ATOM      4  C4  UNL d   1       2.266   2.120  -0.044  0.00  0.00    -0.042 A 
ATOM      5  C5  UNL d   1       3.211   1.552  -0.890  0.00  0.00     0.033 A 
ATOM      6  C6  UNL d   1       2.816   0.609  -1.844  0.00  0.00    -0.057 A 
ENDROOT
BRANCH   1   7
ATOM      7  N   UNL d   1       1.168  -0.797  -2.888  0.00  0.00    -0.732 N 
ATOM      8  C   UNL d   1       1.270  -2.185  -2.493  0.00  0.00     0.284 C 
ATOM      9  H3  UNL d   1       0.348  -0.584  -3.452  0.00  0.00     0.395 HD
ENDBRANCH   1   7
TORSDOF 1
ENDMDL
