MODEL 1
REMARK minimizedAffinity 7.86901999
REMARK minimizedRMSD -1
REMARK  1 active torsions:
REMARK  status: ('A' for Active; 'I' for Inactive)
REMARK    1  A    between atoms: N_2  and  C1_3 
ROOT
ATOM      1  C1  UNL d   1       0.563  -0.649  -1.902  0.00  0.00     0.143 A 
ATOM      2  C2  UNL d   1       0.303  -2.013  -1.734  0.00  0.00    -0.057 A 
ATOM      3  C3  UNL d   1       0.526  -2.928  -2.770  0.00  0.00     0.033 A 
ATOM      4  C4  UNL d   1       0.988  -2.489  -4.006  0.00  0.00    -0.042 A 
ATOM      5  C5  UNL d   1       1.230  -1.134  -4.204  0.00  0.00     0.033 A 
ATOM      6  C6  UNL d   1       1.011  -0.226  -3.163  0.00  0.00    -0.057 A 
ENDROOT
BRANCH   1   7
ATOM      7  N   UNL d   1       0.268   0.323  -0.943  0.00  0.00    -0.732 N 
ATOM      8  C   UNL d   1      -0.079   1.671  -1.342  0.00  0.00     0.284 C 
ATOM      9  H3  UNL d   1      -0.297  -0.043  -0.180  0.00  0.00     0.395 HD
ENDBRANCH   1   7
TORSDOF 1
ENDMDL
