MODEL 1
REMARK minimizedAffinity 0.232819423
REMARK minimizedRMSD -1
REMARK  1 active torsions:
REMARK  status: ('A' for Active; 'I' for Inactive)
REMARK    1  A    between atoms: N_2  and  C1_3 
ROOT
ATOM      1  C1  UNL d   1      -4.102   2.116   5.478  0.00  0.00     0.143 A 
ATOM      2  C2  UNL d   1      -4.905   3.143   5.986  0.00  0.00    -0.057 A 
ATOM      3  C3  UNL d   1      -4.466   4.472   5.993  0.00  0.00     0.033 A 
ATOM      4  C4  UNL d   1      -3.200   4.795   5.518  0.00  0.00    -0.042 A 
ATOM      5  C5  UNL d   1      -2.374   3.788   5.032  0.00  0.00     0.033 A 
ATOM      6  C6  UNL d   1      -2.821   2.463   5.021  0.00  0.00    -0.057 A 
ENDROOT
BRANCH   1   7
ATOM      7  N   UNL d   1      -4.442   0.762   5.534  0.00  0.00    -0.732 N 
ATOM      8  C   UNL d   1      -4.030  -0.145   4.485  0.00  0.00     0.284 C 
ATOM      9  H3  UNL d   1      -4.357   0.379   6.473  0.00  0.00     0.395 HD
ENDBRANCH   1   7
TORSDOF 1
ENDMDL
