MODEL 1
REMARK minimizedAffinity 6.33731461
REMARK minimizedRMSD -1
REMARK  1 active torsions:
REMARK  status: ('A' for Active; 'I' for Inactive)
REMARK    1  A    between atoms: N_2  and  C1_3 
ROOT
ATOM      1  C1  UNL d   1       4.878  -0.885  -5.799  0.00  0.00     0.143 A 
ATOM      2  C2  UNL d   1       3.696  -0.159  -5.978  0.00  0.00    -0.057 A 
ATOM      3  C3  UNL d   1       3.645   1.219  -5.734  0.00  0.00     0.033 A 
ATOM      4  C4  UNL d   1       4.774   1.892  -5.278  0.00  0.00    -0.042 A 
ATOM      5  C5  UNL d   1       5.954   1.187  -5.070  0.00  0.00     0.033 A 
ATOM      6  C6  UNL d   1       5.999  -0.188  -5.321  0.00  0.00    -0.057 A 
ENDROOT
BRANCH   1   7
ATOM      7  N   UNL d   1       4.967  -2.273  -5.930  0.00  0.00    -0.732 N 
ATOM      8  C   UNL d   1       5.746  -3.053  -4.993  0.00  0.00     0.284 C 
ATOM      9  H3  UNL d   1       4.077  -2.696  -6.185  0.00  0.00     0.395 HD
ENDBRANCH   1   7
TORSDOF 1
ENDMDL
