MODEL 1
REMARK minimizedAffinity -0.392196298
REMARK minimizedRMSD -1
REMARK  1 active torsions:
REMARK  status: ('A' for Active; 'I' for Inactive)
REMARK    1  A    between atoms: N_2  and  C1_3 
ROOT
ATOM      1  C1  UNL d   1       5.053   3.031  -4.898  0.00  0.00     0.143 A 
ATOM      2  C2  UNL d   1       4.130   2.445  -5.771  0.00  0.00    -0.057 A 
ATOM      3  C3  UNL d   1       4.120   1.064  -5.998  0.00  0.00     0.033 A 
ATOM      4  C4  UNL d   1       5.055   0.244  -5.375  0.00  0.00    -0.042 A 
ATOM      5  C5  UNL d   1       5.999   0.807  -4.523  0.00  0.00     0.033 A 
ATOM      6  C6  UNL d   1       5.999   2.186  -4.295  0.00  0.00    -0.057 A 
ENDROOT
BRANCH   1   7
ATOM      7  N   UNL d   1       5.177   4.409  -4.707  0.00  0.00    -0.732 N 
ATOM      8  C   UNL d   1       4.496   5.066  -3.612  0.00  0.00     0.284 C 
ATOM      9  H3  UNL d   1       6.127   4.739  -4.863  0.00  0.00     0.395 HD
ENDBRANCH   1   7
TORSDOF 1
ENDMDL
