MODEL 1
REMARK minimizedAffinity 5.56246233
REMARK minimizedRMSD -1
REMARK  1 active torsions:
REMARK  status: ('A' for Active; 'I' for Inactive)
REMARK    1  A    between atoms: N_2  and  C1_3 
ROOT
ATOM      1  C1  UNL d   1       3.443   3.668  -5.460  0.00  0.00     0.143 A 
ATOM      2  C2  UNL d   1       3.993   4.361  -4.377  0.00  0.00    -0.057 A 
ATOM      3  C3  UNL d   1       5.263   4.044  -3.881  0.00  0.00     0.033 A 
ATOM      4  C4  UNL d   1       5.996   3.004  -4.444  0.00  0.00    -0.042 A 
ATOM      5  C5  UNL d   1       5.458   2.284  -5.505  0.00  0.00     0.033 A 
ATOM      6  C6  UNL d   1       4.192   2.611  -6.000  0.00  0.00    -0.057 A 
ENDROOT
BRANCH   1   7
ATOM      7  N   UNL d   1       2.145   3.871  -5.935  0.00  0.00    -0.732 N 
ATOM      8  C   UNL d   1       1.584   5.204  -6.000  0.00  0.00     0.284 C 
ATOM      9  H3  UNL d   1       1.932   3.291  -6.743  0.00  0.00     0.395 HD
ENDBRANCH   1   7
TORSDOF 1
ENDMDL
