MODEL 1
REMARK minimizedAffinity -0.494769663
REMARK minimizedRMSD -1
REMARK  1 active torsions:
REMARK  status: ('A' for Active; 'I' for Inactive)
REMARK    1  A    between atoms: N_2  and  C1_3 
ROOT
ATOM      1  C1  UNL d   1       0.844  -0.080  -0.718  0.00  0.00     0.143 A 
ATOM      2  C2  UNL d   1       0.230   0.871  -1.539  0.00  0.00    -0.057 A 
ATOM      3  C3  UNL d   1       0.713   2.183  -1.618  0.00  0.00     0.033 A 
ATOM      4  C4  UNL d   1       1.806   2.575  -0.851  0.00  0.00    -0.042 A 
ATOM      5  C5  UNL d   1       2.416   1.653  -0.009  0.00  0.00     0.033 A 
ATOM      6  C6  UNL d   1       1.933   0.343   0.060  0.00  0.00    -0.057 A 
ENDROOT
BRANCH   1   7
ATOM      7  N   UNL d   1       0.351  -1.373  -0.521  0.00  0.00    -0.732 N 
ATOM      8  C   UNL d   1       0.919  -2.232   0.495  0.00  0.00     0.284 C 
ATOM      9  H3  UNL d   1      -0.664  -1.415  -0.581  0.00  0.00     0.395 HD
ENDBRANCH   1   7
TORSDOF 1
ENDMDL
