MODEL 1
REMARK minimizedAffinity 6.0508213
REMARK minimizedRMSD -1
REMARK  1 active torsions:
REMARK  status: ('A' for Active; 'I' for Inactive)
REMARK    1  A    between atoms: N_2  and  C1_3 
ROOT
ATOM      1  C1  UNL d   1       4.669   3.391  -4.998  0.00  0.00     0.143 A 
ATOM      2  C2  UNL d   1       4.508   4.538  -4.213  0.00  0.00    -0.057 A 
ATOM      3  C3  UNL d   1       3.349   5.318  -4.297  0.00  0.00     0.033 A 
ATOM      4  C4  UNL d   1       2.339   4.980  -5.192  0.00  0.00    -0.042 A 
ATOM      5  C5  UNL d   1       2.488   3.859  -6.000  0.00  0.00     0.033 A 
ATOM      6  C6  UNL d   1       3.645   3.080  -5.907  0.00  0.00    -0.057 A 
ENDROOT
BRANCH   1   7
ATOM      7  N   UNL d   1       5.840   2.630  -5.032  0.00  0.00    -0.732 N 
ATOM      8  C   UNL d   1       5.999   1.566  -6.000  0.00  0.00     0.284 C 
ATOM      9  H3  UNL d   1       6.675   3.194  -4.894  0.00  0.00     0.395 HD
ENDBRANCH   1   7
TORSDOF 1
ENDMDL
