MODEL 1
REMARK minimizedAffinity 4.86988878
REMARK minimizedRMSD -1
REMARK  1 active torsions:
REMARK  status: ('A' for Active; 'I' for Inactive)
REMARK    1  A    between atoms: N_2  and  C1_3 
ROOT
ATOM      1  C1  UNL d   1       3.339   3.572  -5.508  0.00  0.00     0.143 A 
ATOM      2  C2  UNL d   1       4.161   2.553  -6.000  0.00  0.00    -0.057 A 
ATOM      3  C3  UNL d   1       5.473   2.392  -5.538  0.00  0.00     0.033 A 
ATOM      4  C4  UNL d   1       5.996   3.268  -4.593  0.00  0.00    -0.042 A 
ATOM      5  C5  UNL d   1       5.205   4.304  -4.108  0.00  0.00     0.033 A 
ATOM      6  C6  UNL d   1       3.894   4.456  -4.569  0.00  0.00    -0.057 A 
ENDROOT
BRANCH   1   7
ATOM      7  N   UNL d   1       2.060   3.845  -5.999  0.00  0.00    -0.732 N 
ATOM      8  C   UNL d   1       1.542   5.196  -6.000  0.00  0.00     0.284 C 
ATOM      9  H3  UNL d   1       1.848   3.318  -6.844  0.00  0.00     0.395 HD
ENDBRANCH   1   7
TORSDOF 1
ENDMDL
