MODEL 1
REMARK minimizedAffinity 6.92688036
REMARK minimizedRMSD -1
REMARK  1 active torsions:
REMARK  status: ('A' for Active; 'I' for Inactive)
REMARK    1  A    between atoms: N_2  and  C1_3 
ROOT
ATOM      1  C1  UNL d   1      -3.982   5.549   3.522  0.00  0.00     0.143 A 
ATOM      2  C2  UNL d   1      -5.363   5.762   3.593  0.00  0.00    -0.057 A 
ATOM      3  C3  UNL d   1      -5.999   6.000   4.817  0.00  0.00     0.033 A 
ATOM      4  C4  UNL d   1      -5.268   5.999   6.000  0.00  0.00    -0.042 A 
ATOM      5  C5  UNL d   1      -3.898   5.765   5.956  0.00  0.00     0.033 A 
ATOM      6  C6  UNL d   1      -3.267   5.535   4.730  0.00  0.00    -0.057 A 
ENDROOT
BRANCH   1   7
ATOM      7  N   UNL d   1      -3.306   5.210   2.347  0.00  0.00    -0.732 N 
ATOM      8  C   UNL d   1      -3.839   4.204   1.455  0.00  0.00     0.284 C 
ATOM      9  H3  UNL d   1      -2.920   6.024   1.873  0.00  0.00     0.395 HD
ENDBRANCH   1   7
TORSDOF 1
ENDMDL
