MODEL 1
REMARK minimizedAffinity 5.10842371
REMARK minimizedRMSD -1
REMARK  1 active torsions:
REMARK  status: ('A' for Active; 'I' for Inactive)
REMARK    1  A    between atoms: C1_2  and  C2_3 
ROOT
ATOM      1  C2  UNL d   1      -3.631   1.470   4.016  0.00  0.00    -0.076 A 
ATOM      2  C3  UNL d   1      -3.525   2.025   5.303  0.00  0.00     0.004 A 
ATOM      3  C4  UNL d   1      -4.636   2.571   5.943  0.00  0.00    -0.003 A 
ATOM      4  C5  UNL d   1      -5.872   2.571   5.306  0.00  0.00     0.000 A 
ATOM      5  C6  UNL d   1      -6.000   2.009   4.036  0.00  0.00     0.000 A 
ATOM      6  C7  UNL d   1      -4.893   1.439   3.384  0.00  0.00    -0.073 A 
ATOM      7  C8  UNL d   1      -5.087   0.852   2.013  0.00  0.00     0.078 C 
ENDROOT
BRANCH   1   8
ATOM      8  C1  UNL d   1      -2.386   0.916   3.361  0.00  0.00     0.053 C 
ATOM      9  C   UNL d   1      -1.579   0.031   4.298  0.00  0.00     0.018 C 
ENDBRANCH   1   8
TORSDOF 1
ENDMDL
