MODEL 1
REMARK minimizedAffinity 8.3992281
REMARK minimizedRMSD -1
REMARK  1 active torsions:
REMARK  status: ('A' for Active; 'I' for Inactive)
REMARK    1  A    between atoms: C1_2  and  C2_3 
ROOT
ATOM      1  C2  UNL d   1      -1.229  -1.171   2.174  0.00  0.00    -0.076 A 
ATOM      2  C3  UNL d   1       0.159  -1.005   2.322  0.00  0.00     0.004 A 
ATOM      3  C4  UNL d   1       1.038  -2.058   2.074  0.00  0.00    -0.003 A 
ATOM      4  C5  UNL d   1       0.543  -3.295   1.674  0.00  0.00     0.000 A 
ATOM      5  C6  UNL d   1      -0.830  -3.472   1.505  0.00  0.00     0.000 A 
ATOM      6  C7  UNL d   1      -1.728  -2.416   1.734  0.00  0.00    -0.073 A 
ATOM      7  C8  UNL d   1      -3.199  -2.664   1.543  0.00  0.00     0.078 C 
ENDROOT
BRANCH   1   8
ATOM      8  C1  UNL d   1      -2.135  -0.001   2.483  0.00  0.00     0.053 C 
ATOM      9  C   UNL d   1      -2.244   0.274   3.975  0.00  0.00     0.018 C 
ENDBRANCH   1   8
TORSDOF 1
ENDMDL
