MODEL 1
REMARK minimizedAffinity 10.7407818
REMARK minimizedRMSD -1
REMARK  1 active torsions:
REMARK  status: ('A' for Active; 'I' for Inactive)
REMARK    1  A    between atoms: C1_2  and  C2_3 
ROOT
ATOM      1  C2  UNL d   1       2.338   3.269  -2.278  0.00  0.00    -0.076 A 
ATOM      2  C3  UNL d   1       0.999   3.691  -2.349  0.00  0.00     0.004 A 
ATOM      3  C4  UNL d   1       0.668   5.043  -2.280  0.00  0.00    -0.003 A 
ATOM      4  C5  UNL d   1       1.671   5.996  -2.140  0.00  0.00     0.000 A 
ATOM      5  C6  UNL d   1       3.006   5.596  -2.085  0.00  0.00     0.000 A 
ATOM      6  C7  UNL d   1       3.358   4.238  -2.170  0.00  0.00    -0.073 A 
ATOM      7  C8  UNL d   1       4.813   3.864  -2.100  0.00  0.00     0.078 C 
ENDROOT
BRANCH   1   8
ATOM      8  C1  UNL d   1       2.635   1.787  -2.330  0.00  0.00     0.053 C 
ATOM      9  C   UNL d   1       2.544   1.126  -0.963  0.00  0.00     0.018 C 
ENDBRANCH   1   8
TORSDOF 1
ENDMDL
