MODEL 1
REMARK minimizedAffinity 5.04940653
REMARK minimizedRMSD -1
REMARK  1 active torsions:
REMARK  status: ('A' for Active; 'I' for Inactive)
REMARK    1  A    between atoms: C1_2  and  C2_3 
ROOT
ATOM      1  C2  UNL d   1      -2.464   0.036   2.109  0.00  0.00    -0.076 A 
ATOM      2  C3  UNL d   1      -1.705  -1.028   1.591  0.00  0.00     0.004 A 
ATOM      3  C4  UNL d   1      -0.728  -1.655   2.362  0.00  0.00    -0.003 A 
ATOM      4  C5  UNL d   1      -0.493  -1.228   3.664  0.00  0.00     0.000 A 
ATOM      5  C6  UNL d   1      -1.248  -0.186   4.200  0.00  0.00     0.000 A 
ATOM      6  C7  UNL d   1      -2.249   0.446   3.442  0.00  0.00    -0.073 A 
ATOM      7  C8  UNL d   1      -3.029   1.569   4.069  0.00  0.00     0.078 C 
ENDROOT
BRANCH   1   8
ATOM      8  C1  UNL d   1      -3.492   0.695   1.217  0.00  0.00     0.053 C 
ATOM      9  C   UNL d   1      -4.417  -0.312   0.552  0.00  0.00     0.018 C 
ENDBRANCH   1   8
TORSDOF 1
ENDMDL
