MODEL 1
REMARK minimizedAffinity 10.2065067
REMARK minimizedRMSD -1
REMARK  1 active torsions:
REMARK  status: ('A' for Active; 'I' for Inactive)
REMARK    1  A    between atoms: C1_2  and  C2_3 
ROOT
ATOM      1  C2  UNL d   1      -5.802   0.136  -1.128  0.00  0.00    -0.076 A 
ATOM      2  C3  UNL d   1      -5.999   1.475  -1.510  0.00  0.00     0.004 A 
ATOM      3  C4  UNL d   1      -5.939   2.504  -0.572  0.00  0.00    -0.003 A 
ATOM      4  C5  UNL d   1      -5.682   2.212   0.762  0.00  0.00     0.000 A 
ATOM      5  C6  UNL d   1      -5.466   0.892   1.156  0.00  0.00     0.000 A 
ATOM      6  C7  UNL d   1      -5.506  -0.157   0.220  0.00  0.00    -0.073 A 
ATOM      7  C8  UNL d   1      -5.272  -1.563   0.701  0.00  0.00     0.078 C 
ENDROOT
BRANCH   1   8
ATOM      8  C1  UNL d   1      -5.905  -0.941  -2.185  0.00  0.00     0.053 C 
ATOM      9  C   UNL d   1      -5.998  -0.370  -3.591  0.00  0.00     0.018 C 
ENDBRANCH   1   8
TORSDOF 1
ENDMDL
