MODEL 1
REMARK minimizedAffinity 12.2045546
REMARK minimizedRMSD -1
REMARK  1 active torsions:
REMARK  status: ('A' for Active; 'I' for Inactive)
REMARK    1  A    between atoms: C1_2  and  C2_3 
ROOT
ATOM      1  C2  UNL d   1      -3.068   1.020   3.865  0.00  0.00    -0.076 A 
ATOM      2  C3  UNL d   1      -3.535   0.837   2.551  0.00  0.00     0.004 A 
ATOM      3  C4  UNL d   1      -2.887  -0.032   1.674  0.00  0.00    -0.003 A 
ATOM      4  C5  UNL d   1      -1.762  -0.732   2.097  0.00  0.00     0.000 A 
ATOM      5  C6  UNL d   1      -1.296  -0.576   3.402  0.00  0.00     0.000 A 
ATOM      6  C7  UNL d   1      -1.947   0.283   4.303  0.00  0.00    -0.073 A 
ATOM      7  C8  UNL d   1      -1.397   0.418   5.697  0.00  0.00     0.078 C 
ENDROOT
BRANCH   1   8
ATOM      8  C1  UNL d   1      -3.795   1.995   4.762  0.00  0.00     0.053 C 
ATOM      9  C   UNL d   1      -5.307   1.877   4.648  0.00  0.00     0.018 C 
ENDBRANCH   1   8
TORSDOF 1
ENDMDL
