MODEL 1
REMARK minimizedAffinity 12.4012327
REMARK minimizedRMSD -1
REMARK  1 active torsions:
REMARK  status: ('A' for Active; 'I' for Inactive)
REMARK    1  A    between atoms: C1_2  and  C2_3 
ROOT
ATOM      1  C2  UNL d   1      -3.627   1.545   4.613  0.00  0.00    -0.076 A 
ATOM      2  C3  UNL d   1      -2.633   1.230   5.556  0.00  0.00     0.004 A 
ATOM      3  C4  UNL d   1      -1.501   0.504   5.191  0.00  0.00    -0.003 A 
ATOM      4  C5  UNL d   1      -1.344   0.081   3.876  0.00  0.00     0.000 A 
ATOM      5  C6  UNL d   1      -2.311   0.399   2.923  0.00  0.00     0.000 A 
ATOM      6  C7  UNL d   1      -3.451   1.145   3.271  0.00  0.00    -0.073 A 
ATOM      7  C8  UNL d   1      -4.465   1.454   2.204  0.00  0.00     0.078 C 
ENDROOT
BRANCH   1   8
ATOM      8  C1  UNL d   1      -4.846   2.312   5.073  0.00  0.00     0.053 C 
ATOM      9  C   UNL d   1      -4.488   3.512   5.936  0.00  0.00     0.018 C 
ENDBRANCH   1   8
TORSDOF 1
ENDMDL
