MODEL 1
REMARK minimizedAffinity 15.9529133
REMARK minimizedRMSD -1
REMARK  1 active torsions:
REMARK  status: ('A' for Active; 'I' for Inactive)
REMARK    1  A    between atoms: C1_2  and  C2_3 
ROOT
ATOM      1  C2  UNL d   1       4.252   3.439  -2.539  0.00  0.00    -0.076 A 
ATOM      2  C3  UNL d   1       3.965   2.942  -1.256  0.00  0.00     0.004 A 
ATOM      3  C4  UNL d   1       3.125   1.843  -1.083  0.00  0.00    -0.003 A 
ATOM      4  C5  UNL d   1       2.560   1.222  -2.192  0.00  0.00     0.000 A 
ATOM      5  C6  UNL d   1       2.848   1.691  -3.473  0.00  0.00     0.000 A 
ATOM      6  C7  UNL d   1       3.705   2.788  -3.665  0.00  0.00    -0.073 A 
ATOM      7  C8  UNL d   1       3.976   3.255  -5.069  0.00  0.00     0.078 C 
ENDROOT
BRANCH   1   8
ATOM      8  C1  UNL d   1       5.147   4.651  -2.663  0.00  0.00     0.053 C 
ATOM      9  C   UNL d   1       5.522   5.240  -1.311  0.00  0.00     0.018 C 
ENDBRANCH   1   8
TORSDOF 1
ENDMDL
