MODEL 1
REMARK minimizedAffinity 13.2397966
REMARK minimizedRMSD -1
REMARK  1 active torsions:
REMARK  status: ('A' for Active; 'I' for Inactive)
REMARK    1  A    between atoms: C1_2  and  C2_3 
ROOT
ATOM      1  C2  UNL d   1       4.160  -3.444  -0.260  0.00  0.00    -0.076 A 
ATOM      2  C3  UNL d   1       5.471  -3.602  -0.742  0.00  0.00     0.004 A 
ATOM      3  C4  UNL d   1       5.999  -4.869  -0.984  0.00  0.00    -0.003 A 
ATOM      4  C5  UNL d   1       5.223  -5.999  -0.750  0.00  0.00     0.000 A 
ATOM      5  C6  UNL d   1       3.914  -5.860  -0.289  0.00  0.00     0.000 A 
ATOM      6  C7  UNL d   1       3.362  -4.589  -0.055  0.00  0.00    -0.073 A 
ATOM      7  C8  UNL d   1       1.947  -4.498   0.448  0.00  0.00     0.078 C 
ENDROOT
BRANCH   1   8
ATOM      8  C1  UNL d   1       3.652  -2.046   0.010  0.00  0.00     0.053 C 
ATOM      9  C   UNL d   1       3.325  -1.818   1.478  0.00  0.00     0.018 C 
ENDBRANCH   1   8
TORSDOF 1
ENDMDL
