MODEL 1
REMARK minimizedAffinity 14.3307467
REMARK minimizedRMSD -1
REMARK  1 active torsions:
REMARK  status: ('A' for Active; 'I' for Inactive)
REMARK    1  A    between atoms: C1_2  and  C2_3 
ROOT
ATOM      1  C2  UNL d   1      -0.270  -0.892   2.725  0.00  0.00    -0.076 A 
ATOM      2  C3  UNL d   1      -0.150  -0.277   3.984  0.00  0.00     0.004 A 
ATOM      3  C4  UNL d   1      -1.134   0.591   4.455  0.00  0.00    -0.003 A 
ATOM      4  C5  UNL d   1      -2.254   0.858   3.675  0.00  0.00     0.000 A 
ATOM      5  C6  UNL d   1      -2.398   0.243   2.432  0.00  0.00     0.000 A 
ATOM      6  C7  UNL d   1      -1.424  -0.647   1.949  0.00  0.00    -0.073 A 
ATOM      7  C8  UNL d   1      -1.627  -1.278   0.599  0.00  0.00     0.078 C 
ENDROOT
BRANCH   1   8
ATOM      8  C1  UNL d   1       0.842  -1.802   2.255  0.00  0.00     0.053 C 
ATOM      9  C   UNL d   1       2.202  -1.388   2.795  0.00  0.00     0.018 C 
ENDBRANCH   1   8
TORSDOF 1
ENDMDL
