MODEL 1
REMARK minimizedAffinity 7.40257311
REMARK minimizedRMSD -1
REMARK  1 active torsions:
REMARK  status: ('A' for Active; 'I' for Inactive)
REMARK    1  A    between atoms: C1_2  and  C2_3 
ROOT
ATOM      1  C2  UNL d   1       0.048  -0.819   3.852  0.00  0.00    -0.076 A 
ATOM      2  C3  UNL d   1      -0.087  -0.444   5.200  0.00  0.00     0.004 A 
ATOM      3  C4  UNL d   1      -0.987   0.549   5.582  0.00  0.00    -0.003 A 
ATOM      4  C5  UNL d   1      -1.767   1.183   4.622  0.00  0.00     0.000 A 
ATOM      5  C6  UNL d   1      -1.660   0.812   3.282  0.00  0.00     0.000 A 
ATOM      6  C7  UNL d   1      -0.769  -0.199   2.882  0.00  0.00    -0.073 A 
ATOM      7  C8  UNL d   1      -0.689  -0.556   1.423  0.00  0.00     0.078 C 
ENDROOT
BRANCH   1   8
ATOM      8  C1  UNL d   1       1.060  -1.884   3.494  0.00  0.00     0.053 C 
ATOM      9  C   UNL d   1       2.442  -1.308   3.227  0.00  0.00     0.018 C 
ENDBRANCH   1   8
TORSDOF 1
ENDMDL
