MODEL 1
REMARK minimizedAffinity 15.1095514
REMARK minimizedRMSD -1
REMARK  1 active torsions:
REMARK  status: ('A' for Active; 'I' for Inactive)
REMARK    1  A    between atoms: C1_2  and  C2_3 
ROOT
ATOM      1  C2  UNL d   1       3.626   3.878  -3.020  0.00  0.00    -0.076 A 
ATOM      2  C3  UNL d   1       3.911   4.613  -1.857  0.00  0.00     0.004 A 
ATOM      3  C4  UNL d   1       5.088   5.351  -1.744  0.00  0.00    -0.003 A 
ATOM      4  C5  UNL d   1       6.000   5.366  -2.794  0.00  0.00     0.000 A 
ATOM      5  C6  UNL d   1       5.726   4.656  -3.963  0.00  0.00     0.000 A 
ATOM      6  C7  UNL d   1       4.536   3.920  -4.099  0.00  0.00    -0.073 A 
ATOM      7  C8  UNL d   1       4.294   3.169  -5.379  0.00  0.00     0.078 C 
ENDROOT
BRANCH   1   8
ATOM      8  C1  UNL d   1       2.347   3.074  -3.075  0.00  0.00     0.053 C 
ATOM      9  C   UNL d   1       2.389   1.850  -2.174  0.00  0.00     0.018 C 
ENDBRANCH   1   8
TORSDOF 1
ENDMDL
