MODEL 1
REMARK minimizedAffinity 9.68923092
REMARK minimizedRMSD -1
REMARK  1 active torsions:
REMARK  status: ('A' for Active; 'I' for Inactive)
REMARK    1  A    between atoms: C1_2  and  C2_3 
ROOT
ATOM      1  C2  UNL d   1      -0.288  -5.297  -4.193  0.00  0.00    -0.076 A 
ATOM      2  C3  UNL d   1      -0.495  -5.665  -5.534  0.00  0.00     0.004 A 
ATOM      3  C4  UNL d   1      -1.765  -6.000  -5.999  0.00  0.00    -0.003 A 
ATOM      4  C5  UNL d   1      -2.850  -5.971  -5.129  0.00  0.00     0.000 A 
ATOM      5  C6  UNL d   1      -2.667  -5.592  -3.800  0.00  0.00     0.000 A 
ATOM      6  C7  UNL d   1      -1.395  -5.235  -3.320  0.00  0.00    -0.073 A 
ATOM      7  C8  UNL d   1      -1.253  -4.840  -1.876  0.00  0.00     0.078 C 
ENDROOT
BRANCH   1   8
ATOM      8  C1  UNL d   1       1.118  -4.971  -3.741  0.00  0.00     0.053 C 
ATOM      9  C   UNL d   1       2.139  -5.985  -4.232  0.00  0.00     0.018 C 
ENDBRANCH   1   8
TORSDOF 1
ENDMDL
