MODEL 1
REMARK minimizedAffinity 8.8887043
REMARK minimizedRMSD -1
REMARK  1 active torsions:
REMARK  status: ('A' for Active; 'I' for Inactive)
REMARK    1  A    between atoms: C1_2  and  C2_3 
ROOT
ATOM      1  C2  UNL d   1      -0.131  -1.892   2.701  0.00  0.00    -0.076 A 
ATOM      2  C3  UNL d   1      -0.739  -0.759   2.135  0.00  0.00     0.004 A 
ATOM      3  C4  UNL d   1      -0.947   0.396   2.888  0.00  0.00    -0.003 A 
ATOM      4  C5  UNL d   1      -0.550   0.435   4.220  0.00  0.00     0.000 A 
ATOM      5  C6  UNL d   1       0.070  -0.675   4.794  0.00  0.00     0.000 A 
ATOM      6  C7  UNL d   1       0.303  -1.840   4.044  0.00  0.00    -0.073 A 
ATOM      7  C8  UNL d   1       0.970  -3.009   4.714  0.00  0.00     0.078 C 
ENDROOT
BRANCH   1   8
ATOM      8  C1  UNL d   1       0.044  -3.125   1.843  0.00  0.00     0.053 C 
ATOM      9  C   UNL d   1      -1.215  -3.478   1.067  0.00  0.00     0.018 C 
ENDBRANCH   1   8
TORSDOF 1
ENDMDL
