MODEL 1
REMARK minimizedAffinity 8.74203587
REMARK minimizedRMSD -1
REMARK  1 active torsions:
REMARK  status: ('A' for Active; 'I' for Inactive)
REMARK    1  A    between atoms: C1_2  and  C2_3 
ROOT
ATOM      1  C2  UNL d   1       0.053  -0.679   2.809  0.00  0.00    -0.076 A 
ATOM      2  C3  UNL d   1       0.126  -0.089   4.084  0.00  0.00     0.004 A 
ATOM      3  C4  UNL d   1      -0.894   0.738   4.551  0.00  0.00    -0.003 A 
ATOM      4  C5  UNL d   1      -2.004   0.988   3.752  0.00  0.00     0.000 A 
ATOM      5  C6  UNL d   1      -2.101   0.398   2.492  0.00  0.00     0.000 A 
ATOM      6  C7  UNL d   1      -1.089  -0.451   2.013  0.00  0.00    -0.073 A 
ATOM      7  C8  UNL d   1      -1.243  -1.057   0.644  0.00  0.00     0.078 C 
ENDROOT
BRANCH   1   8
ATOM      8  C1  UNL d   1       1.203  -1.544   2.345  0.00  0.00     0.053 C 
ATOM      9  C   UNL d   1       2.209  -1.819   3.452  0.00  0.00     0.018 C 
ENDBRANCH   1   8
TORSDOF 1
ENDMDL
