MODEL 1
REMARK minimizedAffinity 13.1675901
REMARK minimizedRMSD -1
REMARK  1 active torsions:
REMARK  status: ('A' for Active; 'I' for Inactive)
REMARK    1  A    between atoms: C1_2  and  C2_3 
ROOT
ATOM      1  C2  UNL d   1      -2.838   0.003   2.237  0.00  0.00    -0.076 A 
ATOM      2  C3  UNL d   1      -2.263  -0.832   1.263  0.00  0.00     0.004 A 
ATOM      3  C4  UNL d   1      -0.907  -1.152   1.301  0.00  0.00    -0.003 A 
ATOM      4  C5  UNL d   1      -0.103  -0.643   2.315  0.00  0.00     0.000 A 
ATOM      5  C6  UNL d   1      -0.660   0.173   3.300  0.00  0.00     0.000 A 
ATOM      6  C7  UNL d   1      -2.029   0.492   3.285  0.00  0.00    -0.073 A 
ATOM      7  C8  UNL d   1      -2.574   1.380   4.369  0.00  0.00     0.078 C 
ENDROOT
BRANCH   1   8
ATOM      8  C1  UNL d   1      -4.308   0.337   2.129  0.00  0.00     0.053 C 
ATOM      9  C   UNL d   1      -4.670   0.945   0.783  0.00  0.00     0.018 C 
ENDBRANCH   1   8
TORSDOF 1
ENDMDL
