MODEL 1
REMARK minimizedAffinity 7.48152733
REMARK minimizedRMSD -1
REMARK  0 active torsions:
REMARK  status: ('A' for Active; 'I' for Inactive)
ROOT
ATOM      1  C   UNL d   1       2.452  -3.413   2.032  0.00  0.00     0.023 A 
ATOM      2  C1  UNL d   1       1.189  -2.825   1.975  0.00  0.00     0.003 A 
ATOM      3  C2  UNL d   1       1.061  -1.471   1.659  0.00  0.00     0.048 A 
ATOM      4  C3  UNL d   1       2.202  -0.711   1.400  0.00  0.00     0.023 A 
ATOM      5  C4  UNL d   1       3.468  -1.296   1.454  0.00  0.00     0.048 A 
ATOM      6  C5  UNL d   1       3.590  -2.650   1.772  0.00  0.00     0.003 A 
ATOM      7  I   UNL d   1       2.015   1.305   0.929  0.00  0.00    -0.146 I 
ENDROOT
TORSDOF 0
ENDMDL
