MODEL 1
REMARK minimizedAffinity 0.446805686
REMARK minimizedRMSD -1
REMARK  0 active torsions:
REMARK  status: ('A' for Active; 'I' for Inactive)
ROOT
ATOM      1  C   UNL d   1       1.220  -3.490   2.738  0.00  0.00     0.023 A 
ATOM      2  C1  UNL d   1       2.448  -2.945   3.113  0.00  0.00     0.003 A 
ATOM      3  C2  UNL d   1       2.911  -1.778   2.503  0.00  0.00     0.048 A 
ATOM      4  C3  UNL d   1       2.139  -1.159   1.520  0.00  0.00     0.023 A 
ATOM      5  C4  UNL d   1       0.909  -1.700   1.142  0.00  0.00     0.048 A 
ATOM      6  C5  UNL d   1       0.451  -2.868   1.754  0.00  0.00     0.003 A 
ATOM      7  I   UNL d   1       2.825   0.580   0.611  0.00  0.00    -0.146 I 
ENDROOT
TORSDOF 0
ENDMDL
