MODEL 1
REMARK minimizedAffinity 2.14872146
REMARK minimizedRMSD -1
REMARK  0 active torsions:
REMARK  status: ('A' for Active; 'I' for Inactive)
ROOT
ATOM      1  C   UNL d   1       2.672  -0.832   1.169  0.00  0.00     0.023 A 
ATOM      2  C1  UNL d   1       1.697  -1.819   1.315  0.00  0.00     0.003 A 
ATOM      3  C2  UNL d   1       0.344  -1.481   1.246  0.00  0.00     0.048 A 
ATOM      4  C3  UNL d   1      -0.027  -0.154   1.030  0.00  0.00     0.023 A 
ATOM      5  C4  UNL d   1       0.945   0.837   0.883  0.00  0.00     0.048 A 
ATOM      6  C5  UNL d   1       2.297   0.494   0.953  0.00  0.00     0.003 A 
ATOM      7  I   UNL d   1      -2.040   0.352   0.926  0.00  0.00    -0.146 I 
ENDROOT
TORSDOF 0
ENDMDL
