MODEL 1
REMARK minimizedAffinity 1.66842747
REMARK minimizedRMSD -1
REMARK  0 active torsions:
REMARK  status: ('A' for Active; 'I' for Inactive)
ROOT
ATOM      1  C   UNL d   1       0.098  -2.262  -2.647  0.00  0.00     0.023 A 
ATOM      2  C1  UNL d   1      -0.775  -1.874  -1.631  0.00  0.00     0.003 A 
ATOM      3  C2  UNL d   1      -0.324  -1.800  -0.311  0.00  0.00     0.048 A 
ATOM      4  C3  UNL d   1       1.001  -2.114  -0.015  0.00  0.00     0.023 A 
ATOM      5  C4  UNL d   1       1.879  -2.502  -1.029  0.00  0.00     0.048 A 
ATOM      6  C5  UNL d   1       1.424  -2.576  -2.346  0.00  0.00     0.003 A 
ATOM      7  I   UNL d   1       1.675  -2.004   1.948  0.00  0.00    -0.146 I 
ENDROOT
TORSDOF 0
ENDMDL
