MODEL 1
REMARK minimizedAffinity -2.5008328
REMARK minimizedRMSD -1
REMARK  0 active torsions:
REMARK  status: ('A' for Active; 'I' for Inactive)
ROOT
ATOM      1  C   UNL d   1      -1.214  -2.609   1.776  0.00  0.00     0.023 A 
ATOM      2  C1  UNL d   1      -0.724  -1.608   0.936  0.00  0.00     0.003 A 
ATOM      3  C2  UNL d   1       0.650  -1.366   0.864  0.00  0.00     0.048 A 
ATOM      4  C3  UNL d   1       1.528  -2.129   1.634  0.00  0.00     0.023 A 
ATOM      5  C4  UNL d   1       1.042  -3.132   2.474  0.00  0.00     0.048 A 
ATOM      6  C5  UNL d   1      -0.332  -3.370   2.544  0.00  0.00     0.003 A 
ATOM      7  I   UNL d   1       3.572  -1.771   1.528  0.00  0.00    -0.146 I 
ENDROOT
TORSDOF 0
ENDMDL
