MODEL 1
REMARK minimizedAffinity -2.19959831
REMARK minimizedRMSD -1
REMARK  0 active torsions:
REMARK  status: ('A' for Active; 'I' for Inactive)
ROOT
ATOM      1  C   UNL d   1       4.238  -0.693   0.150  0.00  0.00     0.023 A 
ATOM      2  C1  UNL d   1       3.950  -1.685   1.088  0.00  0.00     0.003 A 
ATOM      3  C2  UNL d   1       3.188  -1.380   2.218  0.00  0.00     0.048 A 
ATOM      4  C3  UNL d   1       2.716  -0.081   2.403  0.00  0.00     0.023 A 
ATOM      5  C4  UNL d   1       3.000   0.914   1.467  0.00  0.00     0.048 A 
ATOM      6  C5  UNL d   1       3.763   0.605   0.340  0.00  0.00     0.003 A 
ATOM      7  I   UNL d   1       1.581   0.375   4.084  0.00  0.00    -0.146 I 
ENDROOT
TORSDOF 0
ENDMDL
