MODEL 1
REMARK minimizedAffinity -0.116826862
REMARK minimizedRMSD -1
REMARK  0 active torsions:
REMARK  status: ('A' for Active; 'I' for Inactive)
ROOT
ATOM      1  C   UNL d   1      -0.515  -0.458  -0.193  0.00  0.00     0.023 A 
ATOM      2  C1  UNL d   1      -0.781  -1.063  -1.421  0.00  0.00     0.003 A 
ATOM      3  C2  UNL d   1       0.199  -1.838  -2.046  0.00  0.00     0.048 A 
ATOM      4  C3  UNL d   1       1.441  -2.005  -1.435  0.00  0.00     0.023 A 
ATOM      5  C4  UNL d   1       1.711  -1.402  -0.206  0.00  0.00     0.048 A 
ATOM      6  C5  UNL d   1       0.729  -0.628   0.414  0.00  0.00     0.003 A 
ATOM      7  I   UNL d   1       2.901  -3.158  -2.363  0.00  0.00    -0.146 I 
ENDROOT
TORSDOF 0
ENDMDL
