MODEL 1
REMARK minimizedAffinity 4.24012899
REMARK minimizedRMSD -1
REMARK  0 active torsions:
REMARK  status: ('A' for Active; 'I' for Inactive)
ROOT
ATOM      1  C   UNL d   1      -0.131   0.906   0.311  0.00  0.00    -0.002 A 
ATOM      2  C1  UNL d   1      -0.092  -0.479   0.403  0.00  0.00     0.010 A 
ATOM      3  C2  UNL d   1      -0.711  -1.272  -0.565  0.00  0.00     0.041 A 
ATOM      4  C3  UNL d   1      -1.374  -0.645  -1.638  0.00  0.00    -0.075 A 
ATOM      5  S   UNL d   1      -2.202  -1.414  -2.941  0.00  0.00     0.015 SA
ATOM      6  C4  UNL d   1      -2.625   0.077  -3.651  0.00  0.00     0.022 A 
ATOM      7  C5  UNL d   1      -2.155   1.145  -2.925  0.00  0.00     0.026 A 
ATOM      8  C6  UNL d   1      -1.426   0.747  -1.753  0.00  0.00    -0.082 A 
ATOM      9  C7  UNL d   1      -0.789   1.524  -0.755  0.00  0.00     0.045 A 
ENDROOT
TORSDOF 0
ENDMDL
