MODEL 1
REMARK minimizedAffinity -0.339777142
REMARK minimizedRMSD -1
REMARK  0 active torsions:
REMARK  status: ('A' for Active; 'I' for Inactive)
ROOT
ATOM      1  C   UNL d   1       2.650   1.479   1.048  0.00  0.00    -0.002 A 
ATOM      2  C1  UNL d   1       3.056   0.173   1.281  0.00  0.00     0.010 A 
ATOM      3  C2  UNL d   1       2.169  -0.890   1.101  0.00  0.00     0.041 A 
ATOM      4  C3  UNL d   1       0.853  -0.615   0.678  0.00  0.00    -0.075 A 
ATOM      5  S   UNL d   1      -0.406  -1.757   0.391  0.00  0.00     0.015 SA
ATOM      6  C4  UNL d   1      -1.513  -0.537  -0.048  0.00  0.00     0.022 A 
ATOM      7  C5  UNL d   1      -0.953   0.716   0.018  0.00  0.00     0.026 A 
ATOM      8  C6  UNL d   1       0.421   0.692   0.437  0.00  0.00    -0.082 A 
ATOM      9  C7  UNL d   1       1.344   1.748   0.629  0.00  0.00     0.045 A 
ENDROOT
TORSDOF 0
ENDMDL
