MODEL 1
REMARK minimizedAffinity -1.51511478
REMARK minimizedRMSD -1
REMARK  0 active torsions:
REMARK  status: ('A' for Active; 'I' for Inactive)
ROOT
ATOM      1  C   UNL d   1       3.095  -0.975   0.501  0.00  0.00    -0.002 A 
ATOM      2  C1  UNL d   1       2.831  -0.333   1.702  0.00  0.00     0.010 A 
ATOM      3  C2  UNL d   1       1.561   0.182   1.969  0.00  0.00     0.041 A 
ATOM      4  C3  UNL d   1       0.550   0.037   0.999  0.00  0.00    -0.075 A 
ATOM      5  S   UNL d   1      -1.081   0.587   1.107  0.00  0.00     0.015 SA
ATOM      6  C4  UNL d   1      -1.466  -0.018  -0.439  0.00  0.00     0.022 A 
ATOM      7  C5  UNL d   1      -0.389  -0.628  -1.037  0.00  0.00     0.026 A 
ATOM      8  C6  UNL d   1       0.790  -0.607  -0.218  0.00  0.00    -0.082 A 
ATOM      9  C7  UNL d   1       2.089  -1.117  -0.459  0.00  0.00     0.045 A 
ENDROOT
TORSDOF 0
ENDMDL
