MODEL 1
REMARK minimizedAffinity -0.320682049
REMARK minimizedRMSD -1
REMARK  0 active torsions:
REMARK  status: ('A' for Active; 'I' for Inactive)
ROOT
ATOM      1  C   UNL d   1      -0.267   0.127   0.783  0.00  0.00    -0.002 A 
ATOM      2  C1  UNL d   1       0.722  -0.019  -0.179  0.00  0.00     0.010 A 
ATOM      3  C2  UNL d   1       0.393  -0.073  -1.535  0.00  0.00     0.041 A 
ATOM      4  C3  UNL d   1      -0.961   0.026  -1.911  0.00  0.00    -0.075 A 
ATOM      5  S   UNL d   1      -1.600  -0.013  -3.512  0.00  0.00     0.015 SA
ATOM      6  C4  UNL d   1      -3.202   0.164  -2.957  0.00  0.00     0.022 A 
ATOM      7  C5  UNL d   1      -3.266   0.253  -1.586  0.00  0.00     0.026 A 
ATOM      8  C6  UNL d   1      -1.975   0.176  -0.961  0.00  0.00    -0.082 A 
ATOM      9  C7  UNL d   1      -1.609   0.226   0.406  0.00  0.00     0.045 A 
ENDROOT
TORSDOF 0
ENDMDL
