MODEL 1
REMARK minimizedAffinity -5.11933947
REMARK minimizedRMSD -1
REMARK  0 active torsions:
REMARK  status: ('A' for Active; 'I' for Inactive)
ROOT
ATOM      1  C   UNL d   1       2.639  -1.167   0.769  0.00  0.00    -0.002 A 
ATOM      2  C1  UNL d   1       1.468  -1.655   1.333  0.00  0.00     0.010 A 
ATOM      3  C2  UNL d   1       0.231  -1.389   0.743  0.00  0.00     0.041 A 
ATOM      4  C3  UNL d   1       0.190  -0.619  -0.436  0.00  0.00    -0.075 A 
ATOM      5  S   UNL d   1      -1.210  -0.168  -1.335  0.00  0.00     0.015 SA
ATOM      6  C4  UNL d   1      -0.288   0.681  -2.489  0.00  0.00     0.022 A 
ATOM      7  C5  UNL d   1       1.058   0.632  -2.211  0.00  0.00     0.026 A 
ATOM      8  C6  UNL d   1       1.356  -0.118  -1.024  0.00  0.00    -0.082 A 
ATOM      9  C7  UNL d   1       2.594  -0.404  -0.401  0.00  0.00     0.045 A 
ENDROOT
TORSDOF 0
ENDMDL
