MODEL 1
REMARK minimizedAffinity -4.10546923
REMARK minimizedRMSD -1
REMARK  0 active torsions:
REMARK  status: ('A' for Active; 'I' for Inactive)
ROOT
ATOM      1  C   UNL d   1       3.513  -0.729   0.712  0.00  0.00    -0.002 A 
ATOM      2  C1  UNL d   1       3.098   0.360   1.466  0.00  0.00     0.010 A 
ATOM      3  C2  UNL d   1       1.745   0.697   1.542  0.00  0.00     0.041 A 
ATOM      4  C3  UNL d   1       0.807  -0.088   0.844  0.00  0.00    -0.075 A 
ATOM      5  S   UNL d   1      -0.902   0.135   0.792  0.00  0.00     0.015 SA
ATOM      6  C4  UNL d   1      -1.122  -1.210  -0.231  0.00  0.00     0.022 A 
ATOM      7  C5  UNL d   1       0.069  -1.826  -0.536  0.00  0.00     0.026 A 
ATOM      8  C6  UNL d   1       1.200  -1.190   0.079  0.00  0.00    -0.082 A 
ATOM      9  C7  UNL d   1       2.579  -1.505   0.020  0.00  0.00     0.045 A 
ENDROOT
TORSDOF 0
ENDMDL
