MODEL 1
REMARK minimizedAffinity -4.85318851
REMARK minimizedRMSD -1
REMARK  2 active torsions:
REMARK  status: ('A' for Active; 'I' for Inactive)
REMARK    1  A    between atoms: C2'_3  and  C1'_4 
REMARK    2  A    between atoms: C1'_4  and  C1_5 
ROOT
ATOM      1  C1  I4B d   1      -0.365   0.565  -0.593  0.00  0.00    -0.075 A 
ATOM      2  C2  I4B d   1       0.742  -0.220  -0.803  0.00  0.00     0.003 A 
ATOM      3  C3  I4B d   1       1.417  -0.807   0.294  0.00  0.00     0.002 A 
ATOM      4  C4  I4B d   1       0.985  -0.545   1.578  0.00  0.00    -0.004 A 
ATOM      5  C5  I4B d   1      -0.151   0.232   1.787  0.00  0.00     0.002 A 
ATOM      6  C6  I4B d   1      -0.838   0.781   0.695  0.00  0.00     0.003 A 
ENDROOT
BRANCH   1   7
ATOM      7  C1' I4B d   1      -1.034   1.197  -1.772  0.00  0.00     0.060 C 
BRANCH   7   8
ATOM      8  C2' I4B d   1      -0.690   2.672  -1.769  0.00  0.00    -0.013 C 
ATOM      9  C4' I4B d   1       0.694   2.911  -2.314  0.00  0.00     0.013 C 
ATOM     10  C3' I4B d   1      -1.724   3.391  -2.584  0.00  0.00     0.013 C 
ENDBRANCH   7   8
ENDBRANCH   1   7
TORSDOF 2
ENDMDL
