MODEL 1
REMARK minimizedAffinity -2.57835889
REMARK minimizedRMSD -1
REMARK  2 active torsions:
REMARK  status: ('A' for Active; 'I' for Inactive)
REMARK    1  A    between atoms: C2'_3  and  C1'_4 
REMARK    2  A    between atoms: C1'_4  and  C1_5 
ROOT
ATOM      1  C1  I4B d   1      -0.754   2.295  -1.690  0.00  0.00    -0.075 A 
ATOM      2  C2  I4B d   1      -2.070   2.067  -2.007  0.00  0.00     0.003 A 
ATOM      3  C3  I4B d   1      -2.614   2.582  -3.208  0.00  0.00     0.002 A 
ATOM      4  C4  I4B d   1      -1.825   3.357  -4.033  0.00  0.00    -0.004 A 
ATOM      5  C5  I4B d   1      -0.485   3.568  -3.722  0.00  0.00     0.002 A 
ATOM      6  C6  I4B d   1       0.058   3.024  -2.549  0.00  0.00     0.003 A 
ENDROOT
BRANCH   1   7
ATOM      7  C1' I4B d   1      -0.221   1.764  -0.397  0.00  0.00     0.060 C 
BRANCH   7   8
ATOM      8  C2' I4B d   1      -0.643   0.314  -0.279  0.00  0.00    -0.013 C 
ATOM      9  C4' I4B d   1       0.497  -0.614  -0.604  0.00  0.00     0.013 C 
ATOM     10  C3' I4B d   1      -1.142   0.089   1.118  0.00  0.00     0.013 C 
ENDBRANCH   7   8
ENDBRANCH   1   7
TORSDOF 2
ENDMDL
