MODEL 1
REMARK minimizedAffinity -3.36251402
REMARK minimizedRMSD -1
REMARK  2 active torsions:
REMARK  status: ('A' for Active; 'I' for Inactive)
REMARK    1  A    between atoms: C2'_3  and  C1'_4 
REMARK    2  A    between atoms: C1'_4  and  C1_5 
ROOT
ATOM      1  C1  I4B d   1      -0.189   0.112  -0.315  0.00  0.00    -0.075 A 
ATOM      2  C2  I4B d   1       1.085   0.049   0.191  0.00  0.00     0.003 A 
ATOM      3  C3  I4B d   1       1.297  -0.291   1.549  0.00  0.00     0.002 A 
ATOM      4  C4  I4B d   1       0.211  -0.510   2.372  0.00  0.00    -0.004 A 
ATOM      5  C5  I4B d   1      -1.080  -0.467   1.851  0.00  0.00     0.002 A 
ATOM      6  C6  I4B d   1      -1.281  -0.167   0.496  0.00  0.00     0.003 A 
ENDROOT
BRANCH   1   7
ATOM      7  C1' I4B d   1      -0.377   0.507  -1.746  0.00  0.00     0.060 C 
BRANCH   7   8
ATOM      8  C2' I4B d   1      -0.463   2.019  -1.806  0.00  0.00    -0.013 C 
ATOM      9  C4' I4B d   1       0.749   2.608  -2.477  0.00  0.00     0.013 C 
ATOM     10  C3' I4B d   1      -1.719   2.382  -2.540  0.00  0.00     0.013 C 
ENDBRANCH   7   8
ENDBRANCH   1   7
TORSDOF 2
ENDMDL
