MODEL 1
REMARK minimizedAffinity -4.00985909
REMARK minimizedRMSD -1
REMARK  0 active torsions:
REMARK  status: ('A' for Active; 'I' for Inactive)
ROOT
ATOM      1  C1  BNZ d   1      -2.547   3.183   1.178  0.00  0.00     0.000 A 
ATOM      2  C2  BNZ d   1      -2.398   4.044   0.123  0.00  0.00     0.000 A 
ATOM      3  C3  BNZ d   1      -1.291   3.988  -0.676  0.00  0.00     0.000 A 
ATOM      4  C4  BNZ d   1      -0.316   3.099  -0.397  0.00  0.00     0.000 A 
ATOM      5  C5  BNZ d   1      -0.447   2.230   0.669  0.00  0.00     0.000 A 
ATOM      6  C6  BNZ d   1      -1.581   2.264   1.448  0.00  0.00     0.000 A 
ENDROOT
TORSDOF 0
ENDMDL
