MODEL 1
REMARK minimizedAffinity -2.72027946
REMARK minimizedRMSD -1
REMARK  0 active torsions:
REMARK  status: ('A' for Active; 'I' for Inactive)
ROOT
ATOM      1  C1  BNZ d   1      -1.334   4.133  -1.024  0.00  0.00     0.000 A 
ATOM      2  C2  BNZ d   1      -1.637   3.701   0.240  0.00  0.00     0.000 A 
ATOM      3  C3  BNZ d   1      -1.095   2.548   0.735  0.00  0.00     0.000 A 
ATOM      4  C4  BNZ d   1      -0.285   1.807  -0.049  0.00  0.00     0.000 A 
ATOM      5  C5  BNZ d   1       0.022   2.223  -1.329  0.00  0.00     0.000 A 
ATOM      6  C6  BNZ d   1      -0.494   3.405  -1.809  0.00  0.00     0.000 A 
ENDROOT
TORSDOF 0
ENDMDL
