MODEL 1
REMARK minimizedAffinity 1.39638424
REMARK minimizedRMSD -1
REMARK  0 active torsions:
REMARK  status: ('A' for Active; 'I' for Inactive)
ROOT
ATOM      1  C1  BNZ d   1      -0.402   2.411  -0.113  0.00  0.00     0.000 A 
ATOM      2  C2  BNZ d   1      -0.339   3.652  -0.690  0.00  0.00     0.000 A 
ATOM      3  C3  BNZ d   1       0.231   3.824  -1.920  0.00  0.00     0.000 A 
ATOM      4  C4  BNZ d   1       0.772   2.764  -2.554  0.00  0.00     0.000 A 
ATOM      5  C5  BNZ d   1       0.725   1.508  -1.982  0.00  0.00     0.000 A 
ATOM      6  C6  BNZ d   1       0.116   1.332  -0.761  0.00  0.00     0.000 A 
ENDROOT
TORSDOF 0
ENDMDL
