MODEL 1
REMARK minimizedAffinity 2.57870269
REMARK minimizedRMSD -1
REMARK  0 active torsions:
REMARK  status: ('A' for Active; 'I' for Inactive)
ROOT
ATOM      1  C1  BNZ d   1      -0.155   1.176  -0.122  0.00  0.00     0.000 A 
ATOM      2  C2  BNZ d   1      -0.633   1.382   1.145  0.00  0.00     0.000 A 
ATOM      3  C3  BNZ d   1      -1.244   2.558   1.481  0.00  0.00     0.000 A 
ATOM      4  C4  BNZ d   1      -1.341   3.540   0.562  0.00  0.00     0.000 A 
ATOM      5  C5  BNZ d   1      -0.856   3.352  -0.717  0.00  0.00     0.000 A 
ATOM      6  C6  BNZ d   1      -0.277   2.152  -1.062  0.00  0.00     0.000 A 
ENDROOT
TORSDOF 0
ENDMDL
