MODEL 1
REMARK minimizedAffinity 1.53820956
REMARK minimizedRMSD -1
REMARK  0 active torsions:
REMARK  status: ('A' for Active; 'I' for Inactive)
ROOT
ATOM      1  C1  BNZ d   1       0.930   1.609  -1.525  0.00  0.00     0.000 A 
ATOM      2  C2  BNZ d   1       0.419   2.876  -1.434  0.00  0.00     0.000 A 
ATOM      3  C3  BNZ d   1      -0.267   3.276  -0.320  0.00  0.00     0.000 A 
ATOM      4  C4  BNZ d   1      -0.474   2.397   0.681  0.00  0.00     0.000 A 
ATOM      5  C5  BNZ d   1       0.028   1.113   0.600  0.00  0.00     0.000 A 
ATOM      6  C6  BNZ d   1       0.750   0.726  -0.506  0.00  0.00     0.000 A 
ENDROOT
TORSDOF 0
ENDMDL
