MODEL 1
REMARK minimizedAffinity 2.03087568
REMARK minimizedRMSD -1
REMARK  0 active torsions:
REMARK  status: ('A' for Active; 'I' for Inactive)
ROOT
ATOM      1  C1  BNZ d   1       0.832   5.638  -0.187  0.00  0.00     0.000 A 
ATOM      2  C2  BNZ d   1       0.956   5.473  -1.541  0.00  0.00     0.000 A 
ATOM      3  C3  BNZ d   1       0.506   4.336  -2.152  0.00  0.00     0.000 A 
ATOM      4  C4  BNZ d   1      -0.030   3.349  -1.405  0.00  0.00     0.000 A 
ATOM      5  C5  BNZ d   1      -0.152   3.496  -0.037  0.00  0.00     0.000 A 
ATOM      6  C6  BNZ d   1       0.266   4.658   0.569  0.00  0.00     0.000 A 
ENDROOT
TORSDOF 0
ENDMDL
