MODEL 1
REMARK minimizedAffinity -2.22584248
REMARK minimizedRMSD -1
REMARK  0 active torsions:
REMARK  status: ('A' for Active; 'I' for Inactive)
ROOT
ATOM      1  C1  BNZ d   1      -0.243   2.125  -0.713  0.00  0.00     0.000 A 
ATOM      2  C2  BNZ d   1      -0.847   1.391   0.273  0.00  0.00     0.000 A 
ATOM      3  C3  BNZ d   1      -1.525   2.007   1.288  0.00  0.00     0.000 A 
ATOM      4  C4  BNZ d   1      -1.563   3.354   1.338  0.00  0.00     0.000 A 
ATOM      5  C5  BNZ d   1      -0.951   4.108   0.357  0.00  0.00     0.000 A 
ATOM      6  C6  BNZ d   1      -0.303   3.484  -0.685  0.00  0.00     0.000 A 
ENDROOT
TORSDOF 0
ENDMDL
