MODEL 1
REMARK minimizedAffinity -1.75508118
REMARK minimizedRMSD -1
REMARK  0 active torsions:
REMARK  status: ('A' for Active; 'I' for Inactive)
ROOT
ATOM      1  C1  BNZ d   1      -0.686   1.408  -0.419  0.00  0.00     0.000 A 
ATOM      2  C2  BNZ d   1      -0.985   2.607   0.170  0.00  0.00     0.000 A 
ATOM      3  C3  BNZ d   1      -0.485   3.777  -0.329  0.00  0.00     0.000 A 
ATOM      4  C4  BNZ d   1       0.346   3.743  -1.391  0.00  0.00     0.000 A 
ATOM      5  C5  BNZ d   1       0.665   2.541  -1.990  0.00  0.00     0.000 A 
ATOM      6  C6  BNZ d   1       0.128   1.369  -1.509  0.00  0.00     0.000 A 
ENDROOT
TORSDOF 0
ENDMDL
