MODEL 1
REMARK minimizedAffinity -0.639448464
REMARK minimizedRMSD -1
REMARK  0 active torsions:
REMARK  status: ('A' for Active; 'I' for Inactive)
ROOT
ATOM      1  C1  BNZ d   1      -0.549   3.428   1.731  0.00  0.00     0.000 A 
ATOM      2  C2  BNZ d   1      -0.010   4.258   0.784  0.00  0.00     0.000 A 
ATOM      3  C3  BNZ d   1       0.171   3.828  -0.501  0.00  0.00     0.000 A 
ATOM      4  C4  BNZ d   1      -0.150   2.560  -0.827  0.00  0.00     0.000 A 
ATOM      5  C5  BNZ d   1      -0.685   1.708   0.119  0.00  0.00     0.000 A 
ATOM      6  C6  BNZ d   1      -0.902   2.156   1.402  0.00  0.00     0.000 A 
ENDROOT
TORSDOF 0
ENDMDL
