MODEL 1
REMARK minimizedAffinity -2.89584398
REMARK minimizedRMSD -1
REMARK  0 active torsions:
REMARK  status: ('A' for Active; 'I' for Inactive)
ROOT
ATOM      1  C1  BNZ d   1      -0.331   3.948   1.159  0.00  0.00     0.000 A 
ATOM      2  C2  BNZ d   1       0.363   4.507   0.119  0.00  0.00     0.000 A 
ATOM      3  C3  BNZ d   1       0.704   3.763  -0.975  0.00  0.00     0.000 A 
ATOM      4  C4  BNZ d   1       0.386   2.452  -1.011  0.00  0.00     0.000 A 
ATOM      5  C5  BNZ d   1      -0.305   1.872   0.034  0.00  0.00     0.000 A 
ATOM      6  C6  BNZ d   1      -0.681   2.634   1.117  0.00  0.00     0.000 A 
ENDROOT
TORSDOF 0
ENDMDL
