MODEL 1
REMARK minimizedAffinity -0.241928056
REMARK minimizedRMSD -1
REMARK  0 active torsions:
REMARK  status: ('A' for Active; 'I' for Inactive)
ROOT
ATOM      1  C1  BNZ d   1      -0.143   2.123  -0.310  0.00  0.00     0.000 A 
ATOM      2  C2  BNZ d   1      -0.751   1.554   0.776  0.00  0.00     0.000 A 
ATOM      3  C3  BNZ d   1      -1.056   2.302   1.879  0.00  0.00     0.000 A 
ATOM      4  C4  BNZ d   1      -0.716   3.606   1.911  0.00  0.00     0.000 A 
ATOM      5  C5  BNZ d   1      -0.093   4.193   0.827  0.00  0.00     0.000 A 
ATOM      6  C6  BNZ d   1       0.177   3.446  -0.297  0.00  0.00     0.000 A 
ENDROOT
TORSDOF 0
ENDMDL
