MODEL 1
REMARK minimizedAffinity 1.72893834
REMARK minimizedRMSD -1
REMARK  0 active torsions:
REMARK  status: ('A' for Active; 'I' for Inactive)
ROOT
ATOM      1  C1  BNZ d   1      -0.688   3.832  -0.052  0.00  0.00     0.000 A 
ATOM      2  C2  BNZ d   1      -0.030   3.497  -1.206  0.00  0.00     0.000 A 
ATOM      3  C3  BNZ d   1       0.361   2.209  -1.439  0.00  0.00     0.000 A 
ATOM      4  C4  BNZ d   1       0.132   1.266  -0.503  0.00  0.00     0.000 A 
ATOM      5  C5  BNZ d   1      -0.522   1.590   0.670  0.00  0.00     0.000 A 
ATOM      6  C6  BNZ d   1      -0.949   2.880   0.884  0.00  0.00     0.000 A 
ENDROOT
TORSDOF 0
ENDMDL
