MODEL 1
REMARK minimizedAffinity 5.51769876
REMARK minimizedRMSD -1
REMARK  0 active torsions:
REMARK  status: ('A' for Active; 'I' for Inactive)
ROOT
ATOM      1  C1  BNZ d   1      -2.931   6.000  -4.140  0.00  0.00     0.000 A 
ATOM      2  C2  BNZ d   1      -3.619   4.836  -4.356  0.00  0.00     0.000 A 
ATOM      3  C3  BNZ d   1      -3.213   3.665  -3.778  0.00  0.00     0.000 A 
ATOM      4  C4  BNZ d   1      -2.098   3.652  -3.019  0.00  0.00     0.000 A 
ATOM      5  C5  BNZ d   1      -1.388   4.816  -2.800  0.00  0.00     0.000 A 
ATOM      6  C6  BNZ d   1      -1.822   6.000  -3.352  0.00  0.00     0.000 A 
ENDROOT
TORSDOF 0
ENDMDL
