MODEL 1
REMARK minimizedAffinity 5.55373096
REMARK minimizedRMSD -1
REMARK  0 active torsions:
REMARK  status: ('A' for Active; 'I' for Inactive)
ROOT
ATOM      1  C1  BNZ d   1      -1.825  -0.314   2.876  0.00  0.00     0.000 A 
ATOM      2  C2  BNZ d   1      -2.108   0.839   2.194  0.00  0.00     0.000 A 
ATOM      3  C3  BNZ d   1      -1.131   1.503   1.506  0.00  0.00     0.000 A 
ATOM      4  C4  BNZ d   1       0.134   1.036   1.534  0.00  0.00     0.000 A 
ATOM      5  C5  BNZ d   1       0.437  -0.120   2.225  0.00  0.00     0.000 A 
ATOM      6  C6  BNZ d   1      -0.556  -0.807   2.884  0.00  0.00     0.000 A 
ENDROOT
TORSDOF 0
ENDMDL
