MODEL 1
REMARK minimizedAffinity 4.04208899
REMARK minimizedRMSD -1
REMARK  0 active torsions:
REMARK  status: ('A' for Active; 'I' for Inactive)
ROOT
ATOM      1  C1  BNZ d   1       3.811  -3.999  -4.127  0.00  0.00     0.000 A 
ATOM      2  C2  BNZ d   1       4.913  -4.306  -3.374  0.00  0.00     0.000 A 
ATOM      3  C3  BNZ d   1       6.000  -3.478  -3.355  0.00  0.00     0.000 A 
ATOM      4  C4  BNZ d   1       6.000  -2.366  -4.119  0.00  0.00     0.000 A 
ATOM      5  C5  BNZ d   1       4.900  -2.048  -4.890  0.00  0.00     0.000 A 
ATOM      6  C6  BNZ d   1       3.792  -2.863  -4.877  0.00  0.00     0.000 A 
ENDROOT
TORSDOF 0
ENDMDL
