MODEL 1
REMARK minimizedAffinity -0.237903997
REMARK minimizedRMSD -1
REMARK  0 active torsions:
REMARK  status: ('A' for Active; 'I' for Inactive)
ROOT
ATOM      1  C1  BNZ d   1      -0.072   1.204  -0.119  0.00  0.00     0.000 A 
ATOM      2  C2  BNZ d   1      -0.863   1.536   0.949  0.00  0.00     0.000 A 
ATOM      3  C3  BNZ d   1      -1.353   2.805   1.089  0.00  0.00     0.000 A 
ATOM      4  C4  BNZ d   1      -1.020   3.748   0.185  0.00  0.00     0.000 A 
ATOM      5  C5  BNZ d   1      -0.216   3.431  -0.892  0.00  0.00     0.000 A 
ATOM      6  C6  BNZ d   1       0.244   2.144  -1.051  0.00  0.00     0.000 A 
ENDROOT
TORSDOF 0
ENDMDL
