MODEL 1
REMARK minimizedAffinity -3.41579151
REMARK minimizedRMSD -1
REMARK  0 active torsions:
REMARK  status: ('A' for Active; 'I' for Inactive)
ROOT
ATOM      1  C1  DEN d   1      -0.952   0.735   0.190  0.00  0.00     0.130 A 
ATOM      2  C2  DEN d   1       0.046  -0.312   0.393  0.00  0.00    -0.031 A 
ATOM      3  C3  DEN d   1      -0.100  -1.299  -0.696  0.00  0.00     0.027 A 
ATOM      4  C4  DEN d   1      -1.763  -1.306  -2.667  0.00  0.00     0.027 A 
ATOM      5  C5  DEN d   1      -2.811  -0.632  -3.254  0.00  0.00    -0.003 A 
ATOM      6  C6  DEN d   1      -3.331   0.517  -2.720  0.00  0.00     0.001 A 
ATOM      7  C7  DEN d   1      -2.774   1.052  -1.588  0.00  0.00     0.017 A 
ATOM      8  C8  DEN d   1      -1.722   0.374  -0.987  0.00  0.00    -0.094 A 
ATOM      9  C9  DEN d   1      -1.202  -0.780  -1.549  0.00  0.00    -0.072 A 
ENDROOT
TORSDOF 0
ENDMDL
