MODEL 1
REMARK minimizedAffinity -5.87083292
REMARK minimizedRMSD -1
REMARK  0 active torsions:
REMARK  status: ('A' for Active; 'I' for Inactive)
ROOT
ATOM      1  C1  DEN d   1       2.937  -1.371   1.773  0.00  0.00     0.130 A 
ATOM      2  C2  DEN d   1       2.085  -2.485   2.181  0.00  0.00    -0.031 A 
ATOM      3  C3  DEN d   1       0.748  -2.277   1.590  0.00  0.00     0.027 A 
ATOM      4  C4  DEN d   1      -0.079  -0.352   0.085  0.00  0.00     0.027 A 
ATOM      5  C5  DEN d   1       0.279   0.830  -0.524  0.00  0.00    -0.003 A 
ATOM      6  C6  DEN d   1       1.528   1.375  -0.383  0.00  0.00     0.001 A 
ATOM      7  C7  DEN d   1       2.479   0.712   0.348  0.00  0.00     0.017 A 
ATOM      8  C8  DEN d   1       2.123  -0.476   0.971  0.00  0.00    -0.094 A 
ATOM      9  C9  DEN d   1       0.858  -1.017   0.807  0.00  0.00    -0.072 A 
ENDROOT
TORSDOF 0
ENDMDL
