MODEL 1
REMARK minimizedAffinity 3.13530946
REMARK minimizedRMSD -1
REMARK  0 active torsions:
REMARK  status: ('A' for Active; 'I' for Inactive)
ROOT
ATOM      1  C1  DEN d   1      -5.997   4.658  -1.090  0.00  0.00     0.130 A 
ATOM      2  C2  DEN d   1      -5.637   5.977  -1.604  0.00  0.00    -0.031 A 
ATOM      3  C3  DEN d   1      -4.650   5.790  -2.686  0.00  0.00     0.027 A 
ATOM      4  C4  DEN d   1      -3.654   3.599  -3.615  0.00  0.00     0.027 A 
ATOM      5  C5  DEN d   1      -3.647   2.228  -3.489  0.00  0.00    -0.003 A 
ATOM      6  C6  DEN d   1      -4.391   1.578  -2.540  0.00  0.00     0.001 A 
ATOM      7  C7  DEN d   1      -5.208   2.297  -1.708  0.00  0.00     0.017 A 
ATOM      8  C8  DEN d   1      -5.215   3.680  -1.824  0.00  0.00    -0.094 A 
ATOM      9  C9  DEN d   1      -4.466   4.318  -2.798  0.00  0.00    -0.072 A 
ENDROOT
TORSDOF 0
ENDMDL
