MODEL 1
REMARK minimizedAffinity -2.20198131
REMARK minimizedRMSD -1
REMARK  0 active torsions:
REMARK  status: ('A' for Active; 'I' for Inactive)
ROOT
ATOM      1  C   UNL d   1      -0.173  -2.350   1.008  0.00  0.00     0.023 A 
ATOM      2  C1  UNL d   1       1.097  -2.269   0.436  0.00  0.00     0.003 A 
ATOM      3  C2  UNL d   1       1.503  -1.096  -0.204  0.00  0.00     0.048 A 
ATOM      4  C3  UNL d   1       0.634  -0.007  -0.267  0.00  0.00     0.023 A 
ATOM      5  C4  UNL d   1      -0.637  -0.083   0.304  0.00  0.00     0.048 A 
ATOM      6  C5  UNL d   1      -1.039  -1.258   0.942  0.00  0.00     0.003 A 
ATOM      7  I   UNL d   1       1.236   1.740  -1.218  0.00  0.00    -0.146 I 
ENDROOT
TORSDOF 0
ENDMDL
