MODEL 1
REMARK minimizedAffinity -1.96001625
REMARK minimizedRMSD -1
REMARK  0 active torsions:
REMARK  status: ('A' for Active; 'I' for Inactive)
ROOT
ATOM      1  C   UNL d   1       0.455  -1.793   0.457  0.00  0.00     0.023 A 
ATOM      2  C1  UNL d   1       0.887  -1.963  -0.858  0.00  0.00     0.003 A 
ATOM      3  C2  UNL d   1       0.951  -0.867  -1.721  0.00  0.00     0.048 A 
ATOM      4  C3  UNL d   1       0.583   0.397  -1.262  0.00  0.00     0.023 A 
ATOM      5  C4  UNL d   1       0.152   0.573   0.054  0.00  0.00     0.048 A 
ATOM      6  C5  UNL d   1       0.088  -0.526   0.913  0.00  0.00     0.003 A 
ATOM      7  I   UNL d   1       0.678   2.030  -2.544  0.00  0.00    -0.146 I 
ENDROOT
TORSDOF 0
ENDMDL
