MODEL 1
REMARK minimizedAffinity -0.438639998
REMARK minimizedRMSD -1
REMARK  0 active torsions:
REMARK  status: ('A' for Active; 'I' for Inactive)
ROOT
ATOM      1  C   UNL d   1      -0.655  -1.233   0.955  0.00  0.00     0.023 A 
ATOM      2  C1  UNL d   1      -1.245   0.031   0.976  0.00  0.00     0.003 A 
ATOM      3  C2  UNL d   1      -0.740   1.052   0.169  0.00  0.00     0.048 A 
ATOM      4  C3  UNL d   1       0.355   0.803  -0.657  0.00  0.00     0.023 A 
ATOM      5  C4  UNL d   1       0.949  -0.460  -0.682  0.00  0.00     0.048 A 
ATOM      6  C5  UNL d   1       0.441  -1.478   0.127  0.00  0.00     0.003 A 
ATOM      7  I   UNL d   1       1.108   2.322  -1.860  0.00  0.00    -0.146 I 
ENDROOT
TORSDOF 0
ENDMDL
