MODEL 1
REMARK minimizedAffinity -1.46673405
REMARK minimizedRMSD -1
REMARK  0 active torsions:
REMARK  status: ('A' for Active; 'I' for Inactive)
ROOT
ATOM      1  C   UNL d   1      -0.823  -2.553   1.654  0.00  0.00     0.023 A 
ATOM      2  C1  UNL d   1      -1.467  -1.321   1.763  0.00  0.00     0.003 A 
ATOM      3  C2  UNL d   1      -1.008  -0.224   1.030  0.00  0.00     0.048 A 
ATOM      4  C3  UNL d   1       0.095  -0.368   0.189  0.00  0.00     0.023 A 
ATOM      5  C4  UNL d   1       0.742  -1.600   0.076  0.00  0.00     0.048 A 
ATOM      6  C5  UNL d   1       0.280  -2.693   0.812  0.00  0.00     0.003 A 
ATOM      7  I   UNL d   1       0.780   1.262  -0.903  0.00  0.00    -0.146 I 
ENDROOT
TORSDOF 0
ENDMDL
