MODEL 1
REMARK minimizedAffinity -1.2529515
REMARK minimizedRMSD -1
REMARK  0 active torsions:
REMARK  status: ('A' for Active; 'I' for Inactive)
ROOT
ATOM      1  C   UNL d   1       0.357  -1.424   0.594  0.00  0.00     0.023 A 
ATOM      2  C1  UNL d   1       0.165  -1.650  -0.769  0.00  0.00     0.003 A 
ATOM      3  C2  UNL d   1       0.295  -0.598  -1.678  0.00  0.00     0.048 A 
ATOM      4  C3  UNL d   1       0.619   0.678  -1.217  0.00  0.00     0.023 A 
ATOM      5  C4  UNL d   1       0.813   0.909   0.146  0.00  0.00     0.048 A 
ATOM      6  C5  UNL d   1       0.680  -0.146   1.051  0.00  0.00     0.003 A 
ATOM      7  I   UNL d   1       0.814   2.246  -2.567  0.00  0.00    -0.146 I 
ENDROOT
TORSDOF 0
ENDMDL
