MODEL 1
REMARK minimizedAffinity -3.49335504
REMARK minimizedRMSD -1
REMARK  0 active torsions:
REMARK  status: ('A' for Active; 'I' for Inactive)
ROOT
ATOM      1  C   UNL d   1      -0.025  -1.553   0.274  0.00  0.00     0.023 A 
ATOM      2  C1  UNL d   1       0.064  -1.733  -1.107  0.00  0.00     0.003 A 
ATOM      3  C2  UNL d   1       0.269  -0.635  -1.944  0.00  0.00     0.048 A 
ATOM      4  C3  UNL d   1       0.384   0.642  -1.395  0.00  0.00     0.023 A 
ATOM      5  C4  UNL d   1       0.296   0.827  -0.014  0.00  0.00     0.048 A 
ATOM      6  C5  UNL d   1       0.091  -0.274   0.819  0.00  0.00     0.003 A 
ATOM      7  I   UNL d   1       0.688   2.278  -2.639  0.00  0.00    -0.146 I 
ENDROOT
TORSDOF 0
ENDMDL
