MODEL 1
REMARK minimizedAffinity -3.56081533
REMARK minimizedRMSD -1
REMARK  0 active torsions:
REMARK  status: ('A' for Active; 'I' for Inactive)
ROOT
ATOM      1  C   UNL d   1       0.568   2.075  -1.771  0.00  0.00     0.023 A 
ATOM      2  C1  UNL d   1       0.293   2.209  -0.410  0.00  0.00     0.003 A 
ATOM      3  C2  UNL d   1       0.078   1.074   0.375  0.00  0.00     0.048 A 
ATOM      4  C3  UNL d   1       0.141  -0.191  -0.208  0.00  0.00     0.023 A 
ATOM      5  C4  UNL d   1       0.416  -0.330  -1.569  0.00  0.00     0.048 A 
ATOM      6  C5  UNL d   1       0.630   0.808  -2.350  0.00  0.00     0.003 A 
ATOM      7  I   UNL d   1      -0.179  -1.882   0.958  0.00  0.00    -0.146 I 
ENDROOT
TORSDOF 0
ENDMDL
