MODEL 1
REMARK minimizedAffinity -0.0559140332
REMARK minimizedRMSD -1
REMARK  0 active torsions:
REMARK  status: ('A' for Active; 'I' for Inactive)
ROOT
ATOM      1  C   UNL d   1      -1.939  -2.854   1.368  0.00  0.00     0.023 A 
ATOM      2  C1  UNL d   1      -0.733  -2.461   1.950  0.00  0.00     0.003 A 
ATOM      3  C2  UNL d   1      -0.094  -1.298   1.518  0.00  0.00     0.048 A 
ATOM      4  C3  UNL d   1      -0.666  -0.531   0.503  0.00  0.00     0.023 A 
ATOM      5  C4  UNL d   1      -1.872  -0.919  -0.082  0.00  0.00     0.048 A 
ATOM      6  C5  UNL d   1      -2.507  -2.084   0.353  0.00  0.00     0.003 A 
ATOM      7  I   UNL d   1       0.284   1.202  -0.142  0.00  0.00    -0.146 I 
ENDROOT
TORSDOF 0
ENDMDL
