MODEL 1
REMARK minimizedAffinity -3.16572618
REMARK minimizedRMSD -1
REMARK  0 active torsions:
REMARK  status: ('A' for Active; 'I' for Inactive)
ROOT
ATOM      1  C   UNL d   1      -0.161   1.544  -0.039  0.00  0.00     0.023 A 
ATOM      2  C1  UNL d   1       0.641   0.412  -0.184  0.00  0.00     0.003 A 
ATOM      3  C2  UNL d   1       0.266  -0.794   0.411  0.00  0.00     0.048 A 
ATOM      4  C3  UNL d   1      -0.915  -0.861   1.150  0.00  0.00     0.023 A 
ATOM      5  C4  UNL d   1      -1.722   0.268   1.298  0.00  0.00     0.048 A 
ATOM      6  C5  UNL d   1      -1.341   1.472   0.702  0.00  0.00     0.003 A 
ATOM      7  I   UNL d   1      -1.476  -2.655   2.037  0.00  0.00    -0.146 I 
ENDROOT
TORSDOF 0
ENDMDL
