MODEL 1
REMARK minimizedAffinity -0.709868014
REMARK minimizedRMSD -1
REMARK  0 active torsions:
REMARK  status: ('A' for Active; 'I' for Inactive)
ROOT
ATOM      1  C   UNL d   1       0.683  -1.585   0.524  0.00  0.00     0.023 A 
ATOM      2  C1  UNL d   1       1.419  -0.437   0.818  0.00  0.00     0.003 A 
ATOM      3  C2  UNL d   1       1.344   0.677  -0.021  0.00  0.00     0.048 A 
ATOM      4  C3  UNL d   1       0.529   0.637  -1.151  0.00  0.00     0.023 A 
ATOM      5  C4  UNL d   1      -0.211  -0.509  -1.449  0.00  0.00     0.048 A 
ATOM      6  C5  UNL d   1      -0.131  -1.621  -0.608  0.00  0.00     0.003 A 
ATOM      7  I   UNL d   1       0.414   2.293  -2.401  0.00  0.00    -0.146 I 
ENDROOT
TORSDOF 0
ENDMDL
