MODEL 1
REMARK minimizedAffinity -3.32215452
REMARK minimizedRMSD -1
REMARK  0 active torsions:
REMARK  status: ('A' for Active; 'I' for Inactive)
ROOT
ATOM      1  C   UNL d   1       0.758   2.173  -3.505  0.00  0.00     0.023 A 
ATOM      2  C1  UNL d   1      -0.001   1.008  -3.606  0.00  0.00     0.003 A 
ATOM      3  C2  UNL d   1      -0.009   0.085  -2.557  0.00  0.00     0.048 A 
ATOM      4  C3  UNL d   1       0.744   0.335  -1.411  0.00  0.00     0.023 A 
ATOM      5  C4  UNL d   1       1.505   1.500  -1.305  0.00  0.00     0.048 A 
ATOM      6  C5  UNL d   1       1.510   2.419  -2.356  0.00  0.00     0.003 A 
ATOM      7  I   UNL d   1       0.734  -1.037   0.151  0.00  0.00    -0.146 I 
ENDROOT
TORSDOF 0
ENDMDL
