MODEL 1
REMARK minimizedAffinity -3.42638278
REMARK minimizedRMSD -1
REMARK  0 active torsions:
REMARK  status: ('A' for Active; 'I' for Inactive)
ROOT
ATOM      1  C   UNL d   1       1.070   2.148  -4.094  0.00  0.00     0.023 A 
ATOM      2  C1  UNL d   1       0.350   0.969  -4.286  0.00  0.00     0.003 A 
ATOM      3  C2  UNL d   1      -0.057   0.211  -3.186  0.00  0.00     0.048 A 
ATOM      4  C3  UNL d   1       0.259   0.639  -1.897  0.00  0.00     0.023 A 
ATOM      5  C4  UNL d   1       0.978   1.819  -1.700  0.00  0.00     0.048 A 
ATOM      6  C5  UNL d   1       1.383   2.573  -2.803  0.00  0.00     0.003 A 
ATOM      7  I   UNL d   1      -0.346  -0.488  -0.258  0.00  0.00    -0.146 I 
ENDROOT
TORSDOF 0
ENDMDL
