MODEL 1
REMARK minimizedAffinity -4.67219305
REMARK minimizedRMSD -1
REMARK  0 active torsions:
REMARK  status: ('A' for Active; 'I' for Inactive)
ROOT
ATOM      1  C   UNL d   1      -1.193  -1.886   1.823  0.00  0.00     0.023 A 
ATOM      2  C1  UNL d   1      -0.127  -2.202   0.981  0.00  0.00     0.003 A 
ATOM      3  C2  UNL d   1       0.409  -1.229   0.135  0.00  0.00     0.048 A 
ATOM      4  C3  UNL d   1      -0.125   0.059   0.137  0.00  0.00     0.023 A 
ATOM      5  C4  UNL d   1      -1.191   0.381   0.979  0.00  0.00     0.048 A 
ATOM      6  C5  UNL d   1      -1.725  -0.596   1.822  0.00  0.00     0.003 A 
ATOM      7  I   UNL d   1       0.672   1.509  -1.120  0.00  0.00    -0.146 I 
ENDROOT
TORSDOF 0
ENDMDL
