MODEL 1
REMARK minimizedAffinity -1.71160901
REMARK minimizedRMSD -1
REMARK  0 active torsions:
REMARK  status: ('A' for Active; 'I' for Inactive)
ROOT
ATOM      1  C   UNL d   1      -0.072  -2.469   1.246  0.00  0.00     0.023 A 
ATOM      2  C1  UNL d   1      -0.979  -2.025   0.284  0.00  0.00     0.003 A 
ATOM      3  C2  UNL d   1      -0.682  -0.904  -0.494  0.00  0.00     0.048 A 
ATOM      4  C3  UNL d   1       0.526  -0.233  -0.306  0.00  0.00     0.023 A 
ATOM      5  C4  UNL d   1       1.437  -0.674   0.654  0.00  0.00     0.048 A 
ATOM      6  C5  UNL d   1       1.135  -1.794   1.431  0.00  0.00     0.003 A 
ATOM      7  I   UNL d   1       0.971   1.435  -1.464  0.00  0.00    -0.146 I 
ENDROOT
TORSDOF 0
ENDMDL
