MODEL 1
REMARK minimizedAffinity -3.22831583
REMARK minimizedRMSD -1
REMARK  0 active torsions:
REMARK  status: ('A' for Active; 'I' for Inactive)
ROOT
ATOM      1  C   UNL d   1       1.474   2.207  -4.247  0.00  0.00     0.023 A 
ATOM      2  C1  UNL d   1       2.399   1.494  -3.484  0.00  0.00     0.003 A 
ATOM      3  C2  UNL d   1       2.028   0.976  -2.240  0.00  0.00     0.048 A 
ATOM      4  C3  UNL d   1       0.732   1.175  -1.767  0.00  0.00     0.023 A 
ATOM      5  C4  UNL d   1      -0.197   1.887  -2.528  0.00  0.00     0.048 A 
ATOM      6  C5  UNL d   1       0.178   2.404  -3.770  0.00  0.00     0.003 A 
ATOM      7  I   UNL d   1       0.179   0.406   0.083  0.00  0.00    -0.146 I 
ENDROOT
TORSDOF 0
ENDMDL
