MODEL 1
REMARK minimizedAffinity -1.23290396
REMARK minimizedRMSD -1
REMARK  0 active torsions:
REMARK  status: ('A' for Active; 'I' for Inactive)
ROOT
ATOM      1  C   UNL d   1      -0.359   2.128   1.795  0.00  0.00     0.172 C 
ATOM      2  N   UNL d   1      -0.014   1.089   0.854  0.00  0.00    -0.070 N 
ATOM      3  C1  UNL d   1      -0.263   1.117  -0.493  0.00  0.00    -0.004 A 
ATOM      4  C2  UNL d   1       0.218  -0.056  -1.035  0.00  0.00    -0.047 A 
ATOM      5  C3  UNL d   1       0.774  -0.815   0.022  0.00  0.00    -0.047 A 
ATOM      6  C4  UNL d   1       0.616  -0.083   1.180  0.00  0.00    -0.004 A 
ENDROOT
TORSDOF 0
ENDMDL
