MODEL 1
REMARK minimizedAffinity -3.11969829
REMARK minimizedRMSD -1
REMARK  0 active torsions:
REMARK  status: ('A' for Active; 'I' for Inactive)
ROOT
ATOM      1  C   UNL d   1       0.750  -0.305  -1.021  0.00  0.00     0.172 C 
ATOM      2  N   UNL d   1       0.101   0.353   0.088  0.00  0.00    -0.070 N 
ATOM      3  C1  UNL d   1      -0.899   1.283  -0.009  0.00  0.00    -0.004 A 
ATOM      4  C2  UNL d   1      -1.246   1.666   1.269  0.00  0.00    -0.047 A 
ATOM      5  C3  UNL d   1      -0.425   0.941   2.165  0.00  0.00    -0.047 A 
ATOM      6  C4  UNL d   1       0.399   0.136   1.408  0.00  0.00    -0.004 A 
ENDROOT
TORSDOF 0
ENDMDL
