MODEL 1
REMARK minimizedAffinity -1.93341303
REMARK minimizedRMSD -1
REMARK  0 active torsions:
REMARK  status: ('A' for Active; 'I' for Inactive)
ROOT
ATOM      1  C   UNL d   1      -0.931  -3.023  -1.502  0.00  0.00     0.172 C 
ATOM      2  N   UNL d   1      -0.624  -1.868  -0.692  0.00  0.00    -0.070 N 
ATOM      3  C1  UNL d   1      -1.439  -1.324   0.264  0.00  0.00    -0.004 A 
ATOM      4  C2  UNL d   1      -0.787  -0.238   0.807  0.00  0.00    -0.047 A 
ATOM      5  C3  UNL d   1       0.464  -0.126   0.154  0.00  0.00    -0.047 A 
ATOM      6  C4  UNL d   1       0.538  -1.147  -0.770  0.00  0.00    -0.004 A 
ENDROOT
TORSDOF 0
ENDMDL
