MODEL 1
REMARK minimizedAffinity -2.97785044
REMARK minimizedRMSD -1
REMARK  0 active torsions:
REMARK  status: ('A' for Active; 'I' for Inactive)
ROOT
ATOM      1  C   UNL d   1      -0.883   2.344   1.967  0.00  0.00     0.172 C 
ATOM      2  N   UNL d   1      -0.358   1.285   1.138  0.00  0.00    -0.070 N 
ATOM      3  C1  UNL d   1       0.251   0.145   1.590  0.00  0.00    -0.004 A 
ATOM      4  C2  UNL d   1       0.607  -0.607   0.491  0.00  0.00    -0.047 A 
ATOM      5  C3  UNL d   1       0.199   0.107  -0.661  0.00  0.00    -0.047 A 
ATOM      6  C4  UNL d   1      -0.395   1.274  -0.231  0.00  0.00    -0.004 A 
ENDROOT
TORSDOF 0
ENDMDL
