MODEL 1
REMARK minimizedAffinity -3.73295116
REMARK minimizedRMSD -1
REMARK  0 active torsions:
REMARK  status: ('A' for Active; 'I' for Inactive)
ROOT
ATOM      1  C   UNL d   1      -0.366  -0.719  -0.333  0.00  0.00     0.172 C 
ATOM      2  N   UNL d   1      -0.547   0.251   0.722  0.00  0.00    -0.070 N 
ATOM      3  C1  UNL d   1       0.138   0.277   1.907  0.00  0.00    -0.004 A 
ATOM      4  C2  UNL d   1      -0.323   1.352   2.637  0.00  0.00    -0.047 A 
ATOM      5  C3  UNL d   1      -1.320   1.992   1.863  0.00  0.00    -0.047 A 
ATOM      6  C4  UNL d   1      -1.438   1.290   0.683  0.00  0.00    -0.004 A 
ENDROOT
TORSDOF 0
ENDMDL
