MODEL 1
REMARK minimizedAffinity -2.08260393
REMARK minimizedRMSD -1
REMARK  0 active torsions:
REMARK  status: ('A' for Active; 'I' for Inactive)
ROOT
ATOM      1  C   UNL d   1       0.978  -1.013  -0.999  0.00  0.00     0.172 C 
ATOM      2  N   UNL d   1       0.086  -2.149  -0.985  0.00  0.00    -0.070 N 
ATOM      3  C1  UNL d   1       0.446  -3.450  -1.217  0.00  0.00    -0.004 A 
ATOM      4  C2  UNL d   1      -0.687  -4.227  -1.112  0.00  0.00    -0.047 A 
ATOM      5  C3  UNL d   1      -1.766  -3.363  -0.808  0.00  0.00    -0.047 A 
ATOM      6  C4  UNL d   1      -1.259  -2.083  -0.735  0.00  0.00    -0.004 A 
ENDROOT
TORSDOF 0
ENDMDL
