MODEL 1
REMARK minimizedAffinity -0.814979136
REMARK minimizedRMSD -1
REMARK  0 active torsions:
REMARK  status: ('A' for Active; 'I' for Inactive)
ROOT
ATOM      1  C   UNL d   1       0.094  -0.005  -0.423  0.00  0.00     0.172 C 
ATOM      2  N   UNL d   1      -0.081   0.852   0.726  0.00  0.00    -0.070 N 
ATOM      3  C1  UNL d   1      -0.452   2.169   0.690  0.00  0.00    -0.004 A 
ATOM      4  C2  UNL d   1      -0.508   2.628   1.989  0.00  0.00    -0.047 A 
ATOM      5  C3  UNL d   1      -0.157   1.548   2.834  0.00  0.00    -0.047 A 
ATOM      6  C4  UNL d   1       0.102   0.461   2.026  0.00  0.00    -0.004 A 
ENDROOT
TORSDOF 0
ENDMDL
