MODEL 1
REMARK minimizedAffinity -3.2784586
REMARK minimizedRMSD -1
REMARK  0 active torsions:
REMARK  status: ('A' for Active; 'I' for Inactive)
ROOT
ATOM      1  C   UNL d   1       0.403  -0.960  -0.334  0.00  0.00     0.172 C 
ATOM      2  N   UNL d   1      -0.085   0.134   0.473  0.00  0.00    -0.070 N 
ATOM      3  C1  UNL d   1      -0.947   1.112   0.055  0.00  0.00    -0.004 A 
ATOM      4  C2  UNL d   1      -1.166   1.964   1.116  0.00  0.00    -0.047 A 
ATOM      5  C3  UNL d   1      -0.408   1.482   2.209  0.00  0.00    -0.047 A 
ATOM      6  C4  UNL d   1       0.252   0.349   1.784  0.00  0.00    -0.004 A 
ENDROOT
TORSDOF 0
ENDMDL
