MODEL 1
REMARK minimizedAffinity -3.95700312
REMARK minimizedRMSD -1
REMARK  0 active torsions:
REMARK  status: ('A' for Active; 'I' for Inactive)
ROOT
ATOM      1  C   UNL d   1       0.320  -0.862  -0.627  0.00  0.00     0.172 C 
ATOM      2  N   UNL d   1      -0.137   0.291   0.112  0.00  0.00    -0.070 N 
ATOM      3  C1  UNL d   1      -0.873   1.326  -0.400  0.00  0.00    -0.004 A 
ATOM      4  C2  UNL d   1      -1.106   2.223   0.620  0.00  0.00    -0.047 A 
ATOM      5  C3  UNL d   1      -0.487   1.710   1.785  0.00  0.00    -0.047 A 
ATOM      6  C4  UNL d   1       0.105   0.513   1.442  0.00  0.00    -0.004 A 
ENDROOT
TORSDOF 0
ENDMDL
