MODEL 1
REMARK minimizedAffinity -0.864782274
REMARK minimizedRMSD -1
REMARK  0 active torsions:
REMARK  status: ('A' for Active; 'I' for Inactive)
ROOT
ATOM      1  C   UNL d   1       1.792   0.083   0.443  0.00  0.00     0.023 A 
ATOM      2  C1  UNL d   1       0.984  -0.623   1.334  0.00  0.00     0.003 A 
ATOM      3  C2  UNL d   1      -0.343  -0.903   1.003  0.00  0.00     0.048 A 
ATOM      4  C3  UNL d   1      -0.856  -0.475  -0.221  0.00  0.00     0.023 A 
ATOM      5  C4  UNL d   1      -0.051   0.231  -1.117  0.00  0.00     0.048 A 
ATOM      6  C5  UNL d   1       1.276   0.509  -0.781  0.00  0.00     0.003 A 
ATOM      7  I   UNL d   1      -2.831  -0.891  -0.716  0.00  0.00    -0.146 I 
ENDROOT
TORSDOF 0
ENDMDL
