MODEL 1
REMARK minimizedAffinity -1.74680984
REMARK minimizedRMSD -1
REMARK  0 active torsions:
REMARK  status: ('A' for Active; 'I' for Inactive)
ROOT
ATOM      1  C   UNL d   1      -2.338  -0.936  -0.682  0.00  0.00     0.023 A 
ATOM      2  C1  UNL d   1      -1.556  -1.367   0.391  0.00  0.00     0.003 A 
ATOM      3  C2  UNL d   1      -0.345  -0.733   0.673  0.00  0.00     0.048 A 
ATOM      4  C3  UNL d   1       0.080   0.332  -0.122  0.00  0.00     0.023 A 
ATOM      5  C4  UNL d   1      -0.699   0.767  -1.195  0.00  0.00     0.048 A 
ATOM      6  C5  UNL d   1      -1.909   0.129  -1.474  0.00  0.00     0.003 A 
ATOM      7  I   UNL d   1       1.883   1.277   0.296  0.00  0.00    -0.146 I 
ENDROOT
TORSDOF 0
ENDMDL
