MODEL 1
REMARK minimizedAffinity -2.43633008
REMARK minimizedRMSD -1
REMARK  0 active torsions:
REMARK  status: ('A' for Active; 'I' for Inactive)
ROOT
ATOM      1  C   UNL d   1      -3.633  -0.799  -0.874  0.00  0.00     0.023 A 
ATOM      2  C1  UNL d   1      -3.368  -0.399   0.436  0.00  0.00     0.003 A 
ATOM      3  C2  UNL d   1      -2.071  -0.041   0.809  0.00  0.00     0.048 A 
ATOM      4  C3  UNL d   1      -1.044  -0.084  -0.133  0.00  0.00     0.023 A 
ATOM      5  C4  UNL d   1      -1.305  -0.482  -1.445  0.00  0.00     0.048 A 
ATOM      6  C5  UNL d   1      -2.603  -0.840  -1.813  0.00  0.00     0.003 A 
ATOM      7  I   UNL d   1       0.887   0.449   0.419  0.00  0.00    -0.146 I 
ENDROOT
TORSDOF 0
ENDMDL
