MODEL 1
REMARK minimizedAffinity -4.34023952
REMARK minimizedRMSD -1
REMARK  0 active torsions:
REMARK  status: ('A' for Active; 'I' for Inactive)
ROOT
ATOM      1  C   UNL d   1      -3.229  -2.284   1.331  0.00  0.00     0.023 A 
ATOM      2  C1  UNL d   1      -3.458  -1.192   0.493  0.00  0.00     0.003 A 
ATOM      3  C2  UNL d   1      -2.382  -0.475  -0.033  0.00  0.00     0.048 A 
ATOM      4  C3  UNL d   1      -1.078  -0.856   0.283  0.00  0.00     0.023 A 
ATOM      5  C4  UNL d   1      -0.843  -1.947   1.121  0.00  0.00     0.048 A 
ATOM      6  C5  UNL d   1      -1.923  -2.661   1.645  0.00  0.00     0.003 A 
ATOM      7  I   UNL d   1       0.527   0.210  -0.499  0.00  0.00    -0.146 I 
ENDROOT
TORSDOF 0
ENDMDL
