MODEL 1
REMARK minimizedAffinity -3.99941468
REMARK minimizedRMSD -1
REMARK  0 active torsions:
REMARK  status: ('A' for Active; 'I' for Inactive)
ROOT
ATOM      1  C   UNL d   1      -3.153  -0.954  -0.809  0.00  0.00     0.023 A 
ATOM      2  C1  UNL d   1      -2.475  -1.739   0.123  0.00  0.00     0.003 A 
ATOM      3  C2  UNL d   1      -1.128  -1.494   0.397  0.00  0.00     0.048 A 
ATOM      4  C3  UNL d   1      -0.465  -0.461  -0.265  0.00  0.00     0.023 A 
ATOM      5  C4  UNL d   1      -1.139   0.328  -1.198  0.00  0.00     0.048 A 
ATOM      6  C5  UNL d   1      -2.486   0.078  -1.469  0.00  0.00     0.003 A 
ATOM      7  I   UNL d   1       1.540  -0.094   0.141  0.00  0.00    -0.146 I 
ENDROOT
TORSDOF 0
ENDMDL
