MODEL 1
REMARK minimizedAffinity -4.93871593
REMARK minimizedRMSD -1
REMARK  0 active torsions:
REMARK  status: ('A' for Active; 'I' for Inactive)
ROOT
ATOM      1  C   UNL d   1      -3.172  -2.064  -0.368  0.00  0.00     0.023 A 
ATOM      2  C1  UNL d   1      -2.417  -2.278   0.785  0.00  0.00     0.003 A 
ATOM      3  C2  UNL d   1      -1.215  -1.592   0.972  0.00  0.00     0.048 A 
ATOM      4  C3  UNL d   1      -0.775  -0.692   0.002  0.00  0.00     0.023 A 
ATOM      5  C4  UNL d   1      -1.528  -0.473  -1.153  0.00  0.00     0.048 A 
ATOM      6  C5  UNL d   1      -2.728  -1.162  -1.335  0.00  0.00     0.003 A 
ATOM      7  I   UNL d   1       1.013   0.330   0.278  0.00  0.00    -0.146 I 
ENDROOT
TORSDOF 0
ENDMDL
