MODEL 1
REMARK minimizedAffinity 1.31010687
REMARK minimizedRMSD -1
REMARK  0 active torsions:
REMARK  status: ('A' for Active; 'I' for Inactive)
ROOT
ATOM      1  C   UNL d   1       1.720  -0.106   0.938  0.00  0.00     0.023 A 
ATOM      2  C1  UNL d   1       1.330   0.558  -0.225  0.00  0.00     0.003 A 
ATOM      3  C2  UNL d   1       0.084   0.294  -0.797  0.00  0.00     0.048 A 
ATOM      4  C3  UNL d   1      -0.768  -0.635  -0.200  0.00  0.00     0.023 A 
ATOM      5  C4  UNL d   1      -0.383  -1.301   0.965  0.00  0.00     0.048 A 
ATOM      6  C5  UNL d   1       0.865  -1.034   1.532  0.00  0.00     0.003 A 
ATOM      7  I   UNL d   1      -2.624  -1.029  -1.048  0.00  0.00    -0.146 I 
ENDROOT
TORSDOF 0
ENDMDL
