MODEL 1
REMARK minimizedAffinity -4.41709518
REMARK minimizedRMSD -1
REMARK  0 active torsions:
REMARK  status: ('A' for Active; 'I' for Inactive)
ROOT
ATOM      1  C   UNL d   1      -3.059  -0.098  -0.667  0.00  0.00     0.023 A 
ATOM      2  C1  UNL d   1      -2.563  -0.577   0.545  0.00  0.00     0.003 A 
ATOM      3  C2  UNL d   1      -1.185  -0.618   0.770  0.00  0.00     0.048 A 
ATOM      4  C3  UNL d   1      -0.310  -0.178  -0.222  0.00  0.00     0.023 A 
ATOM      5  C4  UNL d   1      -0.802   0.304  -1.436  0.00  0.00     0.048 A 
ATOM      6  C5  UNL d   1      -2.180   0.342  -1.656  0.00  0.00     0.003 A 
ATOM      7  I   UNL d   1       1.741  -0.238   0.110  0.00  0.00    -0.146 I 
ENDROOT
TORSDOF 0
ENDMDL
