MODEL 1
REMARK minimizedAffinity -5.39740467
REMARK minimizedRMSD -1
REMARK  0 active torsions:
REMARK  status: ('A' for Active; 'I' for Inactive)
ROOT
ATOM      1  C   UNL d   1      -3.314  -1.992  -0.067  0.00  0.00     0.023 A 
ATOM      2  C1  UNL d   1      -2.344  -2.558   0.760  0.00  0.00     0.003 A 
ATOM      3  C2  UNL d   1      -1.081  -1.971   0.861  0.00  0.00     0.048 A 
ATOM      4  C3  UNL d   1      -0.795  -0.817   0.132  0.00  0.00     0.023 A 
ATOM      5  C4  UNL d   1      -1.763  -0.247  -0.697  0.00  0.00     0.048 A 
ATOM      6  C5  UNL d   1      -3.024  -0.838  -0.795  0.00  0.00     0.003 A 
ATOM      7  I   UNL d   1       1.084   0.060   0.281  0.00  0.00    -0.146 I 
ENDROOT
TORSDOF 0
ENDMDL
