MODEL 1
REMARK minimizedAffinity -2.28675056
REMARK minimizedRMSD -1
REMARK  0 active torsions:
REMARK  status: ('A' for Active; 'I' for Inactive)
ROOT
ATOM      1  C   UNL d   1      -2.991  -0.711  -0.764  0.00  0.00     0.023 A 
ATOM      2  C1  UNL d   1      -2.135  -0.163  -1.720  0.00  0.00     0.003 A 
ATOM      3  C2  UNL d   1      -0.837   0.209  -1.366  0.00  0.00     0.048 A 
ATOM      4  C3  UNL d   1      -0.400   0.029  -0.054  0.00  0.00     0.023 A 
ATOM      5  C4  UNL d   1      -1.252  -0.520   0.906  0.00  0.00     0.048 A 
ATOM      6  C5  UNL d   1      -2.550  -0.889   0.547  0.00  0.00     0.003 A 
ATOM      7  I   UNL d   1       1.533   0.582   0.476  0.00  0.00    -0.146 I 
ENDROOT
TORSDOF 0
ENDMDL
