MODEL 1
REMARK minimizedAffinity -2.63066149
REMARK minimizedRMSD -1
REMARK  0 active torsions:
REMARK  status: ('A' for Active; 'I' for Inactive)
ROOT
ATOM      1  C   UNL d   1      -1.284  -0.828  -0.446  0.00  0.00     0.023 A 
ATOM      2  C1  UNL d   1      -0.678  -0.828   0.811  0.00  0.00     0.003 A 
ATOM      3  C2  UNL d   1       0.441  -0.028   1.048  0.00  0.00     0.048 A 
ATOM      4  C3  UNL d   1       0.950   0.770   0.024  0.00  0.00     0.023 A 
ATOM      5  C4  UNL d   1       0.347   0.774  -1.235  0.00  0.00     0.048 A 
ATOM      6  C5  UNL d   1      -0.772  -0.028  -1.467  0.00  0.00     0.003 A 
ATOM      7  I   UNL d   1       2.616   1.962   0.374  0.00  0.00    -0.146 I 
ENDROOT
TORSDOF 0
ENDMDL
