MODEL 1
REMARK minimizedAffinity -3.98802805
REMARK minimizedRMSD -1
REMARK  0 active torsions:
REMARK  status: ('A' for Active; 'I' for Inactive)
ROOT
ATOM      1  C   UNL d   1      -3.016  -0.991  -0.173  0.00  0.00     0.023 A 
ATOM      2  C1  UNL d   1      -2.168  -0.532  -1.181  0.00  0.00     0.003 A 
ATOM      3  C2  UNL d   1      -0.860  -0.151  -0.876  0.00  0.00     0.048 A 
ATOM      4  C3  UNL d   1      -0.406  -0.233   0.440  0.00  0.00     0.023 A 
ATOM      5  C4  UNL d   1      -1.250  -0.693   1.452  0.00  0.00     0.048 A 
ATOM      6  C5  UNL d   1      -2.557  -1.072   1.142  0.00  0.00     0.003 A 
ATOM      7  I   UNL d   1       1.541   0.333   0.898  0.00  0.00    -0.146 I 
ENDROOT
TORSDOF 0
ENDMDL
