MODEL 1
REMARK minimizedAffinity -2.98683763
REMARK minimizedRMSD -1
REMARK  0 active torsions:
REMARK  status: ('A' for Active; 'I' for Inactive)
ROOT
ATOM      1  C   UNL d   1       2.988   4.136   0.504  0.00  0.00     0.023 A 
ATOM      2  C1  UNL d   1       2.162   3.626   1.505  0.00  0.00     0.003 A 
ATOM      3  C2  UNL d   1       1.649   2.331   1.397  0.00  0.00     0.048 A 
ATOM      4  C3  UNL d   1       1.969   1.552   0.285  0.00  0.00     0.023 A 
ATOM      5  C4  UNL d   1       2.796   2.058  -0.718  0.00  0.00     0.048 A 
ATOM      6  C5  UNL d   1       3.305   3.353  -0.606  0.00  0.00     0.003 A 
ATOM      7  I   UNL d   1       1.208  -0.375   0.122  0.00  0.00    -0.146 I 
ENDROOT
TORSDOF 0
ENDMDL
