MODEL 1
REMARK minimizedAffinity -3.78761601
REMARK minimizedRMSD -1
REMARK  0 active torsions:
REMARK  status: ('A' for Active; 'I' for Inactive)
ROOT
ATOM      1  C   UNL d   1      -3.060  -1.354  -0.159  0.00  0.00     0.023 A 
ATOM      2  C1  UNL d   1      -2.590  -0.619  -1.247  0.00  0.00     0.003 A 
ATOM      3  C2  UNL d   1      -1.326  -0.029  -1.199  0.00  0.00     0.048 A 
ATOM      4  C3  UNL d   1      -0.535  -0.179  -0.061  0.00  0.00     0.023 A 
ATOM      5  C4  UNL d   1      -1.000  -0.915   1.031  0.00  0.00     0.048 A 
ATOM      6  C5  UNL d   1      -2.266  -1.502   0.979  0.00  0.00     0.003 A 
ATOM      7  I   UNL d   1       1.348   0.698   0.012  0.00  0.00    -0.146 I 
ENDROOT
TORSDOF 0
ENDMDL
