MODEL 1
REMARK minimizedAffinity -3.12215614
REMARK minimizedRMSD -1
REMARK  2 active torsions:
REMARK  status: ('A' for Active; 'I' for Inactive)
REMARK    1  A    between atoms: C1_2  and  C2_3 
REMARK    2  A    between atoms: C2_3  and  C3_4 
ROOT
ATOM      1  C3  UNL d   1      -2.075  -1.872  -1.065  0.00  0.00    -0.075 A 
ATOM      2  C4  UNL d   1      -1.812  -3.208  -0.729  0.00  0.00     0.002 A 
ATOM      3  C5  UNL d   1      -2.062  -4.231  -1.645  0.00  0.00     0.002 A 
ATOM      4  C6  UNL d   1      -2.587  -3.933  -2.900  0.00  0.00    -0.004 A 
ATOM      5  C7  UNL d   1      -2.867  -2.610  -3.238  0.00  0.00     0.002 A 
ATOM      6  C8  UNL d   1      -2.614  -1.585  -2.326  0.00  0.00     0.002 A 
ENDROOT
BRANCH   1   7
ATOM      7  C2  UNL d   1      -1.778  -0.758  -0.089  0.00  0.00     0.056 C 
BRANCH   7   8
ATOM      8  C1  UNL d   1      -0.659   0.186  -0.542  0.00  0.00     0.007 C 
ATOM      9  C   UNL d   1       0.735  -0.356  -0.256  0.00  0.00     0.009 C 
ENDBRANCH   7   8
ENDBRANCH   1   7
TORSDOF 2
ENDMDL
