MODEL 1
REMARK minimizedAffinity -4.06028843
REMARK minimizedRMSD -1
REMARK  2 active torsions:
REMARK  status: ('A' for Active; 'I' for Inactive)
REMARK    1  A    between atoms: C1_2  and  C2_3 
REMARK    2  A    between atoms: C2_3  and  C3_4 
ROOT
ATOM      1  C3  UNL d   1      -5.048   3.770   4.606  0.00  0.00    -0.075 A 
ATOM      2  C4  UNL d   1      -4.913   3.051   3.410  0.00  0.00     0.002 A 
ATOM      3  C5  UNL d   1      -4.895   3.715   2.183  0.00  0.00     0.002 A 
ATOM      4  C6  UNL d   1      -5.023   5.101   2.135  0.00  0.00    -0.004 A 
ATOM      5  C7  UNL d   1      -5.175   5.824   3.317  0.00  0.00     0.002 A 
ATOM      6  C8  UNL d   1      -5.188   5.163   4.546  0.00  0.00     0.002 A 
ENDROOT
BRANCH   1   7
ATOM      7  C2  UNL d   1      -5.038   3.060   5.939  0.00  0.00     0.056 C 
BRANCH   7   8
ATOM      8  C1  UNL d   1      -4.089   1.858   5.999  0.00  0.00     0.007 C 
ATOM      9  C   UNL d   1      -2.618   2.253   5.996  0.00  0.00     0.009 C 
ENDBRANCH   7   8
ENDBRANCH   1   7
TORSDOF 2
ENDMDL
