MODEL 1
REMARK minimizedAffinity -2.63269138
REMARK minimizedRMSD -1
REMARK  2 active torsions:
REMARK  status: ('A' for Active; 'I' for Inactive)
REMARK    1  A    between atoms: C1_2  and  C2_3 
REMARK    2  A    between atoms: C2_3  and  C3_4 
ROOT
ATOM      1  C3  UNL d   1      -4.882   3.603   1.366  0.00  0.00    -0.075 A 
ATOM      2  C4  UNL d   1      -5.315   3.399   0.048  0.00  0.00     0.002 A 
ATOM      3  C5  UNL d   1      -5.638   4.483  -0.769  0.00  0.00     0.002 A 
ATOM      4  C6  UNL d   1      -5.542   5.783  -0.276  0.00  0.00    -0.004 A 
ATOM      5  C7  UNL d   1      -5.129   5.997   1.038  0.00  0.00     0.002 A 
ATOM      6  C8  UNL d   1      -4.802   4.914   1.855  0.00  0.00     0.002 A 
ENDROOT
BRANCH   1   7
ATOM      7  C2  UNL d   1      -4.504   2.435   2.245  0.00  0.00     0.056 C 
BRANCH   7   8
ATOM      8  C1  UNL d   1      -4.749   2.674   3.739  0.00  0.00     0.007 C 
ATOM      9  C   UNL d   1      -3.572   2.264   4.613  0.00  0.00     0.009 C 
ENDBRANCH   7   8
ENDBRANCH   1   7
TORSDOF 2
ENDMDL
