MODEL 1
REMARK minimizedAffinity -3.96671104
REMARK minimizedRMSD -1
REMARK  2 active torsions:
REMARK  status: ('A' for Active; 'I' for Inactive)
REMARK    1  A    between atoms: C1_2  and  C2_3 
REMARK    2  A    between atoms: C2_3  and  C3_4 
ROOT
ATOM      1  C3  UNL d   1       0.675  -0.240  -2.272  0.00  0.00    -0.075 A 
ATOM      2  C4  UNL d   1       0.105   0.011  -3.529  0.00  0.00     0.002 A 
ATOM      3  C5  UNL d   1       0.886  -0.043  -4.684  0.00  0.00     0.002 A 
ATOM      4  C6  UNL d   1       2.245  -0.337  -4.597  0.00  0.00    -0.004 A 
ATOM      5  C7  UNL d   1       2.825  -0.571  -3.352  0.00  0.00     0.002 A 
ATOM      6  C8  UNL d   1       2.045  -0.523  -2.195  0.00  0.00     0.002 A 
ENDROOT
BRANCH   1   7
ATOM      7  C2  UNL d   1      -0.171  -0.213  -1.021  0.00  0.00     0.056 C 
BRANCH   7   8
ATOM      8  C1  UNL d   1      -1.579   0.354  -1.233  0.00  0.00     0.007 C 
ATOM      9  C   UNL d   1      -1.632   1.874  -1.153  0.00  0.00     0.009 C 
ENDBRANCH   7   8
ENDBRANCH   1   7
TORSDOF 2
ENDMDL
