MODEL 1
REMARK minimizedAffinity 0.627041876
REMARK minimizedRMSD -1
REMARK  2 active torsions:
REMARK  status: ('A' for Active; 'I' for Inactive)
REMARK    1  A    between atoms: C1_2  and  C2_3 
REMARK    2  A    between atoms: C2_3  and  C3_4 
ROOT
ATOM      1  C3  UNL d   1      -0.975  -0.706  -1.729  0.00  0.00    -0.075 A 
ATOM      2  C4  UNL d   1      -0.698  -1.198  -0.446  0.00  0.00     0.002 A 
ATOM      3  C5  UNL d   1      -1.439  -2.256   0.083  0.00  0.00     0.002 A 
ATOM      4  C6  UNL d   1      -2.471  -2.826  -0.659  0.00  0.00    -0.004 A 
ATOM      5  C7  UNL d   1      -2.766  -2.335  -1.928  0.00  0.00     0.002 A 
ATOM      6  C8  UNL d   1      -2.023  -1.280  -2.462  0.00  0.00     0.002 A 
ENDROOT
BRANCH   1   7
ATOM      7  C2  UNL d   1      -0.158   0.418  -2.319  0.00  0.00     0.056 C 
BRANCH   7   8
ATOM      8  C1  UNL d   1       0.480   0.083  -3.671  0.00  0.00     0.007 C 
ATOM      9  C   UNL d   1       1.921  -0.397  -3.553  0.00  0.00     0.009 C 
ENDBRANCH   7   8
ENDBRANCH   1   7
TORSDOF 2
ENDMDL
