MODEL 1
REMARK minimizedAffinity -0.405210167
REMARK minimizedRMSD -1
REMARK  2 active torsions:
REMARK  status: ('A' for Active; 'I' for Inactive)
REMARK    1  A    between atoms: C1_2  and  C2_3 
REMARK    2  A    between atoms: C2_3  and  C3_4 
ROOT
ATOM      1  C3  UNL d   1       3.377   3.121   1.299  0.00  0.00    -0.075 A 
ATOM      2  C4  UNL d   1       2.139   2.900   0.680  0.00  0.00     0.002 A 
ATOM      3  C5  UNL d   1       1.986   3.106  -0.691  0.00  0.00     0.002 A 
ATOM      4  C6  UNL d   1       3.064   3.545  -1.457  0.00  0.00    -0.004 A 
ATOM      5  C7  UNL d   1       4.294   3.784  -0.849  0.00  0.00     0.002 A 
ATOM      6  C8  UNL d   1       4.451   3.574   0.522  0.00  0.00     0.002 A 
ENDROOT
BRANCH   1   7
ATOM      7  C2  UNL d   1       3.557   2.871   2.778  0.00  0.00     0.056 C 
BRANCH   7   8
ATOM      8  C1  UNL d   1       2.250   2.892   3.577  0.00  0.00     0.007 C 
ATOM      9  C   UNL d   1       1.873   1.531   4.147  0.00  0.00     0.009 C 
ENDBRANCH   7   8
ENDBRANCH   1   7
TORSDOF 2
ENDMDL
