MODEL 1
REMARK minimizedAffinity 0.00642838469
REMARK minimizedRMSD -1
REMARK  2 active torsions:
REMARK  status: ('A' for Active; 'I' for Inactive)
REMARK    1  A    between atoms: C1_2  and  C2_3 
REMARK    2  A    between atoms: C2_3  and  C3_4 
ROOT
ATOM      1  C3  UNL d   1      -3.240  -0.507   4.452  0.00  0.00    -0.075 A 
ATOM      2  C4  UNL d   1      -3.029  -1.894   4.473  0.00  0.00     0.002 A 
ATOM      3  C5  UNL d   1      -3.848  -2.723   5.239  0.00  0.00     0.002 A 
ATOM      4  C6  UNL d   1      -4.880  -2.178   6.000  0.00  0.00    -0.004 A 
ATOM      5  C7  UNL d   1      -5.088  -0.801   6.000  0.00  0.00     0.002 A 
ATOM      6  C8  UNL d   1      -4.273   0.031   5.231  0.00  0.00     0.002 A 
ENDROOT
BRANCH   1   7
ATOM      7  C2  UNL d   1      -2.375   0.393   3.602  0.00  0.00     0.056 C 
BRANCH   7   8
ATOM      8  C1  UNL d   1      -2.732   0.375   2.112  0.00  0.00     0.007 C 
ATOM      9  C   UNL d   1      -3.758   1.434   1.728  0.00  0.00     0.009 C 
ENDBRANCH   7   8
ENDBRANCH   1   7
TORSDOF 2
ENDMDL
