MODEL 1
REMARK minimizedAffinity 1.22578502
REMARK minimizedRMSD -1
REMARK  2 active torsions:
REMARK  status: ('A' for Active; 'I' for Inactive)
REMARK    1  A    between atoms: C1_2  and  C2_3 
REMARK    2  A    between atoms: C2_3  and  C3_4 
ROOT
ATOM      1  C3  UNL d   1      -3.959  -3.102  -1.584  0.00  0.00    -0.075 A 
ATOM      2  C4  UNL d   1      -2.944  -2.361  -0.962  0.00  0.00     0.002 A 
ATOM      3  C5  UNL d   1      -1.834  -1.930  -1.689  0.00  0.00     0.002 A 
ATOM      4  C6  UNL d   1      -1.721  -2.241  -3.043  0.00  0.00    -0.004 A 
ATOM      5  C7  UNL d   1      -2.715  -2.991  -3.667  0.00  0.00     0.002 A 
ATOM      6  C8  UNL d   1      -3.829  -3.420  -2.942  0.00  0.00     0.002 A 
ENDROOT
BRANCH   1   7
ATOM      7  C2  UNL d   1      -5.176  -3.546  -0.809  0.00  0.00     0.056 C 
BRANCH   7   8
ATOM      8  C1  UNL d   1      -5.005  -4.892  -0.096  0.00  0.00     0.007 C 
ATOM      9  C   UNL d   1      -6.000  -5.948  -0.558  0.00  0.00     0.009 C 
ENDBRANCH   7   8
ENDBRANCH   1   7
TORSDOF 2
ENDMDL
