MODEL 1
REMARK minimizedAffinity 2.36686969
REMARK minimizedRMSD -1
REMARK  2 active torsions:
REMARK  status: ('A' for Active; 'I' for Inactive)
REMARK    1  A    between atoms: C1_2  and  C2_3 
REMARK    2  A    between atoms: C2_3  and  C3_4 
ROOT
ATOM      1  C3  UNL d   1      -2.809   0.162   3.286  0.00  0.00    -0.075 A 
ATOM      2  C4  UNL d   1      -2.712  -1.225   3.464  0.00  0.00     0.002 A 
ATOM      3  C5  UNL d   1      -3.086  -1.812   4.674  0.00  0.00     0.002 A 
ATOM      4  C6  UNL d   1      -3.551  -1.019   5.721  0.00  0.00    -0.004 A 
ATOM      5  C7  UNL d   1      -3.635   0.362   5.560  0.00  0.00     0.002 A 
ATOM      6  C8  UNL d   1      -3.266   0.951   4.350  0.00  0.00     0.002 A 
ENDROOT
BRANCH   1   7
ATOM      7  C2  UNL d   1      -2.433   0.800   1.969  0.00  0.00     0.056 C 
BRANCH   7   8
ATOM      8  C1  UNL d   1      -1.979  -0.199   0.899  0.00  0.00     0.007 C 
ATOM      9  C   UNL d   1      -0.885   0.348  -0.008  0.00  0.00     0.009 C 
ENDBRANCH   7   8
ENDBRANCH   1   7
TORSDOF 2
ENDMDL
