MODEL 1
REMARK minimizedAffinity 1.68862379
REMARK minimizedRMSD -1
REMARK  2 active torsions:
REMARK  status: ('A' for Active; 'I' for Inactive)
REMARK    1  A    between atoms: C1_2  and  C2_3 
REMARK    2  A    between atoms: C2_3  and  C3_4 
ROOT
ATOM      1  C3  UNL d   1      -1.899  -0.305   0.426  0.00  0.00    -0.075 A 
ATOM      2  C4  UNL d   1      -2.235   1.052   0.536  0.00  0.00     0.002 A 
ATOM      3  C5  UNL d   1      -2.603   1.594   1.768  0.00  0.00     0.002 A 
ATOM      4  C6  UNL d   1      -2.650   0.785   2.901  0.00  0.00    -0.004 A 
ATOM      5  C7  UNL d   1      -2.334  -0.568   2.801  0.00  0.00     0.002 A 
ATOM      6  C8  UNL d   1      -1.961  -1.112   1.570  0.00  0.00     0.002 A 
ENDROOT
BRANCH   1   7
ATOM      7  C2  UNL d   1      -1.471  -0.891  -0.898  0.00  0.00     0.056 C 
BRANCH   7   8
ATOM      8  C1  UNL d   1      -2.301  -2.099  -1.343  0.00  0.00     0.007 C 
ATOM      9  C   UNL d   1      -2.547  -2.138  -2.846  0.00  0.00     0.009 C 
ENDBRANCH   7   8
ENDBRANCH   1   7
TORSDOF 2
ENDMDL
