MODEL 1
REMARK minimizedAffinity 1.3764919
REMARK minimizedRMSD -1
REMARK  2 active torsions:
REMARK  status: ('A' for Active; 'I' for Inactive)
REMARK    1  A    between atoms: C1_2  and  C2_3 
REMARK    2  A    between atoms: C2_3  and  C3_4 
ROOT
ATOM      1  C3  UNL d   1      -2.358  -2.446  -2.235  0.00  0.00    -0.075 A 
ATOM      2  C4  UNL d   1      -2.979  -3.660  -2.562  0.00  0.00     0.002 A 
ATOM      3  C5  UNL d   1      -3.467  -3.882  -3.850  0.00  0.00     0.002 A 
ATOM      4  C6  UNL d   1      -3.350  -2.892  -4.823  0.00  0.00    -0.004 A 
ATOM      5  C7  UNL d   1      -2.750  -1.676  -4.505  0.00  0.00     0.002 A 
ATOM      6  C8  UNL d   1      -2.257  -1.452  -3.218  0.00  0.00     0.002 A 
ENDROOT
BRANCH   1   7
ATOM      7  C2  UNL d   1      -1.801  -2.210  -0.851  0.00  0.00     0.056 C 
BRANCH   7   8
ATOM      8  C1  UNL d   1      -1.122  -0.848  -0.676  0.00  0.00     0.007 C 
ATOM      9  C   UNL d   1       0.025  -0.874   0.325  0.00  0.00     0.009 C 
ENDBRANCH   7   8
ENDBRANCH   1   7
TORSDOF 2
ENDMDL
