MODEL 1
REMARK minimizedAffinity 3.56282258
REMARK minimizedRMSD -1
REMARK  2 active torsions:
REMARK  status: ('A' for Active; 'I' for Inactive)
REMARK    1  A    between atoms: C1_2  and  C2_3 
REMARK    2  A    between atoms: C2_3  and  C3_4 
ROOT
ATOM      1  C3  UNL d   1       2.635   2.681   2.810  0.00  0.00    -0.075 A 
ATOM      2  C4  UNL d   1       1.380   2.092   2.597  0.00  0.00     0.002 A 
ATOM      3  C5  UNL d   1       0.711   1.453   3.641  0.00  0.00     0.002 A 
ATOM      4  C6  UNL d   1       1.291   1.385   4.906  0.00  0.00    -0.004 A 
ATOM      5  C7  UNL d   1       2.544   1.952   5.125  0.00  0.00     0.002 A 
ATOM      6  C8  UNL d   1       3.214   2.597   4.083  0.00  0.00     0.002 A 
ENDROOT
BRANCH   1   7
ATOM      7  C2  UNL d   1       3.350   3.401   1.692  0.00  0.00     0.056 C 
BRANCH   7   8
ATOM      8  C1  UNL d   1       2.835   3.048   0.292  0.00  0.00     0.007 C 
ATOM      9  C   UNL d   1       3.798   3.440  -0.819  0.00  0.00     0.009 C 
ENDBRANCH   7   8
ENDBRANCH   1   7
TORSDOF 2
ENDMDL
