MODEL 1
REMARK minimizedAffinity 6.17101955
REMARK minimizedRMSD -1
REMARK  2 active torsions:
REMARK  status: ('A' for Active; 'I' for Inactive)
REMARK    1  A    between atoms: C1_2  and  C2_3 
REMARK    2  A    between atoms: C2_3  and  C3_4 
ROOT
ATOM      1  C3  UNL d   1      -1.635  -0.599  -1.689  0.00  0.00    -0.075 A 
ATOM      2  C4  UNL d   1      -0.966   0.588  -2.024  0.00  0.00     0.002 A 
ATOM      3  C5  UNL d   1      -0.109   1.200  -1.109  0.00  0.00     0.002 A 
ATOM      4  C6  UNL d   1       0.083   0.641   0.153  0.00  0.00    -0.004 A 
ATOM      5  C7  UNL d   1      -0.589  -0.528   0.502  0.00  0.00     0.002 A 
ATOM      6  C8  UNL d   1      -1.444  -1.145  -0.413  0.00  0.00     0.002 A 
ENDROOT
BRANCH   1   7
ATOM      7  C2  UNL d   1      -2.541  -1.283  -2.685  0.00  0.00     0.056 C 
BRANCH   7   8
ATOM      8  C1  UNL d   1      -2.169  -1.021  -4.148  0.00  0.00     0.007 C 
ATOM      9  C   UNL d   1      -2.541  -2.170  -5.076  0.00  0.00     0.009 C 
ENDBRANCH   7   8
ENDBRANCH   1   7
TORSDOF 2
ENDMDL
