MODEL 1
REMARK minimizedAffinity -0.0645871162
REMARK minimizedRMSD -1
REMARK  2 active torsions:
REMARK  status: ('A' for Active; 'I' for Inactive)
REMARK    1  A    between atoms: C1_2  and  C2_3 
REMARK    2  A    between atoms: C2_3  and  C3_4 
ROOT
ATOM      1  C3  UNL d   1      -3.785   5.011   3.916  0.00  0.00    -0.075 A 
ATOM      2  C4  UNL d   1      -4.911   5.576   4.533  0.00  0.00     0.002 A 
ATOM      3  C5  UNL d   1      -5.999   5.999   3.770  0.00  0.00     0.002 A 
ATOM      4  C6  UNL d   1      -5.972   5.872   2.383  0.00  0.00    -0.004 A 
ATOM      5  C7  UNL d   1      -4.853   5.328   1.758  0.00  0.00     0.002 A 
ATOM      6  C8  UNL d   1      -3.764   4.900   2.520  0.00  0.00     0.002 A 
ENDROOT
BRANCH   1   7
ATOM      7  C2  UNL d   1      -2.616   4.525   4.739  0.00  0.00     0.056 C 
BRANCH   7   8
ATOM      8  C1  UNL d   1      -2.774   3.093   5.262  0.00  0.00     0.007 C 
ATOM      9  C   UNL d   1      -3.378   2.143   4.237  0.00  0.00     0.009 C 
ENDBRANCH   7   8
ENDBRANCH   1   7
TORSDOF 2
ENDMDL
