MODEL 1
REMARK minimizedAffinity 2.28881526
REMARK minimizedRMSD -1
REMARK  2 active torsions:
REMARK  status: ('A' for Active; 'I' for Inactive)
REMARK    1  A    between atoms: C1_2  and  C2_3 
REMARK    2  A    between atoms: C2_3  and  C3_4 
ROOT
ATOM      1  C3  UNL d   1       0.710   1.978   4.572  0.00  0.00    -0.075 A 
ATOM      2  C4  UNL d   1       1.571   0.975   5.042  0.00  0.00     0.002 A 
ATOM      3  C5  UNL d   1       2.916   0.967   4.674  0.00  0.00     0.002 A 
ATOM      4  C6  UNL d   1       3.416   1.952   3.826  0.00  0.00    -0.004 A 
ATOM      5  C7  UNL d   1       2.567   2.944   3.339  0.00  0.00     0.002 A 
ATOM      6  C8  UNL d   1       1.221   2.957   3.709  0.00  0.00     0.002 A 
ENDROOT
BRANCH   1   7
ATOM      7  C2  UNL d   1      -0.740   2.009   4.989  0.00  0.00     0.056 C 
BRANCH   7   8
ATOM      8  C1  UNL d   1      -1.233   3.392   5.429  0.00  0.00     0.007 C 
ATOM      9  C   UNL d   1      -2.709   3.413   5.802  0.00  0.00     0.009 C 
ENDBRANCH   7   8
ENDBRANCH   1   7
TORSDOF 2
ENDMDL
