MODEL 1
REMARK minimizedAffinity 0.479230672
REMARK minimizedRMSD -1
REMARK  1 active torsions:
REMARK  status: ('A' for Active; 'I' for Inactive)
REMARK    1  A    between atoms: C1_2  and  C2_3 
ROOT
ATOM      1  C2  UNL d   1      -2.726   1.741  -0.305  0.00  0.00    -0.081 A 
ATOM      2  C3  UNL d   1      -2.720   0.526   0.391  0.00  0.00     0.006 A 
ATOM      3  C4  UNL d   1      -1.554   0.070   1.010  0.00  0.00     0.002 A 
ATOM      4  C5  UNL d   1      -0.377   0.824   0.951  0.00  0.00    -0.080 A 
ATOM      5  C6  UNL d   1       0.873   0.361   1.637  0.00  0.00     0.076 C 
ATOM      6  C7  UNL d   1      -0.378   2.029   0.240  0.00  0.00     0.002 A 
ATOM      7  C8  UNL d   1      -1.544   2.485  -0.380  0.00  0.00     0.006 A 
ENDROOT
BRANCH   1   8
ATOM      8  C1  UNL d   1      -3.998   2.266  -0.919  0.00  0.00     0.054 C 
ATOM      9  C   UNL d   1      -5.200   1.981  -0.031  0.00  0.00     0.018 C 
ENDBRANCH   1   8
TORSDOF 1
ENDMDL
