MODEL 1
REMARK minimizedAffinity 10.0842829
REMARK minimizedRMSD -1
REMARK  1 active torsions:
REMARK  status: ('A' for Active; 'I' for Inactive)
REMARK    1  A    between atoms: C1_2  and  C2_3 
ROOT
ATOM      1  C2  UNL d   1      -3.762   1.926  -0.173  0.00  0.00    -0.081 A 
ATOM      2  C3  UNL d   1      -3.043   3.034  -0.637  0.00  0.00     0.006 A 
ATOM      3  C4  UNL d   1      -1.653   3.080  -0.510  0.00  0.00     0.002 A 
ATOM      4  C5  UNL d   1      -0.958   2.016   0.075  0.00  0.00    -0.080 A 
ATOM      5  C6  UNL d   1       0.537   2.038   0.189  0.00  0.00     0.076 C 
ATOM      6  C7  UNL d   1      -1.678   0.916   0.554  0.00  0.00     0.002 A 
ATOM      7  C8  UNL d   1      -3.069   0.871   0.428  0.00  0.00     0.006 A 
ENDROOT
BRANCH   1   8
ATOM      8  C1  UNL d   1      -5.255   1.846  -0.367  0.00  0.00     0.054 C 
ATOM      9  C   UNL d   1      -5.998   2.567   0.749  0.00  0.00     0.018 C 
ENDBRANCH   1   8
TORSDOF 1
ENDMDL
