MODEL 1
REMARK minimizedAffinity 0.156941503
REMARK minimizedRMSD -1
REMARK  1 active torsions:
REMARK  status: ('A' for Active; 'I' for Inactive)
REMARK    1  A    between atoms: C1_2  and  C2_3 
ROOT
ATOM      1  C2  UNL d   1      -0.107   1.460   0.824  0.00  0.00    -0.081 A 
ATOM      2  C3  UNL d   1      -0.846   0.287   1.019  0.00  0.00     0.006 A 
ATOM      3  C4  UNL d   1      -2.171   0.205   0.583  0.00  0.00     0.002 A 
ATOM      4  C5  UNL d   1      -2.775   1.290  -0.061  0.00  0.00    -0.080 A 
ATOM      5  C6  UNL d   1      -4.187   1.204  -0.561  0.00  0.00     0.076 C 
ATOM      6  C7  UNL d   1      -2.042   2.468  -0.239  0.00  0.00     0.002 A 
ATOM      7  C8  UNL d   1      -0.718   2.551   0.197  0.00  0.00     0.006 A 
ENDROOT
BRANCH   1   8
ATOM      8  C1  UNL d   1       1.342   1.529   1.235  0.00  0.00     0.054 C 
ATOM      9  C   UNL d   1       2.235   0.804   0.239  0.00  0.00     0.018 C 
ENDBRANCH   1   8
TORSDOF 1
ENDMDL
