MODEL 1
REMARK minimizedAffinity 0.957752824
REMARK minimizedRMSD -1
REMARK  1 active torsions:
REMARK  status: ('A' for Active; 'I' for Inactive)
REMARK    1  A    between atoms: C1_2  and  C2_3 
ROOT
ATOM      1  C2  UNL d   1      -2.591   2.034  -0.021  0.00  0.00    -0.081 A 
ATOM      2  C3  UNL d   1      -2.451   0.742   0.500  0.00  0.00     0.006 A 
ATOM      3  C4  UNL d   1      -1.190   0.251   0.846  0.00  0.00     0.002 A 
ATOM      4  C5  UNL d   1      -0.050   1.045   0.684  0.00  0.00    -0.080 A 
ATOM      5  C6  UNL d   1       1.306   0.540   1.079  0.00  0.00     0.076 C 
ATOM      6  C7  UNL d   1      -0.188   2.329   0.146  0.00  0.00     0.002 A 
ATOM      7  C8  UNL d   1      -1.448   2.821  -0.200  0.00  0.00     0.006 A 
ENDROOT
BRANCH   1   8
ATOM      8  C1  UNL d   1      -3.957   2.591  -0.334  0.00  0.00     0.054 C 
ATOM      9  C   UNL d   1      -5.050   1.811   0.382  0.00  0.00     0.018 C 
ENDBRANCH   1   8
TORSDOF 1
ENDMDL
