MODEL 1
REMARK minimizedAffinity 0.750216603
REMARK minimizedRMSD -1
REMARK  1 active torsions:
REMARK  status: ('A' for Active; 'I' for Inactive)
REMARK    1  A    between atoms: C1_2  and  C2_3 
ROOT
ATOM      1  C2  UNL d   1      -2.770   0.315   1.041  0.00  0.00    -0.081 A 
ATOM      2  C3  UNL d   1      -1.551  -0.196   1.503  0.00  0.00     0.006 A 
ATOM      3  C4  UNL d   1      -0.349   0.436   1.175  0.00  0.00     0.002 A 
ATOM      4  C5  UNL d   1      -0.346   1.591   0.387  0.00  0.00    -0.080 A 
ATOM      5  C6  UNL d   1       0.936   2.296   0.053  0.00  0.00     0.076 C 
ATOM      6  C7  UNL d   1      -1.562   2.091  -0.090  0.00  0.00     0.002 A 
ATOM      7  C8  UNL d   1      -2.764   1.460   0.237  0.00  0.00     0.006 A 
ENDROOT
BRANCH   1   8
ATOM      8  C1  UNL d   1      -4.072  -0.326   1.446  0.00  0.00     0.054 C 
ATOM      9  C   UNL d   1      -4.118  -0.586   2.945  0.00  0.00     0.018 C 
ENDBRANCH   1   8
TORSDOF 1
ENDMDL
