MODEL 1
REMARK minimizedAffinity 3.12630916
REMARK minimizedRMSD -1
REMARK  1 active torsions:
REMARK  status: ('A' for Active; 'I' for Inactive)
REMARK    1  A    between atoms: C1_2  and  C2_3 
ROOT
ATOM      1  C2  UNL d   1      -2.986   1.089   0.812  0.00  0.00    -0.081 A 
ATOM      2  C3  UNL d   1      -1.893   0.624   1.555  0.00  0.00     0.006 A 
ATOM      3  C4  UNL d   1      -0.622   1.171   1.363  0.00  0.00     0.002 A 
ATOM      4  C5  UNL d   1      -0.424   2.197   0.433  0.00  0.00    -0.080 A 
ATOM      5  C6  UNL d   1       0.929   2.814   0.239  0.00  0.00     0.076 C 
ATOM      6  C7  UNL d   1      -1.512   2.649  -0.322  0.00  0.00     0.002 A 
ATOM      7  C8  UNL d   1      -2.783   2.102  -0.131  0.00  0.00     0.006 A 
ENDROOT
BRANCH   1   8
ATOM      8  C1  UNL d   1      -4.369   0.545   1.062  0.00  0.00     0.054 C 
ATOM      9  C   UNL d   1      -5.411   1.655   1.047  0.00  0.00     0.018 C 
ENDBRANCH   1   8
TORSDOF 1
ENDMDL
