MODEL 1
REMARK minimizedAffinity 2.32401538
REMARK minimizedRMSD -1
REMARK  1 active torsions:
REMARK  status: ('A' for Active; 'I' for Inactive)
REMARK    1  A    between atoms: C1_2  and  C2_3 
ROOT
ATOM      1  C2  UNL d   1       1.939   1.093  -0.352  0.00  0.00    -0.081 A 
ATOM      2  C3  UNL d   1       0.578   1.118  -0.023  0.00  0.00     0.006 A 
ATOM      3  C4  UNL d   1       0.160   1.582   1.227  0.00  0.00     0.002 A 
ATOM      4  C5  UNL d   1       1.094   2.037   2.164  0.00  0.00    -0.080 A 
ATOM      5  C6  UNL d   1       0.656   2.566   3.497  0.00  0.00     0.076 C 
ATOM      6  C7  UNL d   1       2.455   1.996   1.842  0.00  0.00     0.002 A 
ATOM      7  C8  UNL d   1       2.873   1.531   0.593  0.00  0.00     0.006 A 
ENDROOT
BRANCH   1   8
ATOM      8  C1  UNL d   1       2.388   0.654  -1.722  0.00  0.00     0.054 C 
ATOM      9  C   UNL d   1       1.491   1.228  -2.809  0.00  0.00     0.018 C 
ENDBRANCH   1   8
TORSDOF 1
ENDMDL
