MODEL 1
REMARK minimizedAffinity 1.12026072
REMARK minimizedRMSD -1
REMARK  1 active torsions:
REMARK  status: ('A' for Active; 'I' for Inactive)
REMARK    1  A    between atoms: C1_2  and  C2_3 
ROOT
ATOM      1  C2  UNL d   1       1.136   1.297  -0.212  0.00  0.00    -0.081 A 
ATOM      2  C3  UNL d   1      -0.262   1.238  -0.170  0.00  0.00     0.006 A 
ATOM      3  C4  UNL d   1      -0.952   1.608   0.987  0.00  0.00     0.002 A 
ATOM      4  C5  UNL d   1      -0.256   2.050   2.118  0.00  0.00    -0.080 A 
ATOM      5  C6  UNL d   1      -0.986   2.479   3.356  0.00  0.00     0.076 C 
ATOM      6  C7  UNL d   1       1.142   2.092   2.082  0.00  0.00     0.002 A 
ATOM      7  C8  UNL d   1       1.832   1.722   0.926  0.00  0.00     0.006 A 
ENDROOT
BRANCH   1   8
ATOM      8  C1  UNL d   1       1.880   0.961  -1.479  0.00  0.00     0.054 C 
ATOM      9  C   UNL d   1       1.536   1.934  -2.597  0.00  0.00     0.018 C 
ENDBRANCH   1   8
TORSDOF 1
ENDMDL
