MODEL 1
REMARK minimizedAffinity 8.8020153
REMARK minimizedRMSD -1
REMARK  1 active torsions:
REMARK  status: ('A' for Active; 'I' for Inactive)
REMARK    1  A    between atoms: C1_2  and  C2_3 
ROOT
ATOM      1  C2  UNL d   1       0.313  -0.058   0.634  0.00  0.00    -0.081 A 
ATOM      2  C3  UNL d   1       0.620  -1.356   1.060  0.00  0.00     0.006 A 
ATOM      3  C4  UNL d   1      -0.357  -2.355   1.048  0.00  0.00     0.002 A 
ATOM      4  C5  UNL d   1      -1.654  -2.074   0.604  0.00  0.00    -0.080 A 
ATOM      5  C6  UNL d   1      -2.703  -3.144   0.558  0.00  0.00     0.076 C 
ATOM      6  C7  UNL d   1      -1.965  -0.773   0.196  0.00  0.00     0.002 A 
ATOM      7  C8  UNL d   1      -0.989   0.226   0.208  0.00  0.00     0.006 A 
ENDROOT
BRANCH   1   8
ATOM      8  C1  UNL d   1       1.381   1.005   0.584  0.00  0.00     0.054 C 
ATOM      9  C   UNL d   1       1.430   1.676  -0.781  0.00  0.00     0.018 C 
ENDBRANCH   1   8
TORSDOF 1
ENDMDL
