MODEL 1
REMARK minimizedAffinity 0.364466131
REMARK minimizedRMSD -1
REMARK  1 active torsions:
REMARK  status: ('A' for Active; 'I' for Inactive)
REMARK    1  A    between atoms: C1_2  and  C2_3 
ROOT
ATOM      1  C2  UNL d   1      -0.477   0.961   0.752  0.00  0.00    -0.081 A 
ATOM      2  C3  UNL d   1      -0.234  -0.305   1.298  0.00  0.00     0.006 A 
ATOM      3  C4  UNL d   1       0.847  -1.071   0.855  0.00  0.00     0.002 A 
ATOM      4  C5  UNL d   1       1.707  -0.582  -0.134  0.00  0.00    -0.080 A 
ATOM      5  C6  UNL d   1       2.888  -1.382  -0.596  0.00  0.00     0.076 C 
ATOM      6  C7  UNL d   1       1.454   0.676  -0.692  0.00  0.00     0.002 A 
ATOM      7  C8  UNL d   1       0.373   1.442  -0.251  0.00  0.00     0.006 A 
ENDROOT
BRANCH   1   8
ATOM      8  C1  UNL d   1      -1.603   1.817   1.272  0.00  0.00     0.054 C 
ATOM      9  C   UNL d   1      -1.092   2.876   2.239  0.00  0.00     0.018 C 
ENDBRANCH   1   8
TORSDOF 1
ENDMDL
