MODEL 1
REMARK minimizedAffinity 0.189738184
REMARK minimizedRMSD -1
REMARK  0 active torsions:
REMARK  status: ('A' for Active; 'I' for Inactive)
ROOT
ATOM      1  C   UNL d   1       0.671  -2.096  -0.108  0.00  0.00    -0.002 A 
ATOM      2  C1  UNL d   1       0.661  -1.697  -1.437  0.00  0.00     0.010 A 
ATOM      3  C2  UNL d   1       0.399  -0.369  -1.778  0.00  0.00     0.041 A 
ATOM      4  C3  UNL d   1       0.145   0.561  -0.750  0.00  0.00    -0.075 A 
ATOM      5  S   UNL d   1      -0.200   2.241  -0.930  0.00  0.00     0.015 SA
ATOM      6  C4  UNL d   1      -0.341   2.468   0.753  0.00  0.00     0.022 A 
ATOM      7  C5  UNL d   1      -0.133   1.302   1.450  0.00  0.00     0.026 A 
ATOM      8  C6  UNL d   1       0.151   0.184   0.595  0.00  0.00    -0.082 A 
ATOM      9  C7  UNL d   1       0.420  -1.171   0.908  0.00  0.00     0.045 A 
ENDROOT
TORSDOF 0
ENDMDL
