MODEL 1
REMARK minimizedAffinity -3.64309859
REMARK minimizedRMSD -1
REMARK  0 active torsions:
REMARK  status: ('A' for Active; 'I' for Inactive)
ROOT
ATOM      1  C   UNL d   1      -0.728   4.179  -0.037  0.00  0.00    -0.002 A 
ATOM      2  C1  UNL d   1      -0.363   3.561  -1.224  0.00  0.00     0.010 A 
ATOM      3  C2  UNL d   1      -0.117   2.187  -1.263  0.00  0.00     0.041 A 
ATOM      4  C3  UNL d   1      -0.248   1.437  -0.077  0.00  0.00    -0.075 A 
ATOM      5  S   UNL d   1       0.001  -0.258   0.113  0.00  0.00     0.015 SA
ATOM      6  C4  UNL d   1      -0.372  -0.202   1.775  0.00  0.00     0.022 A 
ATOM      7  C5  UNL d   1      -0.682   1.072   2.191  0.00  0.00     0.026 A 
ATOM      8  C6  UNL d   1      -0.616   2.037   1.130  0.00  0.00    -0.082 A 
ATOM      9  C7  UNL d   1      -0.857   3.432   1.137  0.00  0.00     0.045 A 
ENDROOT
TORSDOF 0
ENDMDL
