MODEL 1
REMARK minimizedAffinity 1.02213836
REMARK minimizedRMSD -1
REMARK  0 active torsions:
REMARK  status: ('A' for Active; 'I' for Inactive)
ROOT
ATOM      1  C   UNL d   1       0.016  -4.053  -1.260  0.00  0.00    -0.002 A 
ATOM      2  C1  UNL d   1      -1.310  -3.950  -0.865  0.00  0.00     0.010 A 
ATOM      3  C2  UNL d   1      -1.806  -2.751  -0.348  0.00  0.00     0.041 A 
ATOM      4  C3  UNL d   1      -0.938  -1.647  -0.235  0.00  0.00    -0.075 A 
ATOM      5  S   UNL d   1      -1.324  -0.079   0.369  0.00  0.00     0.015 SA
ATOM      6  C4  UNL d   1       0.262   0.491   0.116  0.00  0.00     0.022 A 
ATOM      7  C5  UNL d   1       1.080  -0.478  -0.415  0.00  0.00     0.026 A 
ATOM      8  C6  UNL d   1       0.402  -1.726  -0.627  0.00  0.00    -0.082 A 
ATOM      9  C7  UNL d   1       0.874  -2.956  -1.146  0.00  0.00     0.045 A 
ENDROOT
TORSDOF 0
ENDMDL
