MODEL 1
REMARK minimizedAffinity 4.67811155
REMARK minimizedRMSD -1
REMARK  0 active torsions:
REMARK  status: ('A' for Active; 'I' for Inactive)
ROOT
ATOM      1  C   UNL d   1       0.410  -1.662  -1.020  0.00  0.00    -0.002 A 
ATOM      2  C1  UNL d   1      -0.125  -0.535  -1.627  0.00  0.00     0.010 A 
ATOM      3  C2  UNL d   1      -0.267   0.657  -0.914  0.00  0.00     0.041 A 
ATOM      4  C3  UNL d   1       0.146   0.698   0.432  0.00  0.00    -0.075 A 
ATOM      5  S   UNL d   1       0.069   2.049   1.501  0.00  0.00     0.015 SA
ATOM      6  C4  UNL d   1       0.747   1.162   2.789  0.00  0.00     0.022 A 
ATOM      7  C5  UNL d   1       1.031  -0.134   2.430  0.00  0.00     0.026 A 
ATOM      8  C6  UNL d   1       0.689  -0.423   1.066  0.00  0.00    -0.082 A 
ATOM      9  C7  UNL d   1       0.818  -1.617   0.316  0.00  0.00     0.045 A 
ENDROOT
TORSDOF 0
ENDMDL
