MODEL 1
REMARK minimizedAffinity -1.33623469
REMARK minimizedRMSD -1
REMARK  0 active torsions:
REMARK  status: ('A' for Active; 'I' for Inactive)
ROOT
ATOM      1  C   UNL d   1       0.195   0.854   0.796  0.00  0.00    -0.002 A 
ATOM      2  C1  UNL d   1       0.731   0.970  -0.479  0.00  0.00     0.010 A 
ATOM      3  C2  UNL d   1       0.774  -0.133  -1.335  0.00  0.00     0.041 A 
ATOM      4  C3  UNL d   1       0.262  -1.365  -0.884  0.00  0.00    -0.075 A 
ATOM      5  S   UNL d   1       0.207  -2.850  -1.758  0.00  0.00     0.015 SA
ATOM      6  C4  UNL d   1      -0.530  -3.673  -0.461  0.00  0.00     0.022 A 
ATOM      7  C5  UNL d   1      -0.737  -2.851   0.621  0.00  0.00     0.026 A 
ATOM      8  C6  UNL d   1      -0.285  -1.507   0.395  0.00  0.00    -0.082 A 
ATOM      9  C7  UNL d   1      -0.313  -0.371   1.239  0.00  0.00     0.045 A 
ENDROOT
TORSDOF 0
ENDMDL
