MODEL 1
REMARK minimizedAffinity -3.27937627
REMARK minimizedRMSD -1
REMARK  0 active torsions:
REMARK  status: ('A' for Active; 'I' for Inactive)
ROOT
ATOM      1  C   UNL d   1      -0.244   3.861   0.009  0.00  0.00    -0.002 A 
ATOM      2  C1  UNL d   1       0.006   3.304  -1.237  0.00  0.00     0.010 A 
ATOM      3  C2  UNL d   1       0.245   1.934  -1.367  0.00  0.00     0.041 A 
ATOM      4  C3  UNL d   1       0.226   1.126  -0.213  0.00  0.00    -0.075 A 
ATOM      5  S   UNL d   1       0.491  -0.575  -0.132  0.00  0.00     0.015 SA
ATOM      6  C4  UNL d   1       0.277  -0.603   1.559  0.00  0.00     0.022 A 
ATOM      7  C5  UNL d   1       0.010   0.647   2.065  0.00  0.00     0.026 A 
ATOM      8  C6  UNL d   1      -0.024   1.664   1.052  0.00  0.00    -0.082 A 
ATOM      9  C7  UNL d   1      -0.262   3.056   1.151  0.00  0.00     0.045 A 
ENDROOT
TORSDOF 0
ENDMDL
