MODEL 1
REMARK minimizedAffinity -3.55199265
REMARK minimizedRMSD -1
REMARK  0 active torsions:
REMARK  status: ('A' for Active; 'I' for Inactive)
ROOT
ATOM      1  C   UNL d   1      -0.388   3.426  -0.392  0.00  0.00    -0.002 A 
ATOM      2  C1  UNL d   1      -0.184   3.329   0.977  0.00  0.00     0.010 A 
ATOM      3  C2  UNL d   1       0.214   2.120   1.552  0.00  0.00     0.041 A 
ATOM      4  C3  UNL d   1       0.406   1.000   0.720  0.00  0.00    -0.075 A 
ATOM      5  S   UNL d   1       0.893  -0.582   1.202  0.00  0.00     0.015 SA
ATOM      6  C4  UNL d   1       0.841  -1.167  -0.398  0.00  0.00     0.022 A 
ATOM      7  C5  UNL d   1       0.463  -0.192  -1.291  0.00  0.00     0.026 A 
ATOM      8  C6  UNL d   1       0.207   1.073  -0.662  0.00  0.00    -0.082 A 
ATOM      9  C7  UNL d   1      -0.197   2.312  -1.215  0.00  0.00     0.045 A 
ENDROOT
TORSDOF 0
ENDMDL
