MODEL 1
REMARK minimizedAffinity -0.13721548
REMARK minimizedRMSD -1
REMARK  0 active torsions:
REMARK  status: ('A' for Active; 'I' for Inactive)
ROOT
ATOM      1  C   UNL d   1       0.014  -3.951  -1.001  0.00  0.00    -0.002 A 
ATOM      2  C1  UNL d   1      -0.786  -3.320  -1.944  0.00  0.00     0.010 A 
ATOM      3  C2  UNL d   1      -0.928  -1.931  -1.939  0.00  0.00     0.041 A 
ATOM      4  C3  UNL d   1      -0.243  -1.179  -0.964  0.00  0.00    -0.075 A 
ATOM      5  S   UNL d   1      -0.266   0.534  -0.766  0.00  0.00     0.015 SA
ATOM      6  C4  UNL d   1       0.786   0.468   0.573  0.00  0.00     0.022 A 
ATOM      7  C5  UNL d   1       1.155  -0.821   0.876  0.00  0.00     0.026 A 
ATOM      8  C6  UNL d   1       0.568  -1.792  -0.005  0.00  0.00    -0.082 A 
ATOM      9  C7  UNL d   1       0.691  -3.202  -0.035  0.00  0.00     0.045 A 
ENDROOT
TORSDOF 0
ENDMDL
