MODEL 1
REMARK minimizedAffinity -1.11976457
REMARK minimizedRMSD -1
REMARK  2 active torsions:
REMARK  status: ('A' for Active; 'I' for Inactive)
REMARK    1  A    between atoms: C1_2  and  C2_3 
REMARK    2  A    between atoms: C2_3  and  C3_4 
ROOT
ATOM      1  C3  UNL d   1       2.392  -0.476  -0.052  0.00  0.00    -0.075 A 
ATOM      2  C4  UNL d   1       1.819  -0.731  -1.306  0.00  0.00     0.002 A 
ATOM      3  C5  UNL d   1       1.597   0.309  -2.209  0.00  0.00     0.002 A 
ATOM      4  C6  UNL d   1       1.935   1.617  -1.866  0.00  0.00    -0.004 A 
ATOM      5  C7  UNL d   1       2.489   1.884  -0.617  0.00  0.00     0.002 A 
ATOM      6  C8  UNL d   1       2.717   0.845   0.287  0.00  0.00     0.002 A 
ENDROOT
BRANCH   1   7
ATOM      7  C2  UNL d   1       2.662  -1.601   0.918  0.00  0.00     0.056 C 
BRANCH   7   8
ATOM      8  C1  UNL d   1       1.978  -1.429   2.278  0.00  0.00     0.007 C 
ATOM      9  C   UNL d   1       0.460  -1.510   2.202  0.00  0.00     0.009 C 
ENDBRANCH   7   8
ENDBRANCH   1   7
TORSDOF 2
ENDMDL
