MODEL 1
REMARK minimizedAffinity 3.878896
REMARK minimizedRMSD -1
REMARK  2 active torsions:
REMARK  status: ('A' for Active; 'I' for Inactive)
REMARK    1  A    between atoms: C1_2  and  C2_3 
REMARK    2  A    between atoms: C2_3  and  C3_4 
ROOT
ATOM      1  C3  UNL d   1      -0.624  -0.109   2.982  0.00  0.00    -0.075 A 
ATOM      2  C4  UNL d   1       0.759  -0.054   3.211  0.00  0.00     0.002 A 
ATOM      3  C5  UNL d   1       1.629  -0.875   2.493  0.00  0.00     0.002 A 
ATOM      4  C6  UNL d   1       1.128  -1.766   1.546  0.00  0.00    -0.004 A 
ATOM      5  C7  UNL d   1      -0.245  -1.840   1.322  0.00  0.00     0.002 A 
ATOM      6  C8  UNL d   1      -1.117  -1.017   2.036  0.00  0.00     0.002 A 
ENDROOT
BRANCH   1   7
ATOM      7  C2  UNL d   1      -1.568   0.798   3.735  0.00  0.00     0.056 C 
BRANCH   7   8
ATOM      8  C1  UNL d   1      -2.899   1.046   3.017  0.00  0.00     0.007 C 
ATOM      9  C   UNL d   1      -4.019   1.470   3.958  0.00  0.00     0.009 C 
ENDBRANCH   7   8
ENDBRANCH   1   7
TORSDOF 2
ENDMDL
