MODEL 1
REMARK minimizedAffinity 8.15294075
REMARK minimizedRMSD -1
REMARK  2 active torsions:
REMARK  status: ('A' for Active; 'I' for Inactive)
REMARK    1  A    between atoms: C1_2  and  C2_3 
REMARK    2  A    between atoms: C2_3  and  C3_4 
ROOT
ATOM      1  C3  UNL d   1      -0.165   0.006   3.170  0.00  0.00    -0.075 A 
ATOM      2  C4  UNL d   1      -0.630  -0.464   1.933  0.00  0.00     0.002 A 
ATOM      3  C5  UNL d   1       0.185  -1.255   1.124  0.00  0.00     0.002 A 
ATOM      4  C6  UNL d   1       1.477  -1.578   1.535  0.00  0.00    -0.004 A 
ATOM      5  C7  UNL d   1       1.955  -1.103   2.754  0.00  0.00     0.002 A 
ATOM      6  C8  UNL d   1       1.140  -0.314   3.568  0.00  0.00     0.002 A 
ENDROOT
BRANCH   1   7
ATOM      7  C2  UNL d   1      -1.053   0.839   4.063  0.00  0.00     0.056 C 
BRANCH   7   8
ATOM      8  C1  UNL d   1      -2.273   1.433   3.352  0.00  0.00     0.007 C 
ATOM      9  C   UNL d   1      -3.195   2.205   4.285  0.00  0.00     0.009 C 
ENDBRANCH   7   8
ENDBRANCH   1   7
TORSDOF 2
ENDMDL
