MODEL 1
REMARK minimizedAffinity 7.53790903
REMARK minimizedRMSD -1
REMARK  2 active torsions:
REMARK  status: ('A' for Active; 'I' for Inactive)
REMARK    1  A    between atoms: C1_2  and  C2_3 
REMARK    2  A    between atoms: C2_3  and  C3_4 
ROOT
ATOM      1  C3  UNL d   1      -0.286  -0.956   1.595  0.00  0.00    -0.075 A 
ATOM      2  C4  UNL d   1       1.040  -1.403   1.509  0.00  0.00     0.002 A 
ATOM      3  C5  UNL d   1       1.968  -1.062   2.494  0.00  0.00     0.002 A 
ATOM      4  C6  UNL d   1       1.585  -0.264   3.569  0.00  0.00    -0.004 A 
ATOM      5  C7  UNL d   1       0.274   0.199   3.656  0.00  0.00     0.002 A 
ATOM      6  C8  UNL d   1      -0.658  -0.144   2.675  0.00  0.00     0.002 A 
ENDROOT
BRANCH   1   7
ATOM      7  C2  UNL d   1      -1.302  -1.345   0.547  0.00  0.00     0.056 C 
BRANCH   7   8
ATOM      8  C1  UNL d   1      -0.890  -0.987  -0.884  0.00  0.00     0.007 C 
ATOM      9  C   UNL d   1      -2.021  -1.146  -1.892  0.00  0.00     0.009 C 
ENDBRANCH   7   8
ENDBRANCH   1   7
TORSDOF 2
ENDMDL
