MODEL 1
REMARK minimizedAffinity 4.99772263
REMARK minimizedRMSD -1
REMARK  2 active torsions:
REMARK  status: ('A' for Active; 'I' for Inactive)
REMARK    1  A    between atoms: C1_2  and  C2_3 
REMARK    2  A    between atoms: C2_3  and  C3_4 
ROOT
ATOM      1  C3  UNL d   1       0.301  -0.950   1.615  0.00  0.00    -0.075 A 
ATOM      2  C4  UNL d   1      -0.516  -0.135   2.412  0.00  0.00     0.002 A 
ATOM      3  C5  UNL d   1      -0.207   0.079   3.756  0.00  0.00     0.002 A 
ATOM      4  C6  UNL d   1       0.914  -0.524   4.321  0.00  0.00    -0.004 A 
ATOM      5  C7  UNL d   1       1.724  -1.348   3.543  0.00  0.00     0.002 A 
ATOM      6  C8  UNL d   1       1.420  -1.561   2.197  0.00  0.00     0.002 A 
ENDROOT
BRANCH   1   7
ATOM      7  C2  UNL d   1      -0.011  -1.162   0.153  0.00  0.00     0.056 C 
BRANCH   7   8
ATOM      8  C1  UNL d   1       1.111  -0.723  -0.794  0.00  0.00     0.007 C 
ATOM      9  C   UNL d   1       0.611  -0.347  -2.183  0.00  0.00     0.009 C 
ENDBRANCH   7   8
ENDBRANCH   1   7
TORSDOF 2
ENDMDL
