MODEL 1
REMARK minimizedAffinity -4.50779867
REMARK minimizedRMSD -1
REMARK  1 active torsions:
REMARK  status: ('A' for Active; 'I' for Inactive)
REMARK    1  A    between atoms: C1_2  and  C2_3 
ROOT
ATOM      1  C2  UNL d   1      -4.362  -2.811  -4.931  0.00  0.00    -0.073 A 
ATOM      2  C3  UNL d   1      -5.420  -3.637  -5.328  0.00  0.00    -0.002 A 
ATOM      3  C4  UNL d   1      -5.181  -4.963  -5.691  0.00  0.00     0.004 A 
ATOM      4  C5  UNL d   1      -3.885  -5.478  -5.654  0.00  0.00    -0.004 A 
ATOM      5  C6  UNL d   1      -2.817  -4.672  -5.248  0.00  0.00    -0.075 A 
ATOM      6  C7  UNL d   1      -1.417  -5.210  -5.206  0.00  0.00     0.076 C 
ATOM      7  C8  UNL d   1      -3.064  -3.340  -4.888  0.00  0.00     0.001 A 
ENDROOT
BRANCH   1   8
ATOM      8  C1  UNL d   1      -4.616  -1.380  -4.532  0.00  0.00     0.053 C 
ATOM      9  C   UNL d   1      -6.000  -0.909  -4.951  0.00  0.00     0.018 C 
ENDBRANCH   1   8
TORSDOF 1
ENDMDL
