MODEL 1
REMARK minimizedAffinity -1.81331861
REMARK minimizedRMSD -1
REMARK  1 active torsions:
REMARK  status: ('A' for Active; 'I' for Inactive)
REMARK    1  A    between atoms: C1_2  and  C2_3 
ROOT
ATOM      1  C2  UNL d   1      -4.081  -3.835  -4.911  0.00  0.00    -0.073 A 
ATOM      2  C3  UNL d   1      -3.225  -3.604  -5.994  0.00  0.00    -0.002 A 
ATOM      3  C4  UNL d   1      -1.937  -4.140  -6.000  0.00  0.00     0.004 A 
ATOM      4  C5  UNL d   1      -1.494  -4.917  -4.929  0.00  0.00    -0.004 A 
ATOM      5  C6  UNL d   1      -2.339  -5.168  -3.843  0.00  0.00    -0.075 A 
ATOM      6  C7  UNL d   1      -1.877  -6.000  -2.683  0.00  0.00     0.076 C 
ATOM      7  C8  UNL d   1      -3.630  -4.624  -3.843  0.00  0.00     0.001 A 
ENDROOT
BRANCH   1   8
ATOM      8  C1  UNL d   1      -5.476  -3.264  -4.902  0.00  0.00     0.053 C 
ATOM      9  C   UNL d   1      -5.469  -1.744  -4.878  0.00  0.00     0.018 C 
ENDBRANCH   1   8
TORSDOF 1
ENDMDL
