MODEL 1
REMARK minimizedAffinity -2.64985204
REMARK minimizedRMSD -1
REMARK  1 active torsions:
REMARK  status: ('A' for Active; 'I' for Inactive)
REMARK    1  A    between atoms: C1_2  and  C2_3 
ROOT
ATOM      1  C2  UNL d   1      -4.294  -4.570  -3.975  0.00  0.00    -0.073 A 
ATOM      2  C3  UNL d   1      -4.879  -5.469  -4.875  0.00  0.00    -0.002 A 
ATOM      3  C4  UNL d   1      -5.730  -5.007  -5.880  0.00  0.00     0.004 A 
ATOM      4  C5  UNL d   1      -5.999  -3.643  -6.000  0.00  0.00    -0.004 A 
ATOM      5  C6  UNL d   1      -5.415  -2.729  -5.118  0.00  0.00    -0.075 A 
ATOM      6  C7  UNL d   1      -5.696  -1.259  -5.232  0.00  0.00     0.076 C 
ATOM      7  C8  UNL d   1      -4.564  -3.201  -4.110  0.00  0.00     0.001 A 
ENDROOT
BRANCH   1   8
ATOM      8  C1  UNL d   1      -3.370  -5.064  -2.893  0.00  0.00     0.053 C 
ATOM      9  C   UNL d   1      -2.300  -5.996  -3.438  0.00  0.00     0.018 C 
ENDBRANCH   1   8
TORSDOF 1
ENDMDL
