MODEL 1
REMARK minimizedAffinity -3.60716486
REMARK minimizedRMSD -1
REMARK  1 active torsions:
REMARK  status: ('A' for Active; 'I' for Inactive)
REMARK    1  A    between atoms: C1_2  and  C2_3 
ROOT
ATOM      1  C2  UNL d   1      -3.715  -3.220  -5.539  0.00  0.00    -0.073 A 
ATOM      2  C3  UNL d   1      -4.519  -3.968  -4.672  0.00  0.00    -0.002 A 
ATOM      3  C4  UNL d   1      -4.107  -5.231  -4.243  0.00  0.00     0.004 A 
ATOM      4  C5  UNL d   1      -2.887  -5.754  -4.671  0.00  0.00    -0.004 A 
ATOM      5  C6  UNL d   1      -2.065  -5.016  -5.529  0.00  0.00    -0.075 A 
ATOM      6  C7  UNL d   1      -0.750  -5.566  -6.000  0.00  0.00     0.076 C 
ATOM      7  C8  UNL d   1      -2.486  -3.750  -5.957  0.00  0.00     0.001 A 
ENDROOT
BRANCH   1   8
ATOM      8  C1  UNL d   1      -4.152  -1.853  -5.999  0.00  0.00     0.053 C 
ATOM      9  C   UNL d   1      -5.378  -1.362  -5.245  0.00  0.00     0.018 C 
ENDBRANCH   1   8
TORSDOF 1
ENDMDL
