MODEL 1
REMARK minimizedAffinity -1.75098062
REMARK minimizedRMSD -1
REMARK  1 active torsions:
REMARK  status: ('A' for Active; 'I' for Inactive)
REMARK    1  A    between atoms: C1_2  and  C2_3 
ROOT
ATOM      1  C2  UNL d   1      -4.743  -3.573  -5.957  0.00  0.00    -0.073 A 
ATOM      2  C3  UNL d   1      -5.425  -4.794  -5.900  0.00  0.00    -0.002 A 
ATOM      3  C4  UNL d   1      -4.717  -5.996  -5.878  0.00  0.00     0.004 A 
ATOM      4  C5  UNL d   1      -3.322  -5.990  -5.905  0.00  0.00    -0.004 A 
ATOM      5  C6  UNL d   1      -2.623  -4.780  -5.950  0.00  0.00    -0.075 A 
ATOM      6  C7  UNL d   1      -1.123  -4.757  -5.982  0.00  0.00     0.076 C 
ATOM      7  C8  UNL d   1      -3.341  -3.577  -5.975  0.00  0.00     0.001 A 
ENDROOT
BRANCH   1   8
ATOM      8  C1  UNL d   1      -5.503  -2.272  -5.975  0.00  0.00     0.053 C 
ATOM      9  C   UNL d   1      -5.998  -1.882  -4.591  0.00  0.00     0.018 C 
ENDBRANCH   1   8
TORSDOF 1
ENDMDL
