MODEL 1
REMARK minimizedAffinity -2.28139496
REMARK minimizedRMSD -1
REMARK  1 active torsions:
REMARK  status: ('A' for Active; 'I' for Inactive)
REMARK    1  A    between atoms: C1_2  and  C2_3 
ROOT
ATOM      1  C2  UNL d   1      -3.663  -4.543  -5.142  0.00  0.00    -0.073 A 
ATOM      2  C3  UNL d   1      -4.972  -4.998  -5.337  0.00  0.00    -0.002 A 
ATOM      3  C4  UNL d   1      -6.000  -4.094  -5.607  0.00  0.00     0.004 A 
ATOM      4  C5  UNL d   1      -5.729  -2.728  -5.692  0.00  0.00    -0.004 A 
ATOM      5  C6  UNL d   1      -4.425  -2.255  -5.511  0.00  0.00    -0.075 A 
ATOM      6  C7  UNL d   1      -4.118  -0.789  -5.596  0.00  0.00     0.076 C 
ATOM      7  C8  UNL d   1      -3.399  -3.169  -5.238  0.00  0.00     0.001 A 
ENDROOT
BRANCH   1   8
ATOM      8  C1  UNL d   1      -2.549  -5.517  -4.856  0.00  0.00     0.053 C 
ATOM      9  C   UNL d   1      -1.548  -5.588  -5.999  0.00  0.00     0.018 C 
ENDBRANCH   1   8
TORSDOF 1
ENDMDL
