MODEL 1
REMARK minimizedAffinity 2.11823845
REMARK minimizedRMSD -1
REMARK  1 active torsions:
REMARK  status: ('A' for Active; 'I' for Inactive)
REMARK    1  A    between atoms: C1_2  and  C2_3 
ROOT
ATOM      1  C2  UNL d   1      -3.679  -3.480  -4.228  0.00  0.00    -0.073 A 
ATOM      2  C3  UNL d   1      -3.904  -4.028  -5.495  0.00  0.00    -0.002 A 
ATOM      3  C4  UNL d   1      -3.083  -5.049  -5.978  0.00  0.00     0.004 A 
ATOM      4  C5  UNL d   1      -2.035  -5.535  -5.197  0.00  0.00    -0.004 A 
ATOM      5  C6  UNL d   1      -1.801  -5.007  -3.923  0.00  0.00    -0.075 A 
ATOM      6  C7  UNL d   1      -0.676  -5.518  -3.071  0.00  0.00     0.076 C 
ATOM      7  C8  UNL d   1      -2.628  -3.981  -3.446  0.00  0.00     0.001 A 
ENDROOT
BRANCH   1   8
ATOM      8  C1  UNL d   1      -4.566  -2.382  -3.700  0.00  0.00     0.053 C 
ATOM      9  C   UNL d   1      -5.958  -2.431  -4.311  0.00  0.00     0.018 C 
ENDBRANCH   1   8
TORSDOF 1
ENDMDL
