MODEL 1
REMARK minimizedAffinity -3.356148
REMARK minimizedRMSD -1
REMARK  1 active torsions:
REMARK  status: ('A' for Active; 'I' for Inactive)
REMARK    1  A    between atoms: C1_2  and  C2_3 
ROOT
ATOM      1  C2  UNL d   1      -4.778  -3.695  -5.234  0.00  0.00    -0.073 A 
ATOM      2  C3  UNL d   1      -4.958  -4.037  -3.889  0.00  0.00    -0.002 A 
ATOM      3  C4  UNL d   1      -4.005  -4.808  -3.224  0.00  0.00     0.004 A 
ATOM      4  C5  UNL d   1      -2.860  -5.240  -3.893  0.00  0.00    -0.004 A 
ATOM      5  C6  UNL d   1      -2.656  -4.899  -5.234  0.00  0.00    -0.075 A 
ATOM      6  C7  UNL d   1      -1.430  -5.357  -5.968  0.00  0.00     0.076 C 
ATOM      7  C8  UNL d   1      -3.619  -4.126  -5.896  0.00  0.00     0.001 A 
ENDROOT
BRANCH   1   8
ATOM      8  C1  UNL d   1      -5.801  -2.857  -5.955  0.00  0.00     0.053 C 
ATOM      9  C   UNL d   1      -6.000  -1.504  -5.291  0.00  0.00     0.018 C 
ENDBRANCH   1   8
TORSDOF 1
ENDMDL
