MODEL 1
REMARK minimizedAffinity -4.0353179
REMARK minimizedRMSD -1
REMARK  1 active torsions:
REMARK  status: ('A' for Active; 'I' for Inactive)
REMARK    1  A    between atoms: C1_2  and  C2_3 
ROOT
ATOM      1  C2  UNL d   1      -2.930  -4.933  -4.875  0.00  0.00    -0.073 A 
ATOM      2  C3  UNL d   1      -3.474  -5.995  -5.608  0.00  0.00    -0.002 A 
ATOM      3  C4  UNL d   1      -4.826  -5.993  -5.953  0.00  0.00     0.004 A 
ATOM      4  C5  UNL d   1      -5.645  -4.929  -5.577  0.00  0.00    -0.004 A 
ATOM      5  C6  UNL d   1      -5.118  -3.854  -4.855  0.00  0.00    -0.075 A 
ATOM      6  C7  UNL d   1      -5.987  -2.702  -4.440  0.00  0.00     0.076 C 
ATOM      7  C8  UNL d   1      -3.760  -3.864  -4.509  0.00  0.00     0.001 A 
ENDROOT
BRANCH   1   8
ATOM      8  C1  UNL d   1      -1.470  -4.928  -4.504  0.00  0.00     0.053 C 
ATOM      9  C   UNL d   1      -1.138  -5.999  -3.477  0.00  0.00     0.018 C 
ENDBRANCH   1   8
TORSDOF 1
ENDMDL
