MODEL 1
REMARK minimizedAffinity -4.19186115
REMARK minimizedRMSD -1
REMARK  1 active torsions:
REMARK  status: ('A' for Active; 'I' for Inactive)
REMARK    1  A    between atoms: C1_2  and  C2_3 
ROOT
ATOM      1  C2  UNL d   1      -2.959  -4.769  -4.425  0.00  0.00    -0.073 A 
ATOM      2  C3  UNL d   1      -3.314  -5.885  -5.191  0.00  0.00    -0.002 A 
ATOM      3  C4  UNL d   1      -4.492  -5.880  -5.939  0.00  0.00     0.004 A 
ATOM      4  C5  UNL d   1      -5.322  -4.759  -5.935  0.00  0.00    -0.004 A 
ATOM      5  C6  UNL d   1      -4.978  -3.629  -5.185  0.00  0.00    -0.075 A 
ATOM      6  C7  UNL d   1      -5.861  -2.416  -5.168  0.00  0.00     0.076 C 
ATOM      7  C8  UNL d   1      -3.795  -3.643  -4.434  0.00  0.00     0.001 A 
ENDROOT
BRANCH   1   8
ATOM      8  C1  UNL d   1      -1.685  -4.767  -3.620  0.00  0.00     0.053 C 
ATOM      9  C   UNL d   1      -0.837  -5.999  -3.893  0.00  0.00     0.018 C 
ENDBRANCH   1   8
TORSDOF 1
ENDMDL
