MODEL 1
REMARK minimizedAffinity -3.33980489
REMARK minimizedRMSD -1
REMARK  1 active torsions:
REMARK  status: ('A' for Active; 'I' for Inactive)
REMARK    1  A    between atoms: C1_2  and  C2_3 
ROOT
ATOM      1  C2  UNL d   1      -0.128   0.739   0.181  0.00  0.00    -0.077 A 
ATOM      2  C3  UNL d   1       0.492  -0.068  -0.783  0.00  0.00     0.002 A 
ATOM      3  C4  UNL d   1       0.360  -1.457  -0.732  0.00  0.00     0.002 A 
ATOM      4  C5  UNL d   1      -0.396  -2.050   0.278  0.00  0.00    -0.004 A 
ATOM      5  C6  UNL d   1      -1.015  -1.256   1.242  0.00  0.00     0.002 A 
ATOM      6  C7  UNL d   1      -0.883   0.133   1.193  0.00  0.00     0.002 A 
ENDROOT
BRANCH   1   7
ATOM      7  C1  UNL d   1      -0.027   2.240   0.099  0.00  0.00     0.055 C 
ATOM      8  C   UNL d   1       1.354   2.725   0.515  0.00  0.00     0.019 C 
ENDBRANCH   1   7
TORSDOF 1
ENDMDL
