MODEL 1
REMARK minimizedAffinity -5.05144501
REMARK minimizedRMSD -1
REMARK  1 active torsions:
REMARK  status: ('A' for Active; 'I' for Inactive)
REMARK    1  A    between atoms: C1_2  and  C2_3 
ROOT
ATOM      1  C2  UNL d   1      -0.118   0.148  -0.400  0.00  0.00    -0.077 A 
ATOM      2  C3  UNL d   1       0.476  -0.902  -1.113  0.00  0.00     0.002 A 
ATOM      3  C4  UNL d   1       0.401  -2.212  -0.635  0.00  0.00     0.002 A 
ATOM      4  C5  UNL d   1      -0.269  -2.483   0.556  0.00  0.00    -0.004 A 
ATOM      5  C6  UNL d   1      -0.861  -1.445   1.274  0.00  0.00     0.002 A 
ATOM      6  C7  UNL d   1      -0.787  -0.135   0.798  0.00  0.00     0.002 A 
ENDROOT
BRANCH   1   7
ATOM      7  C1  UNL d   1      -0.081   1.554  -0.939  0.00  0.00     0.055 C 
ATOM      8  C   UNL d   1       0.607   2.502   0.032  0.00  0.00     0.019 C 
ENDBRANCH   1   7
TORSDOF 1
ENDMDL
