MODEL 1
REMARK minimizedAffinity -4.9795599
REMARK minimizedRMSD -1
REMARK  1 active torsions:
REMARK  status: ('A' for Active; 'I' for Inactive)
REMARK    1  A    between atoms: C1_2  and  C2_3 
ROOT
ATOM      1  C2  UNL d   1      -1.151  -0.716   0.998  0.00  0.00    -0.077 A 
ATOM      2  C3  UNL d   1      -1.005  -2.101   0.831  0.00  0.00     0.002 A 
ATOM      3  C4  UNL d   1      -0.366  -2.612  -0.300  0.00  0.00     0.002 A 
ATOM      4  C5  UNL d   1       0.136  -1.747  -1.270  0.00  0.00    -0.004 A 
ATOM      5  C6  UNL d   1      -0.005  -0.369  -1.114  0.00  0.00     0.002 A 
ATOM      6  C7  UNL d   1      -0.645   0.144   0.016  0.00  0.00     0.002 A 
ENDROOT
BRANCH   1   7
ATOM      7  C1  UNL d   1      -1.796  -0.161   2.241  0.00  0.00     0.055 C 
ATOM      8  C   UNL d   1      -3.044   0.643   1.905  0.00  0.00     0.019 C 
ENDBRANCH   1   7
TORSDOF 1
ENDMDL
