MODEL 1
REMARK minimizedAffinity -1.24157178
REMARK minimizedRMSD -1
REMARK  1 active torsions:
REMARK  status: ('A' for Active; 'I' for Inactive)
REMARK    1  A    between atoms: C1_2  and  C2_3 
ROOT
ATOM      1  C2  UNL d   1      -0.945  -1.048   0.418  0.00  0.00    -0.077 A 
ATOM      2  C3  UNL d   1      -1.783  -2.162   0.565  0.00  0.00     0.002 A 
ATOM      3  C4  UNL d   1      -1.269  -3.454   0.441  0.00  0.00     0.002 A 
ATOM      4  C5  UNL d   1       0.086  -3.644   0.175  0.00  0.00    -0.004 A 
ATOM      5  C6  UNL d   1       0.927  -2.542   0.025  0.00  0.00     0.002 A 
ATOM      6  C7  UNL d   1       0.414  -1.250   0.147  0.00  0.00     0.002 A 
ENDROOT
BRANCH   1   7
ATOM      7  C1  UNL d   1      -1.488   0.345   0.600  0.00  0.00     0.055 C 
ATOM      8  C   UNL d   1      -2.543   0.390   1.695  0.00  0.00     0.019 C 
ENDBRANCH   1   7
TORSDOF 1
ENDMDL
