MODEL 1
REMARK minimizedAffinity -4.05406094
REMARK minimizedRMSD -1
REMARK  1 active torsions:
REMARK  status: ('A' for Active; 'I' for Inactive)
REMARK    1  A    between atoms: C1_2  and  C2_3 
ROOT
ATOM      1  C2  UNL d   1      -0.056  -0.424  -0.196  0.00  0.00    -0.077 A 
ATOM      2  C3  UNL d   1      -0.934  -0.941   0.767  0.00  0.00     0.002 A 
ATOM      3  C4  UNL d   1      -0.830  -2.272   1.176  0.00  0.00     0.002 A 
ATOM      4  C5  UNL d   1       0.153  -3.095   0.631  0.00  0.00    -0.004 A 
ATOM      5  C6  UNL d   1       1.029  -2.592  -0.329  0.00  0.00     0.002 A 
ATOM      6  C7  UNL d   1       0.926  -1.262  -0.741  0.00  0.00     0.002 A 
ENDROOT
BRANCH   1   7
ATOM      7  C1  UNL d   1      -0.135   1.024  -0.603  0.00  0.00     0.055 C 
ATOM      8  C   UNL d   1       0.726   1.899   0.297  0.00  0.00     0.019 C 
ENDBRANCH   1   7
TORSDOF 1
ENDMDL
