MODEL 1
REMARK minimizedAffinity -5.67776346
REMARK minimizedRMSD -1
REMARK  1 active torsions:
REMARK  status: ('A' for Active; 'I' for Inactive)
REMARK    1  A    between atoms: C1_2  and  C2_3 
ROOT
ATOM      1  C2  UNL d   1      -0.251  -1.051   0.102  0.00  0.00    -0.077 A 
ATOM      2  C3  UNL d   1      -0.012  -1.505  -1.202  0.00  0.00     0.002 A 
ATOM      3  C4  UNL d   1       0.332  -2.838  -1.435  0.00  0.00     0.002 A 
ATOM      4  C5  UNL d   1       0.436  -3.728  -0.368  0.00  0.00    -0.004 A 
ATOM      5  C6  UNL d   1       0.202  -3.286   0.933  0.00  0.00     0.002 A 
ATOM      6  C7  UNL d   1      -0.141  -1.954   1.168  0.00  0.00     0.002 A 
ENDROOT
BRANCH   1   7
ATOM      7  C1  UNL d   1      -0.670   0.375   0.350  0.00  0.00     0.055 C 
ATOM      8  C   UNL d   1      -1.602   0.477   1.549  0.00  0.00     0.019 C 
ENDBRANCH   1   7
TORSDOF 1
ENDMDL
