MODEL 1
REMARK minimizedAffinity -5.64808798
REMARK minimizedRMSD -1
REMARK  1 active torsions:
REMARK  status: ('A' for Active; 'I' for Inactive)
REMARK    1  A    between atoms: C1_2  and  C2_3 
ROOT
ATOM      1  C2  UNL d   1       0.010   0.122   0.018  0.00  0.00    -0.077 A 
ATOM      2  C3  UNL d   1      -1.095  -0.282   0.782  0.00  0.00     0.002 A 
ATOM      3  C4  UNL d   1      -1.210  -1.605   1.213  0.00  0.00     0.002 A 
ATOM      4  C5  UNL d   1      -0.224  -2.534   0.888  0.00  0.00    -0.004 A 
ATOM      5  C6  UNL d   1       0.877  -2.143   0.127  0.00  0.00     0.002 A 
ATOM      6  C7  UNL d   1       0.994  -0.821  -0.306  0.00  0.00     0.002 A 
ENDROOT
BRANCH   1   7
ATOM      7  C1  UNL d   1       0.161   1.559  -0.405  0.00  0.00     0.055 C 
ATOM      8  C   UNL d   1       1.423   2.178   0.177  0.00  0.00     0.019 C 
ENDBRANCH   1   7
TORSDOF 1
ENDMDL
