MODEL 1
REMARK minimizedAffinity -4.43755531
REMARK minimizedRMSD -1
REMARK  1 active torsions:
REMARK  status: ('A' for Active; 'I' for Inactive)
REMARK    1  A    between atoms: C1_2  and  C2_3 
ROOT
ATOM      1  C2  UNL d   1      -0.257  -0.830  -1.128  0.00  0.00    -0.077 A 
ATOM      2  C3  UNL d   1      -0.860  -1.694  -0.203  0.00  0.00     0.002 A 
ATOM      3  C4  UNL d   1      -1.282  -1.215   1.039  0.00  0.00     0.002 A 
ATOM      4  C5  UNL d   1      -1.110   0.128   1.365  0.00  0.00    -0.004 A 
ATOM      5  C6  UNL d   1      -0.509   0.995   0.452  0.00  0.00     0.002 A 
ATOM      6  C7  UNL d   1      -0.086   0.518  -0.789  0.00  0.00     0.002 A 
ENDROOT
BRANCH   1   7
ATOM      7  C1  UNL d   1       0.154  -1.334  -2.487  0.00  0.00     0.055 C 
ATOM      8  C   UNL d   1      -0.318  -2.763  -2.713  0.00  0.00     0.019 C 
ENDBRANCH   1   7
TORSDOF 1
ENDMDL
