MODEL 1
REMARK minimizedAffinity 8.67306232
REMARK minimizedRMSD -1
REMARK  0 active torsions:
REMARK  status: ('A' for Active; 'I' for Inactive)
ROOT
ATOM      1  C4' PXY d   1      -2.033   1.888   1.223  0.00  0.00     0.077 C 
ATOM      2  C1' PXY d   1       2.161   1.103   5.123  0.00  0.00     0.077 C 
ATOM      3  C1  PXY d   1       1.057   1.319   4.107  0.00  0.00    -0.082 A 
ATOM      4  C2  PXY d   1       0.623   0.299   3.385  0.00  0.00     0.003 A 
ATOM      5  C3  PXY d   1      -0.352   0.483   2.439  0.00  0.00     0.003 A 
ATOM      6  C4  PXY d   1      -0.927   1.714   2.267  0.00  0.00    -0.082 A 
ATOM      7  C5  PXY d   1      -0.497   2.758   3.007  0.00  0.00     0.003 A 
ATOM      8  C6  PXY d   1       0.523   2.559   3.933  0.00  0.00     0.003 A 
ENDROOT
TORSDOF 0
ENDMDL
