MODEL 1
REMARK minimizedAffinity 7.85073805
REMARK minimizedRMSD -1
REMARK  0 active torsions:
REMARK  status: ('A' for Active; 'I' for Inactive)
ROOT
ATOM      1  C4' PXY d   1       6.000   4.118  -0.358  0.00  0.00     0.077 C 
ATOM      2  C1' PXY d   1       3.217  -0.947  -0.479  0.00  0.00     0.077 C 
ATOM      3  C1  PXY d   1       3.957   0.376  -0.442  0.00  0.00    -0.082 A 
ATOM      4  C2  PXY d   1       3.273   1.507  -0.407  0.00  0.00     0.003 A 
ATOM      5  C3  PXY d   1       3.926   2.713  -0.405  0.00  0.00     0.003 A 
ATOM      6  C4  PXY d   1       5.294   2.760  -0.386  0.00  0.00    -0.082 A 
ATOM      7  C5  PXY d   1       6.000   1.609  -0.411  0.00  0.00     0.003 A 
ATOM      8  C6  PXY d   1       5.318   0.396  -0.454  0.00  0.00     0.003 A 
ENDROOT
TORSDOF 0
ENDMDL
