MODEL 1
REMARK minimizedAffinity 5.02357626
REMARK minimizedRMSD -1
REMARK  0 active torsions:
REMARK  status: ('A' for Active; 'I' for Inactive)
ROOT
ATOM      1  C4' PXY d   1       3.297  -0.064  -0.435  0.00  0.00     0.077 C 
ATOM      2  C1' PXY d   1      -0.726  -4.112  -1.357  0.00  0.00     0.077 C 
ATOM      3  C1  PXY d   1       0.330  -3.054  -1.102  0.00  0.00    -0.082 A 
ATOM      4  C2  PXY d   1       0.398  -1.995  -1.892  0.00  0.00     0.003 A 
ATOM      5  C3  PXY d   1       1.367  -1.044  -1.696  0.00  0.00     0.003 A 
ATOM      6  C4  PXY d   1       2.241  -1.153  -0.648  0.00  0.00    -0.082 A 
ATOM      7  C5  PXY d   1       2.172  -2.225   0.168  0.00  0.00     0.003 A 
ATOM      8  C6  PXY d   1       1.207  -3.200  -0.073  0.00  0.00     0.003 A 
ENDROOT
TORSDOF 0
ENDMDL
