MODEL 1
REMARK minimizedAffinity 5.20230865
REMARK minimizedRMSD -1
REMARK  0 active torsions:
REMARK  status: ('A' for Active; 'I' for Inactive)
ROOT
ATOM      1  C4' PXY d   1       2.833  -0.194  -0.507  0.00  0.00     0.077 C 
ATOM      2  C1' PXY d   1      -1.539   2.326   2.313  0.00  0.00     0.077 C 
ATOM      3  C1  PXY d   1      -0.400   1.664   1.563  0.00  0.00    -0.082 A 
ATOM      4  C2  PXY d   1       0.560   1.053   2.238  0.00  0.00     0.003 A 
ATOM      5  C3  PXY d   1       1.614   0.477   1.577  0.00  0.00     0.003 A 
ATOM      6  C4  PXY d   1       1.659   0.480   0.208  0.00  0.00    -0.082 A 
ATOM      7  C5  PXY d   1       0.678   1.092  -0.488  0.00  0.00     0.003 A 
ATOM      8  C6  PXY d   1      -0.362   1.707   0.203  0.00  0.00     0.003 A 
ENDROOT
TORSDOF 0
ENDMDL
