MODEL 1
REMARK minimizedAffinity 4.12619734
REMARK minimizedRMSD -1
REMARK  0 active torsions:
REMARK  status: ('A' for Active; 'I' for Inactive)
ROOT
ATOM      1  C4' PXY d   1       1.877  -2.543  -0.375  0.00  0.00     0.077 C 
ATOM      2  C1' PXY d   1       5.983   1.525  -0.264  0.00  0.00     0.077 C 
ATOM      3  C1  PXY d   1       4.914   0.450  -0.287  0.00  0.00    -0.082 A 
ATOM      4  C2  PXY d   1       3.959   0.497  -1.201  0.00  0.00     0.003 A 
ATOM      5  C3  PXY d   1       2.966  -0.449  -1.216  0.00  0.00     0.003 A 
ATOM      6  C4  PXY d   1       2.981  -1.484  -0.320  0.00  0.00    -0.082 A 
ATOM      7  C5  PXY d   1       3.959  -1.545   0.609  0.00  0.00     0.003 A 
ATOM      8  C6  PXY d   1       4.934  -0.552   0.634  0.00  0.00     0.003 A 
ENDROOT
TORSDOF 0
ENDMDL
