MODEL 1
REMARK minimizedAffinity 5.33334637
REMARK minimizedRMSD -1
REMARK  0 active torsions:
REMARK  status: ('A' for Active; 'I' for Inactive)
ROOT
ATOM      1  C4' PXY d   1       6.000   2.296  -0.753  0.00  0.00     0.077 C 
ATOM      2  C1' PXY d   1       2.764  -2.441  -0.046  0.00  0.00     0.077 C 
ATOM      3  C1  PXY d   1       3.619  -1.202  -0.221  0.00  0.00    -0.082 A 
ATOM      4  C2  PXY d   1       3.164  -0.189  -0.940  0.00  0.00     0.003 A 
ATOM      5  C3  PXY d   1       3.937   0.927  -1.134  0.00  0.00     0.003 A 
ATOM      6  C4  PXY d   1       5.167   1.029  -0.542  0.00  0.00    -0.082 A 
ATOM      7  C5  PXY d   1       5.635   0.004   0.202  0.00  0.00     0.003 A 
ATOM      8  C6  PXY d   1       4.851  -1.137   0.353  0.00  0.00     0.003 A 
ENDROOT
TORSDOF 0
ENDMDL
