MODEL 1
REMARK minimizedAffinity 2.92410469
REMARK minimizedRMSD -1
REMARK  0 active torsions:
REMARK  status: ('A' for Active; 'I' for Inactive)
ROOT
ATOM      1  C4' PXY d   1      -0.112  -3.459  -1.102  0.00  0.00     0.077 C 
ATOM      2  C1' PXY d   1       3.955   0.598  -0.452  0.00  0.00     0.077 C 
ATOM      3  C1  PXY d   1       2.898  -0.475  -0.620  0.00  0.00    -0.082 A 
ATOM      4  C2  PXY d   1       1.841  -0.239  -1.381  0.00  0.00     0.003 A 
ATOM      5  C3  PXY d   1       0.859  -1.187  -1.517  0.00  0.00     0.003 A 
ATOM      6  C4  PXY d   1       0.986  -2.408  -0.912  0.00  0.00    -0.082 A 
ATOM      7  C5  PXY d   1       2.066  -2.660  -0.142  0.00  0.00     0.003 A 
ATOM      8  C6  PXY d   1       3.031  -1.670   0.017  0.00  0.00     0.003 A 
ENDROOT
TORSDOF 0
ENDMDL
