MODEL 1
REMARK minimizedAffinity 6.66921854
REMARK minimizedRMSD -1
REMARK  0 active torsions:
REMARK  status: ('A' for Active; 'I' for Inactive)
ROOT
ATOM      1  C4' PXY d   1      -5.595   4.940  -4.299  0.00  0.00     0.077 C 
ATOM      2  C1' PXY d   1      -5.999   0.267  -0.919  0.00  0.00     0.077 C 
ATOM      3  C1  PXY d   1      -5.897   1.500  -1.796  0.00  0.00    -0.082 A 
ATOM      4  C2  PXY d   1      -5.959   1.374  -3.111  0.00  0.00     0.003 A 
ATOM      5  C3  PXY d   1      -5.836   2.475  -3.920  0.00  0.00     0.003 A 
ATOM      6  C4  PXY d   1      -5.703   3.724  -3.375  0.00  0.00    -0.082 A 
ATOM      7  C5  PXY d   1      -5.650   3.862  -2.033  0.00  0.00     0.003 A 
ATOM      8  C6  PXY d   1      -5.735   2.727  -1.231  0.00  0.00     0.003 A 
ENDROOT
TORSDOF 0
ENDMDL
