MODEL 1
REMARK minimizedAffinity 5.29801559
REMARK minimizedRMSD -1
REMARK  0 active torsions:
REMARK  status: ('A' for Active; 'I' for Inactive)
ROOT
ATOM      1  C4' PXY d   1      -4.496   4.982  -4.147  0.00  0.00     0.077 C 
ATOM      2  C1' PXY d   1      -5.116  -0.005  -1.292  0.00  0.00     0.077 C 
ATOM      3  C1  PXY d   1      -4.941   1.303  -2.037  0.00  0.00    -0.082 A 
ATOM      4  C2  PXY d   1      -5.992   2.076  -2.258  0.00  0.00     0.003 A 
ATOM      5  C3  PXY d   1      -5.857   3.247  -2.958  0.00  0.00     0.003 A 
ATOM      6  C4  PXY d   1      -4.624   3.657  -3.391  0.00  0.00    -0.082 A 
ATOM      7  C5  PXY d   1      -3.545   2.880  -3.160  0.00  0.00     0.003 A 
ATOM      8  C6  PXY d   1      -3.710   1.675  -2.483  0.00  0.00     0.003 A 
ENDROOT
TORSDOF 0
ENDMDL
