MODEL 1
REMARK minimizedAffinity 5.3108964
REMARK minimizedRMSD -1
REMARK  0 active torsions:
REMARK  status: ('A' for Active; 'I' for Inactive)
ROOT
ATOM      1  C4' PXY d   1       0.965  -3.058  -0.533  0.00  0.00     0.077 C 
ATOM      2  C1' PXY d   1       4.655   1.304  -1.412  0.00  0.00     0.077 C 
ATOM      3  C1  PXY d   1       3.689   0.157  -1.194  0.00  0.00    -0.082 A 
ATOM      4  C2  PXY d   1       2.805   0.223  -0.211  0.00  0.00     0.003 A 
ATOM      5  C3  PXY d   1       1.945  -0.819   0.020  0.00  0.00     0.003 A 
ATOM      6  C4  PXY d   1       1.954  -1.919  -0.796  0.00  0.00    -0.082 A 
ATOM      7  C5  PXY d   1       2.845  -1.990  -1.807  0.00  0.00     0.003 A 
ATOM      8  C6  PXY d   1       3.737  -0.939  -1.999  0.00  0.00     0.003 A 
ENDROOT
TORSDOF 0
ENDMDL
