MODEL 1
REMARK minimizedAffinity 14.5734148
REMARK minimizedRMSD -1
REMARK  0 active torsions:
REMARK  status: ('A' for Active; 'I' for Inactive)
ROOT
ATOM      1  C   UNL d   1       4.161   3.139  -0.065  0.00  0.00    -0.002 A 
ATOM      2  C1  UNL d   1       4.576   2.941  -1.374  0.00  0.00     0.010 A 
ATOM      3  C2  UNL d   1       4.245   1.768  -2.055  0.00  0.00     0.041 A 
ATOM      4  C3  UNL d   1       3.481   0.788  -1.391  0.00  0.00    -0.075 A 
ATOM      5  S   UNL d   1       2.957  -0.727  -2.026  0.00  0.00     0.015 SA
ATOM      6  C4  UNL d   1       2.169  -1.147  -0.574  0.00  0.00     0.022 A 
ATOM      7  C5  UNL d   1       2.293  -0.167   0.382  0.00  0.00     0.026 A 
ATOM      8  C6  UNL d   1       3.051   0.964  -0.073  0.00  0.00    -0.082 A 
ATOM      9  C7  UNL d   1       3.403   2.165   0.590  0.00  0.00     0.045 A 
ENDROOT
TORSDOF 0
ENDMDL
