MODEL 1
REMARK minimizedAffinity 7.69867134
REMARK minimizedRMSD -1
REMARK  0 active torsions:
REMARK  status: ('A' for Active; 'I' for Inactive)
ROOT
ATOM      1  C   UNL d   1      -2.509   0.332  -1.119  0.00  0.00    -0.002 A 
ATOM      2  C1  UNL d   1      -3.728   0.676  -0.553  0.00  0.00     0.010 A 
ATOM      3  C2  UNL d   1      -4.860   0.843  -1.353  0.00  0.00     0.041 A 
ATOM      4  C3  UNL d   1      -4.745   0.655  -2.745  0.00  0.00    -0.075 A 
ATOM      5  S   UNL d   1      -5.997   0.805  -3.921  0.00  0.00     0.015 SA
ATOM      6  C4  UNL d   1      -4.943   0.415  -5.202  0.00  0.00     0.022 A 
ATOM      7  C5  UNL d   1      -3.663   0.174  -4.761  0.00  0.00     0.026 A 
ATOM      8  C6  UNL d   1      -3.528   0.308  -3.338  0.00  0.00    -0.082 A 
ATOM      9  C7  UNL d   1      -2.399   0.146  -2.500  0.00  0.00     0.045 A 
ENDROOT
TORSDOF 0
ENDMDL
