MODEL 1
REMARK minimizedAffinity 15.5912437
REMARK minimizedRMSD -1
REMARK  0 active torsions:
REMARK  status: ('A' for Active; 'I' for Inactive)
ROOT
ATOM      1  C   UNL d   1       1.487  -2.339  -1.110  0.00  0.00    -0.002 A 
ATOM      2  C1  UNL d   1       2.177  -2.636   0.057  0.00  0.00     0.010 A 
ATOM      3  C2  UNL d   1       2.993  -1.679   0.663  0.00  0.00     0.041 A 
ATOM      4  C3  UNL d   1       3.104  -0.405   0.072  0.00  0.00    -0.075 A 
ATOM      5  S   UNL d   1       4.044   0.924   0.638  0.00  0.00     0.015 SA
ATOM      6  C4  UNL d   1       3.551   1.919  -0.655  0.00  0.00     0.022 A 
ATOM      7  C5  UNL d   1       2.691   1.269  -1.508  0.00  0.00     0.026 A 
ATOM      8  C6  UNL d   1       2.419  -0.082  -1.102  0.00  0.00    -0.082 A 
ATOM      9  C7  UNL d   1       1.600  -1.074  -1.693  0.00  0.00     0.045 A 
ENDROOT
TORSDOF 0
ENDMDL
