MODEL 1
REMARK minimizedAffinity 22.9598331
REMARK minimizedRMSD -1
REMARK  0 active torsions:
REMARK  status: ('A' for Active; 'I' for Inactive)
ROOT
ATOM      1  C   UNL d   1       5.997   0.972   1.339  0.00  0.00    -0.002 A 
ATOM      2  C1  UNL d   1       5.906  -0.328   1.815  0.00  0.00     0.010 A 
ATOM      3  C2  UNL d   1       4.770  -1.100   1.559  0.00  0.00     0.041 A 
ATOM      4  C3  UNL d   1       3.720  -0.538   0.808  0.00  0.00    -0.075 A 
ATOM      5  S   UNL d   1       2.234  -1.295   0.370  0.00  0.00     0.015 SA
ATOM      6  C4  UNL d   1       1.686   0.089  -0.460  0.00  0.00     0.022 A 
ATOM      7  C5  UNL d   1       2.602   1.114  -0.414  0.00  0.00     0.026 A 
ATOM      8  C6  UNL d   1       3.789   0.769   0.317  0.00  0.00    -0.082 A 
ATOM      9  C7  UNL d   1       4.953   1.526   0.594  0.00  0.00     0.045 A 
ENDROOT
TORSDOF 0
ENDMDL
