MODEL 1
REMARK minimizedAffinity 13.0198441
REMARK minimizedRMSD -1
REMARK  0 active torsions:
REMARK  status: ('A' for Active; 'I' for Inactive)
ROOT
ATOM      1  C   UNL d   1      -5.289   3.077   2.086  0.00  0.00    -0.002 A 
ATOM      2  C1  UNL d   1      -4.032   3.612   1.838  0.00  0.00     0.010 A 
ATOM      3  C2  UNL d   1      -3.462   4.527   2.726  0.00  0.00     0.041 A 
ATOM      4  C3  UNL d   1      -4.182   4.897   3.879  0.00  0.00    -0.075 A 
ATOM      5  S   UNL d   1      -3.683   6.000   5.106  0.00  0.00     0.015 SA
ATOM      6  C4  UNL d   1      -5.125   5.786   5.989  0.00  0.00     0.022 A 
ATOM      7  C5  UNL d   1      -5.978   4.899   5.377  0.00  0.00     0.026 A 
ATOM      8  C6  UNL d   1      -5.448   4.372   4.150  0.00  0.00    -0.082 A 
ATOM      9  C7  UNL d   1      -6.000   3.447   3.231  0.00  0.00     0.045 A 
ENDROOT
TORSDOF 0
ENDMDL
