MODEL 1
REMARK minimizedAffinity 9.74969292
REMARK minimizedRMSD -1
REMARK  0 active torsions:
REMARK  status: ('A' for Active; 'I' for Inactive)
ROOT
ATOM      1  C   UNL d   1       2.639   0.187   1.408  0.00  0.00     0.078 C 
ATOM      2  C1  UNL d   1       1.786  -0.947   1.894  0.00  0.00    -0.077 A 
ATOM      3  C2  UNL d   1       1.314  -1.925   1.010  0.00  0.00    -0.001 A 
ATOM      4  C3  UNL d   1       0.513  -2.969   1.474  0.00  0.00     0.003 A 
ATOM      5  C4  UNL d   1       0.175  -3.045   2.824  0.00  0.00    -0.005 A 
ATOM      6  C5  UNL d   1       0.638  -2.075   3.711  0.00  0.00     0.003 A 
ATOM      7  C6  UNL d   1       1.440  -1.030   3.248  0.00  0.00    -0.001 A 
ENDROOT
TORSDOF 0
ENDMDL
