MODEL 1
REMARK minimizedAffinity -3.37830043
REMARK minimizedRMSD -1
REMARK  0 active torsions:
REMARK  status: ('A' for Active; 'I' for Inactive)
ROOT
ATOM      1  C   UNL d   1       1.297  -5.814   2.312  0.00  0.00     0.078 C 
ATOM      2  C1  UNL d   1       1.151  -4.322   2.293  0.00  0.00    -0.077 A 
ATOM      3  C2  UNL d   1       0.187  -3.682   3.082  0.00  0.00    -0.001 A 
ATOM      4  C3  UNL d   1       0.056  -2.293   3.047  0.00  0.00     0.003 A 
ATOM      5  C4  UNL d   1       0.883  -1.532   2.223  0.00  0.00    -0.005 A 
ATOM      6  C5  UNL d   1       1.843  -2.161   1.432  0.00  0.00     0.003 A 
ATOM      7  C6  UNL d   1       1.976  -3.550   1.466  0.00  0.00    -0.001 A 
ENDROOT
TORSDOF 0
ENDMDL
