MODEL 1
REMARK minimizedAffinity -3.44102931
REMARK minimizedRMSD -1
REMARK  0 active torsions:
REMARK  status: ('A' for Active; 'I' for Inactive)
ROOT
ATOM      1  C   UNL d   1      -4.176   1.493  -2.996  0.00  0.00     0.078 C 
ATOM      2  C1  UNL d   1      -4.372   1.484  -1.509  0.00  0.00    -0.077 A 
ATOM      3  C2  UNL d   1      -3.343   1.877  -0.645  0.00  0.00    -0.001 A 
ATOM      4  C3  UNL d   1      -3.535   1.854   0.738  0.00  0.00     0.003 A 
ATOM      5  C4  UNL d   1      -4.755   1.438   1.267  0.00  0.00    -0.005 A 
ATOM      6  C5  UNL d   1      -5.784   1.043   0.415  0.00  0.00     0.003 A 
ATOM      7  C6  UNL d   1      -5.593   1.065  -0.968  0.00  0.00    -0.001 A 
ENDROOT
TORSDOF 0
ENDMDL
