MODEL 1
REMARK minimizedAffinity 4.89261532
REMARK minimizedRMSD -1
REMARK  0 active torsions:
REMARK  status: ('A' for Active; 'I' for Inactive)
ROOT
ATOM      1  C   UNL d   1      -2.224   2.217   0.693  0.00  0.00     0.078 C 
ATOM      2  C1  UNL d   1      -3.492   2.975   0.947  0.00  0.00    -0.077 A 
ATOM      3  C2  UNL d   1      -4.152   3.646  -0.090  0.00  0.00    -0.001 A 
ATOM      4  C3  UNL d   1      -5.327   4.356   0.164  0.00  0.00     0.003 A 
ATOM      5  C4  UNL d   1      -5.851   4.404   1.454  0.00  0.00    -0.005 A 
ATOM      6  C5  UNL d   1      -5.200   3.741   2.493  0.00  0.00     0.003 A 
ATOM      7  C6  UNL d   1      -4.026   3.031   2.241  0.00  0.00    -0.001 A 
ENDROOT
TORSDOF 0
ENDMDL
