MODEL 1
REMARK minimizedAffinity 9.47289085
REMARK minimizedRMSD -1
REMARK  0 active torsions:
REMARK  status: ('A' for Active; 'I' for Inactive)
ROOT
ATOM      1  C   UNL d   1       2.084   0.508   1.566  0.00  0.00     0.078 C 
ATOM      2  C1  UNL d   1       1.866  -0.767   2.325  0.00  0.00    -0.077 A 
ATOM      3  C2  UNL d   1       0.909  -0.845   3.345  0.00  0.00    -0.001 A 
ATOM      4  C3  UNL d   1       0.723  -2.035   4.050  0.00  0.00     0.003 A 
ATOM      5  C4  UNL d   1       1.492  -3.156   3.744  0.00  0.00    -0.005 A 
ATOM      6  C5  UNL d   1       2.448  -3.088   2.732  0.00  0.00     0.003 A 
ATOM      7  C6  UNL d   1       2.635  -1.899   2.026  0.00  0.00    -0.001 A 
ENDROOT
TORSDOF 0
ENDMDL
