MODEL 1
REMARK minimizedAffinity 4.92105675
REMARK minimizedRMSD -1
REMARK  0 active torsions:
REMARK  status: ('A' for Active; 'I' for Inactive)
ROOT
ATOM      1  C   UNL d   1       5.630   5.395  -5.997  0.00  0.00     0.078 C 
ATOM      2  C1  UNL d   1       5.241   4.005  -5.592  0.00  0.00    -0.077 A 
ATOM      3  C2  UNL d   1       5.999   2.898  -5.993  0.00  0.00    -0.001 A 
ATOM      4  C3  UNL d   1       5.620   1.608  -5.616  0.00  0.00     0.003 A 
ATOM      5  C4  UNL d   1       4.482   1.413  -4.837  0.00  0.00    -0.005 A 
ATOM      6  C5  UNL d   1       3.720   2.508  -4.435  0.00  0.00     0.003 A 
ATOM      7  C6  UNL d   1       4.097   3.799  -4.811  0.00  0.00    -0.001 A 
ENDROOT
TORSDOF 0
ENDMDL
