MODEL 1
REMARK minimizedAffinity -2.27536798
REMARK minimizedRMSD -1
REMARK  0 active torsions:
REMARK  status: ('A' for Active; 'I' for Inactive)
ROOT
ATOM      1  C2' OXE d   1      -0.489   1.208   2.993  0.00  0.00     0.078 C 
ATOM      2  C1' OXE d   1       2.055   0.323   2.200  0.00  0.00     0.078 C 
ATOM      3  C1  OXE d   1       0.890   0.021   1.291  0.00  0.00    -0.078 A 
ATOM      4  C2  OXE d   1      -0.358   0.417   1.709  0.00  0.00    -0.078 A 
ATOM      5  C3  OXE d   1      -1.459   0.211   0.883  0.00  0.00     0.003 A 
ATOM      6  C4  OXE d   1      -1.331  -0.530  -0.297  0.00  0.00    -0.002 A 
ATOM      7  C5  OXE d   1      -0.075  -0.977  -0.722  0.00  0.00    -0.002 A 
ATOM      8  C6  OXE d   1       1.049  -0.674   0.038  0.00  0.00     0.003 A 
ENDROOT
TORSDOF 0
ENDMDL
