MODEL 1
REMARK minimizedAffinity -4.2813077
REMARK minimizedRMSD -1
REMARK  0 active torsions:
REMARK  status: ('A' for Active; 'I' for Inactive)
ROOT
ATOM      1  C2' OXE d   1      -0.341   1.609   2.671  0.00  0.00     0.078 C 
ATOM      2  C1' OXE d   1       2.096   0.236   2.443  0.00  0.00     0.078 C 
ATOM      3  C1  OXE d   1       1.067   0.026   1.361  0.00  0.00    -0.078 A 
ATOM      4  C2  OXE d   1      -0.141   0.666   1.504  0.00  0.00    -0.078 A 
ATOM      5  C3  OXE d   1      -1.105   0.550   0.507  0.00  0.00     0.003 A 
ATOM      6  C4  OXE d   1      -0.915  -0.332  -0.563  0.00  0.00    -0.002 A 
ATOM      7  C5  OXE d   1       0.292  -1.024  -0.708  0.00  0.00    -0.002 A 
ATOM      8  C6  OXE d   1       1.308  -0.824   0.221  0.00  0.00     0.003 A 
ENDROOT
TORSDOF 0
ENDMDL
