MODEL 1
REMARK minimizedAffinity -2.67777824
REMARK minimizedRMSD -1
REMARK  0 active torsions:
REMARK  status: ('A' for Active; 'I' for Inactive)
ROOT
ATOM      1  C2' OXE d   1      -2.579   0.043  -0.417  0.00  0.00     0.078 C 
ATOM      2  C1' OXE d   1      -1.334   1.049   1.890  0.00  0.00     0.078 C 
ATOM      3  C1  OXE d   1      -0.458   0.424   0.833  0.00  0.00    -0.078 A 
ATOM      4  C2  OXE d   1      -1.080  -0.107  -0.271  0.00  0.00    -0.078 A 
ATOM      5  C3  OXE d   1      -0.314  -0.646  -1.301  0.00  0.00     0.003 A 
ATOM      6  C4  OXE d   1       1.071  -0.791  -1.154  0.00  0.00    -0.002 A 
ATOM      7  C5  OXE d   1       1.720  -0.292  -0.020  0.00  0.00    -0.002 A 
ATOM      8  C6  OXE d   1       0.977   0.355   0.962  0.00  0.00     0.003 A 
ENDROOT
TORSDOF 0
ENDMDL
