MODEL 1
REMARK minimizedAffinity -4.53494787
REMARK minimizedRMSD -1
REMARK  0 active torsions:
REMARK  status: ('A' for Active; 'I' for Inactive)
ROOT
ATOM      1  C2' OXE d   1       1.863  -0.283   2.535  0.00  0.00     0.078 C 
ATOM      2  C1' OXE d   1      -0.675   0.665   3.269  0.00  0.00     0.078 C 
ATOM      3  C1  OXE d   1      -0.484   0.194   1.849  0.00  0.00    -0.078 A 
ATOM      4  C2  OXE d   1       0.774  -0.225   1.486  0.00  0.00    -0.078 A 
ATOM      5  C3  OXE d   1       0.992  -0.721   0.204  0.00  0.00     0.003 A 
ATOM      6  C4  OXE d   1      -0.018  -0.655  -0.763  0.00  0.00    -0.002 A 
ATOM      7  C5  OXE d   1      -1.295  -0.195  -0.425  0.00  0.00    -0.002 A 
ATOM      8  C6  OXE d   1      -1.556   0.193   0.885  0.00  0.00     0.003 A 
ENDROOT
TORSDOF 0
ENDMDL
