MODEL 1
REMARK minimizedAffinity -3.004848
REMARK minimizedRMSD -1
REMARK  0 active torsions:
REMARK  status: ('A' for Active; 'I' for Inactive)
ROOT
ATOM      1  C2' OXE d   1       2.069  -0.169   2.264  0.00  0.00     0.078 C 
ATOM      2  C1' OXE d   1      -0.476   0.716   3.051  0.00  0.00     0.078 C 
ATOM      3  C1  OXE d   1      -0.268   0.376   1.596  0.00  0.00    -0.078 A 
ATOM      4  C2  OXE d   1       0.993  -0.012   1.211  0.00  0.00    -0.078 A 
ATOM      5  C3  OXE d   1       1.227  -0.389  -0.108  0.00  0.00     0.003 A 
ATOM      6  C4  OXE d   1       0.229  -0.230  -1.077  0.00  0.00    -0.002 A 
ATOM      7  C5  OXE d   1      -1.052   0.201  -0.714  0.00  0.00    -0.002 A 
ATOM      8  C6  OXE d   1      -1.328   0.467   0.622  0.00  0.00     0.003 A 
ENDROOT
TORSDOF 0
ENDMDL
