MODEL 1
REMARK minimizedAffinity -4.85173321
REMARK minimizedRMSD -1
REMARK  0 active torsions:
REMARK  status: ('A' for Active; 'I' for Inactive)
ROOT
ATOM      1  C2' OXE d   1       0.197  -0.542  -1.002  0.00  0.00     0.078 C 
ATOM      2  C1' OXE d   1      -2.292   0.660  -0.510  0.00  0.00     0.078 C 
ATOM      3  C1  OXE d   1      -1.227   0.788   0.551  0.00  0.00    -0.078 A 
ATOM      4  C2  OXE d   1      -0.028   0.157   0.322  0.00  0.00    -0.078 A 
ATOM      5  C3  OXE d   1       1.007   0.289   1.243  0.00  0.00     0.003 A 
ATOM      6  C4  OXE d   1       0.787   0.928   2.469  0.00  0.00    -0.002 A 
ATOM      7  C5  OXE d   1      -0.440   1.544   2.739  0.00  0.00    -0.002 A 
ATOM      8  C6  OXE d   1      -1.441   1.519   1.775  0.00  0.00     0.003 A 
ENDROOT
TORSDOF 0
ENDMDL
