MODEL 1
REMARK minimizedAffinity -4.05181646
REMARK minimizedRMSD -1
REMARK  0 active torsions:
REMARK  status: ('A' for Active; 'I' for Inactive)
ROOT
ATOM      1  C2' OXE d   1      -0.822   1.529   2.590  0.00  0.00     0.078 C 
ATOM      2  C1' OXE d   1       1.806   0.643   2.159  0.00  0.00     0.078 C 
ATOM      3  C1  OXE d   1       0.777   0.333   1.101  0.00  0.00    -0.078 A 
ATOM      4  C2  OXE d   1      -0.516   0.730   1.342  0.00  0.00    -0.078 A 
ATOM      5  C3  OXE d   1      -1.494   0.517   0.374  0.00  0.00     0.003 A 
ATOM      6  C4  OXE d   1      -1.205  -0.232  -0.773  0.00  0.00    -0.002 A 
ATOM      7  C5  OXE d   1       0.098  -0.680  -1.019  0.00  0.00    -0.002 A 
ATOM      8  C6  OXE d   1       1.107  -0.370  -0.114  0.00  0.00     0.003 A 
ENDROOT
TORSDOF 0
ENDMDL
