MODEL 1
REMARK minimizedAffinity -2.45796466
REMARK minimizedRMSD -1
REMARK  1 active torsions:
REMARK  status: ('A' for Active; 'I' for Inactive)
REMARK    1  A    between atoms: C1_2  and  C2_3 
ROOT
ATOM      1  C2  UNL d   1      -0.651   1.200   0.609  0.00  0.00    -0.073 A 
ATOM      2  C3  UNL d   1      -0.667   0.624  -0.667  0.00  0.00    -0.002 A 
ATOM      3  C4  UNL d   1       0.314  -0.297  -1.035  0.00  0.00     0.004 A 
ATOM      4  C5  UNL d   1       1.315  -0.657  -0.133  0.00  0.00    -0.004 A 
ATOM      5  C6  UNL d   1       1.340  -0.101   1.150  0.00  0.00    -0.075 A 
ATOM      6  C7  UNL d   1       2.411  -0.475   2.133  0.00  0.00     0.076 C 
ATOM      7  C8  UNL d   1       0.353   0.826   1.513  0.00  0.00     0.001 A 
ENDROOT
BRANCH   1   8
ATOM      8  C1  UNL d   1      -1.712   2.191   1.014  0.00  0.00     0.053 C 
ATOM      9  C   UNL d   1      -1.146   3.317   1.864  0.00  0.00     0.018 C 
ENDBRANCH   1   8
TORSDOF 1
ENDMDL
