MODEL 1
REMARK minimizedAffinity -5.04098654
REMARK minimizedRMSD -1
REMARK  1 active torsions:
REMARK  status: ('A' for Active; 'I' for Inactive)
REMARK    1  A    between atoms: C1_2  and  C2_3 
ROOT
ATOM      1  C2  UNL d   1      -0.903   0.940   0.017  0.00  0.00    -0.073 A 
ATOM      2  C3  UNL d   1      -0.566   1.692  -1.115  0.00  0.00    -0.002 A 
ATOM      3  C4  UNL d   1       0.204   1.128  -2.132  0.00  0.00     0.004 A 
ATOM      4  C5  UNL d   1       0.640  -0.193  -2.033  0.00  0.00    -0.004 A 
ATOM      5  C6  UNL d   1       0.305  -0.964  -0.916  0.00  0.00    -0.075 A 
ATOM      6  C7  UNL d   1       0.767  -2.386  -0.792  0.00  0.00     0.076 C 
ATOM      7  C8  UNL d   1      -0.467  -0.390   0.103  0.00  0.00     0.001 A 
ENDROOT
BRANCH   1   8
ATOM      8  C1  UNL d   1      -1.740   1.543   1.115  0.00  0.00     0.053 C 
ATOM      9  C   UNL d   1      -0.985   2.614   1.885  0.00  0.00     0.018 C 
ENDBRANCH   1   8
TORSDOF 1
ENDMDL
