MODEL 1
REMARK minimizedAffinity -5.51323748
REMARK minimizedRMSD -1
REMARK  1 active torsions:
REMARK  status: ('A' for Active; 'I' for Inactive)
REMARK    1  A    between atoms: C1_2  and  C2_3 
ROOT
ATOM      1  C2  UNL d   1       0.444  -2.550  -1.276  0.00  0.00    -0.073 A 
ATOM      2  C3  UNL d   1      -0.831  -3.078  -1.506  0.00  0.00    -0.002 A 
ATOM      3  C4  UNL d   1      -1.087  -4.430  -1.275  0.00  0.00     0.004 A 
ATOM      4  C5  UNL d   1      -0.074  -5.265  -0.805  0.00  0.00    -0.004 A 
ATOM      5  C6  UNL d   1       1.204  -4.754  -0.558  0.00  0.00    -0.075 A 
ATOM      6  C7  UNL d   1       2.306  -5.640  -0.054  0.00  0.00     0.076 C 
ATOM      7  C8  UNL d   1       1.454  -3.396  -0.795  0.00  0.00     0.001 A 
ENDROOT
BRANCH   1   8
ATOM      8  C1  UNL d   1       0.723  -1.089  -1.518  0.00  0.00     0.053 C 
ATOM      9  C   UNL d   1      -0.008  -0.197  -0.527  0.00  0.00     0.018 C 
ENDBRANCH   1   8
TORSDOF 1
ENDMDL
