MODEL 1
REMARK minimizedAffinity -1.13423181
REMARK minimizedRMSD -1
REMARK  1 active torsions:
REMARK  status: ('A' for Active; 'I' for Inactive)
REMARK    1  A    between atoms: C1_2  and  C2_3 
ROOT
ATOM      1  C2  UNL d   1       0.347  -0.287  -0.058  0.00  0.00    -0.073 A 
ATOM      2  C3  UNL d   1       0.846  -0.989   1.046  0.00  0.00    -0.002 A 
ATOM      3  C4  UNL d   1       0.735  -0.453   2.330  0.00  0.00     0.004 A 
ATOM      4  C5  UNL d   1       0.119   0.783   2.524  0.00  0.00    -0.004 A 
ATOM      5  C6  UNL d   1      -0.396   1.493   1.435  0.00  0.00    -0.075 A 
ATOM      6  C7  UNL d   1      -1.060   2.825   1.627  0.00  0.00     0.076 C 
ATOM      7  C8  UNL d   1      -0.278   0.951   0.149  0.00  0.00     0.001 A 
ENDROOT
BRANCH   1   8
ATOM      8  C1  UNL d   1       0.460  -0.864  -1.445  0.00  0.00     0.053 C 
ATOM      9  C   UNL d   1       0.599  -2.378  -1.424  0.00  0.00     0.018 C 
ENDBRANCH   1   8
TORSDOF 1
ENDMDL
