MODEL 1
REMARK minimizedAffinity -2.31540275
REMARK minimizedRMSD -1
REMARK  1 active torsions:
REMARK  status: ('A' for Active; 'I' for Inactive)
REMARK    1  A    between atoms: C1_2  and  C2_3 
ROOT
ATOM      1  C2  UNL d   1      -0.060  -1.901  -1.048  0.00  0.00    -0.073 A 
ATOM      2  C3  UNL d   1      -1.133  -2.139  -1.914  0.00  0.00    -0.002 A 
ATOM      3  C4  UNL d   1      -1.502  -3.445  -2.237  0.00  0.00     0.004 A 
ATOM      4  C5  UNL d   1      -0.808  -4.526  -1.692  0.00  0.00    -0.004 A 
ATOM      5  C6  UNL d   1       0.259  -4.309  -0.815  0.00  0.00    -0.075 A 
ATOM      6  C7  UNL d   1       1.017  -5.460  -0.222  0.00  0.00     0.076 C 
ATOM      7  C8  UNL d   1       0.626  -2.994  -0.498  0.00  0.00     0.001 A 
ENDROOT
BRANCH   1   8
ATOM      8  C1  UNL d   1       0.339  -0.492  -0.691  0.00  0.00     0.053 C 
ATOM      9  C   UNL d   1       0.308  -0.254   0.810  0.00  0.00     0.018 C 
ENDBRANCH   1   8
TORSDOF 1
ENDMDL
