MODEL 1
REMARK minimizedAffinity -3.91573
REMARK minimizedRMSD -1
REMARK  1 active torsions:
REMARK  status: ('A' for Active; 'I' for Inactive)
REMARK    1  A    between atoms: C1_2  and  C2_3 
ROOT
ATOM      1  C2  UNL d   1       0.074   0.913   0.891  0.00  0.00    -0.073 A 
ATOM      2  C3  UNL d   1      -0.186   1.651   2.051  0.00  0.00    -0.002 A 
ATOM      3  C4  UNL d   1      -0.731   2.933   1.964  0.00  0.00     0.004 A 
ATOM      4  C5  UNL d   1      -1.027   3.486   0.719  0.00  0.00    -0.004 A 
ATOM      5  C6  UNL d   1      -0.785   2.760  -0.452  0.00  0.00    -0.075 A 
ATOM      6  C7  UNL d   1      -1.095   3.342  -1.799  0.00  0.00     0.076 C 
ATOM      7  C8  UNL d   1      -0.235   1.475  -0.356  0.00  0.00     0.001 A 
ENDROOT
BRANCH   1   8
ATOM      8  C1  UNL d   1       0.656  -0.474   0.980  0.00  0.00     0.053 C 
ATOM      9  C   UNL d   1       0.693  -1.165  -0.373  0.00  0.00     0.018 C 
ENDBRANCH   1   8
TORSDOF 1
ENDMDL
