MODEL 1
REMARK minimizedAffinity -4.44719315
REMARK minimizedRMSD -1
REMARK  1 active torsions:
REMARK  status: ('A' for Active; 'I' for Inactive)
REMARK    1  A    between atoms: C1_2  and  C2_3 
ROOT
ATOM      1  C2  UNL d   1       0.248  -0.859  -0.547  0.00  0.00    -0.073 A 
ATOM      2  C3  UNL d   1       0.240  -0.091  -1.717  0.00  0.00    -0.002 A 
ATOM      3  C4  UNL d   1      -0.386   1.156  -1.737  0.00  0.00     0.004 A 
ATOM      4  C5  UNL d   1      -1.003   1.650  -0.588  0.00  0.00    -0.004 A 
ATOM      5  C6  UNL d   1      -0.996   0.903   0.594  0.00  0.00    -0.075 A 
ATOM      6  C7  UNL d   1      -1.658   1.419   1.838  0.00  0.00     0.076 C 
ATOM      7  C8  UNL d   1      -0.368  -0.350   0.605  0.00  0.00     0.001 A 
ENDROOT
BRANCH   1   8
ATOM      8  C1  UNL d   1       0.928  -2.204  -0.519  0.00  0.00     0.053 C 
ATOM      9  C   UNL d   1       0.021  -3.312  -1.030  0.00  0.00     0.018 C 
ENDBRANCH   1   8
TORSDOF 1
ENDMDL
