MODEL 1
REMARK minimizedAffinity -4.96466923
REMARK minimizedRMSD -1
REMARK  2 active torsions:
REMARK  status: ('A' for Active; 'I' for Inactive)
REMARK    1  A    between atoms: C2'_3  and  C1'_4 
REMARK    2  A    between atoms: C1'_4  and  C1_5 
ROOT
ATOM      1  C1  I4B d   1       0.142  -0.246  -0.528  0.00  0.00    -0.075 A 
ATOM      2  C2  I4B d   1       0.437  -0.270   0.812  0.00  0.00     0.003 A 
ATOM      3  C3  I4B d   1      -0.035   0.758   1.664  0.00  0.00     0.002 A 
ATOM      4  C4  I4B d   1      -0.749   1.811   1.129  0.00  0.00    -0.004 A 
ATOM      5  C5  I4B d   1      -1.066   1.821  -0.226  0.00  0.00     0.002 A 
ATOM      6  C6  I4B d   1      -0.629   0.780  -1.058  0.00  0.00     0.003 A 
ENDROOT
BRANCH   1   7
ATOM      7  C1' I4B d   1       0.683  -1.331  -1.404  0.00  0.00     0.060 C 
BRANCH   7   8
ATOM      8  C2' I4B d   1       0.068  -2.641  -0.959  0.00  0.00    -0.013 C 
ATOM      9  C4' I4B d   1      -1.181  -2.951  -1.742  0.00  0.00     0.013 C 
ATOM     10  C3' I4B d   1       1.097  -3.719  -1.132  0.00  0.00     0.013 C 
ENDBRANCH   7   8
ENDBRANCH   1   7
TORSDOF 2
ENDMDL
