MODEL 1
REMARK minimizedAffinity -4.62561083
REMARK minimizedRMSD -1
REMARK  2 active torsions:
REMARK  status: ('A' for Active; 'I' for Inactive)
REMARK    1  A    between atoms: C2'_3  and  C1'_4 
REMARK    2  A    between atoms: C1'_4  and  C1_5 
ROOT
ATOM      1  C1  I4B d   1       0.121  -0.293  -0.472  0.00  0.00    -0.075 A 
ATOM      2  C2  I4B d   1       0.773  -0.356   0.734  0.00  0.00     0.003 A 
ATOM      3  C3  I4B d   1       0.505   0.602   1.741  0.00  0.00     0.002 A 
ATOM      4  C4  I4B d   1      -0.379   1.630   1.483  0.00  0.00    -0.004 A 
ATOM      5  C5  I4B d   1      -1.056   1.680   0.268  0.00  0.00     0.002 A 
ATOM      6  C6  I4B d   1      -0.814   0.706  -0.712  0.00  0.00     0.003 A 
ENDROOT
BRANCH   1   7
ATOM      7  C1' I4B d   1       0.453  -1.302  -1.525  0.00  0.00     0.060 C 
BRANCH   7   8
ATOM      8  C2' I4B d   1      -0.388  -2.537  -1.269  0.00  0.00    -0.013 C 
ATOM      9  C4' I4B d   1      -1.528  -2.632  -2.248  0.00  0.00     0.013 C 
ATOM     10  C3' I4B d   1       0.509  -3.735  -1.364  0.00  0.00     0.013 C 
ENDBRANCH   7   8
ENDBRANCH   1   7
TORSDOF 2
ENDMDL
