MODEL 1
REMARK minimizedAffinity -3.47488022
REMARK minimizedRMSD -1
REMARK  2 active torsions:
REMARK  status: ('A' for Active; 'I' for Inactive)
REMARK    1  A    between atoms: C2'_3  and  C1'_4 
REMARK    2  A    between atoms: C1'_4  and  C1_5 
ROOT
ATOM      1  C1  I4B d   1       0.247  -0.503  -0.718  0.00  0.00    -0.075 A 
ATOM      2  C2  I4B d   1      -0.077  -0.291   0.599  0.00  0.00     0.003 A 
ATOM      3  C3  I4B d   1      -0.430   1.005   1.046  0.00  0.00     0.002 A 
ATOM      4  C4  I4B d   1      -0.396   2.062   0.160  0.00  0.00    -0.004 A 
ATOM      5  C5  I4B d   1      -0.088   1.842  -1.179  0.00  0.00     0.002 A 
ATOM      6  C6  I4B d   1       0.223   0.549  -1.624  0.00  0.00     0.003 A 
ENDROOT
BRANCH   1   7
ATOM      7  C1' I4B d   1       0.647  -1.879  -1.150  0.00  0.00     0.060 C 
BRANCH   7   8
ATOM      8  C2' I4B d   1      -0.482  -2.825  -0.796  0.00  0.00    -0.013 C 
ATOM      9  C4' I4B d   1      -1.473  -2.938  -1.925  0.00  0.00     0.013 C 
ATOM     10  C3' I4B d   1       0.118  -4.159  -0.467  0.00  0.00     0.013 C 
ENDBRANCH   7   8
ENDBRANCH   1   7
TORSDOF 2
ENDMDL
