MODEL 1
REMARK minimizedAffinity -3.77270555
REMARK minimizedRMSD -1
REMARK  2 active torsions:
REMARK  status: ('A' for Active; 'I' for Inactive)
REMARK    1  A    between atoms: C2'_3  and  C1'_4 
REMARK    2  A    between atoms: C1'_4  and  C1_5 
ROOT
ATOM      1  C1  I4B d   1       0.495  -1.228  -0.416  0.00  0.00    -0.075 A 
ATOM      2  C2  I4B d   1      -0.238  -0.436  -1.264  0.00  0.00     0.003 A 
ATOM      3  C3  I4B d   1      -0.747   0.807  -0.817  0.00  0.00     0.002 A 
ATOM      4  C4  I4B d   1      -0.544   1.194   0.492  0.00  0.00    -0.004 A 
ATOM      5  C5  I4B d   1       0.219   0.401   1.344  0.00  0.00     0.002 A 
ATOM      6  C6  I4B d   1       0.753  -0.812   0.884  0.00  0.00     0.003 A 
ENDROOT
BRANCH   1   7
ATOM      7  C1' I4B d   1       0.989  -2.550  -0.911  0.00  0.00     0.060 C 
BRANCH   7   8
ATOM      8  C2' I4B d   1      -0.107  -3.572  -0.688  0.00  0.00    -0.013 C 
ATOM      9  C4' I4B d   1      -0.970  -3.721  -1.913  0.00  0.00     0.013 C 
ATOM     10  C3' I4B d   1       0.541  -4.873  -0.320  0.00  0.00     0.013 C 
ENDBRANCH   7   8
ENDBRANCH   1   7
TORSDOF 2
ENDMDL
