MODEL 1
REMARK minimizedAffinity -3.41865182
REMARK minimizedRMSD -1
REMARK  2 active torsions:
REMARK  status: ('A' for Active; 'I' for Inactive)
REMARK    1  A    between atoms: C2'_3  and  C1'_4 
REMARK    2  A    between atoms: C1'_4  and  C1_5 
ROOT
ATOM      1  C1  I4B d   1       0.147  -0.522  -0.790  0.00  0.00    -0.075 A 
ATOM      2  C2  I4B d   1      -0.534   0.511  -1.385  0.00  0.00     0.003 A 
ATOM      3  C3  I4B d   1      -0.965   1.618  -0.614  0.00  0.00     0.002 A 
ATOM      4  C4  I4B d   1      -0.739   1.627   0.747  0.00  0.00    -0.004 A 
ATOM      5  C5  I4B d   1      -0.028   0.591   1.344  0.00  0.00     0.002 A 
ATOM      6  C6  I4B d   1       0.429  -0.485   0.570  0.00  0.00     0.003 A 
ENDROOT
BRANCH   1   7
ATOM      7  C1' I4B d   1       0.559  -1.691  -1.627  0.00  0.00     0.060 C 
BRANCH   7   8
ATOM      8  C2' I4B d   1      -0.195  -2.908  -1.132  0.00  0.00    -0.013 C 
ATOM      9  C4' I4B d   1      -1.495  -3.083  -1.872  0.00  0.00     0.013 C 
ATOM     10  C3' I4B d   1       0.692  -4.105  -1.307  0.00  0.00     0.013 C 
ENDBRANCH   7   8
ENDBRANCH   1   7
TORSDOF 2
ENDMDL
