MODEL 1
REMARK minimizedAffinity -4.33413601
REMARK minimizedRMSD -1
REMARK  2 active torsions:
REMARK  status: ('A' for Active; 'I' for Inactive)
REMARK    1  A    between atoms: C2'_3  and  C1'_4 
REMARK    2  A    between atoms: C1'_4  and  C1_5 
ROOT
ATOM      1  C1  I4B d   1       0.200  -0.905  -0.345  0.00  0.00    -0.075 A 
ATOM      2  C2  I4B d   1      -0.174   0.054  -1.252  0.00  0.00     0.003 A 
ATOM      3  C3  I4B d   1      -0.871   1.209  -0.822  0.00  0.00     0.002 A 
ATOM      4  C4  I4B d   1      -1.216   1.339   0.508  0.00  0.00    -0.004 A 
ATOM      5  C5  I4B d   1      -0.816   0.377   1.430  0.00  0.00     0.002 A 
ATOM      6  C6  I4B d   1      -0.093  -0.747   1.004  0.00  0.00     0.003 A 
ENDROOT
BRANCH   1   7
ATOM      7  C1' I4B d   1       0.906  -2.128  -0.838  0.00  0.00     0.060 C 
BRANCH   7   8
ATOM      8  C2' I4B d   1      -0.065  -3.288  -0.768  0.00  0.00    -0.013 C 
ATOM      9  C4' I4B d   1      -1.072  -3.225  -1.886  0.00  0.00     0.013 C 
ATOM     10  C3' I4B d   1       0.728  -4.560  -0.825  0.00  0.00     0.013 C 
ENDBRANCH   7   8
ENDBRANCH   1   7
TORSDOF 2
ENDMDL
