MODEL 1
REMARK minimizedAffinity -2.26965427
REMARK minimizedRMSD -1
REMARK  0 active torsions:
REMARK  status: ('A' for Active; 'I' for Inactive)
ROOT
ATOM      1  O1  BZF d   1       3.372   0.248   0.964  0.00  0.00    -0.204 OA
ATOM      2  C2  BZF d   1       3.383  -1.122   1.147  0.00  0.00     0.174 A 
ATOM      3  C3  BZF d   1       2.169  -1.648   0.886  0.00  0.00    -0.012 A 
ATOM      4  C3A BZF d   1       1.373  -0.551   0.429  0.00  0.00    -0.107 A 
ATOM      5  C4  BZF d   1       0.080  -0.442   0.003  0.00  0.00     0.055 A 
ATOM      6  C5  BZF d   1      -0.413   0.786  -0.305  0.00  0.00    -0.016 A 
ATOM      7  C6  BZF d   1       0.356   1.926  -0.193  0.00  0.00     0.022 A 
ATOM      8  C7  BZF d   1       1.646   1.868   0.220  0.00  0.00     0.029 A 
ATOM      9  C7A BZF d   1       2.157   0.624   0.500  0.00  0.00     0.058 A 
ENDROOT
TORSDOF 0
ENDMDL
