MODEL 1
REMARK minimizedAffinity -1.15401506
REMARK minimizedRMSD -1
REMARK  0 active torsions:
REMARK  status: ('A' for Active; 'I' for Inactive)
ROOT
ATOM      1  O1  BZF d   1       0.116  -1.640   0.330  0.00  0.00    -0.204 OA
ATOM      2  C2  BZF d   1      -1.081  -0.996   0.082  0.00  0.00     0.174 A 
ATOM      3  C3  BZF d   1      -0.912   0.341   0.069  0.00  0.00    -0.012 A 
ATOM      4  C3A BZF d   1       0.495   0.544   0.233  0.00  0.00    -0.107 A 
ATOM      5  C4  BZF d   1       1.284   1.658   0.286  0.00  0.00     0.055 A 
ATOM      6  C5  BZF d   1       2.613   1.515   0.529  0.00  0.00    -0.016 A 
ATOM      7  C6  BZF d   1       3.186   0.276   0.730  0.00  0.00     0.022 A 
ATOM      8  C7  BZF d   1       2.445  -0.858   0.682  0.00  0.00     0.029 A 
ATOM      9  C7A BZF d   1       1.107  -0.720   0.404  0.00  0.00     0.058 A 
ENDROOT
TORSDOF 0
ENDMDL
