MODEL 1
REMARK minimizedAffinity -4.89146185
REMARK minimizedRMSD -1
REMARK  0 active torsions:
REMARK  status: ('A' for Active; 'I' for Inactive)
ROOT
ATOM      1  O1  BZF d   1      -1.206  -1.112   0.468  0.00  0.00    -0.204 OA
ATOM      2  C2  BZF d   1      -1.477  -0.075  -0.403  0.00  0.00     0.174 A 
ATOM      3  C3  BZF d   1      -0.430   0.770  -0.482  0.00  0.00    -0.012 A 
ATOM      4  C3A BZF d   1       0.593   0.178   0.324  0.00  0.00    -0.107 A 
ATOM      5  C4  BZF d   1       1.875   0.538   0.628  0.00  0.00     0.055 A 
ATOM      6  C5  BZF d   1       2.584  -0.222   1.504  0.00  0.00    -0.016 A 
ATOM      7  C6  BZF d   1       2.042  -1.343   2.097  0.00  0.00     0.022 A 
ATOM      8  C7  BZF d   1       0.776  -1.743   1.822  0.00  0.00     0.029 A 
ATOM      9  C7A BZF d   1       0.069  -0.996   0.912  0.00  0.00     0.058 A 
ENDROOT
TORSDOF 0
ENDMDL
