MODEL 1
REMARK minimizedAffinity -4.98469257
REMARK minimizedRMSD -1
REMARK  0 active torsions:
REMARK  status: ('A' for Active; 'I' for Inactive)
ROOT
ATOM      1  O1  BZF d   1       0.530  -0.990  -0.318  0.00  0.00    -0.204 OA
ATOM      2  C2  BZF d   1      -0.430  -0.109  -0.779  0.00  0.00     0.174 A 
ATOM      3  C3  BZF d   1      -0.378   1.054  -0.098  0.00  0.00    -0.012 A 
ATOM      4  C3A BZF d   1       0.739   0.923   0.786  0.00  0.00    -0.107 A 
ATOM      5  C4  BZF d   1       1.309   1.754   1.707  0.00  0.00     0.055 A 
ATOM      6  C5  BZF d   1       2.347   1.297   2.457  0.00  0.00    -0.016 A 
ATOM      7  C6  BZF d   1       2.835   0.014   2.315  0.00  0.00     0.022 A 
ATOM      8  C7  BZF d   1       2.306  -0.845   1.410  0.00  0.00     0.029 A 
ATOM      9  C7A BZF d   1       1.279  -0.375   0.628  0.00  0.00     0.058 A 
ENDROOT
TORSDOF 0
ENDMDL
