MODEL 1
REMARK minimizedAffinity -4.53875399
REMARK minimizedRMSD -1
REMARK  0 active torsions:
REMARK  status: ('A' for Active; 'I' for Inactive)
ROOT
ATOM      1  O1  BZF d   1       0.098  -1.379  -0.787  0.00  0.00    -0.204 OA
ATOM      2  C2  BZF d   1      -1.142  -0.770  -0.802  0.00  0.00     0.174 A 
ATOM      3  C3  BZF d   1      -1.097   0.421  -0.172  0.00  0.00    -0.012 A 
ATOM      4  C3A BZF d   1       0.276   0.607   0.185  0.00  0.00    -0.107 A 
ATOM      5  C4  BZF d   1       0.953   1.609   0.819  0.00  0.00     0.055 A 
ATOM      6  C5  BZF d   1       2.278   1.450   1.077  0.00  0.00    -0.016 A 
ATOM      7  C6  BZF d   1       2.955   0.302   0.719  0.00  0.00     0.022 A 
ATOM      8  C7  BZF d   1       2.326  -0.717   0.084  0.00  0.00     0.029 A 
ATOM      9  C7A BZF d   1       0.995  -0.545  -0.208  0.00  0.00     0.058 A 
ENDROOT
TORSDOF 0
ENDMDL
