MODEL 1
REMARK minimizedAffinity 1.84470236
REMARK minimizedRMSD -1
REMARK  0 active torsions:
REMARK  status: ('A' for Active; 'I' for Inactive)
ROOT
ATOM      1  O1  BZF d   1       0.784  -0.675   1.722  0.00  0.00    -0.204 OA
ATOM      2  C2  BZF d   1       1.918   0.027   1.364  0.00  0.00     0.174 A 
ATOM      3  C3  BZF d   1       1.758   0.615   0.161  0.00  0.00    -0.012 A 
ATOM      4  C3A BZF d   1       0.407   0.334  -0.218  0.00  0.00    -0.107 A 
ATOM      5  C4  BZF d   1      -0.351   0.663  -1.305  0.00  0.00     0.055 A 
ATOM      6  C5  BZF d   1      -1.613   0.169  -1.405  0.00  0.00    -0.016 A 
ATOM      7  C6  BZF d   1      -2.146  -0.660  -0.439  0.00  0.00     0.022 A 
ATOM      8  C7  BZF d   1      -1.435  -1.010   0.660  0.00  0.00     0.029 A 
ATOM      9  C7A BZF d   1      -0.171  -0.485   0.779  0.00  0.00     0.058 A 
ENDROOT
TORSDOF 0
ENDMDL
