MODEL 1
REMARK minimizedAffinity -0.167499885
REMARK minimizedRMSD -1
REMARK  0 active torsions:
REMARK  status: ('A' for Active; 'I' for Inactive)
ROOT
ATOM      1  O1  BZF d   1      -0.310  -0.346   0.564  0.00  0.00    -0.204 OA
ATOM      2  C2  BZF d   1      -0.567   0.725  -0.270  0.00  0.00     0.174 A 
ATOM      3  C3  BZF d   1       0.285   1.741  -0.021  0.00  0.00    -0.012 A 
ATOM      4  C3A BZF d   1       1.186   1.242   0.972  0.00  0.00    -0.107 A 
ATOM      5  C4  BZF d   1       2.265   1.778   1.615  0.00  0.00     0.055 A 
ATOM      6  C5  BZF d   1       2.883   1.053   2.584  0.00  0.00    -0.016 A 
ATOM      7  C6  BZF d   1       2.447  -0.207   2.938  0.00  0.00     0.022 A 
ATOM      8  C7  BZF d   1       1.384  -0.782   2.325  0.00  0.00     0.029 A 
ATOM      9  C7A BZF d   1       0.777  -0.066   1.323  0.00  0.00     0.058 A 
ENDROOT
TORSDOF 0
ENDMDL
