MODEL 1
REMARK minimizedAffinity 3.27834344
REMARK minimizedRMSD -1
REMARK  0 active torsions:
REMARK  status: ('A' for Active; 'I' for Inactive)
ROOT
ATOM      1  O1  BZF d   1       2.998   0.589   2.883  0.00  0.00    -0.204 OA
ATOM      2  C2  BZF d   1       2.613   1.903   3.070  0.00  0.00     0.174 A 
ATOM      3  C3  BZF d   1       1.550   2.205   2.298  0.00  0.00    -0.012 A 
ATOM      4  C3A BZF d   1       1.194   0.978   1.652  0.00  0.00    -0.107 A 
ATOM      5  C4  BZF d   1       0.208   0.632   0.773  0.00  0.00     0.055 A 
ATOM      6  C5  BZF d   1       0.180  -0.633   0.276  0.00  0.00    -0.016 A 
ATOM      7  C6  BZF d   1       1.124  -1.573   0.633  0.00  0.00     0.022 A 
ATOM      8  C7  BZF d   1       2.118  -1.278   1.505  0.00  0.00     0.029 A 
ATOM      9  C7A BZF d   1       2.129  -0.011   2.034  0.00  0.00     0.058 A 
ENDROOT
TORSDOF 0
ENDMDL
