MODEL 1
REMARK minimizedAffinity 6.00144196
REMARK minimizedRMSD -1
REMARK  1 active torsions:
REMARK  status: ('A' for Active; 'I' for Inactive)
REMARK    1  A    between atoms: C1_2  and  C2_3 
ROOT
ATOM      1  C2  UNL d   1       1.528  -1.556   4.017  0.00  0.00    -0.081 A 
ATOM      2  C3  UNL d   1       1.673  -1.007   2.737  0.00  0.00     0.006 A 
ATOM      3  C4  UNL d   1       0.570  -0.467   2.070  0.00  0.00     0.002 A 
ATOM      4  C5  UNL d   1      -0.691  -0.460   2.674  0.00  0.00    -0.080 A 
ATOM      5  C6  UNL d   1      -1.877   0.143   1.980  0.00  0.00     0.076 C 
ATOM      6  C7  UNL d   1      -0.839  -1.024   3.945  0.00  0.00     0.002 A 
ATOM      7  C8  UNL d   1       0.262  -1.564   4.613  0.00  0.00     0.006 A 
ENDROOT
BRANCH   1   8
ATOM      8  C1  UNL d   1       2.727  -2.080   4.766  0.00  0.00     0.054 C 
ATOM      9  C   UNL d   1       3.147  -1.126   5.876  0.00  0.00     0.018 C 
ENDBRANCH   1   8
TORSDOF 1
ENDMDL
