MODEL 1
REMARK minimizedAffinity 5.00369406
REMARK minimizedRMSD -1
REMARK  1 active torsions:
REMARK  status: ('A' for Active; 'I' for Inactive)
REMARK    1  A    between atoms: C1_2  and  C2_3 
ROOT
ATOM      1  C2  UNL d   1       5.220  -2.381  -4.591  0.00  0.00    -0.081 A 
ATOM      2  C3  UNL d   1       4.520  -2.924  -3.507  0.00  0.00     0.006 A 
ATOM      3  C4  UNL d   1       4.551  -2.297  -2.259  0.00  0.00     0.002 A 
ATOM      4  C5  UNL d   1       5.274  -1.114  -2.076  0.00  0.00    -0.080 A 
ATOM      5  C6  UNL d   1       5.291  -0.414  -0.750  0.00  0.00     0.076 C 
ATOM      6  C7  UNL d   1       5.988  -0.581  -3.155  0.00  0.00     0.002 A 
ATOM      7  C8  UNL d   1       5.958  -1.207  -4.403  0.00  0.00     0.006 A 
ENDROOT
BRANCH   1   8
ATOM      8  C1  UNL d   1       5.136  -3.019  -5.954  0.00  0.00     0.054 C 
ATOM      9  C   UNL d   1       4.051  -4.086  -6.000  0.00  0.00     0.018 C 
ENDBRANCH   1   8
TORSDOF 1
ENDMDL
