MODEL 1
REMARK minimizedAffinity -1.7597059
REMARK minimizedRMSD -1
REMARK  1 active torsions:
REMARK  status: ('A' for Active; 'I' for Inactive)
REMARK    1  A    between atoms: C1_2  and  C2_3 
ROOT
ATOM      1  C2  UNL d   1       1.131  -2.192  -2.498  0.00  0.00    -0.081 A 
ATOM      2  C3  UNL d   1      -0.244  -2.048  -2.277  0.00  0.00     0.006 A 
ATOM      3  C4  UNL d   1      -0.938  -0.960  -2.811  0.00  0.00     0.002 A 
ATOM      4  C5  UNL d   1      -0.270  -0.002  -3.583  0.00  0.00    -0.080 A 
ATOM      5  C6  UNL d   1      -1.008   1.155  -4.188  0.00  0.00     0.076 C 
ATOM      6  C7  UNL d   1       1.107  -0.137  -3.790  0.00  0.00     0.002 A 
ATOM      7  C8  UNL d   1       1.801  -1.225  -3.255  0.00  0.00     0.006 A 
ENDROOT
BRANCH   1   8
ATOM      8  C1  UNL d   1       1.869  -3.399  -1.977  0.00  0.00     0.054 C 
ATOM      9  C   UNL d   1       1.508  -4.651  -2.764  0.00  0.00     0.018 C 
ENDBRANCH   1   8
TORSDOF 1
ENDMDL
