MODEL 1
REMARK minimizedAffinity -1.82367003
REMARK minimizedRMSD -1
REMARK  1 active torsions:
REMARK  status: ('A' for Active; 'I' for Inactive)
REMARK    1  A    between atoms: C1_2  and  C2_3 
ROOT
ATOM      1  C2  UNL d   1       0.265  -3.777  -3.237  0.00  0.00    -0.081 A 
ATOM      2  C3  UNL d   1      -0.784  -3.247  -3.998  0.00  0.00     0.006 A 
ATOM      3  C4  UNL d   1      -0.911  -1.866  -4.163  0.00  0.00     0.002 A 
ATOM      4  C5  UNL d   1       0.012  -0.993  -3.578  0.00  0.00    -0.080 A 
ATOM      5  C6  UNL d   1      -0.095   0.490  -3.773  0.00  0.00     0.076 C 
ATOM      6  C7  UNL d   1       1.050  -1.521  -2.803  0.00  0.00     0.002 A 
ATOM      7  C8  UNL d   1       1.177  -2.902  -2.637  0.00  0.00     0.006 A 
ENDROOT
BRANCH   1   8
ATOM      8  C1  UNL d   1       0.442  -5.269  -3.110  0.00  0.00     0.054 C 
ATOM      9  C   UNL d   1       1.847  -5.695  -3.511  0.00  0.00     0.018 C 
ENDBRANCH   1   8
TORSDOF 1
ENDMDL
