MODEL 1
REMARK minimizedAffinity 6.0210247
REMARK minimizedRMSD -1
REMARK  1 active torsions:
REMARK  status: ('A' for Active; 'I' for Inactive)
REMARK    1  A    between atoms: C1_2  and  C2_3 
ROOT
ATOM      1  C2  UNL d   1       1.499  -1.874   4.124  0.00  0.00    -0.081 A 
ATOM      2  C3  UNL d   1       1.818  -0.751   3.351  0.00  0.00     0.006 A 
ATOM      3  C4  UNL d   1       0.831  -0.102   2.605  0.00  0.00     0.002 A 
ATOM      4  C5  UNL d   1      -0.491  -0.560   2.626  0.00  0.00    -0.080 A 
ATOM      5  C6  UNL d   1      -1.565   0.146   1.853  0.00  0.00     0.076 C 
ATOM      6  C7  UNL d   1      -0.805  -1.692   3.384  0.00  0.00     0.002 A 
ATOM      7  C8  UNL d   1       0.181  -2.342   4.130  0.00  0.00     0.006 A 
ENDROOT
BRANCH   1   8
ATOM      8  C1  UNL d   1       2.548  -2.537   4.980  0.00  0.00     0.054 C 
ATOM      9  C   UNL d   1       3.125  -1.566   6.000  0.00  0.00     0.018 C 
ENDBRANCH   1   8
TORSDOF 1
ENDMDL
