MODEL 1
REMARK minimizedAffinity -0.382370263
REMARK minimizedRMSD -1
REMARK  1 active torsions:
REMARK  status: ('A' for Active; 'I' for Inactive)
REMARK    1  A    between atoms: C1_2  and  C2_3 
ROOT
ATOM      1  C2  UNL d   1       1.531   0.237   1.387  0.00  0.00    -0.081 A 
ATOM      2  C3  UNL d   1       1.952  -0.829   2.191  0.00  0.00     0.006 A 
ATOM      3  C4  UNL d   1       1.019  -1.603   2.885  0.00  0.00     0.002 A 
ATOM      4  C5  UNL d   1      -0.349  -1.328   2.782  0.00  0.00    -0.080 A 
ATOM      5  C6  UNL d   1      -1.363  -2.170   3.498  0.00  0.00     0.076 C 
ATOM      6  C7  UNL d   1      -0.768  -0.252   1.992  0.00  0.00     0.002 A 
ATOM      7  C8  UNL d   1       0.164   0.522   1.298  0.00  0.00     0.006 A 
ENDROOT
BRANCH   1   8
ATOM      8  C1  UNL d   1       2.530   1.033   0.585  0.00  0.00     0.054 C 
ATOM      9  C   UNL d   1       2.316   2.529   0.763  0.00  0.00     0.018 C 
ENDBRANCH   1   8
TORSDOF 1
ENDMDL
