MODEL 1
REMARK minimizedAffinity -3.94515562
REMARK minimizedRMSD -1
REMARK  1 active torsions:
REMARK  status: ('A' for Active; 'I' for Inactive)
REMARK    1  A    between atoms: C1_2  and  C2_3 
ROOT
ATOM      1  C2  UNL d   1      -0.360  -2.529  -4.837  0.00  0.00    -0.081 A 
ATOM      2  C3  UNL d   1      -0.221  -2.426  -3.447  0.00  0.00     0.006 A 
ATOM      3  C4  UNL d   1       0.112  -3.547  -2.683  0.00  0.00     0.002 A 
ATOM      4  C5  UNL d   1       0.319  -4.787  -3.296  0.00  0.00    -0.080 A 
ATOM      5  C6  UNL d   1       0.706  -5.992  -2.491  0.00  0.00     0.076 C 
ATOM      6  C7  UNL d   1       0.163  -4.895  -4.682  0.00  0.00     0.002 A 
ATOM      7  C8  UNL d   1      -0.170  -3.774  -5.447  0.00  0.00     0.006 A 
ENDROOT
BRANCH   1   8
ATOM      8  C1  UNL d   1      -0.655  -1.308  -5.671  0.00  0.00     0.054 C 
ATOM      9  C   UNL d   1      -0.230  -0.034  -4.955  0.00  0.00     0.018 C 
ENDBRANCH   1   8
TORSDOF 1
ENDMDL
