MODEL 1
REMARK minimizedAffinity 3.55302215
REMARK minimizedRMSD -1
REMARK  1 active torsions:
REMARK  status: ('A' for Active; 'I' for Inactive)
REMARK    1  A    between atoms: C1_2  and  C2_3 
ROOT
ATOM      1  C2  UNL d   1       0.375  -4.969  -3.100  0.00  0.00    -0.081 A 
ATOM      2  C3  UNL d   1      -0.369  -3.886  -2.617  0.00  0.00     0.006 A 
ATOM      3  C4  UNL d   1       0.240  -2.900  -1.837  0.00  0.00     0.002 A 
ATOM      4  C5  UNL d   1       1.604  -2.976  -1.534  0.00  0.00    -0.080 A 
ATOM      5  C6  UNL d   1       2.277  -1.908  -0.723  0.00  0.00     0.076 C 
ATOM      6  C7  UNL d   1       2.344  -4.068  -2.002  0.00  0.00     0.002 A 
ATOM      7  C8  UNL d   1       1.735  -5.054  -2.781  0.00  0.00     0.006 A 
ENDROOT
BRANCH   1   8
ATOM      8  C1  UNL d   1      -0.264  -6.000  -3.995  0.00  0.00     0.054 C 
ATOM      9  C   UNL d   1       0.369  -6.000  -5.379  0.00  0.00     0.018 C 
ENDBRANCH   1   8
TORSDOF 1
ENDMDL
