MODEL 1
REMARK minimizedAffinity 9.42053127
REMARK minimizedRMSD -1
REMARK  0 active torsions:
REMARK  status: ('A' for Active; 'I' for Inactive)
ROOT
ATOM      1  C   UNL d   1       5.017   3.538   1.349  0.00  0.00     0.020 A 
ATOM      2  C1  UNL d   1       5.737   2.751   2.247  0.00  0.00     0.020 A 
ATOM      3  C2  UNL d   1       5.339   1.436   2.496  0.00  0.00     0.034 A 
ATOM      4  C3  UNL d   1       4.218   0.904   1.849  0.00  0.00     0.017 A 
ATOM      5  C4  UNL d   1       3.496   1.696   0.948  0.00  0.00     0.017 A 
ATOM      6  C5  UNL d   1       3.899   3.012   0.702  0.00  0.00     0.034 A 
ATOM      7 Cl   UNL d   1       2.102   1.110   0.111  0.00  0.00    -0.070 Cl
ATOM      8 Cl1  UNL d   1       3.784  -0.730   2.205  0.00  0.00    -0.070 Cl
ENDROOT
TORSDOF 0
ENDMDL
