MODEL 1
REMARK minimizedAffinity 13.5139446
REMARK minimizedRMSD -1
REMARK  0 active torsions:
REMARK  status: ('A' for Active; 'I' for Inactive)
ROOT
ATOM      1  C   UNL d   1       1.526  -4.726  -3.395  0.00  0.00     0.020 A 
ATOM      2  C1  UNL d   1       1.150  -5.853  -4.124  0.00  0.00     0.020 A 
ATOM      3  C2  UNL d   1      -0.171  -6.000  -4.553  0.00  0.00     0.034 A 
ATOM      4  C3  UNL d   1      -1.121  -5.018  -4.252  0.00  0.00     0.017 A 
ATOM      5  C4  UNL d   1      -0.743  -3.886  -3.520  0.00  0.00     0.017 A 
ATOM      6  C5  UNL d   1       0.581  -3.745  -3.093  0.00  0.00     0.034 A 
ATOM      7 Cl   UNL d   1      -1.860  -2.632  -3.111  0.00  0.00    -0.070 Cl
ATOM      8 Cl1  UNL d   1      -2.737  -5.264  -4.814  0.00  0.00    -0.070 Cl
ENDROOT
TORSDOF 0
ENDMDL
