MODEL 1
REMARK minimizedAffinity 12.7581987
REMARK minimizedRMSD -1
REMARK  0 active torsions:
REMARK  status: ('A' for Active; 'I' for Inactive)
ROOT
ATOM      1  C   UNL d   1       5.998  -5.031   0.982  0.00  0.00     0.020 A 
ATOM      2  C1  UNL d   1       5.009  -6.000   0.821  0.00  0.00     0.020 A 
ATOM      3  C2  UNL d   1       3.868  -5.715   0.067  0.00  0.00     0.034 A 
ATOM      4  C3  UNL d   1       3.715  -4.457  -0.529  0.00  0.00     0.017 A 
ATOM      5  C4  UNL d   1       4.709  -3.486  -0.367  0.00  0.00     0.017 A 
ATOM      6  C5  UNL d   1       5.848  -3.777   0.389  0.00  0.00     0.034 A 
ATOM      7 Cl   UNL d   1       4.590  -1.912  -1.071  0.00  0.00    -0.070 Cl
ATOM      8 Cl1  UNL d   1       2.279  -4.174  -1.447  0.00  0.00    -0.070 Cl
ENDROOT
TORSDOF 0
ENDMDL
