MODEL 1
REMARK minimizedAffinity 9.59065723
REMARK minimizedRMSD -1
REMARK  0 active torsions:
REMARK  status: ('A' for Active; 'I' for Inactive)
ROOT
ATOM      1  C   UNL d   1      -2.589  -0.138   0.570  0.00  0.00     0.020 A 
ATOM      2  C1  UNL d   1      -3.312   0.686   1.431  0.00  0.00     0.020 A 
ATOM      3  C2  UNL d   1      -2.904   0.841   2.757  0.00  0.00     0.034 A 
ATOM      4  C3  UNL d   1      -1.770   0.169   3.227  0.00  0.00     0.017 A 
ATOM      5  C4  UNL d   1      -1.044  -0.658   2.362  0.00  0.00     0.017 A 
ATOM      6  C5  UNL d   1      -1.457  -0.809   1.035  0.00  0.00     0.034 A 
ATOM      7 Cl   UNL d   1       0.367  -1.519   2.870  0.00  0.00    -0.070 Cl
ATOM      8 Cl1  UNL d   1      -1.323   0.407   4.879  0.00  0.00    -0.070 Cl
ENDROOT
TORSDOF 0
ENDMDL
