MODEL 1
REMARK minimizedAffinity 4.60839176
REMARK minimizedRMSD -1
REMARK  0 active torsions:
REMARK  status: ('A' for Active; 'I' for Inactive)
ROOT
ATOM      1  C   UNL d   1      -0.482  -1.289   2.793  0.00  0.00     0.020 A 
ATOM      2  C1  UNL d   1      -1.057  -1.667   1.580  0.00  0.00     0.020 A 
ATOM      3  C2  UNL d   1      -2.260  -1.090   1.168  0.00  0.00     0.034 A 
ATOM      4  C3  UNL d   1      -2.892  -0.131   1.970  0.00  0.00     0.017 A 
ATOM      5  C4  UNL d   1      -2.314   0.247   3.187  0.00  0.00     0.017 A 
ATOM      6  C5  UNL d   1      -1.109  -0.334   3.594  0.00  0.00     0.034 A 
ATOM      7 Cl   UNL d   1      -3.034   1.423   4.229  0.00  0.00    -0.070 Cl
ATOM      8 Cl1  UNL d   1      -4.377   0.541   1.398  0.00  0.00    -0.070 Cl
ENDROOT
TORSDOF 0
ENDMDL
