MODEL 1
REMARK minimizedAffinity 18.8237801
REMARK minimizedRMSD -1
REMARK  0 active torsions:
REMARK  status: ('A' for Active; 'I' for Inactive)
ROOT
ATOM      1  C   UNL d   1       4.717   3.402  -5.690  0.00  0.00     0.020 A 
ATOM      2  C1  UNL d   1       5.847   4.045  -5.187  0.00  0.00     0.020 A 
ATOM      3  C2  UNL d   1       5.951   4.306  -3.819  0.00  0.00     0.034 A 
ATOM      4  C3  UNL d   1       4.923   3.923  -2.949  0.00  0.00     0.017 A 
ATOM      5  C4  UNL d   1       3.790   3.277  -3.455  0.00  0.00     0.017 A 
ATOM      6  C5  UNL d   1       3.691   3.018  -4.826  0.00  0.00     0.034 A 
ATOM      7 Cl   UNL d   1       2.481   2.774  -2.445  0.00  0.00    -0.070 Cl
ATOM      8 Cl1  UNL d   1       5.119   4.276  -1.269  0.00  0.00    -0.070 Cl
ENDROOT
TORSDOF 0
ENDMDL
