MODEL 1
REMARK minimizedAffinity 11.8293676
REMARK minimizedRMSD -1
REMARK  0 active torsions:
REMARK  status: ('A' for Active; 'I' for Inactive)
ROOT
ATOM      1  C   UNL d   1      -1.714  -0.950   1.605  0.00  0.00     0.020 A 
ATOM      2  C1  UNL d   1      -1.123  -0.500   2.785  0.00  0.00     0.020 A 
ATOM      3  C2  UNL d   1      -1.810   0.388   3.615  0.00  0.00     0.034 A 
ATOM      4  C3  UNL d   1      -3.092   0.830   3.266  0.00  0.00     0.017 A 
ATOM      5  C4  UNL d   1      -3.684   0.377   2.081  0.00  0.00     0.017 A 
ATOM      6  C5  UNL d   1      -2.992  -0.513   1.254  0.00  0.00     0.034 A 
ATOM      7 Cl   UNL d   1      -5.262   0.877   1.585  0.00  0.00    -0.070 Cl
ATOM      8 Cl1  UNL d   1      -3.883   1.928   4.340  0.00  0.00    -0.070 Cl
ENDROOT
TORSDOF 0
ENDMDL
