MODEL 1
REMARK minimizedAffinity 10.3268728
REMARK minimizedRMSD -1
REMARK  0 active torsions:
REMARK  status: ('A' for Active; 'I' for Inactive)
ROOT
ATOM      1  C   UNL d   1      -4.005  -5.207   2.219  0.00  0.00     0.020 A 
ATOM      2  C1  UNL d   1      -3.800  -3.828   2.219  0.00  0.00     0.020 A 
ATOM      3  C2  UNL d   1      -3.969  -3.097   3.397  0.00  0.00     0.034 A 
ATOM      4  C3  UNL d   1      -4.343  -3.745   4.580  0.00  0.00     0.017 A 
ATOM      5  C4  UNL d   1      -4.548  -5.130   4.579  0.00  0.00     0.017 A 
ATOM      6  C5  UNL d   1      -4.378  -5.856   3.397  0.00  0.00     0.034 A 
ATOM      7 Cl   UNL d   1      -5.011  -5.999   5.999  0.00  0.00    -0.070 Cl
ATOM      8 Cl1  UNL d   1      -4.534  -2.779   6.000  0.00  0.00    -0.070 Cl
ENDROOT
TORSDOF 0
ENDMDL
