MODEL 1
REMARK minimizedAffinity 15.5114756
REMARK minimizedRMSD -1
REMARK  0 active torsions:
REMARK  status: ('A' for Active; 'I' for Inactive)
ROOT
ATOM      1  C   UNL d   1       1.832   1.816   0.463  0.00  0.00     0.020 A 
ATOM      2  C1  UNL d   1       2.956   1.118   0.022  0.00  0.00     0.020 A 
ATOM      3  C2  UNL d   1       4.233   1.632   0.254  0.00  0.00     0.034 A 
ATOM      4  C3  UNL d   1       4.390   2.848   0.930  0.00  0.00     0.017 A 
ATOM      5  C4  UNL d   1       3.262   3.548   1.372  0.00  0.00     0.017 A 
ATOM      6  C5  UNL d   1       1.985   3.028   1.137  0.00  0.00     0.034 A 
ATOM      7 Cl   UNL d   1       3.376   5.054   2.212  0.00  0.00    -0.070 Cl
ATOM      8 Cl1  UNL d   1       5.999   3.424   1.183  0.00  0.00    -0.070 Cl
ENDROOT
TORSDOF 0
ENDMDL
