MODEL 1
REMARK minimizedAffinity 13.9280224
REMARK minimizedRMSD -1
REMARK  0 active torsions:
REMARK  status: ('A' for Active; 'I' for Inactive)
ROOT
ATOM      1  C   UNL d   1      -1.250  -0.819   1.359  0.00  0.00     0.020 A 
ATOM      2  C1  UNL d   1      -2.246  -0.041   1.947  0.00  0.00     0.020 A 
ATOM      3  C2  UNL d   1      -2.135   0.341   3.286  0.00  0.00     0.034 A 
ATOM      4  C3  UNL d   1      -1.026  -0.057   4.041  0.00  0.00     0.017 A 
ATOM      5  C4  UNL d   1      -0.026  -0.838   3.450  0.00  0.00     0.017 A 
ATOM      6  C5  UNL d   1      -0.142  -1.217   2.109  0.00  0.00     0.034 A 
ATOM      7 Cl   UNL d   1       1.372  -1.367   4.318  0.00  0.00    -0.070 Cl
ATOM      8 Cl1  UNL d   1      -0.954   0.451   5.691  0.00  0.00    -0.070 Cl
ENDROOT
TORSDOF 0
ENDMDL
