MODEL 1
REMARK minimizedAffinity 14.4983559
REMARK minimizedRMSD -1
REMARK  0 active torsions:
REMARK  status: ('A' for Active; 'I' for Inactive)
ROOT
ATOM      1  C   UNL d   1      -5.353  -5.685   5.442  0.00  0.00     0.020 A 
ATOM      2  C1  UNL d   1      -4.889  -5.999   4.165  0.00  0.00     0.020 A 
ATOM      3  C2  UNL d   1      -4.165  -5.055   3.434  0.00  0.00     0.034 A 
ATOM      4  C3  UNL d   1      -3.903  -3.792   3.979  0.00  0.00     0.017 A 
ATOM      5  C4  UNL d   1      -4.369  -3.479   5.261  0.00  0.00     0.017 A 
ATOM      6  C5  UNL d   1      -5.093  -4.428   5.988  0.00  0.00     0.034 A 
ATOM      7 Cl   UNL d   1      -4.085  -1.942   6.000  0.00  0.00    -0.070 Cl
ATOM      8 Cl1  UNL d   1      -3.002  -2.674   3.018  0.00  0.00    -0.070 Cl
ENDROOT
TORSDOF 0
ENDMDL
