MODEL 1
REMARK minimizedAffinity 6.54894447
REMARK minimizedRMSD -1
REMARK  0 active torsions:
REMARK  status: ('A' for Active; 'I' for Inactive)
ROOT
ATOM      1  C   UNL d   1      -0.682  -1.206   2.794  0.00  0.00     0.020 A 
ATOM      2  C1  UNL d   1      -1.294  -1.674   1.632  0.00  0.00     0.020 A 
ATOM      3  C2  UNL d   1      -2.482  -1.091   1.184  0.00  0.00     0.034 A 
ATOM      4  C3  UNL d   1      -3.060  -0.036   1.899  0.00  0.00     0.017 A 
ATOM      5  C4  UNL d   1      -2.445   0.433   3.066  0.00  0.00     0.017 A 
ATOM      6  C5  UNL d   1      -1.256  -0.154   3.509  0.00  0.00     0.034 A 
ATOM      7 Cl   UNL d   1      -3.100   1.731   4.001  0.00  0.00    -0.070 Cl
ATOM      8 Cl1  UNL d   1      -4.529   0.638   1.288  0.00  0.00    -0.070 Cl
ENDROOT
TORSDOF 0
ENDMDL
