MODEL 1
REMARK minimizedAffinity 9.96424198
REMARK minimizedRMSD -1
REMARK  0 active torsions:
REMARK  status: ('A' for Active; 'I' for Inactive)
ROOT
ATOM      1  C   UNL d   1      -1.159  -0.810   1.540  0.00  0.00     0.020 A 
ATOM      2  C1  UNL d   1      -0.164  -1.545   2.184  0.00  0.00     0.020 A 
ATOM      3  C2  UNL d   1       0.044  -1.388   3.556  0.00  0.00     0.034 A 
ATOM      4  C3  UNL d   1      -0.744  -0.492   4.288  0.00  0.00     0.017 A 
ATOM      5  C4  UNL d   1      -1.742   0.246   3.641  0.00  0.00     0.017 A 
ATOM      6  C5  UNL d   1      -1.946   0.084   2.268  0.00  0.00     0.034 A 
ATOM      7 Cl   UNL d   1      -2.754   1.370   4.478  0.00  0.00    -0.070 Cl
ATOM      8 Cl1  UNL d   1      -0.432  -0.348   5.982  0.00  0.00    -0.070 Cl
ENDROOT
TORSDOF 0
ENDMDL
