MODEL 1
REMARK minimizedAffinity 14.6376095
REMARK minimizedRMSD -1
REMARK  0 active torsions:
REMARK  status: ('A' for Active; 'I' for Inactive)
ROOT
ATOM      1  C   UNL d   1      -0.914  -1.337   1.117  0.00  0.00     0.020 A 
ATOM      2  C1  UNL d   1      -0.268  -0.938   2.286  0.00  0.00     0.020 A 
ATOM      3  C2  UNL d   1      -0.899  -0.057   3.167  0.00  0.00     0.034 A 
ATOM      4  C3  UNL d   1      -2.180   0.428   2.879  0.00  0.00     0.017 A 
ATOM      5  C4  UNL d   1      -2.828   0.027   1.705  0.00  0.00     0.017 A 
ATOM      6  C5  UNL d   1      -2.191  -0.855   0.827  0.00  0.00     0.034 A 
ATOM      7 Cl   UNL d   1      -4.409   0.583   1.283  0.00  0.00    -0.070 Cl
ATOM      8 Cl1  UNL d   1      -2.901   1.515   4.013  0.00  0.00    -0.070 Cl
ENDROOT
TORSDOF 0
ENDMDL
