MODEL 1
REMARK minimizedAffinity 19.0045948
REMARK minimizedRMSD -1
REMARK  0 active torsions:
REMARK  status: ('A' for Active; 'I' for Inactive)
ROOT
ATOM      1  C   UNL d   1       5.358   5.225  -2.057  0.00  0.00     0.020 A 
ATOM      2  C1  UNL d   1       6.000   5.304  -3.292  0.00  0.00     0.020 A 
ATOM      3  C2  UNL d   1       5.598   4.475  -4.341  0.00  0.00     0.034 A 
ATOM      4  C3  UNL d   1       4.553   3.563  -4.157  0.00  0.00     0.017 A 
ATOM      5  C4  UNL d   1       3.909   3.484  -2.917  0.00  0.00     0.017 A 
ATOM      6  C5  UNL d   1       4.315   4.317  -1.870  0.00  0.00     0.034 A 
ATOM      7 Cl   UNL d   1       2.611   2.384  -2.614  0.00  0.00    -0.070 Cl
ATOM      8 Cl1  UNL d   1       4.108   2.569  -5.499  0.00  0.00    -0.070 Cl
ENDROOT
TORSDOF 0
ENDMDL
