MODEL 1
REMARK minimizedAffinity 13.6432724
REMARK minimizedRMSD -1
REMARK  0 active torsions:
REMARK  status: ('A' for Active; 'I' for Inactive)
ROOT
ATOM      1  C   UNL d   1       2.665   2.415  -2.018  0.00  0.00     0.020 A 
ATOM      2  C1  UNL d   1       2.665   2.389  -3.412  0.00  0.00     0.020 A 
ATOM      3  C2  UNL d   1       3.704   2.995  -4.121  0.00  0.00     0.034 A 
ATOM      4  C3  UNL d   1       4.748   3.629  -3.437  0.00  0.00     0.017 A 
ATOM      5  C4  UNL d   1       4.747   3.655  -2.038  0.00  0.00     0.017 A 
ATOM      6  C5  UNL d   1       3.704   3.046  -1.333  0.00  0.00     0.034 A 
ATOM      7 Cl   UNL d   1       6.000   4.418  -1.124  0.00  0.00    -0.070 Cl
ATOM      8 Cl1  UNL d   1       6.000   4.357  -4.379  0.00  0.00    -0.070 Cl
ENDROOT
TORSDOF 0
ENDMDL
