MODEL 1
REMARK minimizedAffinity 21.5755234
REMARK minimizedRMSD -1
REMARK  0 active torsions:
REMARK  status: ('A' for Active; 'I' for Inactive)
ROOT
ATOM      1  C   UNL d   1       1.447   1.780  -0.608  0.00  0.00     0.020 A 
ATOM      2  C1  UNL d   1       2.813   1.572  -0.792  0.00  0.00     0.020 A 
ATOM      3  C2  UNL d   1       3.436   2.019  -1.959  0.00  0.00     0.034 A 
ATOM      4  C3  UNL d   1       2.693   2.676  -2.947  0.00  0.00     0.017 A 
ATOM      5  C4  UNL d   1       1.322   2.884  -2.761  0.00  0.00     0.017 A 
ATOM      6  C5  UNL d   1       0.703   2.435  -1.590  0.00  0.00     0.034 A 
ATOM      7 Cl   UNL d   1       0.339   3.686  -3.935  0.00  0.00    -0.070 Cl
ATOM      8 Cl1  UNL d   1       3.529   3.201  -4.365  0.00  0.00    -0.070 Cl
ENDROOT
TORSDOF 0
ENDMDL
