MODEL 1
REMARK minimizedAffinity 9.24235439
REMARK minimizedRMSD -1
REMARK  2 active torsions:
REMARK  status: ('A' for Active; 'I' for Inactive)
REMARK    1  A    between atoms: C1_2  and  C2_3 
REMARK    2  A    between atoms: C2_3  and  C3_4 
ROOT
ATOM      1  C3  UNL d   1       5.177  -4.738  -1.275  0.00  0.00    -0.075 A 
ATOM      2  C4  UNL d   1       4.947  -5.911  -0.541  0.00  0.00     0.002 A 
ATOM      3  C5  UNL d   1       5.228  -5.959   0.825  0.00  0.00     0.002 A 
ATOM      4  C6  UNL d   1       5.751  -4.841   1.471  0.00  0.00    -0.004 A 
ATOM      5  C7  UNL d   1       5.999  -3.676   0.749  0.00  0.00     0.002 A 
ATOM      6  C8  UNL d   1       5.715  -3.623  -0.617  0.00  0.00     0.002 A 
ENDROOT
BRANCH   1   7
ATOM      7  C2  UNL d   1       4.847  -4.670  -2.747  0.00  0.00     0.056 C 
BRANCH   7   8
ATOM      8  C1  UNL d   1       3.443  -4.135  -3.047  0.00  0.00     0.007 C 
ATOM      9  C   UNL d   1       3.429  -3.053  -4.119  0.00  0.00     0.009 C 
ENDBRANCH   7   8
ENDBRANCH   1   7
TORSDOF 2
ENDMDL
