MODEL 1
REMARK minimizedAffinity -2.6871717
REMARK minimizedRMSD -1
REMARK  2 active torsions:
REMARK  status: ('A' for Active; 'I' for Inactive)
REMARK    1  A    between atoms: C1_2  and  C2_3 
REMARK    2  A    between atoms: C2_3  and  C3_4 
ROOT
ATOM      1  C3  UNL d   1       0.088  -0.018   0.079  0.00  0.00    -0.075 A 
ATOM      2  C4  UNL d   1      -0.316  -0.391   1.369  0.00  0.00     0.002 A 
ATOM      3  C5  UNL d   1      -1.187   0.418   2.100  0.00  0.00     0.002 A 
ATOM      4  C6  UNL d   1      -1.654   1.613   1.557  0.00  0.00    -0.004 A 
ATOM      5  C7  UNL d   1      -1.245   2.001   0.283  0.00  0.00     0.002 A 
ATOM      6  C8  UNL d   1      -0.378   1.191  -0.452  0.00  0.00     0.002 A 
ENDROOT
BRANCH   1   7
ATOM      7  C2  UNL d   1       1.006  -0.904  -0.729  0.00  0.00     0.056 C 
BRANCH   7   8
ATOM      8  C1  UNL d   1       0.312  -1.632  -1.884  0.00  0.00     0.007 C 
ATOM      9  C   UNL d   1       0.593  -3.129  -1.906  0.00  0.00     0.009 C 
ENDBRANCH   7   8
ENDBRANCH   1   7
TORSDOF 2
ENDMDL
