MODEL 1
REMARK minimizedAffinity -0.609899759
REMARK minimizedRMSD -1
REMARK  2 active torsions:
REMARK  status: ('A' for Active; 'I' for Inactive)
REMARK    1  A    between atoms: C1_2  and  C2_3 
REMARK    2  A    between atoms: C2_3  and  C3_4 
ROOT
ATOM      1  C3  UNL d   1      -0.865   1.085  -0.115  0.00  0.00    -0.075 A 
ATOM      2  C4  UNL d   1      -1.537   1.992   0.718  0.00  0.00     0.002 A 
ATOM      3  C5  UNL d   1      -1.486   1.851   2.105  0.00  0.00     0.002 A 
ATOM      4  C6  UNL d   1      -0.772   0.800   2.676  0.00  0.00    -0.004 A 
ATOM      5  C7  UNL d   1      -0.114  -0.116   1.858  0.00  0.00     0.002 A 
ATOM      6  C8  UNL d   1      -0.160   0.025   0.470  0.00  0.00     0.002 A 
ENDROOT
BRANCH   1   7
ATOM      7  C2  UNL d   1      -0.892   1.249  -1.616  0.00  0.00     0.056 C 
BRANCH   7   8
ATOM      8  C1  UNL d   1      -0.129   2.478  -2.123  0.00  0.00     0.007 C 
ATOM      9  C   UNL d   1       1.358   2.221  -2.323  0.00  0.00     0.009 C 
ENDBRANCH   7   8
ENDBRANCH   1   7
TORSDOF 2
ENDMDL
