MODEL 1
REMARK minimizedAffinity -3.05843377
REMARK minimizedRMSD -1
REMARK  2 active torsions:
REMARK  status: ('A' for Active; 'I' for Inactive)
REMARK    1  A    between atoms: C1_2  and  C2_3 
REMARK    2  A    between atoms: C2_3  and  C3_4 
ROOT
ATOM      1  C3  UNL d   1       0.418  -0.489   0.180  0.00  0.00    -0.075 A 
ATOM      2  C4  UNL d   1       0.552   0.670  -0.598  0.00  0.00     0.002 A 
ATOM      3  C5  UNL d   1       0.048   1.889  -0.146  0.00  0.00     0.002 A 
ATOM      4  C6  UNL d   1      -0.605   1.964   1.083  0.00  0.00    -0.004 A 
ATOM      5  C7  UNL d   1      -0.759   0.815   1.856  0.00  0.00     0.002 A 
ATOM      6  C8  UNL d   1      -0.251  -0.405   1.408  0.00  0.00     0.002 A 
ENDROOT
BRANCH   1   7
ATOM      7  C2  UNL d   1       0.988  -1.806  -0.291  0.00  0.00     0.056 C 
BRANCH   7   8
ATOM      8  C1  UNL d   1       0.364  -2.327  -1.590  0.00  0.00     0.007 C 
ATOM      9  C   UNL d   1       0.736  -3.771  -1.897  0.00  0.00     0.009 C 
ENDBRANCH   7   8
ENDBRANCH   1   7
TORSDOF 2
ENDMDL
