MODEL 1
REMARK minimizedAffinity -3.91189408
REMARK minimizedRMSD -1
REMARK  2 active torsions:
REMARK  status: ('A' for Active; 'I' for Inactive)
REMARK    1  A    between atoms: C1_2  and  C2_3 
REMARK    2  A    between atoms: C2_3  and  C3_4 
ROOT
ATOM      1  C3  UNL d   1       0.413  -1.150  -0.530  0.00  0.00    -0.075 A 
ATOM      2  C4  UNL d   1      -0.728  -1.801  -1.021  0.00  0.00     0.002 A 
ATOM      3  C5  UNL d   1      -0.643  -2.635  -2.136  0.00  0.00     0.002 A 
ATOM      4  C6  UNL d   1       0.579  -2.821  -2.779  0.00  0.00    -0.004 A 
ATOM      5  C7  UNL d   1       1.716  -2.166  -2.310  0.00  0.00     0.002 A 
ATOM      6  C8  UNL d   1       1.634  -1.334  -1.192  0.00  0.00     0.002 A 
ENDROOT
BRANCH   1   7
ATOM      7  C2  UNL d   1       0.333  -0.269   0.694  0.00  0.00     0.056 C 
BRANCH   7   8
ATOM      8  C1  UNL d   1      -1.041  -0.267   1.372  0.00  0.00     0.007 C 
ATOM      9  C   UNL d   1      -1.291   0.973   2.220  0.00  0.00     0.009 C 
ENDBRANCH   7   8
ENDBRANCH   1   7
TORSDOF 2
ENDMDL
