MODEL 1
REMARK minimizedAffinity 3.22630143
REMARK minimizedRMSD -1
REMARK  2 active torsions:
REMARK  status: ('A' for Active; 'I' for Inactive)
REMARK    1  A    between atoms: C1_2  and  C2_3 
REMARK    2  A    between atoms: C2_3  and  C3_4 
ROOT
ATOM      1  C3  UNL d   1      -0.426   1.050   0.411  0.00  0.00    -0.075 A 
ATOM      2  C4  UNL d   1      -0.705  -0.309   0.615  0.00  0.00     0.002 A 
ATOM      3  C5  UNL d   1      -1.002  -0.787   1.892  0.00  0.00     0.002 A 
ATOM      4  C6  UNL d   1      -1.014   0.084   2.980  0.00  0.00    -0.004 A 
ATOM      5  C7  UNL d   1      -0.722   1.433   2.791  0.00  0.00     0.002 A 
ATOM      6  C8  UNL d   1      -0.429   1.915   1.514  0.00  0.00     0.002 A 
ENDROOT
BRANCH   1   7
ATOM      7  C2  UNL d   1      -0.132   1.579  -0.973  0.00  0.00     0.056 C 
BRANCH   7   8
ATOM      8  C1  UNL d   1      -1.105   1.086  -2.049  0.00  0.00     0.007 C 
ATOM      9  C   UNL d   1      -2.378   1.917  -2.134  0.00  0.00     0.009 C 
ENDBRANCH   7   8
ENDBRANCH   1   7
TORSDOF 2
ENDMDL
