MODEL 1
REMARK minimizedAffinity -4.39356852
REMARK minimizedRMSD -1
REMARK  2 active torsions:
REMARK  status: ('A' for Active; 'I' for Inactive)
REMARK    1  A    between atoms: C1_2  and  C2_3 
REMARK    2  A    between atoms: C2_3  and  C3_4 
ROOT
ATOM      1  C3  UNL d   1      -1.208   0.934   0.667  0.00  0.00    -0.075 A 
ATOM      2  C4  UNL d   1      -0.503   0.103   1.550  0.00  0.00     0.002 A 
ATOM      3  C5  UNL d   1       0.500  -0.744   1.077  0.00  0.00     0.002 A 
ATOM      4  C6  UNL d   1       0.802  -0.779  -0.283  0.00  0.00    -0.004 A 
ATOM      5  C7  UNL d   1       0.096   0.029  -1.171  0.00  0.00     0.002 A 
ATOM      6  C8  UNL d   1      -0.904   0.881  -0.700  0.00  0.00     0.002 A 
ENDROOT
BRANCH   1   7
ATOM      7  C2  UNL d   1      -2.274   1.874   1.176  0.00  0.00     0.056 C 
BRANCH   7   8
ATOM      8  C1  UNL d   1      -1.854   3.348   1.183  0.00  0.00     0.007 C 
ATOM      9  C   UNL d   1      -0.390   3.557   0.820  0.00  0.00     0.009 C 
ENDBRANCH   7   8
ENDBRANCH   1   7
TORSDOF 2
ENDMDL
