MODEL 1
REMARK minimizedAffinity 5.15766621
REMARK minimizedRMSD -1
REMARK  2 active torsions:
REMARK  status: ('A' for Active; 'I' for Inactive)
REMARK    1  A    between atoms: C1_2  and  C2_3 
REMARK    2  A    between atoms: C2_3  and  C3_4 
ROOT
ATOM      1  C3  UNL d   1      -0.459   0.685   1.594  0.00  0.00    -0.075 A 
ATOM      2  C4  UNL d   1       0.058  -0.523   2.084  0.00  0.00     0.002 A 
ATOM      3  C5  UNL d   1       0.905  -1.302   1.297  0.00  0.00     0.002 A 
ATOM      4  C6  UNL d   1       1.238  -0.891   0.008  0.00  0.00    -0.004 A 
ATOM      5  C7  UNL d   1       0.717   0.299  -0.496  0.00  0.00     0.002 A 
ATOM      6  C8  UNL d   1      -0.128   1.083   0.292  0.00  0.00     0.002 A 
ENDROOT
BRANCH   1   7
ATOM      7  C2  UNL d   1      -1.353   1.548   2.452  0.00  0.00     0.056 C 
BRANCH   7   8
ATOM      8  C1  UNL d   1      -0.644   2.754   3.076  0.00  0.00     0.007 C 
ATOM      9  C   UNL d   1       0.114   2.412   4.351  0.00  0.00     0.009 C 
ENDBRANCH   7   8
ENDBRANCH   1   7
TORSDOF 2
ENDMDL
