MODEL 1
REMARK minimizedAffinity -3.31318736
REMARK minimizedRMSD -1
REMARK  2 active torsions:
REMARK  status: ('A' for Active; 'I' for Inactive)
REMARK    1  A    between atoms: C1_2  and  C2_3 
REMARK    2  A    between atoms: C2_3  and  C3_4 
ROOT
ATOM      1  C3  UNL d   1      -0.251   0.224   0.117  0.00  0.00    -0.075 A 
ATOM      2  C4  UNL d   1      -0.047   0.550   1.465  0.00  0.00     0.002 A 
ATOM      3  C5  UNL d   1      -0.861   1.489   2.098  0.00  0.00     0.002 A 
ATOM      4  C6  UNL d   1      -1.881   2.121   1.390  0.00  0.00    -0.004 A 
ATOM      5  C7  UNL d   1      -2.082   1.818   0.045  0.00  0.00     0.002 A 
ATOM      6  C8  UNL d   1      -1.271   0.875  -0.589  0.00  0.00     0.002 A 
ENDROOT
BRANCH   1   7
ATOM      7  C2  UNL d   1       0.608  -0.814  -0.566  0.00  0.00     0.056 C 
BRANCH   7   8
ATOM      8  C1  UNL d   1      -0.097  -1.554  -1.707  0.00  0.00     0.007 C 
ATOM      9  C   UNL d   1       0.317  -3.015  -1.821  0.00  0.00     0.009 C 
ENDBRANCH   7   8
ENDBRANCH   1   7
TORSDOF 2
ENDMDL
