MODEL 1
REMARK minimizedAffinity -2.47849059
REMARK minimizedRMSD -1
REMARK  2 active torsions:
REMARK  status: ('A' for Active; 'I' for Inactive)
REMARK    1  A    between atoms: C1_2  and  C2_3 
REMARK    2  A    between atoms: C2_3  and  C3_4 
ROOT
ATOM      1  C3  UNL d   1      -0.397   0.273  -0.100  0.00  0.00    -0.075 A 
ATOM      2  C4  UNL d   1      -0.378   0.130   1.295  0.00  0.00     0.002 A 
ATOM      3  C5  UNL d   1      -0.900   1.130   2.117  0.00  0.00     0.002 A 
ATOM      4  C6  UNL d   1      -1.437   2.287   1.557  0.00  0.00    -0.004 A 
ATOM      5  C7  UNL d   1      -1.446   2.447   0.173  0.00  0.00     0.002 A 
ATOM      6  C8  UNL d   1      -0.928   1.447  -0.652  0.00  0.00     0.002 A 
ENDROOT
BRANCH   1   7
ATOM      7  C2  UNL d   1       0.139  -0.817  -0.996  0.00  0.00     0.056 C 
BRANCH   7   8
ATOM      8  C1  UNL d   1      -0.944  -1.588  -1.757  0.00  0.00     0.007 C 
ATOM      9  C   UNL d   1      -0.590  -3.051  -1.988  0.00  0.00     0.009 C 
ENDBRANCH   7   8
ENDBRANCH   1   7
TORSDOF 2
ENDMDL
