MODEL 1
REMARK minimizedAffinity -3.64057255
REMARK minimizedRMSD -1
REMARK  2 active torsions:
REMARK  status: ('A' for Active; 'I' for Inactive)
REMARK    1  A    between atoms: C1_2  and  C2_3 
REMARK    2  A    between atoms: C2_3  and  C3_4 
ROOT
ATOM      1  C3  UNL d   1      -0.462   0.496   0.379  0.00  0.00    -0.075 A 
ATOM      2  C4  UNL d   1      -1.425  -0.429  -0.048  0.00  0.00     0.002 A 
ATOM      3  C5  UNL d   1      -2.755  -0.307   0.357  0.00  0.00     0.002 A 
ATOM      4  C6  UNL d   1      -3.136   0.733   1.202  0.00  0.00    -0.004 A 
ATOM      5  C7  UNL d   1      -2.184   1.649   1.647  0.00  0.00     0.002 A 
ATOM      6  C8  UNL d   1      -0.854   1.532   1.239  0.00  0.00     0.002 A 
ENDROOT
BRANCH   1   7
ATOM      7  C2  UNL d   1       0.972   0.387  -0.080  0.00  0.00     0.056 C 
BRANCH   7   8
ATOM      8  C1  UNL d   1       1.267   1.132  -1.386  0.00  0.00     0.007 C 
ATOM      9  C   UNL d   1       0.277   2.253  -1.675  0.00  0.00     0.009 C 
ENDBRANCH   7   8
ENDBRANCH   1   7
TORSDOF 2
ENDMDL
