MODEL 1
REMARK minimizedAffinity -3.80238175
REMARK minimizedRMSD -1
REMARK  2 active torsions:
REMARK  status: ('A' for Active; 'I' for Inactive)
REMARK    1  A    between atoms: C1_2  and  C2_3 
REMARK    2  A    between atoms: C2_3  and  C3_4 
ROOT
ATOM      1  C3  UNL d   1       0.163  -0.240   0.214  0.00  0.00    -0.075 A 
ATOM      2  C4  UNL d   1      -0.137  -0.205   1.583  0.00  0.00     0.002 A 
ATOM      3  C5  UNL d   1      -1.051   0.721   2.086  0.00  0.00     0.002 A 
ATOM      4  C6  UNL d   1      -1.668   1.630   1.229  0.00  0.00    -0.004 A 
ATOM      5  C7  UNL d   1      -1.365   1.616  -0.131  0.00  0.00     0.002 A 
ATOM      6  C8  UNL d   1      -0.454   0.687  -0.637  0.00  0.00     0.002 A 
ENDROOT
BRANCH   1   7
ATOM      7  C2  UNL d   1       1.129  -1.259  -0.340  0.00  0.00     0.056 C 
BRANCH   7   8
ATOM      8  C1  UNL d   1       0.573  -2.071  -1.515  0.00  0.00     0.007 C 
ATOM      9  C   UNL d   1       1.116  -3.492  -1.574  0.00  0.00     0.009 C 
ENDBRANCH   7   8
ENDBRANCH   1   7
TORSDOF 2
ENDMDL
