MODEL 1
REMARK minimizedAffinity 10.8605413
REMARK minimizedRMSD -1
REMARK  1 active torsions:
REMARK  status: ('A' for Active; 'I' for Inactive)
REMARK    1  A    between atoms: C1_2  and  C2_3 
ROOT
ATOM      1  C2  UNL d   1      -4.638   0.664  -2.782  0.00  0.00    -0.081 A 
ATOM      2  C3  UNL d   1      -4.186   1.133  -4.021  0.00  0.00     0.006 A 
ATOM      3  C4  UNL d   1      -4.634   2.358  -4.521  0.00  0.00     0.002 A 
ATOM      4  C5  UNL d   1      -5.534   3.137  -3.787  0.00  0.00    -0.080 A 
ATOM      5  C6  UNL d   1      -6.000   4.468  -4.299  0.00  0.00     0.076 C 
ATOM      6  C7  UNL d   1      -6.000   2.661  -2.557  0.00  0.00     0.002 A 
ATOM      7  C8  UNL d   1      -5.553   1.435  -2.058  0.00  0.00     0.006 A 
ENDROOT
BRANCH   1   8
ATOM      8  C1  UNL d   1      -4.107  -0.626  -2.211  0.00  0.00     0.054 C 
ATOM      9  C   UNL d   1      -5.240  -1.557  -1.801  0.00  0.00     0.018 C 
ENDBRANCH   1   8
TORSDOF 1
ENDMDL
