MODEL 1
REMARK minimizedAffinity 7.86113644
REMARK minimizedRMSD -1
REMARK  1 active torsions:
REMARK  status: ('A' for Active; 'I' for Inactive)
REMARK    1  A    between atoms: C1_2  and  C2_3 
ROOT
ATOM      1  C2  UNL d   1      -4.764  -2.089  -4.035  0.00  0.00    -0.081 A 
ATOM      2  C3  UNL d   1      -4.398  -2.334  -5.364  0.00  0.00     0.006 A 
ATOM      3  C4  UNL d   1      -4.785  -3.517  -5.999  0.00  0.00     0.002 A 
ATOM      4  C5  UNL d   1      -5.551  -4.469  -5.318  0.00  0.00    -0.080 A 
ATOM      5  C6  UNL d   1      -5.998  -5.729  -5.997  0.00  0.00     0.076 C 
ATOM      6  C7  UNL d   1      -5.902  -4.232  -3.985  0.00  0.00     0.002 A 
ATOM      7  C8  UNL d   1      -5.514  -3.050  -3.350  0.00  0.00     0.006 A 
ENDROOT
BRANCH   1   8
ATOM      8  C1  UNL d   1      -4.403  -0.786  -3.369  0.00  0.00     0.054 C 
ATOM      9  C   UNL d   1      -4.496   0.379  -4.344  0.00  0.00     0.018 C 
ENDBRANCH   1   8
TORSDOF 1
ENDMDL
