MODEL 1
REMARK minimizedAffinity 11.2429428
REMARK minimizedRMSD -1
REMARK  1 active torsions:
REMARK  status: ('A' for Active; 'I' for Inactive)
REMARK    1  A    between atoms: C1_2  and  C2_3 
ROOT
ATOM      1  C2  UNL d   1      -4.191   3.019   0.651  0.00  0.00    -0.081 A 
ATOM      2  C3  UNL d   1      -3.011   3.256  -0.066  0.00  0.00     0.006 A 
ATOM      3  C4  UNL d   1      -2.075   2.235  -0.247  0.00  0.00     0.002 A 
ATOM      4  C5  UNL d   1      -2.306   0.959   0.278  0.00  0.00    -0.080 A 
ATOM      5  C6  UNL d   1      -1.324  -0.154   0.065  0.00  0.00     0.076 C 
ATOM      6  C7  UNL d   1      -3.476   0.727   1.010  0.00  0.00     0.002 A 
ATOM      7  C8  UNL d   1      -4.412   1.747   1.192  0.00  0.00     0.006 A 
ENDROOT
BRANCH   1   8
ATOM      8  C1  UNL d   1      -5.232   4.100   0.793  0.00  0.00     0.054 C 
ATOM      9  C   UNL d   1      -5.997   4.305  -0.506  0.00  0.00     0.018 C 
ENDBRANCH   1   8
TORSDOF 1
ENDMDL
