MODEL 1
REMARK minimizedAffinity 0.51805675
REMARK minimizedRMSD -1
REMARK  1 active torsions:
REMARK  status: ('A' for Active; 'I' for Inactive)
REMARK    1  A    between atoms: C1_2  and  C2_3 
ROOT
ATOM      1  C2  UNL d   1       1.985  -3.905   4.690  0.00  0.00    -0.081 A 
ATOM      2  C3  UNL d   1       3.238  -3.634   4.126  0.00  0.00     0.006 A 
ATOM      3  C4  UNL d   1       3.397  -2.576   3.228  0.00  0.00     0.002 A 
ATOM      4  C5  UNL d   1       2.308  -1.767   2.885  0.00  0.00    -0.080 A 
ATOM      5  C6  UNL d   1       2.472  -0.609   1.945  0.00  0.00     0.076 C 
ATOM      6  C7  UNL d   1       1.053  -2.048   3.434  0.00  0.00     0.002 A 
ATOM      7  C8  UNL d   1       0.893  -3.106   4.332  0.00  0.00     0.006 A 
ENDROOT
BRANCH   1   8
ATOM      8  C1  UNL d   1       1.824  -5.005   5.708  0.00  0.00     0.054 C 
ATOM      9  C   UNL d   1       0.355  -5.281   5.996  0.00  0.00     0.018 C 
ENDBRANCH   1   8
TORSDOF 1
ENDMDL
