MODEL 1
REMARK minimizedAffinity 8.5634861
REMARK minimizedRMSD -1
REMARK  1 active torsions:
REMARK  status: ('A' for Active; 'I' for Inactive)
REMARK    1  A    between atoms: C1_2  and  C2_3 
ROOT
ATOM      1  C2  UNL d   1       1.930  -2.310   3.142  0.00  0.00    -0.081 A 
ATOM      2  C3  UNL d   1       2.685  -1.776   4.193  0.00  0.00     0.006 A 
ATOM      3  C4  UNL d   1       3.388  -2.618   5.058  0.00  0.00     0.002 A 
ATOM      4  C5  UNL d   1       3.353  -4.005   4.883  0.00  0.00    -0.080 A 
ATOM      5  C6  UNL d   1       4.127  -4.918   5.787  0.00  0.00     0.076 C 
ATOM      6  C7  UNL d   1       2.584  -4.540   3.844  0.00  0.00     0.002 A 
ATOM      7  C8  UNL d   1       1.881  -3.699   2.979  0.00  0.00     0.006 A 
ENDROOT
BRANCH   1   8
ATOM      8  C1  UNL d   1       1.223  -1.403   2.167  0.00  0.00     0.054 C 
ATOM      9  C   UNL d   1       2.035  -0.144   1.895  0.00  0.00     0.018 C 
ENDBRANCH   1   8
TORSDOF 1
ENDMDL
