MODEL 1
REMARK minimizedAffinity 10.081954
REMARK minimizedRMSD -1
REMARK  1 active torsions:
REMARK  status: ('A' for Active; 'I' for Inactive)
REMARK    1  A    between atoms: C1_2  and  C2_3 
ROOT
ATOM      1  C2  UNL d   1       1.694  -2.095   3.252  0.00  0.00    -0.081 A 
ATOM      2  C3  UNL d   1       0.765  -3.143   3.261  0.00  0.00     0.006 A 
ATOM      3  C4  UNL d   1       1.050  -4.336   3.931  0.00  0.00     0.002 A 
ATOM      4  C5  UNL d   1       2.263  -4.497   4.609  0.00  0.00    -0.080 A 
ATOM      5  C6  UNL d   1       2.569  -5.760   5.357  0.00  0.00     0.076 C 
ATOM      6  C7  UNL d   1       3.198  -3.457   4.585  0.00  0.00     0.002 A 
ATOM      7  C8  UNL d   1       2.915  -2.265   3.914  0.00  0.00     0.006 A 
ENDROOT
BRANCH   1   8
ATOM      8  C1  UNL d   1       1.363  -0.784   2.585  0.00  0.00     0.054 C 
ATOM      9  C   UNL d   1       2.347  -0.468   1.468  0.00  0.00     0.018 C 
ENDBRANCH   1   8
TORSDOF 1
ENDMDL
