MODEL 1
REMARK minimizedAffinity 11.9349003
REMARK minimizedRMSD -1
REMARK  1 active torsions:
REMARK  status: ('A' for Active; 'I' for Inactive)
REMARK    1  A    between atoms: C1_2  and  C2_3 
ROOT
ATOM      1  C2  UNL d   1       1.325  -4.759   4.505  0.00  0.00    -0.081 A 
ATOM      2  C3  UNL d   1       2.460  -3.954   4.662  0.00  0.00     0.006 A 
ATOM      3  C4  UNL d   1       2.613  -2.789   3.906  0.00  0.00     0.002 A 
ATOM      4  C5  UNL d   1       1.629  -2.406   2.988  0.00  0.00    -0.080 A 
ATOM      5  C6  UNL d   1       1.766  -1.142   2.192  0.00  0.00     0.076 C 
ATOM      6  C7  UNL d   1       0.503  -3.219   2.819  0.00  0.00     0.002 A 
ATOM      7  C8  UNL d   1       0.351  -4.384   3.574  0.00  0.00     0.006 A 
ENDROOT
BRANCH   1   8
ATOM      8  C1  UNL d   1       1.128  -5.981   5.365  0.00  0.00     0.054 C 
ATOM      9  C   UNL d   1      -0.260  -6.000   5.990  0.00  0.00     0.018 C 
ENDBRANCH   1   8
TORSDOF 1
ENDMDL
