MODEL 1
REMARK minimizedAffinity 0.502038717
REMARK minimizedRMSD -1
REMARK  1 active torsions:
REMARK  status: ('A' for Active; 'I' for Inactive)
REMARK    1  A    between atoms: C1_2  and  C2_3 
ROOT
ATOM      1  C2  UNL d   1       2.632   3.365  -5.475  0.00  0.00    -0.073 A 
ATOM      2  C3  UNL d   1       2.980   2.348  -4.579  0.00  0.00    -0.002 A 
ATOM      3  C4  UNL d   1       4.301   2.208  -4.151  0.00  0.00     0.004 A 
ATOM      4  C5  UNL d   1       5.284   3.085  -4.608  0.00  0.00    -0.004 A 
ATOM      5  C6  UNL d   1       4.953   4.115  -5.494  0.00  0.00    -0.075 A 
ATOM      6  C7  UNL d   1       5.999   5.066  -5.997  0.00  0.00     0.076 C 
ATOM      7  C8  UNL d   1       3.625   4.248  -5.922  0.00  0.00     0.001 A 
ENDROOT
BRANCH   1   8
ATOM      8  C1  UNL d   1       1.206   3.524  -5.936  0.00  0.00     0.053 C 
ATOM      9  C   UNL d   1       0.786   4.984  -5.995  0.00  0.00     0.018 C 
ENDBRANCH   1   8
TORSDOF 1
ENDMDL
