MODEL 1
REMARK minimizedAffinity -4.11599588
REMARK minimizedRMSD -1
REMARK  1 active torsions:
REMARK  status: ('A' for Active; 'I' for Inactive)
REMARK    1  A    between atoms: C1_2  and  C2_3 
ROOT
ATOM      1  C2  UNL d   1       2.106   4.372  -5.351  0.00  0.00    -0.073 A 
ATOM      2  C3  UNL d   1       3.002   5.255  -5.963  0.00  0.00    -0.002 A 
ATOM      3  C4  UNL d   1       4.367   4.962  -5.997  0.00  0.00     0.004 A 
ATOM      4  C5  UNL d   1       4.847   3.784  -5.426  0.00  0.00    -0.004 A 
ATOM      5  C6  UNL d   1       3.965   2.884  -4.820  0.00  0.00    -0.075 A 
ATOM      6  C7  UNL d   1       4.465   1.613  -4.199  0.00  0.00     0.076 C 
ATOM      7  C8  UNL d   1       2.596   3.185  -4.787  0.00  0.00     0.001 A 
ENDROOT
BRANCH   1   8
ATOM      8  C1  UNL d   1       0.631   4.680  -5.317  0.00  0.00     0.053 C 
ATOM      9  C   UNL d   1       0.309   6.000  -6.000  0.00  0.00     0.018 C 
ENDBRANCH   1   8
TORSDOF 1
ENDMDL
