MODEL 1
REMARK minimizedAffinity 10.5503283
REMARK minimizedRMSD -1
REMARK  1 active torsions:
REMARK  status: ('A' for Active; 'I' for Inactive)
REMARK    1  A    between atoms: C1_2  and  C2_3 
ROOT
ATOM      1  C2  UNL d   1      -2.563  -3.610   4.081  0.00  0.00    -0.073 A 
ATOM      2  C3  UNL d   1      -1.937  -4.862   4.055  0.00  0.00    -0.002 A 
ATOM      3  C4  UNL d   1      -2.620  -6.000   4.485  0.00  0.00     0.004 A 
ATOM      4  C5  UNL d   1      -3.936  -5.900   4.938  0.00  0.00    -0.004 A 
ATOM      5  C6  UNL d   1      -4.582  -4.660   4.960  0.00  0.00    -0.075 A 
ATOM      6  C7  UNL d   1      -5.996  -4.535   5.446  0.00  0.00     0.076 C 
ATOM      7  C8  UNL d   1      -3.888  -3.521   4.529  0.00  0.00     0.001 A 
ENDROOT
BRANCH   1   8
ATOM      8  C1  UNL d   1      -1.831  -2.379   3.612  0.00  0.00     0.053 C 
ATOM      9  C   UNL d   1      -1.343  -2.518   2.179  0.00  0.00     0.018 C 
ENDBRANCH   1   8
TORSDOF 1
ENDMDL
