MODEL 1
REMARK minimizedAffinity -1.87773979
REMARK minimizedRMSD -1
REMARK  1 active torsions:
REMARK  status: ('A' for Active; 'I' for Inactive)
REMARK    1  A    between atoms: C1_2  and  C2_3 
ROOT
ATOM      1  C2  UNL d   1       2.615   4.148  -5.824  0.00  0.00    -0.073 A 
ATOM      2  C3  UNL d   1       3.045   2.828  -5.648  0.00  0.00    -0.002 A 
ATOM      3  C4  UNL d   1       4.408   2.532  -5.592  0.00  0.00     0.004 A 
ATOM      4  C5  UNL d   1       5.353   3.552  -5.704  0.00  0.00    -0.004 A 
ATOM      5  C6  UNL d   1       4.942   4.879  -5.868  0.00  0.00    -0.075 A 
ATOM      6  C7  UNL d   1       5.946   5.987  -5.991  0.00  0.00     0.076 C 
ATOM      7  C8  UNL d   1       3.572   5.168  -5.926  0.00  0.00     0.001 A 
ENDROOT
BRANCH   1   8
ATOM      8  C1  UNL d   1       1.144   4.473  -5.878  0.00  0.00     0.053 C 
ATOM      9  C   UNL d   1       0.895   5.968  -5.999  0.00  0.00     0.018 C 
ENDBRANCH   1   8
TORSDOF 1
ENDMDL
