MODEL 1
REMARK minimizedAffinity -1.40684116
REMARK minimizedRMSD -1
REMARK  1 active torsions:
REMARK  status: ('A' for Active; 'I' for Inactive)
REMARK    1  A    between atoms: C1_2  and  C2_3 
ROOT
ATOM      1  C2  UNL d   1       3.983   3.164  -5.056  0.00  0.00    -0.073 A 
ATOM      2  C3  UNL d   1       4.871   4.138  -5.527  0.00  0.00    -0.002 A 
ATOM      3  C4  UNL d   1       4.391   5.360  -6.000  0.00  0.00     0.004 A 
ATOM      4  C5  UNL d   1       3.022   5.624  -6.000  0.00  0.00    -0.004 A 
ATOM      5  C6  UNL d   1       2.119   4.669  -5.522  0.00  0.00    -0.075 A 
ATOM      6  C7  UNL d   1       0.643   4.937  -5.517  0.00  0.00     0.076 C 
ATOM      7  C8  UNL d   1       2.608   3.443  -5.052  0.00  0.00     0.001 A 
ENDROOT
BRANCH   1   8
ATOM      8  C1  UNL d   1       4.496   1.846  -4.539  0.00  0.00     0.053 C 
ATOM      9  C   UNL d   1       3.569   0.694  -4.894  0.00  0.00     0.018 C 
ENDBRANCH   1   8
TORSDOF 1
ENDMDL
