MODEL 1
REMARK minimizedAffinity 12.0740147
REMARK minimizedRMSD -1
REMARK  1 active torsions:
REMARK  status: ('A' for Active; 'I' for Inactive)
REMARK    1  A    between atoms: C1_2  and  C2_3 
ROOT
ATOM      1  C2  UNL d   1      -1.897  -2.646  -3.311  0.00  0.00    -0.073 A 
ATOM      2  C3  UNL d   1      -2.166  -1.666  -4.273  0.00  0.00    -0.002 A 
ATOM      3  C4  UNL d   1      -1.828  -1.879  -5.610  0.00  0.00     0.004 A 
ATOM      4  C5  UNL d   1      -1.226  -3.074  -6.000  0.00  0.00    -0.004 A 
ATOM      5  C6  UNL d   1      -0.960  -4.071  -5.055  0.00  0.00    -0.075 A 
ATOM      6  C7  UNL d   1      -0.310  -5.362  -5.458  0.00  0.00     0.076 C 
ATOM      7  C8  UNL d   1      -1.299  -3.849  -3.714  0.00  0.00     0.001 A 
ENDROOT
BRANCH   1   8
ATOM      8  C1  UNL d   1      -2.266  -2.423  -1.867  0.00  0.00     0.053 C 
ATOM      9  C   UNL d   1      -1.989  -0.996  -1.422  0.00  0.00     0.018 C 
ENDBRANCH   1   8
TORSDOF 1
ENDMDL
