MODEL 1
REMARK minimizedAffinity -1.64655602
REMARK minimizedRMSD -1
REMARK  1 active torsions:
REMARK  status: ('A' for Active; 'I' for Inactive)
REMARK    1  A    between atoms: C1_2  and  C2_3 
ROOT
ATOM      1  C2  UNL d   1       3.728   2.948  -6.000  0.00  0.00    -0.073 A 
ATOM      2  C3  UNL d   1       4.851   3.784  -5.993  0.00  0.00    -0.002 A 
ATOM      3  C4  UNL d   1       4.697   5.171  -5.997  0.00  0.00     0.004 A 
ATOM      4  C5  UNL d   1       3.422   5.736  -5.999  0.00  0.00    -0.004 A 
ATOM      5  C6  UNL d   1       2.288   4.918  -5.994  0.00  0.00    -0.075 A 
ATOM      6  C7  UNL d   1       0.909   5.511  -5.999  0.00  0.00     0.076 C 
ATOM      7  C8  UNL d   1       2.450   3.526  -5.993  0.00  0.00     0.001 A 
ENDROOT
BRANCH   1   8
ATOM      8  C1  UNL d   1       3.888   1.450  -5.990  0.00  0.00     0.053 C 
ATOM      9  C   UNL d   1       4.496   0.951  -4.688  0.00  0.00     0.018 C 
ENDBRANCH   1   8
TORSDOF 1
ENDMDL
