MODEL 1
REMARK minimizedAffinity -3.25272655
REMARK minimizedRMSD -1
REMARK  1 active torsions:
REMARK  status: ('A' for Active; 'I' for Inactive)
REMARK    1  A    between atoms: C1_2  and  C2_3 
ROOT
ATOM      1  C2  UNL d   1       3.271   4.051  -5.240  0.00  0.00    -0.073 A 
ATOM      2  C3  UNL d   1       3.979   5.171  -5.690  0.00  0.00    -0.002 A 
ATOM      3  C4  UNL d   1       5.336   5.069  -6.000  0.00  0.00     0.004 A 
ATOM      4  C5  UNL d   1       5.996   3.848  -5.869  0.00  0.00    -0.004 A 
ATOM      5  C6  UNL d   1       5.303   2.714  -5.431  0.00  0.00    -0.075 A 
ATOM      6  C7  UNL d   1       6.000   1.393  -5.283  0.00  0.00     0.076 C 
ATOM      7  C8  UNL d   1       3.941   2.825  -5.120  0.00  0.00     0.001 A 
ENDROOT
BRANCH   1   8
ATOM      8  C1  UNL d   1       1.804   4.154  -4.910  0.00  0.00     0.053 C 
ATOM      9  C   UNL d   1       1.025   4.873  -6.000  0.00  0.00     0.018 C 
ENDBRANCH   1   8
TORSDOF 1
ENDMDL
