MODEL 1
REMARK minimizedAffinity -0.0802779943
REMARK minimizedRMSD -1
REMARK  1 active torsions:
REMARK  status: ('A' for Active; 'I' for Inactive)
REMARK    1  A    between atoms: C1_2  and  C2_3 
ROOT
ATOM      1  C2  UNL d   1       4.503   3.978  -5.936  0.00  0.00    -0.073 A 
ATOM      2  C3  UNL d   1       4.242   2.603  -5.954  0.00  0.00    -0.002 A 
ATOM      3  C4  UNL d   1       2.927   2.136  -5.979  0.00  0.00     0.004 A 
ATOM      4  C5  UNL d   1       1.862   3.036  -5.993  0.00  0.00    -0.004 A 
ATOM      5  C6  UNL d   1       2.103   4.414  -5.987  0.00  0.00    -0.075 A 
ATOM      6  C7  UNL d   1       0.968   5.395  -5.999  0.00  0.00     0.076 C 
ATOM      7  C8  UNL d   1       3.426   4.876  -5.960  0.00  0.00     0.001 A 
ENDROOT
BRANCH   1   8
ATOM      8  C1  UNL d   1       5.921   4.488  -5.916  0.00  0.00     0.053 C 
ATOM      9  C   UNL d   1       5.984   5.988  -5.678  0.00  0.00     0.018 C 
ENDBRANCH   1   8
TORSDOF 1
ENDMDL
