MODEL 1
REMARK minimizedAffinity 11.6044416
REMARK minimizedRMSD -1
REMARK  1 active torsions:
REMARK  status: ('A' for Active; 'I' for Inactive)
REMARK    1  A    between atoms: C1_2  and  C2_3 
ROOT
ATOM      1  C2  UNL d   1       0.426   4.773   0.402  0.00  0.00    -0.081 A 
ATOM      2  C3  UNL d   1       1.127   4.859   1.611  0.00  0.00     0.006 A 
ATOM      3  C4  UNL d   1       1.800   3.746   2.121  0.00  0.00     0.002 A 
ATOM      4  C5  UNL d   1       1.789   2.531   1.427  0.00  0.00    -0.080 A 
ATOM      5  C6  UNL d   1       2.533   1.337   1.947  0.00  0.00     0.076 C 
ATOM      6  C7  UNL d   1       1.075   2.440   0.227  0.00  0.00     0.002 A 
ATOM      7  C8  UNL d   1       0.401   3.552  -0.282  0.00  0.00     0.006 A 
ENDROOT
BRANCH   1   8
ATOM      8  C1  UNL d   1      -0.247   5.988  -0.182  0.00  0.00     0.054 C 
ATOM      9  C   UNL d   1      -1.750   5.783  -0.308  0.00  0.00     0.018 C 
ENDBRANCH   1   8
TORSDOF 1
ENDMDL
