MODEL 1
REMARK minimizedAffinity -0.244495049
REMARK minimizedRMSD -1
REMARK  1 active torsions:
REMARK  status: ('A' for Active; 'I' for Inactive)
REMARK    1  A    between atoms: C1_2  and  C2_3 
ROOT
ATOM      1  C2  UNL d   1       5.161   2.184  -3.686  0.00  0.00    -0.081 A 
ATOM      2  C3  UNL d   1       3.931   2.249  -4.351  0.00  0.00     0.006 A 
ATOM      3  C4  UNL d   1       3.184   3.429  -4.344  0.00  0.00     0.002 A 
ATOM      4  C5  UNL d   1       3.657   4.565  -3.679  0.00  0.00    -0.080 A 
ATOM      5  C6  UNL d   1       2.879   5.847  -3.688  0.00  0.00     0.076 C 
ATOM      6  C7  UNL d   1       4.879   4.495  -3.000  0.00  0.00     0.002 A 
ATOM      7  C8  UNL d   1       5.626   3.315  -3.006  0.00  0.00     0.006 A 
ENDROOT
BRANCH   1   8
ATOM      8  C1  UNL d   1       6.000   0.933  -3.747  0.00  0.00     0.054 C 
ATOM      9  C   UNL d   1       5.999   0.333  -5.146  0.00  0.00     0.018 C 
ENDBRANCH   1   8
TORSDOF 1
ENDMDL
