MODEL 1
REMARK minimizedAffinity 1.93671691
REMARK minimizedRMSD -1
REMARK  1 active torsions:
REMARK  status: ('A' for Active; 'I' for Inactive)
REMARK    1  A    between atoms: C1_2  and  C2_3 
ROOT
ATOM      1  C2  UNL d   1      -1.650  -0.596   1.177  0.00  0.00    -0.081 A 
ATOM      2  C3  UNL d   1      -0.463  -1.253   1.522  0.00  0.00     0.006 A 
ATOM      3  C4  UNL d   1       0.503  -1.528   0.552  0.00  0.00     0.002 A 
ATOM      4  C5  UNL d   1       0.302  -1.143  -0.778  0.00  0.00    -0.080 A 
ATOM      5  C6  UNL d   1       1.345  -1.405  -1.825  0.00  0.00     0.076 C 
ATOM      6  C7  UNL d   1      -0.891  -0.502  -1.127  0.00  0.00     0.002 A 
ATOM      7  C8  UNL d   1      -1.858  -0.228  -0.157  0.00  0.00     0.006 A 
ENDROOT
BRANCH   1   8
ATOM      8  C1  UNL d   1      -2.665  -0.241   2.233  0.00  0.00     0.054 C 
ATOM      9  C   UNL d   1      -2.291   1.050   2.948  0.00  0.00     0.018 C 
ENDBRANCH   1   8
TORSDOF 1
ENDMDL
