MODEL 1
REMARK minimizedAffinity -3.52297783
REMARK minimizedRMSD -1
REMARK  1 active torsions:
REMARK  status: ('A' for Active; 'I' for Inactive)
REMARK    1  A    between atoms: C1_2  and  C2_3 
ROOT
ATOM      1  C2  UNL d   1      -0.766  -0.272   1.317  0.00  0.00    -0.081 A 
ATOM      2  C3  UNL d   1      -0.031   0.609   0.515  0.00  0.00     0.006 A 
ATOM      3  C4  UNL d   1       0.641   0.144  -0.618  0.00  0.00     0.002 A 
ATOM      4  C5  UNL d   1       0.583  -1.209  -0.971  0.00  0.00    -0.080 A 
ATOM      5  C6  UNL d   1       1.275  -1.716  -2.202  0.00  0.00     0.076 C 
ATOM      6  C7  UNL d   1      -0.137  -2.093  -0.160  0.00  0.00     0.002 A 
ATOM      7  C8  UNL d   1      -0.808  -1.628   0.973  0.00  0.00     0.006 A 
ENDROOT
BRANCH   1   8
ATOM      8  C1  UNL d   1      -1.544   0.238   2.503  0.00  0.00     0.054 C 
ATOM      9  C   UNL d   1      -2.998  -0.210   2.444  0.00  0.00     0.018 C 
ENDBRANCH   1   8
TORSDOF 1
ENDMDL
