MODEL 1
REMARK minimizedAffinity -1.68726397
REMARK minimizedRMSD -1
REMARK  1 active torsions:
REMARK  status: ('A' for Active; 'I' for Inactive)
REMARK    1  A    between atoms: C1_2  and  C2_3 
ROOT
ATOM      1  C2  UNL d   1      -0.462   2.056  -0.433  0.00  0.00    -0.081 A 
ATOM      2  C3  UNL d   1      -0.664   3.192  -1.226  0.00  0.00     0.006 A 
ATOM      3  C4  UNL d   1      -0.673   4.465  -0.651  0.00  0.00     0.002 A 
ATOM      4  C5  UNL d   1      -0.473   4.624   0.724  0.00  0.00    -0.080 A 
ATOM      5  C6  UNL d   1      -0.451   5.987   1.350  0.00  0.00     0.076 C 
ATOM      6  C7  UNL d   1      -0.289   3.488   1.520  0.00  0.00     0.002 A 
ATOM      7  C8  UNL d   1      -0.280   2.215   0.945  0.00  0.00     0.006 A 
ENDROOT
BRANCH   1   8
ATOM      8  C1  UNL d   1      -0.387   0.687  -1.059  0.00  0.00     0.054 C 
ATOM      9  C   UNL d   1      -1.205  -0.327  -0.272  0.00  0.00     0.018 C 
ENDBRANCH   1   8
TORSDOF 1
ENDMDL
