MODEL 1
REMARK minimizedAffinity -3.99704599
REMARK minimizedRMSD -1
REMARK  1 active torsions:
REMARK  status: ('A' for Active; 'I' for Inactive)
REMARK    1  A    between atoms: C1_2  and  C2_3 
ROOT
ATOM      1  C2  UNL d   1      -0.225   1.630  -0.034  0.00  0.00    -0.081 A 
ATOM      2  C3  UNL d   1      -0.511   0.384   0.537  0.00  0.00     0.006 A 
ATOM      3  C4  UNL d   1       0.032  -0.784  -0.003  0.00  0.00     0.002 A 
ATOM      4  C5  UNL d   1       0.875  -0.726  -1.118  0.00  0.00    -0.080 A 
ATOM      5  C6  UNL d   1       1.489  -1.969  -1.689  0.00  0.00     0.076 C 
ATOM      6  C7  UNL d   1       1.147   0.517  -1.699  0.00  0.00     0.002 A 
ATOM      7  C8  UNL d   1       0.604   1.686  -1.160  0.00  0.00     0.006 A 
ENDROOT
BRANCH   1   8
ATOM      8  C1  UNL d   1      -0.757   2.897   0.585  0.00  0.00     0.054 C 
ATOM      9  C   UNL d   1       0.368   3.869   0.909  0.00  0.00     0.018 C 
ENDBRANCH   1   8
TORSDOF 1
ENDMDL
