MODEL 1
REMARK minimizedAffinity -2.27617168
REMARK minimizedRMSD -1
REMARK  1 active torsions:
REMARK  status: ('A' for Active; 'I' for Inactive)
REMARK    1  A    between atoms: C1_2  and  C2_3 
ROOT
ATOM      1  C2  UNL d   1      -1.382  -0.400   0.393  0.00  0.00    -0.081 A 
ATOM      2  C3  UNL d   1      -0.833  -1.688   0.405  0.00  0.00     0.006 A 
ATOM      3  C4  UNL d   1       0.270  -1.995  -0.396  0.00  0.00     0.002 A 
ATOM      4  C5  UNL d   1       0.846  -1.019  -1.215  0.00  0.00    -0.080 A 
ATOM      5  C6  UNL d   1       2.049  -1.327  -2.056  0.00  0.00     0.076 C 
ATOM      6  C7  UNL d   1       0.287   0.264  -1.240  0.00  0.00     0.002 A 
ATOM      7  C8  UNL d   1      -0.816   0.571  -0.440  0.00  0.00     0.006 A 
ENDROOT
BRANCH   1   8
ATOM      8  C1  UNL d   1      -2.531  -0.048   1.303  0.00  0.00     0.054 C 
ATOM      9  C   UNL d   1      -2.061   0.146   2.738  0.00  0.00     0.018 C 
ENDBRANCH   1   8
TORSDOF 1
ENDMDL
