MODEL 1
REMARK minimizedAffinity 0.306584746
REMARK minimizedRMSD -1
REMARK  1 active torsions:
REMARK  status: ('A' for Active; 'I' for Inactive)
REMARK    1  A    between atoms: C1_2  and  C2_3 
ROOT
ATOM      1  C2  UNL d   1       0.991  -1.016  -1.427  0.00  0.00    -0.081 A 
ATOM      2  C3  UNL d   1       0.463   0.279  -1.499  0.00  0.00     0.006 A 
ATOM      3  C4  UNL d   1       0.636   1.052  -2.649  0.00  0.00     0.002 A 
ATOM      4  C5  UNL d   1       1.333   0.541  -3.750  0.00  0.00    -0.080 A 
ATOM      5  C6  UNL d   1       1.500   1.349  -5.002  0.00  0.00     0.076 C 
ATOM      6  C7  UNL d   1       1.875  -0.747  -3.672  0.00  0.00     0.002 A 
ATOM      7  C8  UNL d   1       1.703  -1.520  -2.521  0.00  0.00     0.006 A 
ENDROOT
BRANCH   1   8
ATOM      8  C1  UNL d   1       0.749  -1.876  -0.213  0.00  0.00     0.054 C 
ATOM      9  C   UNL d   1      -0.736  -2.129  -0.000  0.00  0.00     0.018 C 
ENDBRANCH   1   8
TORSDOF 1
ENDMDL
