MODEL 1
REMARK minimizedAffinity -2.69631124
REMARK minimizedRMSD -1
REMARK  1 active torsions:
REMARK  status: ('A' for Active; 'I' for Inactive)
REMARK    1  A    between atoms: C1_2  and  C2_3 
ROOT
ATOM      1  C2  UNL d   1       0.133   1.178   0.550  0.00  0.00    -0.081 A 
ATOM      2  C3  UNL d   1       0.517   0.034   1.261  0.00  0.00     0.006 A 
ATOM      3  C4  UNL d   1       0.739  -1.173   0.594  0.00  0.00     0.002 A 
ATOM      4  C5  UNL d   1       0.589  -1.255  -0.794  0.00  0.00    -0.080 A 
ATOM      5  C6  UNL d   1       0.853  -2.537  -1.526  0.00  0.00     0.076 C 
ATOM      6  C7  UNL d   1       0.188  -0.117  -1.503  0.00  0.00     0.002 A 
ATOM      7  C8  UNL d   1      -0.034   1.090  -0.837  0.00  0.00     0.006 A 
ENDROOT
BRANCH   1   8
ATOM      8  C1  UNL d   1      -0.044   2.497   1.257  0.00  0.00     0.054 C 
ATOM      9  C   UNL d   1      -0.767   2.320   2.585  0.00  0.00     0.018 C 
ENDBRANCH   1   8
TORSDOF 1
ENDMDL
