MODEL 1
REMARK minimizedAffinity 1.33270729
REMARK minimizedRMSD -1
REMARK  1 active torsions:
REMARK  status: ('A' for Active; 'I' for Inactive)
REMARK    1  A    between atoms: C1_2  and  C2_3 
ROOT
ATOM      1  C2  UNL d   1      -0.083  -0.443  -0.019  0.00  0.00    -0.081 A 
ATOM      2  C3  UNL d   1       0.637   0.528  -0.726  0.00  0.00     0.006 A 
ATOM      3  C4  UNL d   1       0.832   1.800  -0.182  0.00  0.00     0.002 A 
ATOM      4  C5  UNL d   1       0.318   2.119   1.079  0.00  0.00    -0.080 A 
ATOM      5  C6  UNL d   1       0.547   3.471   1.688  0.00  0.00     0.076 C 
ATOM      6  C7  UNL d   1      -0.416   1.155   1.778  0.00  0.00     0.002 A 
ATOM      7  C8  UNL d   1      -0.613  -0.117   1.234  0.00  0.00     0.006 A 
ENDROOT
BRANCH   1   8
ATOM      8  C1  UNL d   1      -0.240  -1.835  -0.574  0.00  0.00     0.054 C 
ATOM      9  C   UNL d   1       0.970  -2.700  -0.251  0.00  0.00     0.018 C 
ENDBRANCH   1   8
TORSDOF 1
ENDMDL
