MODEL 1
REMARK minimizedAffinity -2.68247318
REMARK minimizedRMSD -1
REMARK  1 active torsions:
REMARK  status: ('A' for Active; 'I' for Inactive)
REMARK    1  A    between atoms: C1_2  and  C2_3 
ROOT
ATOM      1  C2  UNL d   1       0.126  -0.607  -0.329  0.00  0.00    -0.081 A 
ATOM      2  C3  UNL d   1       0.053   0.084  -1.545  0.00  0.00     0.006 A 
ATOM      3  C4  UNL d   1       0.008   1.480  -1.564  0.00  0.00     0.002 A 
ATOM      4  C5  UNL d   1       0.043   2.208  -0.370  0.00  0.00    -0.080 A 
ATOM      5  C6  UNL d   1       0.025   3.708  -0.378  0.00  0.00     0.076 C 
ATOM      6  C7  UNL d   1       0.099   1.517   0.845  0.00  0.00     0.002 A 
ATOM      7  C8  UNL d   1       0.143   0.122   0.865  0.00  0.00     0.006 A 
ENDROOT
BRANCH   1   8
ATOM      8  C1  UNL d   1       0.241  -2.110  -0.308  0.00  0.00     0.054 C 
ATOM      9  C   UNL d   1       1.333  -2.595  -1.251  0.00  0.00     0.018 C 
ENDBRANCH   1   8
TORSDOF 1
ENDMDL
