MODEL 1
REMARK minimizedAffinity -3.5228436
REMARK minimizedRMSD -1
REMARK  1 active torsions:
REMARK  status: ('A' for Active; 'I' for Inactive)
REMARK    1  A    between atoms: C1_2  and  C2_3 
ROOT
ATOM      1  C2  UNL d   1      -1.670   0.257   0.711  0.00  0.00    -0.081 A 
ATOM      2  C3  UNL d   1      -1.305  -1.091   0.817  0.00  0.00     0.006 A 
ATOM      3  C4  UNL d   1      -0.331  -1.629  -0.028  0.00  0.00     0.002 A 
ATOM      4  C5  UNL d   1       0.300  -0.827  -0.984  0.00  0.00    -0.080 A 
ATOM      5  C6  UNL d   1       1.370  -1.384  -1.876  0.00  0.00     0.076 C 
ATOM      6  C7  UNL d   1      -0.076   0.515  -1.101  0.00  0.00     0.002 A 
ATOM      7  C8  UNL d   1      -1.051   1.054  -0.258  0.00  0.00     0.006 A 
ENDROOT
BRANCH   1   8
ATOM      8  C1  UNL d   1      -2.674   0.856   1.663  0.00  0.00     0.054 C 
ATOM      9  C   UNL d   1      -2.734   0.074   2.968  0.00  0.00     0.018 C 
ENDBRANCH   1   8
TORSDOF 1
ENDMDL
