MODEL 1
REMARK minimizedAffinity -1.32136118
REMARK minimizedRMSD -1
REMARK  1 active torsions:
REMARK  status: ('A' for Active; 'I' for Inactive)
REMARK    1  A    between atoms: C1_2  and  C2_3 
ROOT
ATOM      1  C2  UNL d   1       0.637  -0.791  -0.702  0.00  0.00    -0.081 A 
ATOM      2  C3  UNL d   1       0.078   0.432  -1.091  0.00  0.00     0.006 A 
ATOM      3  C4  UNL d   1       0.413   1.005  -2.321  0.00  0.00     0.002 A 
ATOM      4  C5  UNL d   1       1.306   0.361  -3.184  0.00  0.00    -0.080 A 
ATOM      5  C6  UNL d   1       1.650   0.951  -4.519  0.00  0.00     0.076 C 
ATOM      6  C7  UNL d   1       1.878  -0.852  -2.788  0.00  0.00     0.002 A 
ATOM      7  C8  UNL d   1       1.544  -1.425  -1.559  0.00  0.00     0.006 A 
ENDROOT
BRANCH   1   8
ATOM      8  C1  UNL d   1       0.229  -1.444   0.594  0.00  0.00     0.054 C 
ATOM      9  C   UNL d   1      -1.101  -0.897   1.093  0.00  0.00     0.018 C 
ENDBRANCH   1   8
TORSDOF 1
ENDMDL
