MODEL 1
REMARK minimizedAffinity 0.256991982
REMARK minimizedRMSD -1
REMARK  1 active torsions:
REMARK  status: ('A' for Active; 'I' for Inactive)
REMARK    1  A    between atoms: C1_2  and  C2_3 
ROOT
ATOM      1  C2  UNL d   1      -0.388   1.100  -0.573  0.00  0.00    -0.081 A 
ATOM      2  C3  UNL d   1      -0.518  -0.098   0.141  0.00  0.00     0.006 A 
ATOM      3  C4  UNL d   1       0.099  -1.265  -0.316  0.00  0.00     0.002 A 
ATOM      4  C5  UNL d   1       0.863  -1.253  -1.488  0.00  0.00    -0.080 A 
ATOM      5  C6  UNL d   1       1.555  -2.492  -1.972  0.00  0.00     0.076 C 
ATOM      6  C7  UNL d   1       0.978  -0.060  -2.211  0.00  0.00     0.002 A 
ATOM      7  C8  UNL d   1       0.361   1.107  -1.755  0.00  0.00     0.006 A 
ENDROOT
BRANCH   1   8
ATOM      8  C1  UNL d   1      -0.999   2.374  -0.050  0.00  0.00     0.054 C 
ATOM      9  C   UNL d   1       0.046   3.253   0.623  0.00  0.00     0.018 C 
ENDBRANCH   1   8
TORSDOF 1
ENDMDL
