MODEL 1
REMARK minimizedAffinity -3.55854392
REMARK minimizedRMSD -1
REMARK  1 active torsions:
REMARK  status: ('A' for Active; 'I' for Inactive)
REMARK    1  A    between atoms: C1_2  and  C2_3 
ROOT
ATOM      1  C2  UNL d   1       5.331   1.520   3.843  0.00  0.00    -0.081 A 
ATOM      2  C3  UNL d   1       5.275   1.502   5.242  0.00  0.00     0.006 A 
ATOM      3  C4  UNL d   1       5.430   0.303   5.942  0.00  0.00     0.002 A 
ATOM      4  C5  UNL d   1       5.650  -0.896   5.256  0.00  0.00    -0.080 A 
ATOM      5  C6  UNL d   1       5.847  -2.185   5.997  0.00  0.00     0.076 C 
ATOM      6  C7  UNL d   1       5.688  -0.882   3.858  0.00  0.00     0.002 A 
ATOM      7  C8  UNL d   1       5.533   0.317   3.157  0.00  0.00     0.006 A 
ENDROOT
BRANCH   1   8
ATOM      8  C1  UNL d   1       5.230   2.820   3.088  0.00  0.00     0.054 C 
ATOM      9  C   UNL d   1       6.000   3.929   3.790  0.00  0.00     0.018 C 
ENDBRANCH   1   8
TORSDOF 1
ENDMDL
