MODEL 1
REMARK minimizedAffinity -4.64319134
REMARK minimizedRMSD -1
REMARK  1 active torsions:
REMARK  status: ('A' for Active; 'I' for Inactive)
REMARK    1  A    between atoms: C3_4  and  O_7 
ROOT
ATOM      1  C   UNL d   1      -2.560  -0.138   1.283  0.00  0.00    -0.033 A 
ATOM      2  C1  UNL d   1      -1.459  -0.165   0.425  0.00  0.00     0.039 A 
ATOM      3  C2  UNL d   1      -0.469  -1.136   0.589  0.00  0.00    -0.080 A 
ATOM      4  C3  UNL d   1      -0.592  -2.073   1.612  0.00  0.00     0.150 A 
ATOM      5  C4  UNL d   1      -1.689  -2.053   2.467  0.00  0.00    -0.007 A 
ATOM      6  C5  UNL d   1      -2.676  -1.082   2.303  0.00  0.00     0.039 A 
ENDROOT
BRANCH   4   7
ATOM      7  O   UNL d   1       0.351  -3.036   1.814  0.00  0.00    -0.526 OA
ATOM      8  H5  UNL d   1       1.064  -2.909   1.166  0.00  0.00     0.418 HD
ENDBRANCH   4   7
TORSDOF 1
ENDMDL
