MODEL 1
REMARK minimizedAffinity -4.71232796
REMARK minimizedRMSD -1
REMARK  1 active torsions:
REMARK  status: ('A' for Active; 'I' for Inactive)
REMARK    1  A    between atoms: C3_4  and  O_7 
ROOT
ATOM      1  C   UNL d   1       0.622  -0.911   0.309  0.00  0.00    -0.033 A 
ATOM      2  C1  UNL d   1       1.324   0.295   0.290  0.00  0.00     0.039 A 
ATOM      3  C2  UNL d   1       0.664   1.494   0.568  0.00  0.00    -0.080 A 
ATOM      4  C3  UNL d   1      -0.696   1.472   0.865  0.00  0.00     0.150 A 
ATOM      5  C4  UNL d   1      -1.401   0.273   0.890  0.00  0.00    -0.007 A 
ATOM      6  C5  UNL d   1      -0.740  -0.923   0.611  0.00  0.00     0.039 A 
ENDROOT
BRANCH   4   7
ATOM      7  O   UNL d   1      -1.384   2.617   1.138  0.00  0.00    -0.526 OA
ATOM      8  H5  UNL d   1      -0.775   3.369   1.056  0.00  0.00     0.418 HD
ENDBRANCH   4   7
TORSDOF 1
ENDMDL
