MODEL 1
REMARK minimizedAffinity -2.70756555
REMARK minimizedRMSD -1
REMARK  1 active torsions:
REMARK  status: ('A' for Active; 'I' for Inactive)
REMARK    1  A    between atoms: C3_4  and  O_7 
ROOT
ATOM      1  C   UNL d   1      -0.353  -0.355  -0.138  0.00  0.00    -0.033 A 
ATOM      2  C1  UNL d   1       1.003  -0.562   0.121  0.00  0.00     0.039 A 
ATOM      3  C2  UNL d   1       1.398  -1.497   1.080  0.00  0.00    -0.080 A 
ATOM      4  C3  UNL d   1       0.428  -2.218   1.771  0.00  0.00     0.150 A 
ATOM      5  C4  UNL d   1      -0.925  -2.019   1.515  0.00  0.00    -0.007 A 
ATOM      6  C5  UNL d   1      -1.317  -1.084   0.558  0.00  0.00     0.039 A 
ENDROOT
BRANCH   4   7
ATOM      7  O   UNL d   1       0.764  -3.138   2.719  0.00  0.00    -0.526 OA
ATOM      8  H5  UNL d   1       1.732  -3.147   2.809  0.00  0.00     0.418 HD
ENDBRANCH   4   7
TORSDOF 1
ENDMDL
