MODEL 1
REMARK minimizedAffinity -4.52048254
REMARK minimizedRMSD -1
REMARK  1 active torsions:
REMARK  status: ('A' for Active; 'I' for Inactive)
REMARK    1  A    between atoms: C3_4  and  O_7 
ROOT
ATOM      1  C   UNL d   1      -0.220  -2.334   0.738  0.00  0.00    -0.033 A 
ATOM      2  C1  UNL d   1       0.293  -1.190   0.123  0.00  0.00     0.039 A 
ATOM      3  C2  UNL d   1      -0.270   0.060   0.390  0.00  0.00    -0.080 A 
ATOM      4  C3  UNL d   1      -1.342   0.152   1.273  0.00  0.00     0.150 A 
ATOM      5  C4  UNL d   1      -1.855  -0.983   1.892  0.00  0.00    -0.007 A 
ATOM      6  C5  UNL d   1      -1.293  -2.230   1.624  0.00  0.00     0.039 A 
ENDROOT
BRANCH   4   7
ATOM      7  O   UNL d   1      -1.928   1.349   1.560  0.00  0.00    -0.526 OA
ATOM      8  H5  UNL d   1      -1.487   2.040   1.038  0.00  0.00     0.418 HD
ENDBRANCH   4   7
TORSDOF 1
ENDMDL
