MODEL 1
REMARK minimizedAffinity -2.80593324
REMARK minimizedRMSD -1
REMARK  1 active torsions:
REMARK  status: ('A' for Active; 'I' for Inactive)
REMARK    1  A    between atoms: C3_4  and  O_7 
ROOT
ATOM      1  C   UNL d   1      -1.739   0.922   0.096  0.00  0.00    -0.033 A 
ATOM      2  C1  UNL d   1      -0.913  -0.042  -0.486  0.00  0.00     0.039 A 
ATOM      3  C2  UNL d   1      -1.041  -1.384  -0.123  0.00  0.00    -0.080 A 
ATOM      4  C3  UNL d   1      -1.998  -1.749   0.821  0.00  0.00     0.150 A 
ATOM      5  C4  UNL d   1      -2.826  -0.794   1.402  0.00  0.00    -0.007 A 
ATOM      6  C5  UNL d   1      -2.696   0.546   1.039  0.00  0.00     0.039 A 
ENDROOT
BRANCH   4   7
ATOM      7  O   UNL d   1      -2.157  -3.046   1.210  0.00  0.00    -0.526 OA
ATOM      8  H5  UNL d   1      -1.497  -3.589   0.747  0.00  0.00     0.418 HD
ENDBRANCH   4   7
TORSDOF 1
ENDMDL
