MODEL 1
REMARK minimizedAffinity -0.557293177
REMARK minimizedRMSD -1
REMARK  1 active torsions:
REMARK  status: ('A' for Active; 'I' for Inactive)
REMARK    1  A    between atoms: C3_4  and  O_7 
ROOT
ATOM      1  C   UNL d   1      -0.138  -0.805   0.393  0.00  0.00    -0.033 A 
ATOM      2  C1  UNL d   1      -1.394  -0.552   0.949  0.00  0.00     0.039 A 
ATOM      3  C2  UNL d   1      -1.784   0.759   1.230  0.00  0.00    -0.080 A 
ATOM      4  C3  UNL d   1      -0.911   1.807   0.950  0.00  0.00     0.150 A 
ATOM      5  C4  UNL d   1       0.340   1.562   0.393  0.00  0.00    -0.007 A 
ATOM      6  C5  UNL d   1       0.728   0.253   0.114  0.00  0.00     0.039 A 
ENDROOT
BRANCH   4   7
ATOM      7  O   UNL d   1      -1.245   3.102   1.211  0.00  0.00    -0.526 OA
ATOM      8  H5  UNL d   1      -2.126   3.116   1.621  0.00  0.00     0.418 HD
ENDBRANCH   4   7
TORSDOF 1
ENDMDL
