MODEL 1
REMARK minimizedAffinity -2.90189576
REMARK minimizedRMSD -1
REMARK  1 active torsions:
REMARK  status: ('A' for Active; 'I' for Inactive)
REMARK    1  A    between atoms: C3_4  and  O_7 
ROOT
ATOM      1  C   UNL d   1       0.913  -2.477   0.756  0.00  0.00    -0.033 A 
ATOM      2  C1  UNL d   1       0.934  -1.325  -0.033  0.00  0.00     0.039 A 
ATOM      3  C2  UNL d   1       0.138  -0.229   0.307  0.00  0.00    -0.080 A 
ATOM      4  C3  UNL d   1      -0.672  -0.297   1.437  0.00  0.00     0.150 A 
ATOM      5  C4  UNL d   1      -0.694  -1.440   2.230  0.00  0.00    -0.007 A 
ATOM      6  C5  UNL d   1       0.101  -2.534   1.889  0.00  0.00     0.039 A 
ENDROOT
BRANCH   4   7
ATOM      7  O   UNL d   1      -1.469   0.745   1.806  0.00  0.00    -0.526 OA
ATOM      8  H5  UNL d   1      -1.372   1.455   1.150  0.00  0.00     0.418 HD
ENDBRANCH   4   7
TORSDOF 1
ENDMDL
