MODEL 1
REMARK minimizedAffinity -4.21375895
REMARK minimizedRMSD -1
REMARK  1 active torsions:
REMARK  status: ('A' for Active; 'I' for Inactive)
REMARK    1  A    between atoms: C3_4  and  O_7 
ROOT
ATOM      1  C   UNL d   1       0.334   0.870  -0.200  0.00  0.00    -0.033 A 
ATOM      2  C1  UNL d   1       1.323  -0.032  -0.601  0.00  0.00     0.039 A 
ATOM      3  C2  UNL d   1       1.261  -1.365  -0.193  0.00  0.00    -0.080 A 
ATOM      4  C3  UNL d   1       0.206  -1.785   0.614  0.00  0.00     0.150 A 
ATOM      5  C4  UNL d   1      -0.783  -0.893   1.014  0.00  0.00    -0.007 A 
ATOM      6  C5  UNL d   1      -0.719   0.439   0.606  0.00  0.00     0.039 A 
ENDROOT
BRANCH   4   7
ATOM      7  O   UNL d   1       0.106  -3.075   1.041  0.00  0.00    -0.526 OA
ATOM      8  H5  UNL d   1       0.875  -3.570   0.711  0.00  0.00     0.418 HD
ENDBRANCH   4   7
TORSDOF 1
ENDMDL
