MODEL 1
REMARK minimizedAffinity -6.04347038
REMARK minimizedRMSD -1
REMARK  1 active torsions:
REMARK  status: ('A' for Active; 'I' for Inactive)
REMARK    1  A    between atoms: C3_4  and  O_7 
ROOT
ATOM      1  C   UNL d   1      -1.788   1.023   1.028  0.00  0.00    -0.033 A 
ATOM      2  C1  UNL d   1      -2.493   0.069   1.763  0.00  0.00     0.039 A 
ATOM      3  C2  UNL d   1      -2.125  -1.277   1.698  0.00  0.00    -0.080 A 
ATOM      4  C3  UNL d   1      -1.052  -1.654   0.896  0.00  0.00     0.150 A 
ATOM      5  C4  UNL d   1      -0.343  -0.708   0.164  0.00  0.00    -0.007 A 
ATOM      6  C5  UNL d   1      -0.712   0.635   0.229  0.00  0.00     0.039 A 
ENDROOT
BRANCH   4   7
ATOM      7  O   UNL d   1      -0.659  -2.955   0.797  0.00  0.00    -0.526 OA
ATOM      8  H5  UNL d   1      -1.258  -3.500   1.335  0.00  0.00     0.418 HD
ENDBRANCH   4   7
TORSDOF 1
ENDMDL
