MODEL 1
REMARK minimizedAffinity -4.03474617
REMARK minimizedRMSD -1
REMARK  1 active torsions:
REMARK  status: ('A' for Active; 'I' for Inactive)
REMARK    1  A    between atoms: C3_4  and  O_7 
ROOT
ATOM      1  C   UNL d   1      -1.398  -2.868   1.472  0.00  0.00    -0.033 A 
ATOM      2  C1  UNL d   1      -0.014  -2.744   1.335  0.00  0.00     0.039 A 
ATOM      3  C2  UNL d   1       0.526  -1.666   0.631  0.00  0.00    -0.080 A 
ATOM      4  C3  UNL d   1      -0.327  -0.719   0.071  0.00  0.00     0.150 A 
ATOM      5  C4  UNL d   1      -1.707  -0.835   0.207  0.00  0.00    -0.007 A 
ATOM      6  C5  UNL d   1      -2.244  -1.913   0.909  0.00  0.00     0.039 A 
ENDROOT
BRANCH   4   7
ATOM      7  O   UNL d   1       0.153   0.348  -0.628  0.00  0.00    -0.526 OA
ATOM      8  H5  UNL d   1       1.121   0.281  -0.665  0.00  0.00     0.418 HD
ENDBRANCH   4   7
TORSDOF 1
ENDMDL
