MODEL 1
REMARK minimizedAffinity -3.93116593
REMARK minimizedRMSD -1
REMARK  1 active torsions:
REMARK  status: ('A' for Active; 'I' for Inactive)
REMARK    1  A    between atoms: C3_4  and  O_7 
ROOT
ATOM      1  C   UNL d   1       0.508  -1.946   0.416  0.00  0.00    -0.033 A 
ATOM      2  C1  UNL d   1       0.478  -0.618  -0.014  0.00  0.00     0.039 A 
ATOM      3  C2  UNL d   1      -0.489   0.257   0.485  0.00  0.00    -0.080 A 
ATOM      4  C3  UNL d   1      -1.418  -0.208   1.412  0.00  0.00     0.150 A 
ATOM      5  C4  UNL d   1      -1.391  -1.529   1.847  0.00  0.00    -0.007 A 
ATOM      6  C5  UNL d   1      -0.425  -2.401   1.348  0.00  0.00     0.039 A 
ENDROOT
BRANCH   4   7
ATOM      7  O   UNL d   1      -2.384   0.608   1.924  0.00  0.00    -0.526 OA
ATOM      8  H5  UNL d   1      -2.298   1.483   1.511  0.00  0.00     0.418 HD
ENDBRANCH   4   7
TORSDOF 1
ENDMDL
