MODEL 1
REMARK minimizedAffinity -5.35864019
REMARK minimizedRMSD -1
REMARK  1 active torsions:
REMARK  status: ('A' for Active; 'I' for Inactive)
REMARK    1  A    between atoms: C3_4  and  O_7 
ROOT
ATOM      1  C   UNL d   1       0.295   0.171   0.394  0.00  0.00    -0.033 A 
ATOM      2  C1  UNL d   1       0.991  -1.027   0.569  0.00  0.00     0.039 A 
ATOM      3  C2  UNL d   1       0.293  -2.216   0.788  0.00  0.00    -0.080 A 
ATOM      4  C3  UNL d   1      -1.098  -2.194   0.827  0.00  0.00     0.150 A 
ATOM      5  C4  UNL d   1      -1.798  -1.005   0.649  0.00  0.00    -0.007 A 
ATOM      6  C5  UNL d   1      -1.099   0.181   0.432  0.00  0.00     0.039 A 
ENDROOT
BRANCH   4   7
ATOM      7  O   UNL d   1      -1.823  -3.329   1.042  0.00  0.00    -0.526 OA
ATOM      8  H5  UNL d   1      -1.205  -4.068   1.176  0.00  0.00     0.418 HD
ENDBRANCH   4   7
TORSDOF 1
ENDMDL
