MODEL 1
REMARK minimizedAffinity -4.55321455
REMARK minimizedRMSD -1
REMARK  1 active torsions:
REMARK  status: ('A' for Active; 'I' for Inactive)
REMARK    1  A    between atoms: C3_4  and  O_7 
ROOT
ATOM      1  C   UNL d   1       0.032   0.847   0.061  0.00  0.00    -0.033 A 
ATOM      2  C1  UNL d   1       1.151   0.012   0.062  0.00  0.00     0.039 A 
ATOM      3  C2  UNL d   1       1.012  -1.343   0.372  0.00  0.00    -0.080 A 
ATOM      4  C3  UNL d   1      -0.248  -1.848   0.677  0.00  0.00     0.150 A 
ATOM      5  C4  UNL d   1      -1.367  -1.023   0.674  0.00  0.00    -0.007 A 
ATOM      6  C5  UNL d   1      -1.227   0.330   0.365  0.00  0.00     0.039 A 
ENDROOT
BRANCH   4   7
ATOM      7  O   UNL d   1      -0.432  -3.162   0.990  0.00  0.00    -0.526 OA
ATOM      8  H5  UNL d   1       0.433  -3.605   0.980  0.00  0.00     0.418 HD
ENDBRANCH   4   7
TORSDOF 1
ENDMDL
