MODEL 1
REMARK minimizedAffinity -4.30071115
REMARK minimizedRMSD -1
REMARK  1 active torsions:
REMARK  status: ('A' for Active; 'I' for Inactive)
REMARK    1  A    between atoms: C3_4  and  O_7 
ROOT
ATOM      1  C   UNL d   1      -2.252  -1.927   0.692  0.00  0.00    -0.033 A 
ATOM      2  C1  UNL d   1      -1.375  -2.943   1.077  0.00  0.00     0.039 A 
ATOM      3  C2  UNL d   1       0.005  -2.750   0.981  0.00  0.00    -0.080 A 
ATOM      4  C3  UNL d   1       0.493  -1.539   0.499  0.00  0.00     0.150 A 
ATOM      5  C4  UNL d   1      -0.375  -0.522   0.117  0.00  0.00    -0.007 A 
ATOM      6  C5  UNL d   1      -1.752  -0.716   0.213  0.00  0.00     0.039 A 
ENDROOT
BRANCH   4   7
ATOM      7  O   UNL d   1       1.832  -1.307   0.383  0.00  0.00    -0.526 OA
ATOM      8  H5  UNL d   1       2.308  -2.108   0.657  0.00  0.00     0.418 HD
ENDBRANCH   4   7
TORSDOF 1
ENDMDL
