MODEL 1
REMARK minimizedAffinity -4.91462851
REMARK minimizedRMSD -1
REMARK  1 active torsions:
REMARK  status: ('A' for Active; 'I' for Inactive)
REMARK    1  A    between atoms: C3_4  and  O_7 
ROOT
ATOM      1  C   UNL d   1      -2.484  -1.806   1.382  0.00  0.00    -0.033 A 
ATOM      2  C1  UNL d   1      -2.901  -0.473   1.411  0.00  0.00     0.039 A 
ATOM      3  C2  UNL d   1      -2.080   0.529   0.891  0.00  0.00    -0.080 A 
ATOM      4  C3  UNL d   1      -0.846   0.186   0.345  0.00  0.00     0.150 A 
ATOM      5  C4  UNL d   1      -0.426  -1.139   0.309  0.00  0.00    -0.007 A 
ATOM      6  C5  UNL d   1      -1.247  -2.139   0.829  0.00  0.00     0.039 A 
ENDROOT
BRANCH   4   7
ATOM      7  O   UNL d   1      -0.008   1.130  -0.170  0.00  0.00    -0.526 OA
ATOM      8  H5  UNL d   1      -0.418   2.003  -0.051  0.00  0.00     0.418 HD
ENDBRANCH   4   7
TORSDOF 1
ENDMDL
