MODEL 1
REMARK minimizedAffinity -3.37134957
REMARK minimizedRMSD -1
REMARK  1 active torsions:
REMARK  status: ('A' for Active; 'I' for Inactive)
REMARK    1  A    between atoms: C1_2  and  C2_3 
ROOT
ATOM      1  C2  UNL d   1      -4.695  -3.878  -5.132  0.00  0.00    -0.081 A 
ATOM      2  C3  UNL d   1      -4.673  -5.277  -5.062  0.00  0.00     0.006 A 
ATOM      3  C4  UNL d   1      -3.459  -5.967  -5.067  0.00  0.00     0.002 A 
ATOM      4  C5  UNL d   1      -2.247  -5.271  -5.134  0.00  0.00    -0.080 A 
ATOM      5  C6  UNL d   1      -0.935  -5.999  -5.110  0.00  0.00     0.076 C 
ATOM      6  C7  UNL d   1      -2.269  -3.875  -5.222  0.00  0.00     0.002 A 
ATOM      7  C8  UNL d   1      -3.483  -3.184  -5.218  0.00  0.00     0.006 A 
ENDROOT
BRANCH   1   8
ATOM      8  C1  UNL d   1      -6.000  -3.128  -5.061  0.00  0.00     0.054 C 
ATOM      9  C   UNL d   1      -5.996  -1.922  -5.990  0.00  0.00     0.018 C 
ENDBRANCH   1   8
TORSDOF 1
ENDMDL
