MODEL 1
REMARK minimizedAffinity -3.45006824
REMARK minimizedRMSD -1
REMARK  1 active torsions:
REMARK  status: ('A' for Active; 'I' for Inactive)
REMARK    1  A    between atoms: C1_2  and  C2_3 
ROOT
ATOM      1  C2  UNL d   1      -4.383  -4.101  -5.098  0.00  0.00    -0.081 A 
ATOM      2  C3  UNL d   1      -4.155  -5.377  -4.567  0.00  0.00     0.006 A 
ATOM      3  C4  UNL d   1      -2.915  -6.000  -4.728  0.00  0.00     0.002 A 
ATOM      4  C5  UNL d   1      -1.881  -5.355  -5.415  0.00  0.00    -0.080 A 
ATOM      5  C6  UNL d   1      -0.536  -6.000  -5.568  0.00  0.00     0.076 C 
ATOM      6  C7  UNL d   1      -2.114  -4.088  -5.960  0.00  0.00     0.002 A 
ATOM      7  C8  UNL d   1      -3.354  -3.465  -5.800  0.00  0.00     0.006 A 
ENDROOT
BRANCH   1   8
ATOM      8  C1  UNL d   1      -5.698  -3.400  -4.870  0.00  0.00     0.054 C 
ATOM      9  C   UNL d   1      -5.986  -2.392  -5.974  0.00  0.00     0.018 C 
ENDBRANCH   1   8
TORSDOF 1
ENDMDL
