MODEL 1
REMARK minimizedAffinity -3.56971359
REMARK minimizedRMSD -1
REMARK  1 active torsions:
REMARK  status: ('A' for Active; 'I' for Inactive)
REMARK    1  A    between atoms: C1_2  and  C2_3 
ROOT
ATOM      1  C2  UNL d   1      -3.610  -4.760  -4.675  0.00  0.00    -0.081 A 
ATOM      2  C3  UNL d   1      -5.001  -4.849  -4.548  0.00  0.00     0.006 A 
ATOM      3  C4  UNL d   1      -5.775  -3.695  -4.404  0.00  0.00     0.002 A 
ATOM      4  C5  UNL d   1      -5.171  -2.433  -4.393  0.00  0.00    -0.080 A 
ATOM      5  C6  UNL d   1      -5.993  -1.184  -4.270  0.00  0.00     0.076 C 
ATOM      6  C7  UNL d   1      -3.779  -2.344  -4.502  0.00  0.00     0.002 A 
ATOM      7  C8  UNL d   1      -3.005  -3.498  -4.645  0.00  0.00     0.006 A 
ENDROOT
BRANCH   1   8
ATOM      8  C1  UNL d   1      -2.779  -5.998  -4.895  0.00  0.00     0.054 C 
ATOM      9  C   UNL d   1      -1.741  -5.781  -5.986  0.00  0.00     0.018 C 
ENDBRANCH   1   8
TORSDOF 1
ENDMDL
