MODEL 1
REMARK minimizedAffinity 8.19178772
REMARK minimizedRMSD -1
REMARK  1 active torsions:
REMARK  status: ('A' for Active; 'I' for Inactive)
REMARK    1  A    between atoms: C1_2  and  C2_3 
ROOT
ATOM      1  C2  UNL d   1      -4.753  -3.367  -4.500  0.00  0.00    -0.081 A 
ATOM      2  C3  UNL d   1      -3.988  -3.499  -5.665  0.00  0.00     0.006 A 
ATOM      3  C4  UNL d   1      -2.870  -4.336  -5.687  0.00  0.00     0.002 A 
ATOM      4  C5  UNL d   1      -2.503  -5.060  -4.547  0.00  0.00    -0.080 A 
ATOM      5  C6  UNL d   1      -1.322  -5.984  -4.566  0.00  0.00     0.076 C 
ATOM      6  C7  UNL d   1      -3.257  -4.914  -3.378  0.00  0.00     0.002 A 
ATOM      7  C8  UNL d   1      -4.375  -4.077  -3.355  0.00  0.00     0.006 A 
ENDROOT
BRANCH   1   8
ATOM      8  C1  UNL d   1      -5.997  -2.516  -4.492  0.00  0.00     0.054 C 
ATOM      9  C   UNL d   1      -5.778  -1.223  -3.720  0.00  0.00     0.018 C 
ENDBRANCH   1   8
TORSDOF 1
ENDMDL
