MODEL 1
REMARK minimizedAffinity -3.3108778
REMARK minimizedRMSD -1
REMARK  1 active torsions:
REMARK  status: ('A' for Active; 'I' for Inactive)
REMARK    1  A    between atoms: C1_2  and  C2_3 
ROOT
ATOM      1  C2  UNL d   1      -4.738  -3.755  -5.206  0.00  0.00    -0.081 A 
ATOM      2  C3  UNL d   1      -3.483  -3.162  -5.025  0.00  0.00     0.006 A 
ATOM      3  C4  UNL d   1      -2.315  -3.889  -5.267  0.00  0.00     0.002 A 
ATOM      4  C5  UNL d   1      -2.383  -5.217  -5.701  0.00  0.00    -0.080 A 
ATOM      5  C6  UNL d   1      -1.137  -6.000  -5.994  0.00  0.00     0.076 C 
ATOM      6  C7  UNL d   1      -3.637  -5.815  -5.866  0.00  0.00     0.002 A 
ATOM      7  C8  UNL d   1      -4.805  -5.089  -5.624  0.00  0.00     0.006 A 
ENDROOT
BRANCH   1   8
ATOM      8  C1  UNL d   1      -6.000  -2.954  -5.009  0.00  0.00     0.054 C 
ATOM      9  C   UNL d   1      -5.709  -1.460  -4.989  0.00  0.00     0.018 C 
ENDBRANCH   1   8
TORSDOF 1
ENDMDL
