MODEL 1
REMARK minimizedAffinity -1.40179515
REMARK minimizedRMSD -1
REMARK  1 active torsions:
REMARK  status: ('A' for Active; 'I' for Inactive)
REMARK    1  A    between atoms: C1_2  and  C2_3 
ROOT
ATOM      1  C2  UNL d   1      -3.734  -4.809  -4.610  0.00  0.00    -0.081 A 
ATOM      2  C3  UNL d   1      -4.703  -4.909  -5.616  0.00  0.00     0.006 A 
ATOM      3  C4  UNL d   1      -5.447  -3.789  -5.996  0.00  0.00     0.002 A 
ATOM      4  C5  UNL d   1      -5.229  -2.551  -5.383  0.00  0.00    -0.080 A 
ATOM      5  C6  UNL d   1      -5.999  -1.334  -5.802  0.00  0.00     0.076 C 
ATOM      6  C7  UNL d   1      -4.273  -2.455  -4.366  0.00  0.00     0.002 A 
ATOM      7  C8  UNL d   1      -3.529  -3.575  -3.985  0.00  0.00     0.006 A 
ENDROOT
BRANCH   1   8
ATOM      8  C1  UNL d   1      -2.885  -6.000  -4.243  0.00  0.00     0.054 C 
ATOM      9  C   UNL d   1      -2.509  -5.978  -2.769  0.00  0.00     0.018 C 
ENDBRANCH   1   8
TORSDOF 1
ENDMDL
