MODEL 1
REMARK minimizedAffinity -1.9644624
REMARK minimizedRMSD -1
REMARK  1 active torsions:
REMARK  status: ('A' for Active; 'I' for Inactive)
REMARK    1  A    between atoms: C1_2  and  C2_3 
ROOT
ATOM      1  C2  UNL d   1      -4.022  -2.602  -4.130  0.00  0.00    -0.081 A 
ATOM      2  C3  UNL d   1      -5.384  -2.561  -4.454  0.00  0.00     0.006 A 
ATOM      3  C4  UNL d   1      -5.998  -3.654  -5.070  0.00  0.00     0.002 A 
ATOM      4  C5  UNL d   1      -5.264  -4.808  -5.365  0.00  0.00    -0.080 A 
ATOM      5  C6  UNL d   1      -5.919  -6.000  -5.998  0.00  0.00     0.076 C 
ATOM      6  C7  UNL d   1      -3.900  -4.842  -5.057  0.00  0.00     0.002 A 
ATOM      7  C8  UNL d   1      -3.285  -3.750  -4.442  0.00  0.00     0.006 A 
ENDROOT
BRANCH   1   8
ATOM      8  C1  UNL d   1      -3.372  -1.450  -3.408  0.00  0.00     0.054 C 
ATOM      9  C   UNL d   1      -2.648  -1.922  -2.154  0.00  0.00     0.018 C 
ENDBRANCH   1   8
TORSDOF 1
ENDMDL
