MODEL 1
REMARK minimizedAffinity -0.868327022
REMARK minimizedRMSD -1
REMARK  1 active torsions:
REMARK  status: ('A' for Active; 'I' for Inactive)
REMARK    1  A    between atoms: C1_2  and  C2_3 
ROOT
ATOM      1  C2  UNL d   1      -4.684  -3.656  -4.571  0.00  0.00    -0.081 A 
ATOM      2  C3  UNL d   1      -4.509  -4.534  -5.649  0.00  0.00     0.006 A 
ATOM      3  C4  UNL d   1      -3.319  -5.252  -5.791  0.00  0.00     0.002 A 
ATOM      4  C5  UNL d   1      -2.289  -5.110  -4.856  0.00  0.00    -0.080 A 
ATOM      5  C6  UNL d   1      -1.018  -5.898  -4.981  0.00  0.00     0.076 C 
ATOM      6  C7  UNL d   1      -2.456  -4.221  -3.790  0.00  0.00     0.002 A 
ATOM      7  C8  UNL d   1      -3.645  -3.502  -3.647  0.00  0.00     0.006 A 
ENDROOT
BRANCH   1   8
ATOM      8  C1  UNL d   1      -5.991  -2.930  -4.379  0.00  0.00     0.054 C 
ATOM      9  C   UNL d   1      -6.000  -2.143  -3.076  0.00  0.00     0.018 C 
ENDBRANCH   1   8
TORSDOF 1
ENDMDL
