MODEL 1
REMARK minimizedAffinity -1.26826537
REMARK minimizedRMSD -1
REMARK  1 active torsions:
REMARK  status: ('A' for Active; 'I' for Inactive)
REMARK    1  A    between atoms: C1_2  and  C2_3 
ROOT
ATOM      1  C2  UNL d   1      -2.335  -5.203  -4.664  0.00  0.00    -0.081 A 
ATOM      2  C3  UNL d   1      -3.482  -5.407  -3.888  0.00  0.00     0.006 A 
ATOM      3  C4  UNL d   1      -4.661  -4.712  -4.169  0.00  0.00     0.002 A 
ATOM      4  C5  UNL d   1      -4.714  -3.808  -5.235  0.00  0.00    -0.080 A 
ATOM      5  C6  UNL d   1      -5.982  -3.078  -5.567  0.00  0.00     0.076 C 
ATOM      6  C7  UNL d   1      -3.563  -3.591  -6.000  0.00  0.00     0.002 A 
ATOM      7  C8  UNL d   1      -2.384  -4.285  -5.719  0.00  0.00     0.006 A 
ENDROOT
BRANCH   1   8
ATOM      8  C1  UNL d   1      -1.082  -5.999  -4.403  0.00  0.00     0.054 C 
ATOM      9  C   UNL d   1      -0.120  -5.918  -5.580  0.00  0.00     0.018 C 
ENDBRANCH   1   8
TORSDOF 1
ENDMDL
