MODEL 1
REMARK minimizedAffinity -3.45568109
REMARK minimizedRMSD -1
REMARK  1 active torsions:
REMARK  status: ('A' for Active; 'I' for Inactive)
REMARK    1  A    between atoms: C1_2  and  C2_3 
ROOT
ATOM      1  C2  UNL d   1      -4.632  -4.156  -5.120  0.00  0.00    -0.081 A 
ATOM      2  C3  UNL d   1      -3.467  -3.426  -4.856  0.00  0.00     0.006 A 
ATOM      3  C4  UNL d   1      -2.211  -3.973  -5.127  0.00  0.00     0.002 A 
ATOM      4  C5  UNL d   1      -2.099  -5.256  -5.675  0.00  0.00    -0.080 A 
ATOM      5  C6  UNL d   1      -0.757  -5.843  -6.000  0.00  0.00     0.076 C 
ATOM      6  C7  UNL d   1      -3.262  -5.992  -5.923  0.00  0.00     0.002 A 
ATOM      7  C8  UNL d   1      -4.518  -5.446  -5.651  0.00  0.00     0.006 A 
ENDROOT
BRANCH   1   8
ATOM      8  C1  UNL d   1      -5.989  -3.544  -4.889  0.00  0.00     0.054 C 
ATOM      9  C   UNL d   1      -5.999  -2.066  -5.253  0.00  0.00     0.018 C 
ENDBRANCH   1   8
TORSDOF 1
ENDMDL
