MODEL 1
REMARK minimizedAffinity 5.03895712
REMARK minimizedRMSD -1
REMARK  1 active torsions:
REMARK  status: ('A' for Active; 'I' for Inactive)
REMARK    1  A    between atoms: C1_2  and  C2_3 
ROOT
ATOM      1  C2  UNL d   1      -3.733  -3.644  -4.805  0.00  0.00    -0.081 A 
ATOM      2  C3  UNL d   1      -3.635  -4.970  -4.368  0.00  0.00     0.006 A 
ATOM      3  C4  UNL d   1      -2.507  -5.736  -4.673  0.00  0.00     0.002 A 
ATOM      4  C5  UNL d   1      -1.456  -5.185  -5.414  0.00  0.00    -0.080 A 
ATOM      5  C6  UNL d   1      -0.226  -5.987  -5.723  0.00  0.00     0.076 C 
ATOM      6  C7  UNL d   1      -1.561  -3.866  -5.866  0.00  0.00     0.002 A 
ATOM      7  C8  UNL d   1      -2.689  -3.100  -5.561  0.00  0.00     0.006 A 
ENDROOT
BRANCH   1   8
ATOM      8  C1  UNL d   1      -4.919  -2.796  -4.422  0.00  0.00     0.054 C 
ATOM      9  C   UNL d   1      -5.319  -3.027  -2.972  0.00  0.00     0.018 C 
ENDBRANCH   1   8
TORSDOF 1
ENDMDL
