MODEL 1
REMARK minimizedAffinity -4.49123716
REMARK minimizedRMSD -1
REMARK  0 active torsions:
REMARK  status: ('A' for Active; 'I' for Inactive)
ROOT
ATOM      1  C1  DEN d   1      -0.021   1.199  -0.084  0.00  0.00     0.130 A 
ATOM      2  C2  DEN d   1      -0.624   0.620  -1.281  0.00  0.00    -0.031 A 
ATOM      3  C3  DEN d   1      -0.061  -0.732  -1.468  0.00  0.00     0.027 A 
ATOM      4  C4  DEN d   1       1.674  -1.981  -0.025  0.00  0.00     0.027 A 
ATOM      5  C5  DEN d   1       2.483  -1.891   1.087  0.00  0.00    -0.003 A 
ATOM      6  C6  DEN d   1       2.539  -0.762   1.860  0.00  0.00     0.001 A 
ATOM      7  C7  DEN d   1       1.738   0.307   1.558  0.00  0.00     0.017 A 
ATOM      8  C8  DEN d   1       0.925   0.227   0.435  0.00  0.00    -0.094 A 
ATOM      9  C9  DEN d   1       0.874  -0.928  -0.327  0.00  0.00    -0.072 A 
ENDROOT
TORSDOF 0
ENDMDL
