MODEL 1
REMARK minimizedAffinity -5.97706652
REMARK minimizedRMSD -1
REMARK  0 active torsions:
REMARK  status: ('A' for Active; 'I' for Inactive)
ROOT
ATOM      1  C1  DEN d   1      -0.307   1.851  -1.478  0.00  0.00     0.130 A 
ATOM      2  C2  DEN d   1       0.734   2.752  -0.992  0.00  0.00    -0.031 A 
ATOM      3  C3  DEN d   1       1.694   1.957  -0.202  0.00  0.00     0.027 A 
ATOM      4  C4  DEN d   1       1.674  -0.571   0.311  0.00  0.00     0.027 A 
ATOM      5  C5  DEN d   1       0.984  -1.748   0.124  0.00  0.00    -0.003 A 
ATOM      6  C6  DEN d   1      -0.193  -1.803  -0.575  0.00  0.00     0.001 A 
ATOM      7  C7  DEN d   1      -0.692  -0.665  -1.152  0.00  0.00     0.017 A 
ATOM      8  C8  DEN d   1      -0.006   0.527  -0.962  0.00  0.00    -0.094 A 
ATOM      9  C9  DEN d   1       1.188   0.559  -0.262  0.00  0.00    -0.072 A 
ENDROOT
TORSDOF 0
ENDMDL
