MODEL 1
REMARK minimizedAffinity -4.26278353
REMARK minimizedRMSD -1
REMARK  0 active torsions:
REMARK  status: ('A' for Active; 'I' for Inactive)
ROOT
ATOM      1  C1  DEN d   1       1.858   0.580   1.109  0.00  0.00     0.130 A 
ATOM      2  C2  DEN d   1       2.716  -0.582   0.891  0.00  0.00    -0.031 A 
ATOM      3  C3  DEN d   1       1.984  -1.535   0.033  0.00  0.00     0.027 A 
ATOM      4  C4  DEN d   1      -0.379  -1.323  -0.979  0.00  0.00     0.027 A 
ATOM      5  C5  DEN d   1      -1.496  -0.522  -1.064  0.00  0.00    -0.003 A 
ATOM      6  C6  DEN d   1      -1.586   0.677  -0.409  0.00  0.00     0.001 A 
ATOM      7  C7  DEN d   1      -0.522   1.131   0.325  0.00  0.00     0.017 A 
ATOM      8  C8  DEN d   1       0.605   0.325   0.422  0.00  0.00    -0.094 A 
ATOM      9  C9  DEN d   1       0.681  -0.878  -0.258  0.00  0.00    -0.072 A 
ENDROOT
TORSDOF 0
ENDMDL
