MODEL 1
REMARK minimizedAffinity -4.13007927
REMARK minimizedRMSD -1
REMARK  0 active torsions:
REMARK  status: ('A' for Active; 'I' for Inactive)
ROOT
ATOM      1  C1  BNZ d   1      -0.913   1.412  -1.595  0.00  0.00     0.000 A 
ATOM      2  C2  BNZ d   1      -0.331   0.759  -0.541  0.00  0.00     0.000 A 
ATOM      3  C3  BNZ d   1      -1.029  -0.171   0.178  0.00  0.00     0.000 A 
ATOM      4  C4  BNZ d   1      -2.318  -0.418  -0.132  0.00  0.00     0.000 A 
ATOM      5  C5  BNZ d   1      -2.922   0.239  -1.186  0.00  0.00     0.000 A 
ATOM      6  C6  BNZ d   1      -2.204   1.146  -1.932  0.00  0.00     0.000 A 
ENDROOT
TORSDOF 0
ENDMDL
