MODEL 1
REMARK minimizedAffinity -2.91817307
REMARK minimizedRMSD -1
REMARK  0 active torsions:
REMARK  status: ('A' for Active; 'I' for Inactive)
ROOT
ATOM      1  C1  BNZ d   1      -1.020   0.677  -0.484  0.00  0.00     0.000 A 
ATOM      2  C2  BNZ d   1      -0.469   1.564  -1.370  0.00  0.00     0.000 A 
ATOM      3  C3  BNZ d   1      -1.173   1.991  -2.461  0.00  0.00     0.000 A 
ATOM      4  C4  BNZ d   1      -2.410   1.502  -2.686  0.00  0.00     0.000 A 
ATOM      5  C5  BNZ d   1      -2.975   0.600  -1.806  0.00  0.00     0.000 A 
ATOM      6  C6  BNZ d   1      -2.278   0.202  -0.688  0.00  0.00     0.000 A 
ENDROOT
TORSDOF 0
ENDMDL
