MODEL 1
REMARK minimizedAffinity -0.808081806
REMARK minimizedRMSD -1
REMARK  0 active torsions:
REMARK  status: ('A' for Active; 'I' for Inactive)
ROOT
ATOM      1  C1  BNZ d   1      -1.355  -0.036  -1.040  0.00  0.00     0.000 A 
ATOM      2  C2  BNZ d   1      -2.067  -0.524   0.023  0.00  0.00     0.000 A 
ATOM      3  C3  BNZ d   1      -1.557  -0.471   1.290  0.00  0.00     0.000 A 
ATOM      4  C4  BNZ d   1      -0.322   0.033   1.487  0.00  0.00     0.000 A 
ATOM      5  C5  BNZ d   1       0.412   0.521   0.424  0.00  0.00     0.000 A 
ATOM      6  C6  BNZ d   1      -0.120   0.502  -0.844  0.00  0.00     0.000 A 
ENDROOT
TORSDOF 0
ENDMDL
