MODEL 1
REMARK minimizedAffinity -3.41597414
REMARK minimizedRMSD -1
REMARK  0 active torsions:
REMARK  status: ('A' for Active; 'I' for Inactive)
ROOT
ATOM      1  C1  BNZ d   1       1.612  -1.599   1.168  0.00  0.00     0.000 A 
ATOM      2  C2  BNZ d   1       0.435  -0.976   1.488  0.00  0.00     0.000 A 
ATOM      3  C3  BNZ d   1      -0.050   0.042   0.716  0.00  0.00     0.000 A 
ATOM      4  C4  BNZ d   1       0.661   0.462  -0.351  0.00  0.00     0.000 A 
ATOM      5  C5  BNZ d   1       1.854  -0.150  -0.681  0.00  0.00     0.000 A 
ATOM      6  C6  BNZ d   1       2.320  -1.200   0.076  0.00  0.00     0.000 A 
ENDROOT
TORSDOF 0
ENDMDL
