MODEL 1
REMARK minimizedAffinity -4.07980108
REMARK minimizedRMSD -1
REMARK  0 active torsions:
REMARK  status: ('A' for Active; 'I' for Inactive)
ROOT
ATOM      1  C1  BNZ d   1       2.516  -0.353  -0.297  0.00  0.00     0.000 A 
ATOM      2  C2  BNZ d   1       1.709   0.654  -0.755  0.00  0.00     0.000 A 
ATOM      3  C3  BNZ d   1       0.391   0.712  -0.397  0.00  0.00     0.000 A 
ATOM      4  C4  BNZ d   1      -0.127  -0.256   0.385  0.00  0.00     0.000 A 
ATOM      5  C5  BNZ d   1       0.672  -1.283   0.848  0.00  0.00     0.000 A 
ATOM      6  C6  BNZ d   1       2.007  -1.318   0.517  0.00  0.00     0.000 A 
ENDROOT
TORSDOF 0
ENDMDL
