MODEL 1
REMARK minimizedAffinity -0.0245152451
REMARK minimizedRMSD -1
REMARK  0 active torsions:
REMARK  status: ('A' for Active; 'I' for Inactive)
ROOT
ATOM      1  C1  BNZ d   1       2.789  -0.708   0.371  0.00  0.00     0.000 A 
ATOM      2  C2  BNZ d   1       2.538   0.238  -0.587  0.00  0.00     0.000 A 
ATOM      3  C3  BNZ d   1       1.324   0.863  -0.653  0.00  0.00     0.000 A 
ATOM      4  C4  BNZ d   1       0.350   0.512   0.212  0.00  0.00     0.000 A 
ATOM      5  C5  BNZ d   1       0.585  -0.447   1.177  0.00  0.00     0.000 A 
ATOM      6  C6  BNZ d   1       1.821  -1.046   1.265  0.00  0.00     0.000 A 
ENDROOT
TORSDOF 0
ENDMDL
