MODEL 1
REMARK minimizedAffinity -4.88939905
REMARK minimizedRMSD -1
REMARK  0 active torsions:
REMARK  status: ('A' for Active; 'I' for Inactive)
ROOT
ATOM      1  C1  BNZ d   1      -0.304  -0.934   0.446  0.00  0.00     0.000 A 
ATOM      2  C2  BNZ d   1       0.981  -1.258   0.102  0.00  0.00     0.000 A 
ATOM      3  C3  BNZ d   1       1.646  -2.264   0.746  0.00  0.00     0.000 A 
ATOM      4  C4  BNZ d   1       1.040  -2.916   1.760  0.00  0.00     0.000 A 
ATOM      5  C5  BNZ d   1      -0.252  -2.594   2.125  0.00  0.00     0.000 A 
ATOM      6  C6  BNZ d   1      -0.932  -1.607   1.448  0.00  0.00     0.000 A 
ENDROOT
TORSDOF 0
ENDMDL
