MODEL 1
REMARK minimizedAffinity -3.42127442
REMARK minimizedRMSD -1
REMARK  0 active torsions:
REMARK  status: ('A' for Active; 'I' for Inactive)
ROOT
ATOM      1  C1  BNZ d   1      -0.828   1.183  -0.431  0.00  0.00     0.000 A 
ATOM      2  C2  BNZ d   1       0.501   0.878  -0.557  0.00  0.00     0.000 A 
ATOM      3  C3  BNZ d   1       1.073  -0.092   0.217  0.00  0.00     0.000 A 
ATOM      4  C4  BNZ d   1       0.326  -0.728   1.143  0.00  0.00     0.000 A 
ATOM      5  C5  BNZ d   1      -1.013  -0.425   1.289  0.00  0.00     0.000 A 
ATOM      6  C6  BNZ d   1      -1.595   0.525   0.481  0.00  0.00     0.000 A 
ENDROOT
TORSDOF 0
ENDMDL
