MODEL 1
REMARK minimizedAffinity -2.77812052
REMARK minimizedRMSD -1
REMARK  0 active torsions:
REMARK  status: ('A' for Active; 'I' for Inactive)
ROOT
ATOM      1  C1  BNZ d   1      -3.340   0.155  -1.573  0.00  0.00     0.000 A 
ATOM      2  C2  BNZ d   1      -2.684  -0.293  -0.458  0.00  0.00     0.000 A 
ATOM      3  C3  BNZ d   1      -1.514   0.287  -0.053  0.00  0.00     0.000 A 
ATOM      4  C4  BNZ d   1      -0.981   1.286  -0.786  0.00  0.00     0.000 A 
ATOM      5  C5  BNZ d   1      -1.625   1.742  -1.919  0.00  0.00     0.000 A 
ATOM      6  C6  BNZ d   1      -2.823   1.182  -2.301  0.00  0.00     0.000 A 
ENDROOT
TORSDOF 0
ENDMDL
