MODEL 1
REMARK minimizedAffinity -0.194311529
REMARK minimizedRMSD -1
REMARK  0 active torsions:
REMARK  status: ('A' for Active; 'I' for Inactive)
ROOT
ATOM      1  C1  BNZ d   1      -1.748  -0.183   1.048  0.00  0.00     0.000 A 
ATOM      2  C2  BNZ d   1      -2.047  -0.685   2.287  0.00  0.00     0.000 A 
ATOM      3  C3  BNZ d   1      -1.063  -1.167   3.103  0.00  0.00     0.000 A 
ATOM      4  C4  BNZ d   1       0.212  -1.185   2.666  0.00  0.00     0.000 A 
ATOM      5  C5  BNZ d   1       0.529  -0.692   1.416  0.00  0.00     0.000 A 
ATOM      6  C6  BNZ d   1      -0.459  -0.171   0.612  0.00  0.00     0.000 A 
ENDROOT
TORSDOF 0
ENDMDL
