MODEL 1
REMARK minimizedAffinity -4.27862644
REMARK minimizedRMSD -1
REMARK  0 active torsions:
REMARK  status: ('A' for Active; 'I' for Inactive)
ROOT
ATOM      1  C1  BNZ d   1      -0.741   0.688  -0.384  0.00  0.00     0.000 A 
ATOM      2  C2  BNZ d   1      -1.119   1.188  -1.602  0.00  0.00     0.000 A 
ATOM      3  C3  BNZ d   1      -2.307   0.823  -2.170  0.00  0.00     0.000 A 
ATOM      4  C4  BNZ d   1      -3.097  -0.071  -1.540  0.00  0.00     0.000 A 
ATOM      5  C5  BNZ d   1      -2.725  -0.591  -0.316  0.00  0.00     0.000 A 
ATOM      6  C6  BNZ d   1      -1.547  -0.192   0.271  0.00  0.00     0.000 A 
ENDROOT
TORSDOF 0
ENDMDL
