MODEL 1
REMARK minimizedAffinity -4.8059988
REMARK minimizedRMSD -1
REMARK  0 active torsions:
REMARK  status: ('A' for Active; 'I' for Inactive)
ROOT
ATOM      1  C1  BNZ d   1      -1.053  -1.019   2.052  0.00  0.00     0.000 A 
ATOM      2  C2  BNZ d   1      -0.381  -1.799   2.955  0.00  0.00     0.000 A 
ATOM      3  C3  BNZ d   1       0.705  -2.536   2.573  0.00  0.00     0.000 A 
ATOM      4  C4  BNZ d   1       1.092  -2.524   1.281  0.00  0.00     0.000 A 
ATOM      5  C5  BNZ d   1       0.419  -1.751   0.356  0.00  0.00     0.000 A 
ATOM      6  C6  BNZ d   1      -0.649  -0.980   0.753  0.00  0.00     0.000 A 
ENDROOT
TORSDOF 0
ENDMDL
