MODEL 1
REMARK minimizedAffinity -4.76309061
REMARK minimizedRMSD -1
REMARK  1 active torsions:
REMARK  status: ('A' for Active; 'I' for Inactive)
REMARK    1  A    between atoms: N_2  and  C1_3 
ROOT
ATOM      1  C1  UNL d   1       0.144  -0.269   0.073  0.00  0.00     0.143 A 
ATOM      2  C2  UNL d   1      -0.221   0.073   1.380  0.00  0.00    -0.057 A 
ATOM      3  C3  UNL d   1       0.195   1.278   1.958  0.00  0.00     0.033 A 
ATOM      4  C4  UNL d   1       1.011   2.153   1.248  0.00  0.00    -0.042 A 
ATOM      5  C5  UNL d   1       1.407   1.822  -0.044  0.00  0.00     0.033 A 
ATOM      6  C6  UNL d   1       0.982   0.620  -0.618  0.00  0.00    -0.057 A 
ENDROOT
BRANCH   1   7
ATOM      7  N   UNL d   1      -0.156  -1.496  -0.522  0.00  0.00    -0.732 N 
ATOM      8  C   UNL d   1      -1.223  -1.603  -1.494  0.00  0.00     0.284 C 
ATOM      9  H3  UNL d   1       0.679  -2.026  -0.763  0.00  0.00     0.395 HD
ENDBRANCH   1   7
TORSDOF 1
ENDMDL
