MODEL 1
REMARK minimizedAffinity -3.86877346
REMARK minimizedRMSD -1
REMARK  1 active torsions:
REMARK  status: ('A' for Active; 'I' for Inactive)
REMARK    1  A    between atoms: N_2  and  C1_3 
ROOT
ATOM      1  C1  UNL d   1      -0.092  -0.423  -0.000  0.00  0.00     0.143 A 
ATOM      2  C2  UNL d   1      -0.850  -0.496   1.173  0.00  0.00    -0.057 A 
ATOM      3  C3  UNL d   1      -0.707   0.456   2.190  0.00  0.00     0.033 A 
ATOM      4  C4  UNL d   1       0.220   1.485   2.063  0.00  0.00    -0.042 A 
ATOM      5  C5  UNL d   1       1.002   1.564   0.916  0.00  0.00     0.033 A 
ATOM      6  C6  UNL d   1       0.850   0.613  -0.099  0.00  0.00    -0.057 A 
ENDROOT
BRANCH   1   7
ATOM      7  N   UNL d   1      -0.116  -1.394  -1.004  0.00  0.00    -0.732 N 
ATOM      8  C   UNL d   1      -1.283  -1.555  -1.845  0.00  0.00     0.284 C 
ATOM      9  H3  UNL d   1       0.768  -1.460  -1.502  0.00  0.00     0.395 HD
ENDBRANCH   1   7
TORSDOF 1
ENDMDL
