MODEL 1
REMARK minimizedAffinity -0.125857785
REMARK minimizedRMSD -1
REMARK  1 active torsions:
REMARK  status: ('A' for Active; 'I' for Inactive)
REMARK    1  A    between atoms: N_2  and  C1_3 
ROOT
ATOM      1  C1  UNL d   1      -0.078  -0.981  -0.892  0.00  0.00     0.143 A 
ATOM      2  C2  UNL d   1       1.247  -1.153  -1.306  0.00  0.00    -0.057 A 
ATOM      3  C3  UNL d   1       2.250  -0.253  -0.924  0.00  0.00     0.033 A 
ATOM      4  C4  UNL d   1       1.938   0.855  -0.144  0.00  0.00    -0.042 A 
ATOM      5  C5  UNL d   1       0.623   1.060   0.259  0.00  0.00     0.033 A 
ATOM      6  C6  UNL d   1      -0.373   0.154  -0.120  0.00  0.00    -0.057 A 
ENDROOT
BRANCH   1   7
ATOM      7  N   UNL d   1      -1.137  -1.786  -1.319  0.00  0.00    -0.732 N 
ATOM      8  C   UNL d   1      -1.638  -1.687  -2.673  0.00  0.00     0.284 C 
ATOM      9  H3  UNL d   1      -1.065  -2.739  -0.971  0.00  0.00     0.395 HD
ENDBRANCH   1   7
TORSDOF 1
ENDMDL
