MODEL 1
REMARK minimizedAffinity -4.91475534
REMARK minimizedRMSD -1
REMARK  1 active torsions:
REMARK  status: ('A' for Active; 'I' for Inactive)
REMARK    1  A    between atoms: N_2  and  C1_3 
ROOT
ATOM      1  C1  UNL d   1       1.078   1.628   0.572  0.00  0.00     0.143 A 
ATOM      2  C2  UNL d   1       0.243   0.654   0.014  0.00  0.00    -0.057 A 
ATOM      3  C3  UNL d   1      -0.943   0.264   0.648  0.00  0.00     0.033 A 
ATOM      4  C4  UNL d   1      -1.302   0.824   1.870  0.00  0.00    -0.042 A 
ATOM      5  C5  UNL d   1      -0.475   1.776   2.455  0.00  0.00     0.033 A 
ATOM      6  C6  UNL d   1       0.705   2.166   1.814  0.00  0.00    -0.057 A 
ENDROOT
BRANCH   1   7
ATOM      7  N   UNL d   1       2.319   1.987   0.040  0.00  0.00    -0.732 N 
ATOM      8  C   UNL d   1       3.360   0.997  -0.134  0.00  0.00     0.284 C 
ATOM      9  H3  UNL d   1       2.235   2.643  -0.733  0.00  0.00     0.395 HD
ENDBRANCH   1   7
TORSDOF 1
ENDMDL
