MODEL 1
REMARK minimizedAffinity -3.65555501
REMARK minimizedRMSD -1
REMARK  1 active torsions:
REMARK  status: ('A' for Active; 'I' for Inactive)
REMARK    1  A    between atoms: N_2  and  C1_3 
ROOT
ATOM      1  C1  UNL d   1      -0.257  -1.312  -0.282  0.00  0.00     0.143 A 
ATOM      2  C2  UNL d   1       1.046  -1.494  -0.757  0.00  0.00    -0.057 A 
ATOM      3  C3  UNL d   1       2.022  -0.503  -0.595  0.00  0.00     0.033 A 
ATOM      4  C4  UNL d   1       1.704   0.702   0.021  0.00  0.00    -0.042 A 
ATOM      5  C5  UNL d   1       0.408   0.914   0.479  0.00  0.00     0.033 A 
ATOM      6  C6  UNL d   1      -0.561  -0.081   0.320  0.00  0.00    -0.057 A 
ENDROOT
BRANCH   1   7
ATOM      7  N   UNL d   1      -1.298  -2.219  -0.500  0.00  0.00    -0.732 N 
ATOM      8  C   UNL d   1      -2.037  -2.207  -1.744  0.00  0.00     0.284 C 
ATOM      9  H3  UNL d   1      -1.080  -3.151  -0.154  0.00  0.00     0.395 HD
ENDBRANCH   1   7
TORSDOF 1
ENDMDL
