MODEL 1
REMARK minimizedAffinity -4.75241375
REMARK minimizedRMSD -1
REMARK  1 active torsions:
REMARK  status: ('A' for Active; 'I' for Inactive)
REMARK    1  A    between atoms: N_2  and  C1_3 
ROOT
ATOM      1  C1  UNL d   1       0.529   0.021  -0.025  0.00  0.00     0.143 A 
ATOM      2  C2  UNL d   1      -0.134   0.744   0.972  0.00  0.00    -0.057 A 
ATOM      3  C3  UNL d   1       0.500   1.788   1.656  0.00  0.00     0.033 A 
ATOM      4  C4  UNL d   1       1.824   2.109   1.374  0.00  0.00    -0.042 A 
ATOM      5  C5  UNL d   1       2.511   1.387   0.405  0.00  0.00     0.033 A 
ATOM      6  C6  UNL d   1       1.870   0.350  -0.280  0.00  0.00    -0.057 A 
ENDROOT
BRANCH   1   7
ATOM      7  N   UNL d   1      -0.015  -1.092  -0.672  0.00  0.00    -0.732 N 
ATOM      8  C   UNL d   1      -1.070  -0.933  -1.649  0.00  0.00     0.284 C 
ATOM      9  H3  UNL d   1       0.693  -1.775  -0.931  0.00  0.00     0.395 HD
ENDBRANCH   1   7
TORSDOF 1
ENDMDL
