MODEL 1
REMARK minimizedAffinity -0.377063066
REMARK minimizedRMSD -1
REMARK  1 active torsions:
REMARK  status: ('A' for Active; 'I' for Inactive)
REMARK    1  A    between atoms: N_2  and  C1_3 
ROOT
ATOM      1  C1  UNL d   1      -1.247  -1.524  -2.006  0.00  0.00     0.143 A 
ATOM      2  C2  UNL d   1      -1.059  -1.167  -3.346  0.00  0.00    -0.057 A 
ATOM      3  C3  UNL d   1      -2.130  -1.141  -4.248  0.00  0.00     0.033 A 
ATOM      4  C4  UNL d   1      -3.407  -1.501  -3.830  0.00  0.00    -0.042 A 
ATOM      5  C5  UNL d   1      -3.613  -1.883  -2.510  0.00  0.00     0.033 A 
ATOM      6  C6  UNL d   1      -2.540  -1.901  -1.612  0.00  0.00    -0.057 A 
ENDROOT
BRANCH   1   7
ATOM      7  N   UNL d   1      -0.206  -1.665  -1.085  0.00  0.00    -0.732 N 
ATOM      8  C   UNL d   1       0.349  -0.507  -0.418  0.00  0.00     0.284 C 
ATOM      9  H3  UNL d   1      -0.328  -2.474  -0.481  0.00  0.00     0.395 HD
ENDBRANCH   1   7
TORSDOF 1
ENDMDL
