MODEL 1
REMARK minimizedAffinity -5.3176899
REMARK minimizedRMSD -1
REMARK  1 active torsions:
REMARK  status: ('A' for Active; 'I' for Inactive)
REMARK    1  A    between atoms: N_2  and  C1_3 
ROOT
ATOM      1  C1  UNL d   1      -0.061   0.245   0.248  0.00  0.00     0.143 A 
ATOM      2  C2  UNL d   1      -0.654   0.957   1.296  0.00  0.00    -0.057 A 
ATOM      3  C3  UNL d   1      -0.037   2.088   1.845  0.00  0.00     0.033 A 
ATOM      4  C4  UNL d   1       1.201   2.511   1.372  0.00  0.00    -0.042 A 
ATOM      5  C5  UNL d   1       1.820   1.803   0.348  0.00  0.00     0.033 A 
ATOM      6  C6  UNL d   1       1.196   0.679  -0.200  0.00  0.00    -0.057 A 
ENDROOT
BRANCH   1   7
ATOM      7  N   UNL d   1      -0.577  -0.945  -0.273  0.00  0.00    -0.732 N 
ATOM      8  C   UNL d   1      -1.181  -0.973  -1.588  0.00  0.00     0.284 C 
ATOM      9  H3  UNL d   1       0.016  -1.746  -0.071  0.00  0.00     0.395 HD
ENDBRANCH   1   7
TORSDOF 1
ENDMDL
