MODEL 1
REMARK minimizedAffinity -5.3805604
REMARK minimizedRMSD -1
REMARK  1 active torsions:
REMARK  status: ('A' for Active; 'I' for Inactive)
REMARK    1  A    between atoms: N_2  and  C1_3 
ROOT
ATOM      1  C1  UNL d   1       0.400   0.011   0.131  0.00  0.00     0.143 A 
ATOM      2  C2  UNL d   1      -0.261   0.959   0.920  0.00  0.00    -0.057 A 
ATOM      3  C3  UNL d   1       0.425   2.043   1.480  0.00  0.00     0.033 A 
ATOM      4  C4  UNL d   1       1.796   2.182   1.286  0.00  0.00    -0.042 A 
ATOM      5  C5  UNL d   1       2.478   1.238   0.526  0.00  0.00     0.033 A 
ATOM      6  C6  UNL d   1       1.786   0.161  -0.036  0.00  0.00    -0.057 A 
ENDROOT
BRANCH   1   7
ATOM      7  N   UNL d   1      -0.207  -1.142  -0.372  0.00  0.00    -0.732 N 
ATOM      8  C   UNL d   1      -1.124  -1.065  -1.489  0.00  0.00     0.284 C 
ATOM      9  H3  UNL d   1       0.433  -1.932  -0.413  0.00  0.00     0.395 HD
ENDBRANCH   1   7
TORSDOF 1
ENDMDL
