MODEL 1
REMARK minimizedAffinity -3.87797451
REMARK minimizedRMSD -1
REMARK  1 active torsions:
REMARK  status: ('A' for Active; 'I' for Inactive)
REMARK    1  A    between atoms: N_2  and  C1_3 
ROOT
ATOM      1  C1  UNL d   1      -0.174  -0.116   0.023  0.00  0.00     0.143 A 
ATOM      2  C2  UNL d   1      -0.743   0.030   1.293  0.00  0.00    -0.057 A 
ATOM      3  C3  UNL d   1      -0.543   1.191   2.049  0.00  0.00     0.033 A 
ATOM      4  C4  UNL d   1       0.256   2.219   1.559  0.00  0.00    -0.042 A 
ATOM      5  C5  UNL d   1       0.852   2.085   0.310  0.00  0.00     0.033 A 
ATOM      6  C6  UNL d   1       0.644   0.926  -0.443  0.00  0.00    -0.057 A 
ENDROOT
BRANCH   1   7
ATOM      7  N   UNL d   1      -0.254  -1.286  -0.736  0.00  0.00    -0.732 N 
ATOM      8  C   UNL d   1      -1.201  -1.394  -1.825  0.00  0.00     0.284 C 
ATOM      9  H3  UNL d   1       0.661  -1.680  -0.940  0.00  0.00     0.395 HD
ENDBRANCH   1   7
TORSDOF 1
ENDMDL
