MODEL 1
REMARK minimizedAffinity -3.45787549
REMARK minimizedRMSD -1
REMARK  1 active torsions:
REMARK  status: ('A' for Active; 'I' for Inactive)
REMARK    1  A    between atoms: N_2  and  C1_3 
ROOT
ATOM      1  C1  UNL d   1       0.168  -0.008  -0.200  0.00  0.00     0.143 A 
ATOM      2  C2  UNL d   1      -0.420   0.414   0.997  0.00  0.00    -0.057 A 
ATOM      3  C3  UNL d   1      -0.046   1.620   1.604  0.00  0.00     0.033 A 
ATOM      4  C4  UNL d   1       0.947   2.412   1.037  0.00  0.00    -0.042 A 
ATOM      5  C5  UNL d   1       1.563   1.999  -0.139  0.00  0.00     0.033 A 
ATOM      6  C6  UNL d   1       1.181   0.798  -0.744  0.00  0.00    -0.057 A 
ENDROOT
BRANCH   1   7
ATOM      7  N   UNL d   1      -0.090  -1.243  -0.800  0.00  0.00    -0.732 N 
ATOM      8  C   UNL d   1      -1.267  -1.432  -1.621  0.00  0.00     0.284 C 
ATOM      9  H3  UNL d   1       0.751  -1.678  -1.173  0.00  0.00     0.395 HD
ENDBRANCH   1   7
TORSDOF 1
ENDMDL
