MODEL 1
REMARK minimizedAffinity -4.42412281
REMARK minimizedRMSD -1
REMARK  1 active torsions:
REMARK  status: ('A' for Active; 'I' for Inactive)
REMARK    1  A    between atoms: N_2  and  C1_3 
ROOT
ATOM      1  C1  UNL d   1       0.079   0.032   0.215  0.00  0.00     0.143 A 
ATOM      2  C2  UNL d   1      -0.496   0.692   1.306  0.00  0.00    -0.057 A 
ATOM      3  C3  UNL d   1       0.106   1.824   1.869  0.00  0.00     0.033 A 
ATOM      4  C4  UNL d   1       1.313   2.300   1.367  0.00  0.00    -0.042 A 
ATOM      5  C5  UNL d   1       1.915   1.645   0.299  0.00  0.00     0.033 A 
ATOM      6  C6  UNL d   1       1.306   0.519  -0.263  0.00  0.00    -0.057 A 
ENDROOT
BRANCH   1   7
ATOM      7  N   UNL d   1      -0.419  -1.156  -0.326  0.00  0.00    -0.732 N 
ATOM      8  C   UNL d   1      -1.151  -1.147  -1.574  0.00  0.00     0.284 C 
ATOM      9  H3  UNL d   1       0.234  -1.930  -0.232  0.00  0.00     0.395 HD
ENDBRANCH   1   7
TORSDOF 1
ENDMDL
