MODEL 1
REMARK minimizedAffinity -1.86637926
REMARK minimizedRMSD -1
REMARK  1 active torsions:
REMARK  status: ('A' for Active; 'I' for Inactive)
REMARK    1  A    between atoms: C1_2  and  C2_3 
ROOT
ATOM      1  C2  UNL d   1       2.591  -0.777   1.434  0.00  0.00    -0.077 A 
ATOM      2  C3  UNL d   1       1.338  -1.391   1.297  0.00  0.00     0.002 A 
ATOM      3  C4  UNL d   1       1.037  -2.551   2.012  0.00  0.00     0.002 A 
ATOM      4  C5  UNL d   1       1.983  -3.106   2.872  0.00  0.00    -0.004 A 
ATOM      5  C6  UNL d   1       3.233  -2.505   3.014  0.00  0.00     0.002 A 
ATOM      6  C7  UNL d   1       3.535  -1.345   2.299  0.00  0.00     0.002 A 
ENDROOT
BRANCH   1   7
ATOM      7  C1  UNL d   1       2.900   0.502   0.701  0.00  0.00     0.055 C 
ATOM      8  C   UNL d   1       1.678   1.406   0.627  0.00  0.00     0.019 C 
ENDBRANCH   1   7
TORSDOF 1
ENDMDL
