MODEL 1
REMARK minimizedAffinity -3.2134645
REMARK minimizedRMSD -1
REMARK  1 active torsions:
REMARK  status: ('A' for Active; 'I' for Inactive)
REMARK    1  A    between atoms: C1_2  and  C2_3 
ROOT
ATOM      1  C2  UNL d   1       2.329  -2.985   3.359  0.00  0.00    -0.077 A 
ATOM      2  C3  UNL d   1       3.249  -2.126   2.741  0.00  0.00     0.002 A 
ATOM      3  C4  UNL d   1       2.859  -1.335   1.658  0.00  0.00     0.002 A 
ATOM      4  C5  UNL d   1       1.548  -1.391   1.188  0.00  0.00    -0.004 A 
ATOM      5  C6  UNL d   1       0.627  -2.243   1.795  0.00  0.00     0.002 A 
ATOM      6  C7  UNL d   1       1.015  -3.036   2.876  0.00  0.00     0.002 A 
ENDROOT
BRANCH   1   7
ATOM      7  C1  UNL d   1       2.734  -3.802   4.557  0.00  0.00     0.055 C 
ATOM      8  C   UNL d   1       2.848  -5.279   4.207  0.00  0.00     0.019 C 
ENDBRANCH   1   7
TORSDOF 1
ENDMDL
