MODEL 1
REMARK minimizedAffinity 0.862864196
REMARK minimizedRMSD -1
REMARK  1 active torsions:
REMARK  status: ('A' for Active; 'I' for Inactive)
REMARK    1  A    between atoms: C1_2  and  C2_3 
ROOT
ATOM      1  C2  UNL d   1       1.183  -1.209   1.261  0.00  0.00    -0.077 A 
ATOM      2  C3  UNL d   1       2.474  -0.715   1.029  0.00  0.00     0.002 A 
ATOM      3  C4  UNL d   1       2.673   0.637   0.744  0.00  0.00     0.002 A 
ATOM      4  C5  UNL d   1       1.585   1.507   0.691  0.00  0.00    -0.004 A 
ATOM      5  C6  UNL d   1       0.297   1.025   0.918  0.00  0.00     0.002 A 
ATOM      6  C7  UNL d   1       0.097  -0.327   1.202  0.00  0.00     0.002 A 
ENDROOT
BRANCH   1   7
ATOM      7  C1  UNL d   1       0.972  -2.657   1.617  0.00  0.00     0.055 C 
ATOM      8  C   UNL d   1       1.586  -2.989   2.970  0.00  0.00     0.019 C 
ENDBRANCH   1   7
TORSDOF 1
ENDMDL
