MODEL 1
REMARK minimizedAffinity -0.678883612
REMARK minimizedRMSD -1
REMARK  1 active torsions:
REMARK  status: ('A' for Active; 'I' for Inactive)
REMARK    1  A    between atoms: C1_2  and  C2_3 
ROOT
ATOM      1  C2  UNL d   1       0.873  -2.221   0.268  0.00  0.00    -0.077 A 
ATOM      2  C3  UNL d   1      -0.424  -1.824  -0.088  0.00  0.00     0.002 A 
ATOM      3  C4  UNL d   1      -0.812  -1.798  -1.429  0.00  0.00     0.002 A 
ATOM      4  C5  UNL d   1       0.089  -2.170  -2.424  0.00  0.00    -0.004 A 
ATOM      5  C6  UNL d   1       1.382  -2.564  -2.081  0.00  0.00     0.002 A 
ATOM      6  C7  UNL d   1       1.772  -2.590  -0.741  0.00  0.00     0.002 A 
ENDROOT
BRANCH   1   7
ATOM      7  C1  UNL d   1       1.277  -2.297   1.717  0.00  0.00     0.055 C 
ATOM      8  C   UNL d   1       2.539  -1.490   1.982  0.00  0.00     0.019 C 
ENDBRANCH   1   7
TORSDOF 1
ENDMDL
