MODEL 1
REMARK minimizedAffinity -1.66135788
REMARK minimizedRMSD -1
REMARK  1 active torsions:
REMARK  status: ('A' for Active; 'I' for Inactive)
REMARK    1  A    between atoms: C1_2  and  C2_3 
ROOT
ATOM      1  C2  UNL d   1       1.601  -2.173  -1.260  0.00  0.00    -0.077 A 
ATOM      2  C3  UNL d   1       1.671  -1.485  -0.041  0.00  0.00     0.002 A 
ATOM      3  C4  UNL d   1       0.623  -0.658   0.365  0.00  0.00     0.002 A 
ATOM      4  C5  UNL d   1      -0.505  -0.514  -0.440  0.00  0.00    -0.004 A 
ATOM      5  C6  UNL d   1      -0.584  -1.192  -1.656  0.00  0.00     0.002 A 
ATOM      6  C7  UNL d   1       0.464  -2.018  -2.064  0.00  0.00     0.002 A 
ENDROOT
BRANCH   1   7
ATOM      7  C1  UNL d   1       2.709  -3.104  -1.677  0.00  0.00     0.055 C 
ATOM      8  C   UNL d   1       3.354  -2.650  -2.978  0.00  0.00     0.019 C 
ENDBRANCH   1   7
TORSDOF 1
ENDMDL
