MODEL 1
REMARK minimizedAffinity 6.39574242
REMARK minimizedRMSD -1
REMARK  1 active torsions:
REMARK  status: ('A' for Active; 'I' for Inactive)
REMARK    1  A    between atoms: C1_2  and  C2_3 
ROOT
ATOM      1  C2  UNL d   1      -1.500  -3.616  -3.443  0.00  0.00    -0.077 A 
ATOM      2  C3  UNL d   1      -1.675  -4.839  -2.780  0.00  0.00     0.002 A 
ATOM      3  C4  UNL d   1      -1.964  -5.998  -3.502  0.00  0.00     0.002 A 
ATOM      4  C5  UNL d   1      -2.077  -5.947  -4.890  0.00  0.00    -0.004 A 
ATOM      5  C6  UNL d   1      -1.907  -4.735  -5.558  0.00  0.00     0.002 A 
ATOM      6  C7  UNL d   1      -1.619  -3.575  -4.838  0.00  0.00     0.002 A 
ENDROOT
BRANCH   1   7
ATOM      7  C1  UNL d   1      -1.140  -2.374  -2.671  0.00  0.00     0.055 C 
ATOM      8  C   UNL d   1      -0.292  -1.427  -3.508  0.00  0.00     0.019 C 
ENDBRANCH   1   7
TORSDOF 1
ENDMDL
