MODEL 1
REMARK minimizedAffinity 7.76735687
REMARK minimizedRMSD -1
REMARK  1 active torsions:
REMARK  status: ('A' for Active; 'I' for Inactive)
REMARK    1  A    between atoms: C1_2  and  C2_3 
ROOT
ATOM      1  C2  UNL d   1       1.682  -1.006  -4.676  0.00  0.00    -0.077 A 
ATOM      2  C3  UNL d   1       0.704  -0.115  -4.213  0.00  0.00     0.002 A 
ATOM      3  C4  UNL d   1      -0.650  -0.380  -4.424  0.00  0.00     0.002 A 
ATOM      4  C5  UNL d   1      -1.039  -1.538  -5.095  0.00  0.00    -0.004 A 
ATOM      5  C6  UNL d   1      -0.073  -2.430  -5.561  0.00  0.00     0.002 A 
ATOM      6  C7  UNL d   1       1.281  -2.165  -5.352  0.00  0.00     0.002 A 
ENDROOT
BRANCH   1   7
ATOM      7  C1  UNL d   1       3.141  -0.746  -4.406  0.00  0.00     0.055 C 
ATOM      8  C   UNL d   1       3.679   0.365  -5.296  0.00  0.00     0.019 C 
ENDBRANCH   1   7
TORSDOF 1
ENDMDL
