MODEL 1
REMARK minimizedAffinity 12.1417284
REMARK minimizedRMSD -1
REMARK  1 active torsions:
REMARK  status: ('A' for Active; 'I' for Inactive)
REMARK    1  A    between atoms: C1_2  and  C2_3 
ROOT
ATOM      1  C2  UNL d   1       4.867   3.009   2.194  0.00  0.00    -0.077 A 
ATOM      2  C3  UNL d   1       4.042   3.372   1.120  0.00  0.00     0.002 A 
ATOM      3  C4  UNL d   1       3.377   4.599   1.123  0.00  0.00     0.002 A 
ATOM      4  C5  UNL d   1       3.533   5.475   2.196  0.00  0.00    -0.004 A 
ATOM      5  C6  UNL d   1       4.349   5.122   3.270  0.00  0.00     0.002 A 
ATOM      6  C7  UNL d   1       5.014   3.895   3.268  0.00  0.00     0.002 A 
ENDROOT
BRANCH   1   7
ATOM      7  C1  UNL d   1       5.624   1.707   2.169  0.00  0.00     0.055 C 
ATOM      8  C   UNL d   1       6.000   1.312   0.748  0.00  0.00     0.019 C 
ENDBRANCH   1   7
TORSDOF 1
ENDMDL
