MODEL 1
REMARK minimizedAffinity 5.60919571
REMARK minimizedRMSD -1
REMARK  1 active torsions:
REMARK  status: ('A' for Active; 'I' for Inactive)
REMARK    1  A    between atoms: C1_2  and  C2_3 
ROOT
ATOM      1  C2  UNL d   1      -0.201   0.284   2.482  0.00  0.00    -0.077 A 
ATOM      2  C3  UNL d   1      -1.288  -0.552   2.191  0.00  0.00     0.002 A 
ATOM      3  C4  UNL d   1      -2.547  -0.009   1.931  0.00  0.00     0.002 A 
ATOM      4  C5  UNL d   1      -2.731   1.372   1.955  0.00  0.00    -0.004 A 
ATOM      5  C6  UNL d   1      -1.656   2.212   2.245  0.00  0.00     0.002 A 
ATOM      6  C7  UNL d   1      -0.397   1.671   2.506  0.00  0.00     0.002 A 
ENDROOT
BRANCH   1   7
ATOM      7  C1  UNL d   1       1.169  -0.298   2.714  0.00  0.00     0.055 C 
ATOM      8  C   UNL d   1       1.227  -1.074   4.021  0.00  0.00     0.019 C 
ENDBRANCH   1   7
TORSDOF 1
ENDMDL
