MODEL 1
REMARK minimizedAffinity 13.2203255
REMARK minimizedRMSD -1
REMARK  1 active torsions:
REMARK  status: ('A' for Active; 'I' for Inactive)
REMARK    1  A    between atoms: C1_2  and  C2_3 
ROOT
ATOM      1  C2  UNL d   1       3.312  -1.381  -3.389  0.00  0.00    -0.077 A 
ATOM      2  C3  UNL d   1       2.128  -2.086  -3.131  0.00  0.00     0.002 A 
ATOM      3  C4  UNL d   1       0.888  -1.463  -3.282  0.00  0.00     0.002 A 
ATOM      4  C5  UNL d   1       0.820  -0.134  -3.696  0.00  0.00    -0.004 A 
ATOM      5  C6  UNL d   1       1.992   0.576  -3.954  0.00  0.00     0.002 A 
ATOM      6  C7  UNL d   1       3.232  -0.045  -3.802  0.00  0.00     0.002 A 
ENDROOT
BRANCH   1   7
ATOM      7  C1  UNL d   1       4.649  -2.066  -3.274  0.00  0.00     0.055 C 
ATOM      8  C   UNL d   1       4.954  -2.897  -4.512  0.00  0.00     0.019 C 
ENDBRANCH   1   7
TORSDOF 1
ENDMDL
