MODEL 1
REMARK minimizedAffinity 11.2747135
REMARK minimizedRMSD -1
REMARK  1 active torsions:
REMARK  status: ('A' for Active; 'I' for Inactive)
REMARK    1  A    between atoms: C1_2  and  C2_3 
ROOT
ATOM      1  C2  UNL d   1       3.350  -3.952   4.937  0.00  0.00    -0.077 A 
ATOM      2  C3  UNL d   1       4.295  -2.976   5.286  0.00  0.00     0.002 A 
ATOM      3  C4  UNL d   1       5.613  -3.339   5.568  0.00  0.00     0.002 A 
ATOM      4  C5  UNL d   1       6.000  -4.675   5.501  0.00  0.00    -0.004 A 
ATOM      5  C6  UNL d   1       5.068  -5.654   5.157  0.00  0.00     0.002 A 
ATOM      6  C7  UNL d   1       3.749  -5.294   4.876  0.00  0.00     0.002 A 
ENDROOT
BRANCH   1   7
ATOM      7  C1  UNL d   1       1.940  -3.558   4.585  0.00  0.00     0.055 C 
ATOM      8  C   UNL d   1       1.910  -2.620   3.387  0.00  0.00     0.019 C 
ENDBRANCH   1   7
TORSDOF 1
ENDMDL
