MODEL 1
REMARK minimizedAffinity 5.70206785
REMARK minimizedRMSD -1
REMARK  1 active torsions:
REMARK  status: ('A' for Active; 'I' for Inactive)
REMARK    1  A    between atoms: C1_2  and  C2_3 
ROOT
ATOM      1  C2  UNL d   1       3.276  -3.580   4.776  0.00  0.00    -0.077 A 
ATOM      2  C3  UNL d   1       4.194  -2.523   4.719  0.00  0.00     0.002 A 
ATOM      3  C4  UNL d   1       5.549  -2.750   4.968  0.00  0.00     0.002 A 
ATOM      4  C5  UNL d   1       5.998  -4.033   5.271  0.00  0.00    -0.004 A 
ATOM      5  C6  UNL d   1       5.092  -5.091   5.332  0.00  0.00     0.002 A 
ATOM      6  C7  UNL d   1       3.737  -4.866   5.085  0.00  0.00     0.002 A 
ENDROOT
BRANCH   1   7
ATOM      7  C1  UNL d   1       1.821  -3.346   4.460  0.00  0.00     0.055 C 
ATOM      8  C   UNL d   1       1.635  -2.108   3.595  0.00  0.00     0.019 C 
ENDBRANCH   1   7
TORSDOF 1
ENDMDL
