MODEL 1
REMARK minimizedAffinity 7.8333559
REMARK minimizedRMSD -1
REMARK  1 active torsions:
REMARK  status: ('A' for Active; 'I' for Inactive)
REMARK    1  A    between atoms: C1_2  and  C2_3 
ROOT
ATOM      1  C2  UNL d   1       0.320  -4.032   4.906  0.00  0.00    -0.077 A 
ATOM      2  C3  UNL d   1       1.630  -4.531   4.903  0.00  0.00     0.002 A 
ATOM      3  C4  UNL d   1       2.557  -4.079   3.962  0.00  0.00     0.002 A 
ATOM      4  C5  UNL d   1       2.185  -3.122   3.020  0.00  0.00    -0.004 A 
ATOM      5  C6  UNL d   1       0.884  -2.620   3.014  0.00  0.00     0.002 A 
ATOM      6  C7  UNL d   1      -0.044  -3.072   3.953  0.00  0.00     0.002 A 
ENDROOT
BRANCH   1   7
ATOM      7  C1  UNL d   1      -0.667  -4.482   5.951  0.00  0.00     0.055 C 
ATOM      8  C   UNL d   1      -0.769  -6.000   5.998  0.00  0.00     0.019 C 
ENDBRANCH   1   7
TORSDOF 1
ENDMDL
