MODEL 1
REMARK minimizedAffinity 14.1933308
REMARK minimizedRMSD -1
REMARK  0 active torsions:
REMARK  status: ('A' for Active; 'I' for Inactive)
ROOT
ATOM      1  C1  DEN d   1       2.297  -4.080   5.478  0.00  0.00     0.130 A 
ATOM      2  C2  DEN d   1       2.565  -5.099   4.467  0.00  0.00    -0.031 A 
ATOM      3  C3  DEN d   1       2.695  -4.422   3.161  0.00  0.00     0.027 A 
ATOM      4  C4  DEN d   1       2.513  -1.909   2.609  0.00  0.00     0.027 A 
ATOM      5  C5  DEN d   1       2.284  -0.658   3.138  0.00  0.00    -0.003 A 
ATOM      6  C6  DEN d   1       2.012  -0.465   4.466  0.00  0.00     0.001 A 
ATOM      7  C7  DEN d   1       2.006  -1.536   5.321  0.00  0.00     0.017 A 
ATOM      8  C8  DEN d   1       2.229  -2.801   4.794  0.00  0.00    -0.094 A 
ATOM      9  C9  DEN d   1       2.514  -2.974   3.450  0.00  0.00    -0.072 A 
ENDROOT
TORSDOF 0
ENDMDL
