MODEL 1
REMARK minimizedAffinity 16.3208618
REMARK minimizedRMSD -1
REMARK  0 active torsions:
REMARK  status: ('A' for Active; 'I' for Inactive)
ROOT
ATOM      1  C1  DEN d   1       1.150  -0.847   2.908  0.00  0.00     0.130 A 
ATOM      2  C2  DEN d   1       2.334  -1.616   3.279  0.00  0.00    -0.031 A 
ATOM      3  C3  DEN d   1       2.643  -2.541   2.171  0.00  0.00     0.027 A 
ATOM      4  C4  DEN d   1       1.413  -2.851  -0.075  0.00  0.00     0.027 A 
ATOM      5  C5  DEN d   1       0.346  -2.430  -0.838  0.00  0.00    -0.003 A 
ATOM      6  C6  DEN d   1      -0.540  -1.484  -0.396  0.00  0.00     0.001 A 
ATOM      7  C7  DEN d   1      -0.349  -0.894   0.826  0.00  0.00     0.017 A 
ATOM      8  C8  DEN d   1       0.720  -1.319   1.604  0.00  0.00    -0.094 A 
ATOM      9  C9  DEN d   1       1.612  -2.268   1.134  0.00  0.00    -0.072 A 
ENDROOT
TORSDOF 0
ENDMDL
