MODEL 1
REMARK minimizedAffinity 14.6932936
REMARK minimizedRMSD -1
REMARK  0 active torsions:
REMARK  status: ('A' for Active; 'I' for Inactive)
ROOT
ATOM      1  C1  DEN d   1       1.440  -1.551   3.686  0.00  0.00     0.130 A 
ATOM      2  C2  DEN d   1       1.560  -1.884   2.269  0.00  0.00    -0.031 A 
ATOM      3  C3  DEN d   1       2.188  -0.737   1.583  0.00  0.00     0.027 A 
ATOM      4  C4  DEN d   1       2.986   1.507   2.572  0.00  0.00     0.027 A 
ATOM      5  C5  DEN d   1       3.083   2.255   3.725  0.00  0.00    -0.003 A 
ATOM      6  C6  DEN d   1       2.612   1.803   4.929  0.00  0.00     0.001 A 
ATOM      7  C7  DEN d   1       2.063   0.552   5.017  0.00  0.00     0.017 A 
ATOM      8  C8  DEN d   1       1.955  -0.205   3.858  0.00  0.00    -0.094 A 
ATOM      9  C9  DEN d   1       2.448   0.264   2.652  0.00  0.00    -0.072 A 
ENDROOT
TORSDOF 0
ENDMDL
