MODEL 1
REMARK minimizedAffinity 6.94469261
REMARK minimizedRMSD -1
REMARK  0 active torsions:
REMARK  status: ('A' for Active; 'I' for Inactive)
ROOT
ATOM      1  C1  DEN d   1       5.612  -1.767   3.962  0.00  0.00     0.130 A 
ATOM      2  C2  DEN d   1       6.000  -2.264   5.280  0.00  0.00    -0.031 A 
ATOM      3  C3  DEN d   1       4.771  -2.657   5.999  0.00  0.00     0.027 A 
ATOM      4  C4  DEN d   1       2.320  -2.551   5.202  0.00  0.00     0.027 A 
ATOM      5  C5  DEN d   1       1.493  -2.191   4.161  0.00  0.00    -0.003 A 
ATOM      6  C6  DEN d   1       1.974  -1.637   3.004  0.00  0.00     0.001 A 
ATOM      7  C7  DEN d   1       3.324  -1.469   2.842  0.00  0.00     0.017 A 
ATOM      8  C8  DEN d   1       4.164  -1.823   3.889  0.00  0.00    -0.094 A 
ATOM      9  C9  DEN d   1       3.659  -2.392   5.046  0.00  0.00    -0.072 A 
ENDROOT
TORSDOF 0
ENDMDL
