MODEL 1
REMARK minimizedAffinity 16.7401981
REMARK minimizedRMSD -1
REMARK  0 active torsions:
REMARK  status: ('A' for Active; 'I' for Inactive)
ROOT
ATOM      1  C1  DEN d   1       0.551  -4.501   6.000  0.00  0.00     0.130 A 
ATOM      2  C2  DEN d   1       0.665  -5.910   5.633  0.00  0.00    -0.031 A 
ATOM      3  C3  DEN d   1       1.509  -6.000   4.425  0.00  0.00     0.027 A 
ATOM      4  C4  DEN d   1       2.650  -4.105   3.097  0.00  0.00     0.027 A 
ATOM      5  C5  DEN d   1       2.833  -2.743   3.018  0.00  0.00    -0.003 A 
ATOM      6  C6  DEN d   1       2.246  -1.875   3.900  0.00  0.00     0.001 A 
ATOM      7  C7  DEN d   1       1.483  -2.364   4.928  0.00  0.00     0.017 A 
ATOM      8  C8  DEN d   1       1.288  -3.736   5.009  0.00  0.00    -0.094 A 
ATOM      9  C9  DEN d   1       1.900  -4.598   4.115  0.00  0.00    -0.072 A 
ENDROOT
TORSDOF 0
ENDMDL
