MODEL 1
REMARK minimizedAffinity 1.01787782
REMARK minimizedRMSD -1
REMARK  0 active torsions:
REMARK  status: ('A' for Active; 'I' for Inactive)
ROOT
ATOM      1  C1  DEN d   1       5.875  -2.073   4.166  0.00  0.00     0.130 A 
ATOM      2  C2  DEN d   1       5.860  -2.658   5.504  0.00  0.00    -0.031 A 
ATOM      3  C3  DEN d   1       4.459  -2.700   5.968  0.00  0.00     0.027 A 
ATOM      4  C4  DEN d   1       2.321  -1.927   4.749  0.00  0.00     0.027 A 
ATOM      5  C5  DEN d   1       1.832  -1.354   3.597  0.00  0.00    -0.003 A 
ATOM      6  C6  DEN d   1       2.651  -0.952   2.575  0.00  0.00     0.001 A 
ATOM      7  C7  DEN d   1       4.002  -1.160   2.668  0.00  0.00     0.017 A 
ATOM      8  C8  DEN d   1       4.504  -1.731   3.830  0.00  0.00    -0.094 A 
ATOM      9  C9  DEN d   1       3.658  -2.141   4.846  0.00  0.00    -0.072 A 
ENDROOT
TORSDOF 0
ENDMDL
