MODEL 1
REMARK minimizedAffinity 4.08585978
REMARK minimizedRMSD -1
REMARK  1 active torsions:
REMARK  status: ('A' for Active; 'I' for Inactive)
REMARK    1  A    between atoms: C1_2  and  C2_3 
ROOT
ATOM      1  C2  UNL d   1       3.647   3.738   5.294  0.00  0.00    -0.077 A 
ATOM      2  C3  UNL d   1       2.949   4.728   6.000  0.00  0.00     0.002 A 
ATOM      3  C4  UNL d   1       2.459   5.855   5.337  0.00  0.00     0.002 A 
ATOM      4  C5  UNL d   1       2.658   6.000   3.965  0.00  0.00    -0.004 A 
ATOM      5  C6  UNL d   1       3.352   5.021   3.255  0.00  0.00     0.002 A 
ATOM      6  C7  UNL d   1       3.843   3.895   3.916  0.00  0.00     0.002 A 
ENDROOT
BRANCH   1   7
ATOM      7  C1  UNL d   1       4.133   2.498   5.999  0.00  0.00     0.055 C 
ATOM      8  C   UNL d   1       3.071   1.409   6.000  0.00  0.00     0.019 C 
ENDBRANCH   1   7
TORSDOF 1
ENDMDL
