MODEL 1
REMARK minimizedAffinity 2.12833452
REMARK minimizedRMSD -1
REMARK  1 active torsions:
REMARK  status: ('A' for Active; 'I' for Inactive)
REMARK    1  A    between atoms: C1_2  and  C2_3 
ROOT
ATOM      1  C2  UNL d   1      -0.179  -3.255   5.611  0.00  0.00    -0.077 A 
ATOM      2  C3  UNL d   1      -1.336  -3.947   5.995  0.00  0.00     0.002 A 
ATOM      3  C4  UNL d   1      -1.473  -5.307   5.707  0.00  0.00     0.002 A 
ATOM      4  C5  UNL d   1      -0.456  -5.985   5.039  0.00  0.00    -0.004 A 
ATOM      5  C6  UNL d   1       0.697  -5.305   4.651  0.00  0.00     0.002 A 
ATOM      6  C7  UNL d   1       0.836  -3.946   4.937  0.00  0.00     0.002 A 
ENDROOT
BRANCH   1   7
ATOM      7  C1  UNL d   1      -0.008  -1.800   5.963  0.00  0.00     0.055 C 
ATOM      8  C   UNL d   1      -1.346  -1.078   5.999  0.00  0.00     0.019 C 
ENDBRANCH   1   7
TORSDOF 1
ENDMDL
