MODEL 1
REMARK minimizedAffinity 7.57128716
REMARK minimizedRMSD -1
REMARK  1 active torsions:
REMARK  status: ('A' for Active; 'I' for Inactive)
REMARK    1  A    between atoms: C1_2  and  C2_3 
ROOT
ATOM      1  C2  UNL d   1      -1.221  -0.804   0.732  0.00  0.00    -0.077 A 
ATOM      2  C3  UNL d   1      -0.495  -0.307   1.824  0.00  0.00     0.002 A 
ATOM      3  C4  UNL d   1       0.813   0.152   1.653  0.00  0.00     0.002 A 
ATOM      4  C5  UNL d   1       1.403   0.124   0.391  0.00  0.00    -0.004 A 
ATOM      5  C6  UNL d   1       0.691  -0.370  -0.701  0.00  0.00     0.002 A 
ATOM      6  C7  UNL d   1      -0.616  -0.831  -0.531  0.00  0.00     0.002 A 
ENDROOT
BRANCH   1   7
ATOM      7  C1  UNL d   1      -2.648  -1.254   0.905  0.00  0.00     0.055 C 
ATOM      8  C   UNL d   1      -3.512  -0.143   1.483  0.00  0.00     0.019 C 
ENDBRANCH   1   7
TORSDOF 1
ENDMDL
