MODEL 1
REMARK minimizedAffinity 7.27409077
REMARK minimizedRMSD -1
REMARK  1 active torsions:
REMARK  status: ('A' for Active; 'I' for Inactive)
REMARK    1  A    between atoms: C1_2  and  C2_3 
ROOT
ATOM      1  C2  UNL d   1      -0.163  -2.042  -1.225  0.00  0.00    -0.077 A 
ATOM      2  C3  UNL d   1      -0.802  -0.822  -1.487  0.00  0.00     0.002 A 
ATOM      3  C4  UNL d   1      -0.397   0.342  -0.832  0.00  0.00     0.002 A 
ATOM      4  C5  UNL d   1       0.650   0.299   0.086  0.00  0.00    -0.004 A 
ATOM      5  C6  UNL d   1       1.291  -0.910   0.355  0.00  0.00     0.002 A 
ATOM      6  C7  UNL d   1       0.887  -2.075  -0.299  0.00  0.00     0.002 A 
ENDROOT
BRANCH   1   7
ATOM      7  C1  UNL d   1      -0.565  -3.290  -1.968  0.00  0.00     0.055 C 
ATOM      8  C   UNL d   1      -0.933  -2.980  -3.412  0.00  0.00     0.019 C 
ENDBRANCH   1   7
TORSDOF 1
ENDMDL
