MODEL 1
REMARK minimizedAffinity 3.68735552
REMARK minimizedRMSD -1
REMARK  1 active torsions:
REMARK  status: ('A' for Active; 'I' for Inactive)
REMARK    1  A    between atoms: C1_2  and  C2_3 
ROOT
ATOM      1  C2  UNL d   1      -3.202   2.356   2.513  0.00  0.00    -0.077 A 
ATOM      2  C3  UNL d   1      -2.605   2.034   3.740  0.00  0.00     0.002 A 
ATOM      3  C4  UNL d   1      -1.332   2.514   4.054  0.00  0.00     0.002 A 
ATOM      4  C5  UNL d   1      -0.648   3.322   3.149  0.00  0.00    -0.004 A 
ATOM      5  C6  UNL d   1      -1.232   3.647   1.926  0.00  0.00     0.002 A 
ATOM      6  C7  UNL d   1      -2.503   3.167   1.609  0.00  0.00     0.002 A 
ENDROOT
BRANCH   1   7
ATOM      7  C1  UNL d   1      -4.594   1.879   2.193  0.00  0.00     0.055 C 
ATOM      8  C   UNL d   1      -5.642   2.887   2.644  0.00  0.00     0.019 C 
ENDBRANCH   1   7
TORSDOF 1
ENDMDL
