MODEL 1
REMARK minimizedAffinity 9.91427135
REMARK minimizedRMSD -1
REMARK  1 active torsions:
REMARK  status: ('A' for Active; 'I' for Inactive)
REMARK    1  A    between atoms: C1_2  and  C2_3 
ROOT
ATOM      1  C2  UNL d   1      -2.882  -0.362  -1.176  0.00  0.00    -0.077 A 
ATOM      2  C3  UNL d   1      -3.263  -0.480   0.168  0.00  0.00     0.002 A 
ATOM      3  C4  UNL d   1      -4.614  -0.497   0.520  0.00  0.00     0.002 A 
ATOM      4  C5  UNL d   1      -5.594  -0.401  -0.465  0.00  0.00    -0.004 A 
ATOM      5  C6  UNL d   1      -5.226  -0.282  -1.805  0.00  0.00     0.002 A 
ATOM      6  C7  UNL d   1      -3.876  -0.263  -2.159  0.00  0.00     0.002 A 
ENDROOT
BRANCH   1   7
ATOM      7  C1  UNL d   1      -1.427  -0.393  -1.563  0.00  0.00     0.055 C 
ATOM      8  C   UNL d   1      -0.550  -0.802  -0.388  0.00  0.00     0.019 C 
ENDBRANCH   1   7
TORSDOF 1
ENDMDL
