MODEL 1
REMARK minimizedAffinity 16.0045624
REMARK minimizedRMSD -1
REMARK  1 active torsions:
REMARK  status: ('A' for Active; 'I' for Inactive)
REMARK    1  A    between atoms: C1_2  and  C2_3 
ROOT
ATOM      1  C2  UNL d   1       0.406  -0.213   0.248  0.00  0.00    -0.077 A 
ATOM      2  C3  UNL d   1       0.626  -0.572   1.585  0.00  0.00     0.002 A 
ATOM      3  C4  UNL d   1       0.283   0.303   2.617  0.00  0.00     0.002 A 
ATOM      4  C5  UNL d   1      -0.285   1.541   2.324  0.00  0.00    -0.004 A 
ATOM      5  C6  UNL d   1      -0.506   1.909   0.997  0.00  0.00     0.002 A 
ATOM      6  C7  UNL d   1      -0.162   1.036  -0.036  0.00  0.00     0.002 A 
ENDROOT
BRANCH   1   7
ATOM      7  C1  UNL d   1       0.730  -1.175  -0.865  0.00  0.00     0.055 C 
ATOM      8  C   UNL d   1      -0.528  -1.613  -1.601  0.00  0.00     0.019 C 
ENDBRANCH   1   7
TORSDOF 1
ENDMDL
