MODEL 1
REMARK minimizedAffinity 1.99740922
REMARK minimizedRMSD -1
REMARK  1 active torsions:
REMARK  status: ('A' for Active; 'I' for Inactive)
REMARK    1  A    between atoms: C1_2  and  C2_3 
ROOT
ATOM      1  C2  UNL d   1      -2.030  -0.764   0.827  0.00  0.00    -0.077 A 
ATOM      2  C3  UNL d   1      -1.398  -0.336   2.003  0.00  0.00     0.002 A 
ATOM      3  C4  UNL d   1      -0.023  -0.093   2.018  0.00  0.00     0.002 A 
ATOM      4  C5  UNL d   1       0.730  -0.270   0.859  0.00  0.00    -0.004 A 
ATOM      5  C6  UNL d   1       0.111  -0.697  -0.315  0.00  0.00     0.002 A 
ATOM      6  C7  UNL d   1      -1.263  -0.942  -0.332  0.00  0.00     0.002 A 
ENDROOT
BRANCH   1   7
ATOM      7  C1  UNL d   1      -3.520  -0.979   0.796  0.00  0.00     0.055 C 
ATOM      8  C   UNL d   1      -4.262   0.190   1.428  0.00  0.00     0.019 C 
ENDBRANCH   1   7
TORSDOF 1
ENDMDL
