MODEL 1
REMARK minimizedAffinity 6.04272461
REMARK minimizedRMSD -1
REMARK  1 active torsions:
REMARK  status: ('A' for Active; 'I' for Inactive)
REMARK    1  A    between atoms: C1_2  and  C2_3 
ROOT
ATOM      1  C2  UNL d   1       3.233   4.980   5.618  0.00  0.00    -0.077 A 
ATOM      2  C3  UNL d   1       4.124   5.996   5.992  0.00  0.00     0.002 A 
ATOM      3  C4  UNL d   1       5.468   5.930   5.617  0.00  0.00     0.002 A 
ATOM      4  C5  UNL d   1       5.931   4.854   4.863  0.00  0.00    -0.004 A 
ATOM      5  C6  UNL d   1       5.053   3.838   4.488  0.00  0.00     0.002 A 
ATOM      6  C7  UNL d   1       3.710   3.901   4.863  0.00  0.00     0.002 A 
ENDROOT
BRANCH   1   7
ATOM      7  C1  UNL d   1       1.774   5.074   5.980  0.00  0.00     0.055 C 
ATOM      8  C   UNL d   1       0.937   4.105   5.158  0.00  0.00     0.019 C 
ENDBRANCH   1   7
TORSDOF 1
ENDMDL
