MODEL 1
REMARK minimizedAffinity -1.28863704
REMARK minimizedRMSD -1
REMARK  3 active torsions:
REMARK  status: ('A' for Active; 'I' for Inactive)
REMARK    1  A    between atoms: C3'_2  and  C2'_3 
REMARK    2  A    between atoms: C2'_3  and  C1'_4 
REMARK    3  A    between atoms: C1'_4  and  C1_5 
ROOT
ATOM      1  C1  N4B d   1       0.462   0.773   1.370  0.00  0.00    -0.075 A 
ATOM      2  C2  N4B d   1       0.789   1.702   2.382  0.00  0.00     0.002 A 
ATOM      3  C3  N4B d   1       0.761   3.048   2.112  0.00  0.00     0.002 A 
ATOM      4  C4  N4B d   1       0.427   3.486   0.840  0.00  0.00    -0.004 A 
ATOM      5  C5  N4B d   1       0.087   2.583  -0.125  0.00  0.00     0.002 A 
ATOM      6  C6  N4B d   1       0.108   1.227   0.133  0.00  0.00     0.002 A 
ENDROOT
BRANCH   1   7
ATOM      7  C1' N4B d   1       0.562  -0.712   1.592  0.00  0.00     0.057 C 
BRANCH   7   8
ATOM      8  C2' N4B d   1       1.545  -0.983   2.727  0.00  0.00     0.009 C 
BRANCH   8   9
ATOM      9  C3' N4B d   1       2.897  -1.444   2.209  0.00  0.00     0.004 C 
ATOM     10  C4' N4B d   1       3.851  -1.799   3.311  0.00  0.00     0.003 C 
ENDBRANCH   8   9
ENDBRANCH   7   8
ENDBRANCH   1   7
TORSDOF 3
ENDMDL
