MODEL 1
REMARK minimizedAffinity 1.20214093
REMARK minimizedRMSD -1
REMARK  3 active torsions:
REMARK  status: ('A' for Active; 'I' for Inactive)
REMARK    1  A    between atoms: C3'_2  and  C2'_3 
REMARK    2  A    between atoms: C2'_3  and  C1'_4 
REMARK    3  A    between atoms: C1'_4  and  C1_5 
ROOT
ATOM      1  C1  N4B d   1      -1.089   3.619   1.000  0.00  0.00    -0.075 A 
ATOM      2  C2  N4B d   1      -0.224   3.670  -0.114  0.00  0.00     0.002 A 
ATOM      3  C3  N4B d   1      -0.093   4.837  -0.828  0.00  0.00     0.002 A 
ATOM      4  C4  N4B d   1      -0.828   5.953  -0.459  0.00  0.00    -0.004 A 
ATOM      5  C5  N4B d   1      -1.642   5.902   0.634  0.00  0.00     0.002 A 
ATOM      6  C6  N4B d   1      -1.781   4.738   1.363  0.00  0.00     0.002 A 
ENDROOT
BRANCH   1   7
ATOM      7  C1' N4B d   1      -1.331   2.342   1.760  0.00  0.00     0.057 C 
BRANCH   7   8
ATOM      8  C2' N4B d   1      -0.016   1.869   2.373  0.00  0.00     0.009 C 
BRANCH   8   9
ATOM      9  C3' N4B d   1      -0.225   0.723   3.348  0.00  0.00     0.004 C 
ATOM     10  C4' N4B d   1       1.059   0.059   3.748  0.00  0.00     0.003 C 
ENDBRANCH   8   9
ENDBRANCH   7   8
ENDBRANCH   1   7
TORSDOF 3
ENDMDL
