MODEL 1
REMARK minimizedAffinity 0.750992656
REMARK minimizedRMSD -1
REMARK  3 active torsions:
REMARK  status: ('A' for Active; 'I' for Inactive)
REMARK    1  A    between atoms: C3'_2  and  C2'_3 
REMARK    2  A    between atoms: C2'_3  and  C1'_4 
REMARK    3  A    between atoms: C1'_4  and  C1_5 
ROOT
ATOM      1  C1  N4B d   1      -0.960   2.893  -1.949  0.00  0.00    -0.075 A 
ATOM      2  C2  N4B d   1      -0.889   4.133  -2.621  0.00  0.00     0.002 A 
ATOM      3  C3  N4B d   1      -0.273   5.204  -2.020  0.00  0.00     0.002 A 
ATOM      4  C4  N4B d   1       0.259   5.064  -0.747  0.00  0.00    -0.004 A 
ATOM      5  C5  N4B d   1       0.208   3.856  -0.116  0.00  0.00     0.002 A 
ATOM      6  C6  N4B d   1      -0.404   2.770  -0.709  0.00  0.00     0.002 A 
ENDROOT
BRANCH   1   7
ATOM      7  C1' N4B d   1      -1.698   1.718  -2.529  0.00  0.00     0.057 C 
BRANCH   7   8
ATOM      8  C2' N4B d   1      -1.290   0.452  -1.782  0.00  0.00     0.009 C 
BRANCH   8   9
ATOM      9  C3' N4B d   1      -0.345  -0.412  -2.600  0.00  0.00     0.004 C 
ATOM     10  C4' N4B d   1       0.143  -1.613  -1.846  0.00  0.00     0.003 C 
ENDBRANCH   8   9
ENDBRANCH   7   8
ENDBRANCH   1   7
TORSDOF 3
ENDMDL
