MODEL 1
REMARK minimizedAffinity -4.81001043
REMARK minimizedRMSD -1
REMARK  3 active torsions:
REMARK  status: ('A' for Active; 'I' for Inactive)
REMARK    1  A    between atoms: C3'_2  and  C2'_3 
REMARK    2  A    between atoms: C2'_3  and  C1'_4 
REMARK    3  A    between atoms: C1'_4  and  C1_5 
ROOT
ATOM      1  C1  N4B d   1       0.003   2.014  -0.038  0.00  0.00    -0.075 A 
ATOM      2  C2  N4B d   1       0.396   3.342  -0.316  0.00  0.00     0.002 A 
ATOM      3  C3  N4B d   1       0.716   4.193   0.713  0.00  0.00     0.002 A 
ATOM      4  C4  N4B d   1       0.631   3.747   2.023  0.00  0.00    -0.004 A 
ATOM      5  C5  N4B d   1       0.275   2.455   2.282  0.00  0.00     0.002 A 
ATOM      6  C6  N4B d   1      -0.044   1.588   1.257  0.00  0.00     0.002 A 
ENDROOT
BRANCH   1   7
ATOM      7  C1' N4B d   1      -0.438   1.073  -1.126  0.00  0.00     0.057 C 
BRANCH   7   8
ATOM      8  C2' N4B d   1      -1.515   1.750  -1.967  0.00  0.00     0.009 C 
BRANCH   8   9
ATOM      9  C3' N4B d   1      -2.772   0.902  -2.071  0.00  0.00     0.004 C 
ATOM     10  C4' N4B d   1      -2.588  -0.304  -2.943  0.00  0.00     0.003 C 
ENDBRANCH   8   9
ENDBRANCH   7   8
ENDBRANCH   1   7
TORSDOF 3
ENDMDL
