MODEL 1
REMARK minimizedAffinity 1.68327332
REMARK minimizedRMSD -1
REMARK  3 active torsions:
REMARK  status: ('A' for Active; 'I' for Inactive)
REMARK    1  A    between atoms: C3'_2  and  C2'_3 
REMARK    2  A    between atoms: C2'_3  and  C1'_4 
REMARK    3  A    between atoms: C1'_4  and  C1_5 
ROOT
ATOM      1  C1  N4B d   1       0.897   0.132   0.628  0.00  0.00    -0.075 A 
ATOM      2  C2  N4B d   1       1.169  -0.583   1.815  0.00  0.00     0.002 A 
ATOM      3  C3  N4B d   1       0.897  -0.016   3.036  0.00  0.00     0.002 A 
ATOM      4  C4  N4B d   1       0.374   1.267   3.095  0.00  0.00    -0.004 A 
ATOM      5  C5  N4B d   1       0.091   1.942   1.944  0.00  0.00     0.002 A 
ATOM      6  C6  N4B d   1       0.355   1.382   0.709  0.00  0.00     0.002 A 
ENDROOT
BRANCH   1   7
ATOM      7  C1' N4B d   1       1.256  -0.412  -0.727  0.00  0.00     0.057 C 
BRANCH   7   8
ATOM      8  C2' N4B d   1       0.532   0.396  -1.800  0.00  0.00     0.009 C 
BRANCH   8   9
ATOM      9  C3' N4B d   1      -0.804  -0.222  -2.172  0.00  0.00     0.004 C 
ATOM     10  C4' N4B d   1      -1.950   0.733  -2.011  0.00  0.00     0.003 C 
ENDBRANCH   8   9
ENDBRANCH   7   8
ENDBRANCH   1   7
TORSDOF 3
ENDMDL
