MODEL 1
REMARK minimizedAffinity -3.11745548
REMARK minimizedRMSD -1
REMARK  0 active torsions:
REMARK  status: ('A' for Active; 'I' for Inactive)
ROOT
ATOM      1  C4' PXY d   1      -0.011  -2.241  -1.526  0.00  0.00     0.077 C 
ATOM      2  C1' PXY d   1      -0.774   2.531   1.646  0.00  0.00     0.077 C 
ATOM      3  C1  PXY d   1      -0.582   1.284   0.805  0.00  0.00    -0.082 A 
ATOM      4  C2  PXY d   1      -0.161   0.168   1.377  0.00  0.00     0.003 A 
ATOM      5  C3  PXY d   1       0.049  -0.960   0.626  0.00  0.00     0.003 A 
ATOM      6  C4  PXY d   1      -0.227  -0.961  -0.715  0.00  0.00    -0.082 A 
ATOM      7  C5  PXY d   1      -0.668   0.171  -1.304  0.00  0.00     0.003 A 
ATOM      8  C6  PXY d   1      -0.835   1.317  -0.531  0.00  0.00     0.003 A 
ENDROOT
TORSDOF 0
ENDMDL
