MODEL 1
REMARK minimizedAffinity -4.38505507
REMARK minimizedRMSD -1
REMARK  0 active torsions:
REMARK  status: ('A' for Active; 'I' for Inactive)
ROOT
ATOM      1  C4' PXY d   1      -1.725   3.105   1.513  0.00  0.00     0.077 C 
ATOM      2  C1' PXY d   1       0.677  -1.739  -0.533  0.00  0.00     0.077 C 
ATOM      3  C1  PXY d   1       0.046  -0.474   0.015  0.00  0.00    -0.082 A 
ATOM      4  C2  PXY d   1      -0.574   0.357  -0.806  0.00  0.00     0.003 A 
ATOM      5  C3  PXY d   1      -1.122   1.521  -0.333  0.00  0.00     0.003 A 
ATOM      6  C4  PXY d   1      -1.081   1.812   1.005  0.00  0.00    -0.082 A 
ATOM      7  C5  PXY d   1      -0.460   0.964   1.851  0.00  0.00     0.003 A 
ATOM      8  C6  PXY d   1       0.126  -0.192   1.344  0.00  0.00     0.003 A 
ENDROOT
TORSDOF 0
ENDMDL
