MODEL 1
REMARK minimizedAffinity 2.8317728
REMARK minimizedRMSD -1
REMARK  0 active torsions:
REMARK  status: ('A' for Active; 'I' for Inactive)
ROOT
ATOM      1  C4' PXY d   1       1.302  -0.996  -1.432  0.00  0.00     0.077 C 
ATOM      2  C1' PXY d   1      -0.481   2.201   3.042  0.00  0.00     0.077 C 
ATOM      3  C1  PXY d   1      -0.021   1.370   1.861  0.00  0.00    -0.082 A 
ATOM      4  C2  PXY d   1       0.495   0.169   2.068  0.00  0.00     0.003 A 
ATOM      5  C3  PXY d   1       0.945  -0.583   1.014  0.00  0.00     0.003 A 
ATOM      6  C4  PXY d   1       0.816  -0.125  -0.270  0.00  0.00    -0.082 A 
ATOM      7  C5  PXY d   1       0.280   1.095  -0.490  0.00  0.00     0.003 A 
ATOM      8  C6  PXY d   1      -0.133   1.860   0.597  0.00  0.00     0.003 A 
ENDROOT
TORSDOF 0
ENDMDL
