MODEL 1
REMARK minimizedAffinity -1.0334307
REMARK minimizedRMSD -1
REMARK  0 active torsions:
REMARK  status: ('A' for Active; 'I' for Inactive)
ROOT
ATOM      1  C4' PXY d   1       1.076  -1.110   4.335  0.00  0.00     0.077 C 
ATOM      2  C1' PXY d   1      -0.087   1.877  -0.475  0.00  0.00     0.077 C 
ATOM      3  C1  PXY d   1       0.219   1.083   0.780  0.00  0.00    -0.082 A 
ATOM      4  C2  PXY d   1      -0.193   1.531   1.954  0.00  0.00     0.003 A 
ATOM      5  C3  PXY d   1       0.103   0.842   3.102  0.00  0.00     0.003 A 
ATOM      6  C4  PXY d   1       0.782  -0.346   3.042  0.00  0.00    -0.082 A 
ATOM      7  C5  PXY d   1       1.196  -0.815   1.846  0.00  0.00     0.003 A 
ATOM      8  C6  PXY d   1       0.922  -0.079   0.697  0.00  0.00     0.003 A 
ENDROOT
TORSDOF 0
ENDMDL
