MODEL 1
REMARK minimizedAffinity -4.469172
REMARK minimizedRMSD -1
REMARK  0 active torsions:
REMARK  status: ('A' for Active; 'I' for Inactive)
ROOT
ATOM      1  C4' PXY d   1      -1.125   3.511  -1.460  0.00  0.00     0.077 C 
ATOM      2  C1' PXY d   1       0.250  -0.427   2.541  0.00  0.00     0.077 C 
ATOM      3  C1  PXY d   1      -0.117   0.612   1.501  0.00  0.00    -0.082 A 
ATOM      4  C2  PXY d   1      -0.112   0.285   0.219  0.00  0.00     0.003 A 
ATOM      5  C3  PXY d   1      -0.410   1.221  -0.737  0.00  0.00     0.003 A 
ATOM      6  C4  PXY d   1      -0.770   2.492  -0.374  0.00  0.00    -0.082 A 
ATOM      7  C5  PXY d   1      -0.789   2.830   0.932  0.00  0.00     0.003 A 
ATOM      8  C6  PXY d   1      -0.443   1.876   1.885  0.00  0.00     0.003 A 
ENDROOT
TORSDOF 0
ENDMDL
