MODEL 1
REMARK minimizedAffinity -4.38719225
REMARK minimizedRMSD -1
REMARK  0 active torsions:
REMARK  status: ('A' for Active; 'I' for Inactive)
ROOT
ATOM      1  C4' PXY d   1       4.125  -6.000   0.022  0.00  0.00     0.077 C 
ATOM      2  C1' PXY d   1      -1.032  -3.588  -0.981  0.00  0.00     0.077 C 
ATOM      3  C1  PXY d   1       0.326  -4.213  -0.728  0.00  0.00    -0.082 A 
ATOM      4  C2  PXY d   1       0.401  -5.414  -0.178  0.00  0.00     0.003 A 
ATOM      5  C3  PXY d   1       1.621  -5.981   0.088  0.00  0.00     0.003 A 
ATOM      6  C4  PXY d   1       2.776  -5.334  -0.261  0.00  0.00    -0.082 A 
ATOM      7  C5  PXY d   1       2.708  -4.113  -0.833  0.00  0.00     0.003 A 
ATOM      8  C6  PXY d   1       1.460  -3.537  -1.056  0.00  0.00     0.003 A 
ENDROOT
TORSDOF 0
ENDMDL
