MODEL 1
REMARK minimizedAffinity 0.286169469
REMARK minimizedRMSD -1
REMARK  0 active torsions:
REMARK  status: ('A' for Active; 'I' for Inactive)
ROOT
ATOM      1  C4' PXY d   1       1.511  -1.110   2.121  0.00  0.00     0.077 C 
ATOM      2  C1' PXY d   1      -1.842   2.191  -1.237  0.00  0.00     0.077 C 
ATOM      3  C1  PXY d   1      -0.964   1.315  -0.364  0.00  0.00    -0.082 A 
ATOM      4  C2  PXY d   1      -0.842   1.589   0.925  0.00  0.00     0.003 A 
ATOM      5  C3  PXY d   1      -0.027   0.827   1.721  0.00  0.00     0.003 A 
ATOM      6  C4  PXY d   1       0.628  -0.259   1.205  0.00  0.00    -0.082 A 
ATOM      7  C5  PXY d   1       0.501  -0.551  -0.107  0.00  0.00     0.003 A 
ATOM      8  C6  PXY d   1      -0.299   0.260  -0.908  0.00  0.00     0.003 A 
ENDROOT
TORSDOF 0
ENDMDL
