MODEL 1
REMARK minimizedAffinity -4.41225672
REMARK minimizedRMSD -1
REMARK  0 active torsions:
REMARK  status: ('A' for Active; 'I' for Inactive)
ROOT
ATOM      1  C4' PXY d   1       0.807  -1.327  -0.939  0.00  0.00     0.077 C 
ATOM      2  C1' PXY d   1      -1.670   3.183   1.694  0.00  0.00     0.077 C 
ATOM      3  C1  PXY d   1      -1.012   2.000   1.013  0.00  0.00    -0.082 A 
ATOM      4  C2  PXY d   1      -1.167   1.825  -0.290  0.00  0.00     0.003 A 
ATOM      5  C3  PXY d   1      -0.605   0.742  -0.916  0.00  0.00     0.003 A 
ATOM      6  C4  PXY d   1       0.169  -0.141  -0.211  0.00  0.00    -0.082 A 
ATOM      7  C5  PXY d   1       0.341   0.036   1.116  0.00  0.00     0.003 A 
ATOM      8  C6  PXY d   1      -0.272   1.119   1.740  0.00  0.00     0.003 A 
ENDROOT
TORSDOF 0
ENDMDL
