MODEL 1
REMARK minimizedAffinity -3.92071295
REMARK minimizedRMSD -1
REMARK  0 active torsions:
REMARK  status: ('A' for Active; 'I' for Inactive)
ROOT
ATOM      1  C4' PXY d   1      -0.286   2.404   1.871  0.00  0.00     0.077 C 
ATOM      2  C1' PXY d   1      -0.563  -2.410  -1.318  0.00  0.00     0.077 C 
ATOM      3  C1  PXY d   1      -0.498  -1.141  -0.490  0.00  0.00    -0.082 A 
ATOM      4  C2  PXY d   1       0.532  -0.937   0.315  0.00  0.00     0.003 A 
ATOM      5  C3  PXY d   1       0.591   0.189   1.094  0.00  0.00     0.003 A 
ATOM      6  C4  PXY d   1      -0.388   1.142   1.010  0.00  0.00    -0.082 A 
ATOM      7  C5  PXY d   1      -1.438   0.946   0.183  0.00  0.00     0.003 A 
ATOM      8  C6  PXY d   1      -1.499  -0.223  -0.569  0.00  0.00     0.003 A 
ENDROOT
TORSDOF 0
ENDMDL
