MODEL 1
REMARK minimizedAffinity -4.05274343
REMARK minimizedRMSD -1
REMARK  0 active torsions:
REMARK  status: ('A' for Active; 'I' for Inactive)
ROOT
ATOM      1  C4' PXY d   1      -1.076   2.455   1.711  0.00  0.00     0.077 C 
ATOM      2  C1' PXY d   1       0.671  -2.223  -1.201  0.00  0.00     0.077 C 
ATOM      3  C1  PXY d   1       0.211  -0.990  -0.448  0.00  0.00    -0.082 A 
ATOM      4  C2  PXY d   1       0.575  -0.819   0.812  0.00  0.00     0.003 A 
ATOM      5  C3  PXY d   1       0.142   0.275   1.517  0.00  0.00     0.003 A 
ATOM      6  C4  PXY d   1      -0.628   1.230   0.910  0.00  0.00    -0.082 A 
ATOM      7  C5  PXY d   1      -0.995   1.068  -0.379  0.00  0.00     0.003 A 
ATOM      8  C6  PXY d   1      -0.578  -0.069  -1.065  0.00  0.00     0.003 A 
ENDROOT
TORSDOF 0
ENDMDL
