MODEL 1
REMARK minimizedAffinity -3.54352307
REMARK minimizedRMSD -1
REMARK  1 active torsions:
REMARK  status: ('A' for Active; 'I' for Inactive)
REMARK    1  A    between atoms: C1_2  and  C2_3 
ROOT
ATOM      1  C2  UNL d   1       0.027  -0.398  -0.460  0.00  0.00    -0.077 A 
ATOM      2  C3  UNL d   1      -0.358   0.685  -1.262  0.00  0.00     0.002 A 
ATOM      3  C4  UNL d   1      -0.948   1.814  -0.689  0.00  0.00     0.002 A 
ATOM      4  C5  UNL d   1      -1.154   1.871   0.688  0.00  0.00    -0.004 A 
ATOM      5  C6  UNL d   1      -0.776   0.797   1.494  0.00  0.00     0.002 A 
ATOM      6  C7  UNL d   1      -0.187  -0.332   0.922  0.00  0.00     0.002 A 
ENDROOT
BRANCH   1   7
ATOM      7  C1  UNL d   1       0.708  -1.595  -1.071  0.00  0.00     0.055 C 
ATOM      8  C   UNL d   1      -0.298  -2.675  -1.442  0.00  0.00     0.019 C 
ENDBRANCH   1   7
TORSDOF 1
ENDMDL
