MODEL 1
REMARK minimizedAffinity -5.8007102
REMARK minimizedRMSD -1
REMARK  1 active torsions:
REMARK  status: ('A' for Active; 'I' for Inactive)
REMARK    1  A    between atoms: C1_2  and  C2_3 
ROOT
ATOM      1  C2  UNL d   1       0.208  -0.051  -0.547  0.00  0.00    -0.077 A 
ATOM      2  C3  UNL d   1       0.573  -0.332   0.777  0.00  0.00     0.002 A 
ATOM      3  C4  UNL d   1       0.222   0.542   1.807  0.00  0.00     0.002 A 
ATOM      4  C5  UNL d   1      -0.499   1.700   1.525  0.00  0.00    -0.004 A 
ATOM      5  C6  UNL d   1      -0.865   1.990   0.211  0.00  0.00     0.002 A 
ATOM      6  C7  UNL d   1      -0.514   1.117  -0.820  0.00  0.00     0.002 A 
ENDROOT
BRANCH   1   7
ATOM      7  C1  UNL d   1       0.543  -1.018  -1.653  0.00  0.00     0.055 C 
ATOM      8  C   UNL d   1       0.075  -2.427  -1.317  0.00  0.00     0.019 C 
ENDBRANCH   1   7
TORSDOF 1
ENDMDL
