MODEL 1
REMARK minimizedAffinity -3.80889058
REMARK minimizedRMSD -1
REMARK  1 active torsions:
REMARK  status: ('A' for Active; 'I' for Inactive)
REMARK    1  A    between atoms: C1_2  and  C2_3 
ROOT
ATOM      1  C2  UNL d   1      -0.057   0.736   0.641  0.00  0.00    -0.077 A 
ATOM      2  C3  UNL d   1      -0.474   1.416  -0.512  0.00  0.00     0.002 A 
ATOM      3  C4  UNL d   1       0.053   1.078  -1.761  0.00  0.00     0.002 A 
ATOM      4  C5  UNL d   1       0.997   0.059  -1.868  0.00  0.00    -0.004 A 
ATOM      5  C6  UNL d   1       1.419  -0.622  -0.727  0.00  0.00     0.002 A 
ATOM      6  C7  UNL d   1       0.894  -0.286   0.522  0.00  0.00     0.002 A 
ENDROOT
BRANCH   1   7
ATOM      7  C1  UNL d   1      -0.661   1.064   1.981  0.00  0.00     0.055 C 
ATOM      8  C   UNL d   1      -1.989   1.791   1.827  0.00  0.00     0.019 C 
ENDBRANCH   1   7
TORSDOF 1
ENDMDL
