MODEL 1
REMARK minimizedAffinity -1.88063562
REMARK minimizedRMSD -1
REMARK  1 active torsions:
REMARK  status: ('A' for Active; 'I' for Inactive)
REMARK    1  A    between atoms: C1_2  and  C2_3 
ROOT
ATOM      1  C2  UNL d   1       0.081   1.166   1.066  0.00  0.00    -0.077 A 
ATOM      2  C3  UNL d   1       0.638  -0.105   1.257  0.00  0.00     0.002 A 
ATOM      3  C4  UNL d   1       0.848  -0.956   0.170  0.00  0.00     0.002 A 
ATOM      4  C5  UNL d   1       0.507  -0.542  -1.116  0.00  0.00    -0.004 A 
ATOM      5  C6  UNL d   1      -0.051   0.720  -1.317  0.00  0.00     0.002 A 
ATOM      6  C7  UNL d   1      -0.262   1.571  -0.231  0.00  0.00     0.002 A 
ENDROOT
BRANCH   1   7
ATOM      7  C1  UNL d   1      -0.101   2.104   2.231  0.00  0.00     0.055 C 
ATOM      8  C   UNL d   1      -0.967   3.296   1.852  0.00  0.00     0.019 C 
ENDBRANCH   1   7
TORSDOF 1
ENDMDL
