MODEL 1
REMARK minimizedAffinity -2.31090665
REMARK minimizedRMSD -1
REMARK  1 active torsions:
REMARK  status: ('A' for Active; 'I' for Inactive)
REMARK    1  A    between atoms: C1_2  and  C2_3 
ROOT
ATOM      1  C2  UNL d   1       0.140   0.776   1.242  0.00  0.00    -0.077 A 
ATOM      2  C3  UNL d   1       0.778  -0.409   1.633  0.00  0.00     0.002 A 
ATOM      3  C4  UNL d   1       0.967  -1.445   0.717  0.00  0.00     0.002 A 
ATOM      4  C5  UNL d   1       0.525  -1.305  -0.597  0.00  0.00    -0.004 A 
ATOM      5  C6  UNL d   1      -0.113  -0.131  -0.995  0.00  0.00     0.002 A 
ATOM      6  C7  UNL d   1      -0.303   0.906  -0.080  0.00  0.00     0.002 A 
ENDROOT
BRANCH   1   7
ATOM      7  C1  UNL d   1      -0.020   1.914   2.216  0.00  0.00     0.055 C 
ATOM      8  C   UNL d   1      -0.540   3.166   1.524  0.00  0.00     0.019 C 
ENDBRANCH   1   7
TORSDOF 1
ENDMDL
