MODEL 1
REMARK minimizedAffinity -0.484214127
REMARK minimizedRMSD -1
REMARK  1 active torsions:
REMARK  status: ('A' for Active; 'I' for Inactive)
REMARK    1  A    between atoms: C1_2  and  C2_3 
ROOT
ATOM      1  C2  UNL d   1      -0.398   0.775   1.561  0.00  0.00    -0.077 A 
ATOM      2  C3  UNL d   1       0.215   0.786   0.300  0.00  0.00     0.002 A 
ATOM      3  C4  UNL d   1      -0.033  -0.239  -0.615  0.00  0.00     0.002 A 
ATOM      4  C5  UNL d   1      -0.897  -1.280  -0.281  0.00  0.00    -0.004 A 
ATOM      5  C6  UNL d   1      -1.509  -1.301   0.972  0.00  0.00     0.002 A 
ATOM      6  C7  UNL d   1      -1.262  -0.278   1.888  0.00  0.00     0.002 A 
ENDROOT
BRANCH   1   7
ATOM      7  C1  UNL d   1      -0.171   1.905   2.530  0.00  0.00     0.055 C 
ATOM      8  C   UNL d   1      -0.713   3.219   1.986  0.00  0.00     0.019 C 
ENDBRANCH   1   7
TORSDOF 1
ENDMDL
