MODEL 1
REMARK minimizedAffinity -3.60683775
REMARK minimizedRMSD -1
REMARK  1 active torsions:
REMARK  status: ('A' for Active; 'I' for Inactive)
REMARK    1  A    between atoms: C1_2  and  C2_3 
ROOT
ATOM      1  C2  UNL d   1       0.020  -0.038   0.351  0.00  0.00    -0.077 A 
ATOM      2  C3  UNL d   1      -0.845   0.843  -0.313  0.00  0.00     0.002 A 
ATOM      3  C4  UNL d   1      -1.392   1.937   0.361  0.00  0.00     0.002 A 
ATOM      4  C5  UNL d   1      -1.077   2.163   1.699  0.00  0.00    -0.004 A 
ATOM      5  C6  UNL d   1      -0.219   1.291   2.369  0.00  0.00     0.002 A 
ATOM      6  C7  UNL d   1       0.328   0.196   1.698  0.00  0.00     0.002 A 
ENDROOT
BRANCH   1   7
ATOM      7  C1  UNL d   1       0.650  -1.190  -0.387  0.00  0.00     0.055 C 
ATOM      8  C   UNL d   1      -0.273  -2.400  -0.416  0.00  0.00     0.019 C 
ENDBRANCH   1   7
TORSDOF 1
ENDMDL
