MODEL 1
REMARK minimizedAffinity 2.34307337
REMARK minimizedRMSD -1
REMARK  0 active torsions:
REMARK  status: ('A' for Active; 'I' for Inactive)
ROOT
ATOM      1  C   UNL d   1       2.247   2.966   4.773  0.00  0.00     0.078 C 
ATOM      2  C1  UNL d   1       3.305   4.029   4.776  0.00  0.00    -0.077 A 
ATOM      3  C2  UNL d   1       3.735   4.622   3.583  0.00  0.00    -0.001 A 
ATOM      4  C3  UNL d   1       4.727   5.604   3.600  0.00  0.00     0.003 A 
ATOM      5  C4  UNL d   1       5.299   6.000   4.808  0.00  0.00    -0.005 A 
ATOM      6  C5  UNL d   1       4.879   5.413   6.000  0.00  0.00     0.003 A 
ATOM      7  C6  UNL d   1       3.887   4.432   5.985  0.00  0.00    -0.001 A 
ENDROOT
TORSDOF 0
ENDMDL
