MODEL 1
REMARK minimizedAffinity 4.19904566
REMARK minimizedRMSD -1
REMARK  0 active torsions:
REMARK  status: ('A' for Active; 'I' for Inactive)
ROOT
ATOM      1  C   UNL d   1       1.957  -2.824  -0.148  0.00  0.00     0.078 C 
ATOM      2  C1  UNL d   1       2.880  -1.733  -0.599  0.00  0.00    -0.077 A 
ATOM      3  C2  UNL d   1       3.723  -1.912  -1.704  0.00  0.00    -0.001 A 
ATOM      4  C3  UNL d   1       4.584  -0.891  -2.107  0.00  0.00     0.003 A 
ATOM      5  C4  UNL d   1       4.614   0.316  -1.411  0.00  0.00    -0.005 A 
ATOM      6  C5  UNL d   1       3.781   0.502  -0.309  0.00  0.00     0.003 A 
ATOM      7  C6  UNL d   1       2.918  -0.518   0.096  0.00  0.00    -0.001 A 
ENDROOT
TORSDOF 0
ENDMDL
