MODEL 1
REMARK minimizedAffinity -1.71881831
REMARK minimizedRMSD -1
REMARK  0 active torsions:
REMARK  status: ('A' for Active; 'I' for Inactive)
ROOT
ATOM      1  C   UNL d   1      -5.643   2.152   5.999  0.00  0.00     0.078 C 
ATOM      2  C1  UNL d   1      -5.520   3.490   5.333  0.00  0.00    -0.077 A 
ATOM      3  C2  UNL d   1      -4.943   4.577   6.000  0.00  0.00    -0.001 A 
ATOM      4  C3  UNL d   1      -4.844   5.819   5.370  0.00  0.00     0.003 A 
ATOM      5  C4  UNL d   1      -5.320   5.985   4.071  0.00  0.00    -0.005 A 
ATOM      6  C5  UNL d   1      -5.897   4.909   3.401  0.00  0.00     0.003 A 
ATOM      7  C6  UNL d   1      -5.997   3.667   4.028  0.00  0.00    -0.001 A 
ENDROOT
TORSDOF 0
ENDMDL
