MODEL 1
REMARK minimizedAffinity 7.20540428
REMARK minimizedRMSD -1
REMARK  0 active torsions:
REMARK  status: ('A' for Active; 'I' for Inactive)
ROOT
ATOM      1  C   UNL d   1      -2.306   5.879   3.677  0.00  0.00     0.078 C 
ATOM      2  C1  UNL d   1      -3.562   5.323   4.278  0.00  0.00    -0.077 A 
ATOM      3  C2  UNL d   1      -4.117   5.881   5.436  0.00  0.00    -0.001 A 
ATOM      4  C3  UNL d   1      -5.281   5.346   5.990  0.00  0.00     0.003 A 
ATOM      5  C4  UNL d   1      -5.900   4.250   5.394  0.00  0.00    -0.005 A 
ATOM      6  C5  UNL d   1      -5.354   3.686   4.242  0.00  0.00     0.003 A 
ATOM      7  C6  UNL d   1      -4.190   4.219   3.687  0.00  0.00    -0.001 A 
ENDROOT
TORSDOF 0
ENDMDL
