MODEL 1
REMARK minimizedAffinity 9.86572552
REMARK minimizedRMSD -1
REMARK  0 active torsions:
REMARK  status: ('A' for Active; 'I' for Inactive)
ROOT
ATOM      1  C   UNL d   1       1.915   0.537  -1.092  0.00  0.00     0.078 C 
ATOM      2  C1  UNL d   1       2.332   0.306   0.330  0.00  0.00    -0.077 A 
ATOM      3  C2  UNL d   1       2.013   1.229   1.334  0.00  0.00    -0.001 A 
ATOM      4  C3  UNL d   1       2.415   1.006   2.652  0.00  0.00     0.003 A 
ATOM      5  C4  UNL d   1       3.140  -0.138   2.978  0.00  0.00    -0.005 A 
ATOM      6  C5  UNL d   1       3.464  -1.061   1.985  0.00  0.00     0.003 A 
ATOM      7  C6  UNL d   1       3.063  -0.840   0.667  0.00  0.00    -0.001 A 
ENDROOT
TORSDOF 0
ENDMDL
