MODEL 1
REMARK minimizedAffinity -3.78451824
REMARK minimizedRMSD -1
REMARK  0 active torsions:
REMARK  status: ('A' for Active; 'I' for Inactive)
ROOT
ATOM      1  C2' OXE d   1       1.705  -1.594  -1.134  0.00  0.00     0.078 C 
ATOM      2  C1' OXE d   1      -0.401  -3.073  -2.254  0.00  0.00     0.078 C 
ATOM      3  C1  OXE d   1       0.030  -1.814  -2.964  0.00  0.00    -0.078 A 
ATOM      4  C2  OXE d   1       1.030  -1.072  -2.384  0.00  0.00    -0.078 A 
ATOM      5  C3  OXE d   1       1.503   0.069  -3.026  0.00  0.00     0.003 A 
ATOM      6  C4  OXE d   1       0.867   0.550  -4.176  0.00  0.00    -0.002 A 
ATOM      7  C5  OXE d   1      -0.180  -0.170  -4.762  0.00  0.00    -0.002 A 
ATOM      8  C6  OXE d   1      -0.581  -1.373  -4.194  0.00  0.00     0.003 A 
ENDROOT
TORSDOF 0
ENDMDL
