MODEL 1
REMARK minimizedAffinity -0.280383527
REMARK minimizedRMSD -1
REMARK  0 active torsions:
REMARK  status: ('A' for Active; 'I' for Inactive)
ROOT
ATOM      1  C2' OXE d   1       0.060   1.789   2.232  0.00  0.00     0.078 C 
ATOM      2  C1' OXE d   1       2.266   0.086   1.892  0.00  0.00     0.078 C 
ATOM      3  C1  OXE d   1       1.174   0.039   0.853  0.00  0.00    -0.078 A 
ATOM      4  C2  OXE d   1       0.076   0.841   1.052  0.00  0.00    -0.078 A 
ATOM      5  C3  OXE d   1      -0.935   0.876   0.096  0.00  0.00     0.003 A 
ATOM      6  C4  OXE d   1      -0.917  -0.011  -0.988  0.00  0.00    -0.002 A 
ATOM      7  C5  OXE d   1       0.173  -0.865  -1.188  0.00  0.00    -0.002 A 
ATOM      8  C6  OXE d   1       1.244  -0.823  -0.302  0.00  0.00     0.003 A 
ENDROOT
TORSDOF 0
ENDMDL
