MODEL 1
REMARK minimizedAffinity -0.625769675
REMARK minimizedRMSD -1
REMARK  0 active torsions:
REMARK  status: ('A' for Active; 'I' for Inactive)
ROOT
ATOM      1  C2' OXE d   1       2.064  -0.991   0.976  0.00  0.00     0.078 C 
ATOM      2  C1' OXE d   1       0.090  -0.269  -0.884  0.00  0.00     0.078 C 
ATOM      3  C1  OXE d   1       0.032   0.362   0.485  0.00  0.00    -0.078 A 
ATOM      4  C2  OXE d   1       0.974  -0.032   1.403  0.00  0.00    -0.078 A 
ATOM      5  C3  OXE d   1       0.999   0.559   2.663  0.00  0.00     0.003 A 
ATOM      6  C4  OXE d   1      -0.019   1.438   3.054  0.00  0.00    -0.002 A 
ATOM      7  C5  OXE d   1      -1.012   1.823   2.146  0.00  0.00    -0.002 A 
ATOM      8  C6  OXE d   1      -0.976   1.328   0.847  0.00  0.00     0.003 A 
ENDROOT
TORSDOF 0
ENDMDL
