MODEL 1
REMARK minimizedAffinity 1.84788096
REMARK minimizedRMSD -1
REMARK  0 active torsions:
REMARK  status: ('A' for Active; 'I' for Inactive)
ROOT
ATOM      1  C2' OXE d   1       2.390   0.458   2.416  0.00  0.00     0.078 C 
ATOM      2  C1' OXE d   1      -0.006   1.900   2.666  0.00  0.00     0.078 C 
ATOM      3  C1  OXE d   1       0.090   0.882   1.557  0.00  0.00    -0.078 A 
ATOM      4  C2  OXE d   1       1.283   0.215   1.413  0.00  0.00    -0.078 A 
ATOM      5  C3  OXE d   1       1.407  -0.773   0.440  0.00  0.00     0.003 A 
ATOM      6  C4  OXE d   1       0.382  -0.984  -0.490  0.00  0.00    -0.002 A 
ATOM      7  C5  OXE d   1      -0.826  -0.287  -0.386  0.00  0.00    -0.002 A 
ATOM      8  C6  OXE d   1      -1.004   0.617   0.655  0.00  0.00     0.003 A 
ENDROOT
TORSDOF 0
ENDMDL
