MODEL 1
REMARK minimizedAffinity -3.21059942
REMARK minimizedRMSD -1
REMARK  0 active torsions:
REMARK  status: ('A' for Active; 'I' for Inactive)
ROOT
ATOM      1  C2' OXE d   1       0.267  -0.065  -0.846  0.00  0.00     0.078 C 
ATOM      2  C1' OXE d   1      -1.945  -1.764  -0.529  0.00  0.00     0.078 C 
ATOM      3  C1  OXE d   1      -1.709  -0.713   0.526  0.00  0.00    -0.078 A 
ATOM      4  C2  OXE d   1      -0.598   0.084   0.387  0.00  0.00    -0.078 A 
ATOM      5  C3  OXE d   1      -0.363   1.105   1.303  0.00  0.00     0.003 A 
ATOM      6  C4  OXE d   1      -1.162   1.229   2.447  0.00  0.00    -0.002 A 
ATOM      7  C5  OXE d   1      -2.275   0.402   2.628  0.00  0.00    -0.002 A 
ATOM      8  C6  OXE d   1      -2.587  -0.544   1.658  0.00  0.00     0.003 A 
ENDROOT
TORSDOF 0
ENDMDL
