MODEL 1
REMARK minimizedAffinity -2.00473118
REMARK minimizedRMSD -1
REMARK  0 active torsions:
REMARK  status: ('A' for Active; 'I' for Inactive)
ROOT
ATOM      1  C2' OXE d   1      -1.179   1.134   2.582  0.00  0.00     0.078 C 
ATOM      2  C1' OXE d   1      -2.425  -0.038   0.356  0.00  0.00     0.078 C 
ATOM      3  C1  OXE d   1      -0.940  -0.243   0.520  0.00  0.00    -0.078 A 
ATOM      4  C2  OXE d   1      -0.331   0.373   1.587  0.00  0.00    -0.078 A 
ATOM      5  C3  OXE d   1       1.028   0.171   1.815  0.00  0.00     0.003 A 
ATOM      6  C4  OXE d   1       1.807  -0.526   0.885  0.00  0.00    -0.002 A 
ATOM      7  C5  OXE d   1       1.213  -1.128  -0.230  0.00  0.00    -0.002 A 
ATOM      8  C6  OXE d   1      -0.163  -1.032  -0.404  0.00  0.00     0.003 A 
ENDROOT
TORSDOF 0
ENDMDL
