MODEL 1
REMARK minimizedAffinity -0.375344604
REMARK minimizedRMSD -1
REMARK  0 active torsions:
REMARK  status: ('A' for Active; 'I' for Inactive)
ROOT
ATOM      1  C2' OXE d   1      -0.365  -1.959  -3.485  0.00  0.00     0.078 C 
ATOM      2  C1' OXE d   1      -2.332  -2.520  -1.561  0.00  0.00     0.078 C 
ATOM      3  C1  OXE d   1      -1.121  -1.735  -1.122  0.00  0.00    -0.078 A 
ATOM      4  C2  OXE d   1      -0.142  -1.506  -2.058  0.00  0.00    -0.078 A 
ATOM      5  C3  OXE d   1       0.969  -0.740  -1.719  0.00  0.00     0.003 A 
ATOM      6  C4  OXE d   1       1.173  -0.332  -0.395  0.00  0.00    -0.002 A 
ATOM      7  C5  OXE d   1       0.207  -0.590   0.583  0.00  0.00    -0.002 A 
ATOM      8  C6  OXE d   1      -0.963  -1.252   0.228  0.00  0.00     0.003 A 
ENDROOT
TORSDOF 0
ENDMDL
