MODEL 1
REMARK minimizedAffinity 4.63025045
REMARK minimizedRMSD -1
REMARK  0 active torsions:
REMARK  status: ('A' for Active; 'I' for Inactive)
ROOT
ATOM      1  C   UNL d   1      -3.540   5.848   0.483  0.00  0.00     0.023 A 
ATOM      2  C1  UNL d   1      -4.017   5.131  -0.615  0.00  0.00     0.003 A 
ATOM      3  C2  UNL d   1      -3.777   3.759  -0.712  0.00  0.00     0.048 A 
ATOM      4  C3  UNL d   1      -3.060   3.109   0.292  0.00  0.00     0.023 A 
ATOM      5  C4  UNL d   1      -2.581   3.822   1.393  0.00  0.00     0.048 A 
ATOM      6  C5  UNL d   1      -2.823   5.194   1.485  0.00  0.00     0.003 A 
ATOM      7  I   UNL d   1      -2.701   1.067   0.150  0.00  0.00    -0.146 I 
ENDROOT
TORSDOF 0
ENDMDL
