MODEL 1
REMARK minimizedAffinity 17.3642635
REMARK minimizedRMSD -1
REMARK  0 active torsions:
REMARK  status: ('A' for Active; 'I' for Inactive)
ROOT
ATOM      1  C   UNL d   1      -5.563  -5.988  -5.507  0.00  0.00     0.023 A 
ATOM      2  C1  UNL d   1      -4.235  -5.922  -5.929  0.00  0.00     0.003 A 
ATOM      3  C2  UNL d   1      -3.338  -5.067  -5.285  0.00  0.00     0.048 A 
ATOM      4  C3  UNL d   1      -3.776  -4.282  -4.219  0.00  0.00     0.023 A 
ATOM      5  C4  UNL d   1      -5.104  -4.345  -3.793  0.00  0.00     0.048 A 
ATOM      6  C5  UNL d   1      -5.997  -5.201  -4.441  0.00  0.00     0.003 A 
ATOM      7  I   UNL d   1      -2.443  -3.009  -3.258  0.00  0.00    -0.146 I 
ENDROOT
TORSDOF 0
ENDMDL
