MODEL 1
REMARK minimizedAffinity 13.3992558
REMARK minimizedRMSD -1
REMARK  0 active torsions:
REMARK  status: ('A' for Active; 'I' for Inactive)
ROOT
ATOM      1  C   UNL d   1       3.266  -2.897  -3.432  0.00  0.00     0.023 A 
ATOM      2  C1  UNL d   1       3.318  -2.794  -4.822  0.00  0.00     0.003 A 
ATOM      3  C2  UNL d   1       4.101  -3.684  -5.560  0.00  0.00     0.048 A 
ATOM      4  C3  UNL d   1       4.829  -4.674  -4.902  0.00  0.00     0.023 A 
ATOM      5  C4  UNL d   1       4.780  -4.781  -3.511  0.00  0.00     0.048 A 
ATOM      6  C5  UNL d   1       3.997  -3.889  -2.777  0.00  0.00     0.003 A 
ATOM      7  I   UNL d   1       5.995  -6.000  -5.999  0.00  0.00    -0.146 I 
ENDROOT
TORSDOF 0
ENDMDL
