MODEL 1
REMARK minimizedAffinity 11.2031422
REMARK minimizedRMSD -1
REMARK  0 active torsions:
REMARK  status: ('A' for Active; 'I' for Inactive)
ROOT
ATOM      1  C   UNL d   1       4.140   2.264  -5.530  0.00  0.00     0.023 A 
ATOM      2  C1  UNL d   1       5.473   2.135  -5.136  0.00  0.00     0.003 A 
ATOM      3  C2  UNL d   1       5.998   2.982  -4.158  0.00  0.00     0.048 A 
ATOM      4  C3  UNL d   1       5.186   3.955  -3.577  0.00  0.00     0.023 A 
ATOM      5  C4  UNL d   1       3.852   4.087  -3.967  0.00  0.00     0.048 A 
ATOM      6  C5  UNL d   1       3.331   3.239  -4.946  0.00  0.00     0.003 A 
ATOM      7  I   UNL d   1       5.966   5.217  -2.122  0.00  0.00    -0.146 I 
ENDROOT
TORSDOF 0
ENDMDL
