MODEL 1
REMARK minimizedAffinity 9.45467186
REMARK minimizedRMSD -1
REMARK  0 active torsions:
REMARK  status: ('A' for Active; 'I' for Inactive)
ROOT
ATOM      1  C   UNL d   1      -4.495   5.997  -0.024  0.00  0.00     0.023 A 
ATOM      2  C1  UNL d   1      -4.630   4.910  -0.887  0.00  0.00     0.003 A 
ATOM      3  C2  UNL d   1      -3.763   3.820  -0.781  0.00  0.00     0.048 A 
ATOM      4  C3  UNL d   1      -2.764   3.824   0.192  0.00  0.00     0.023 A 
ATOM      5  C4  UNL d   1      -2.625   4.910   1.058  0.00  0.00     0.048 A 
ATOM      6  C5  UNL d   1      -3.494   5.998   0.947  0.00  0.00     0.003 A 
ATOM      7  I   UNL d   1      -1.472   2.204   0.353  0.00  0.00    -0.146 I 
ENDROOT
TORSDOF 0
ENDMDL
