MODEL 1
REMARK minimizedAffinity 14.2268133
REMARK minimizedRMSD -1
REMARK  0 active torsions:
REMARK  status: ('A' for Active; 'I' for Inactive)
ROOT
ATOM      1  C   UNL d   1       5.988   5.509  -1.953  0.00  0.00     0.023 A 
ATOM      2  C1  UNL d   1       6.000   4.915  -0.691  0.00  0.00     0.003 A 
ATOM      3  C2  UNL d   1       4.818   4.812   0.045  0.00  0.00     0.048 A 
ATOM      4  C3  UNL d   1       3.627   5.305  -0.487  0.00  0.00     0.023 A 
ATOM      5  C4  UNL d   1       3.609   5.899  -1.750  0.00  0.00     0.048 A 
ATOM      6  C5  UNL d   1       4.794   6.000  -2.482  0.00  0.00     0.003 A 
ATOM      7  I   UNL d   1       1.866   5.153   0.607  0.00  0.00    -0.146 I 
ENDROOT
TORSDOF 0
ENDMDL
