MODEL 1
REMARK minimizedAffinity 11.5122204
REMARK minimizedRMSD -1
REMARK  0 active torsions:
REMARK  status: ('A' for Active; 'I' for Inactive)
ROOT
ATOM      1  C   UNL d   1      -1.147  -0.636   5.645  0.00  0.00     0.023 A 
ATOM      2  C1  UNL d   1      -1.854  -1.812   5.897  0.00  0.00     0.003 A 
ATOM      3  C2  UNL d   1      -3.246  -1.783   5.999  0.00  0.00     0.048 A 
ATOM      4  C3  UNL d   1      -3.925  -0.575   5.847  0.00  0.00     0.023 A 
ATOM      5  C4  UNL d   1      -3.222   0.604   5.594  0.00  0.00     0.048 A 
ATOM      6  C5  UNL d   1      -1.830   0.570   5.493  0.00  0.00     0.003 A 
ATOM      7  I   UNL d   1      -5.998  -0.529   5.998  0.00  0.00    -0.146 I 
ENDROOT
TORSDOF 0
ENDMDL
