MODEL 1
REMARK minimizedAffinity 16.7950592
REMARK minimizedRMSD -1
REMARK  0 active torsions:
REMARK  status: ('A' for Active; 'I' for Inactive)
ROOT
ATOM      1  C   UNL d   1      -1.994  -2.218   0.091  0.00  0.00     0.023 A 
ATOM      2  C1  UNL d   1      -0.777  -2.531   0.697  0.00  0.00     0.003 A 
ATOM      3  C2  UNL d   1       0.400  -2.526  -0.054  0.00  0.00     0.048 A 
ATOM      4  C3  UNL d   1       0.353  -2.206  -1.411  0.00  0.00     0.023 A 
ATOM      5  C4  UNL d   1      -0.862  -1.891  -2.021  0.00  0.00     0.048 A 
ATOM      6  C5  UNL d   1      -2.036  -1.898  -1.266  0.00  0.00     0.003 A 
ATOM      7  I   UNL d   1       2.104  -2.198  -2.531  0.00  0.00    -0.146 I 
ENDROOT
TORSDOF 0
ENDMDL
