MODEL 1
REMARK minimizedAffinity 20.0444775
REMARK minimizedRMSD -1
REMARK  0 active torsions:
REMARK  status: ('A' for Active; 'I' for Inactive)
ROOT
ATOM      1  C   UNL d   1       0.676  -2.528  -1.098  0.00  0.00     0.023 A 
ATOM      2  C1  UNL d   1      -0.184  -1.695  -1.813  0.00  0.00     0.003 A 
ATOM      3  C2  UNL d   1      -1.456  -1.406  -1.313  0.00  0.00     0.048 A 
ATOM      4  C3  UNL d   1      -1.860  -1.953  -0.096  0.00  0.00     0.023 A 
ATOM      5  C4  UNL d   1      -1.003  -2.787   0.624  0.00  0.00     0.048 A 
ATOM      6  C5  UNL d   1       0.267  -3.073   0.119  0.00  0.00     0.003 A 
ATOM      7  I   UNL d   1      -3.752  -1.525   0.651  0.00  0.00    -0.146 I 
ENDROOT
TORSDOF 0
ENDMDL
