MODEL 1
REMARK minimizedAffinity 10.2860022
REMARK minimizedRMSD -1
REMARK  0 active torsions:
REMARK  status: ('A' for Active; 'I' for Inactive)
ROOT
ATOM      1  C   UNL d   1      -4.623  -5.996  -5.523  0.00  0.00     0.023 A 
ATOM      2  C1  UNL d   1      -5.052  -5.002  -4.643  0.00  0.00     0.003 A 
ATOM      3  C2  UNL d   1      -4.169  -4.002  -4.232  0.00  0.00     0.048 A 
ATOM      4  C3  UNL d   1      -2.857  -4.002  -4.705  0.00  0.00     0.023 A 
ATOM      5  C4  UNL d   1      -2.423  -4.994  -5.586  0.00  0.00     0.048 A 
ATOM      6  C5  UNL d   1      -3.309  -5.992  -5.993  0.00  0.00     0.003 A 
ATOM      7  I   UNL d   1      -1.540  -2.514  -4.094  0.00  0.00    -0.146 I 
ENDROOT
TORSDOF 0
ENDMDL
