MODEL 1
REMARK minimizedAffinity 21.6359463
REMARK minimizedRMSD -1
REMARK  0 active torsions:
REMARK  status: ('A' for Active; 'I' for Inactive)
ROOT
ATOM      1  C   UNL d   1       2.007   5.835  -3.568  0.00  0.00     0.023 A 
ATOM      2  C1  UNL d   1       1.736   4.669  -2.853  0.00  0.00     0.003 A 
ATOM      3  C2  UNL d   1       2.494   3.518  -3.079  0.00  0.00     0.048 A 
ATOM      4  C3  UNL d   1       3.521   3.541  -4.022  0.00  0.00     0.023 A 
ATOM      5  C4  UNL d   1       3.796   4.706  -4.739  0.00  0.00     0.048 A 
ATOM      6  C5  UNL d   1       3.036   5.854  -4.510  0.00  0.00     0.003 A 
ATOM      7  I   UNL d   1       4.651   1.829  -4.360  0.00  0.00    -0.146 I 
ENDROOT
TORSDOF 0
ENDMDL
