MODEL 1
REMARK minimizedAffinity 11.5290241
REMARK minimizedRMSD -1
REMARK  0 active torsions:
REMARK  status: ('A' for Active; 'I' for Inactive)
ROOT
ATOM      1  C   UNL d   1       2.778  -1.335  -3.148  0.00  0.00     0.023 A 
ATOM      2  C1  UNL d   1       2.830  -1.981  -1.913  0.00  0.00     0.003 A 
ATOM      3  C2  UNL d   1       1.681  -2.079  -1.127  0.00  0.00     0.048 A 
ATOM      4  C3  UNL d   1       0.482  -1.531  -1.582  0.00  0.00     0.023 A 
ATOM      5  C4  UNL d   1       0.425  -0.884  -2.818  0.00  0.00     0.048 A 
ATOM      6  C5  UNL d   1       1.578  -0.787  -3.600  0.00  0.00     0.003 A 
ATOM      7  I   UNL d   1      -1.230  -1.676  -0.413  0.00  0.00    -0.146 I 
ENDROOT
TORSDOF 0
ENDMDL
