MODEL 1
REMARK minimizedAffinity 16.8796768
REMARK minimizedRMSD -1
REMARK  0 active torsions:
REMARK  status: ('A' for Active; 'I' for Inactive)
ROOT
ATOM      1  C   UNL d   1       1.462  -1.922  -2.677  0.00  0.00     0.023 A 
ATOM      2  C1  UNL d   1       0.177  -1.800  -3.207  0.00  0.00     0.003 A 
ATOM      3  C2  UNL d   1      -0.878  -1.383  -2.393  0.00  0.00     0.048 A 
ATOM      4  C3  UNL d   1      -0.642  -1.089  -1.051  0.00  0.00     0.023 A 
ATOM      5  C4  UNL d   1       0.642  -1.209  -0.517  0.00  0.00     0.048 A 
ATOM      6  C5  UNL d   1       1.694  -1.627  -1.334  0.00  0.00     0.003 A 
ATOM      7  I   UNL d   1      -2.211  -0.468   0.163  0.00  0.00    -0.146 I 
ENDROOT
TORSDOF 0
ENDMDL
