MODEL 1
REMARK minimizedAffinity 9.55150223
REMARK minimizedRMSD -1
REMARK  0 active torsions:
REMARK  status: ('A' for Active; 'I' for Inactive)
ROOT
ATOM      1  C   UNL d   1       2.482  -2.071   4.415  0.00  0.00     0.023 A 
ATOM      2  C1  UNL d   1       3.307  -1.979   5.536  0.00  0.00     0.003 A 
ATOM      3  C2  UNL d   1       3.996  -3.105   5.992  0.00  0.00     0.048 A 
ATOM      4  C3  UNL d   1       3.855  -4.320   5.322  0.00  0.00     0.023 A 
ATOM      5  C4  UNL d   1       3.030  -4.417   4.199  0.00  0.00     0.048 A 
ATOM      6  C5  UNL d   1       2.343  -3.288   3.748  0.00  0.00     0.003 A 
ATOM      7  I   UNL d   1       4.879  -5.998   5.998  0.00  0.00    -0.146 I 
ENDROOT
TORSDOF 0
ENDMDL
