MODEL 1
REMARK minimizedAffinity 17.1172771
REMARK minimizedRMSD -1
REMARK  0 active torsions:
REMARK  status: ('A' for Active; 'I' for Inactive)
ROOT
ATOM      1  C   UNL d   1       0.299   4.878   1.873  0.00  0.00     0.023 A 
ATOM      2  C1  UNL d   1       1.128   5.999   1.913  0.00  0.00     0.003 A 
ATOM      3  C2  UNL d   1       2.338   6.000   1.216  0.00  0.00     0.048 A 
ATOM      4  C3  UNL d   1       2.713   4.876   0.481  0.00  0.00     0.023 A 
ATOM      5  C4  UNL d   1       1.887   3.752   0.438  0.00  0.00     0.048 A 
ATOM      6  C5  UNL d   1       0.678   3.756   1.137  0.00  0.00     0.003 A 
ATOM      7  I   UNL d   1       4.514   4.874  -0.556  0.00  0.00    -0.146 I 
ENDROOT
TORSDOF 0
ENDMDL
