MODEL 1
REMARK minimizedAffinity 11.09484
REMARK minimizedRMSD -1
REMARK  0 active torsions:
REMARK  status: ('A' for Active; 'I' for Inactive)
ROOT
ATOM      1  C   UNL d   1       4.476  -2.351  -3.612  0.00  0.00     0.023 A 
ATOM      2  C1  UNL d   1       3.377  -3.004  -4.169  0.00  0.00     0.003 A 
ATOM      3  C2  UNL d   1       2.114  -2.867  -3.588  0.00  0.00     0.048 A 
ATOM      4  C3  UNL d   1       1.958  -2.075  -2.451  0.00  0.00     0.023 A 
ATOM      5  C4  UNL d   1       3.055  -1.420  -1.891  0.00  0.00     0.048 A 
ATOM      6  C5  UNL d   1       4.316  -1.560  -2.474  0.00  0.00     0.003 A 
ATOM      7  I   UNL d   1       0.080  -1.870  -1.585  0.00  0.00    -0.146 I 
ENDROOT
TORSDOF 0
ENDMDL
