MODEL 1
REMARK minimizedAffinity 4.69789982
REMARK minimizedRMSD -1
REMARK  0 active torsions:
REMARK  status: ('A' for Active; 'I' for Inactive)
ROOT
ATOM      1  C   UNL d   1       5.623  -0.784  -4.349  0.00  0.00     0.023 A 
ATOM      2  C1  UNL d   1       5.722  -1.445  -5.573  0.00  0.00     0.003 A 
ATOM      3  C2  UNL d   1       5.830  -2.837  -5.610  0.00  0.00     0.048 A 
ATOM      4  C3  UNL d   1       5.838  -3.562  -4.419  0.00  0.00     0.023 A 
ATOM      5  C4  UNL d   1       5.738  -2.905  -3.191  0.00  0.00     0.048 A 
ATOM      6  C5  UNL d   1       5.631  -1.513  -3.159  0.00  0.00     0.003 A 
ATOM      7  I   UNL d   1       5.999  -5.633  -4.471  0.00  0.00    -0.146 I 
ENDROOT
TORSDOF 0
ENDMDL
