MODEL 1
REMARK minimizedAffinity 11.0944614
REMARK minimizedRMSD -1
REMARK  1 active torsions:
REMARK  status: ('A' for Active; 'I' for Inactive)
REMARK    1  A    between atoms: C1_2  and  C2_3 
ROOT
ATOM      1  C2  UNL d   1       0.692  -3.086   1.325  0.00  0.00    -0.076 A 
ATOM      2  C3  UNL d   1       1.938  -3.726   1.447  0.00  0.00     0.004 A 
ATOM      3  C4  UNL d   1       2.020  -5.093   1.706  0.00  0.00    -0.003 A 
ATOM      4  C5  UNL d   1       0.858  -5.843   1.847  0.00  0.00     0.000 A 
ATOM      5  C6  UNL d   1      -0.387  -5.228   1.711  0.00  0.00     0.000 A 
ATOM      6  C7  UNL d   1      -0.487  -3.854   1.434  0.00  0.00    -0.073 A 
ATOM      7  C8  UNL d   1      -1.855  -3.241   1.304  0.00  0.00     0.078 C 
ENDROOT
BRANCH   1   8
ATOM      8  C1  UNL d   1       0.665  -1.596   1.070  0.00  0.00     0.053 C 
ATOM      9  C   UNL d   1       1.976  -0.918   1.439  0.00  0.00     0.018 C 
ENDBRANCH   1   8
TORSDOF 1
ENDMDL
