MODEL 1
REMARK minimizedAffinity 10.5880899
REMARK minimizedRMSD -1
REMARK  1 active torsions:
REMARK  status: ('A' for Active; 'I' for Inactive)
REMARK    1  A    between atoms: C1_2  and  C2_3 
ROOT
ATOM      1  C2  UNL d   1       1.215  -0.324   1.281  0.00  0.00    -0.076 A 
ATOM      2  C3  UNL d   1      -0.053  -0.110   1.849  0.00  0.00     0.004 A 
ATOM      3  C4  UNL d   1      -0.729  -1.138   2.503  0.00  0.00    -0.003 A 
ATOM      4  C5  UNL d   1      -0.148  -2.398   2.600  0.00  0.00     0.000 A 
ATOM      5  C6  UNL d   1       1.117  -2.624   2.058  0.00  0.00     0.000 A 
ATOM      6  C7  UNL d   1       1.819  -1.594   1.410  0.00  0.00    -0.073 A 
ATOM      7  C8  UNL d   1       3.178  -1.895   0.839  0.00  0.00     0.078 C 
ENDROOT
BRANCH   1   8
ATOM      8  C1  UNL d   1       1.889   0.821   0.561  0.00  0.00     0.053 C 
ATOM      9  C   UNL d   1       0.957   2.004   0.347  0.00  0.00     0.018 C 
ENDBRANCH   1   8
TORSDOF 1
ENDMDL
