MODEL 1
REMARK minimizedAffinity 2.46511817
REMARK minimizedRMSD -1
REMARK  1 active torsions:
REMARK  status: ('A' for Active; 'I' for Inactive)
REMARK    1  A    between atoms: C1_2  and  C2_3 
ROOT
ATOM      1  C2  UNL d   1      -5.450  -5.044   2.287  0.00  0.00    -0.076 A 
ATOM      2  C3  UNL d   1      -6.000  -5.990   1.404  0.00  0.00     0.004 A 
ATOM      3  C4  UNL d   1      -5.662  -5.991   0.052  0.00  0.00    -0.003 A 
ATOM      4  C5  UNL d   1      -4.768  -5.046  -0.440  0.00  0.00     0.000 A 
ATOM      5  C6  UNL d   1      -4.200  -4.111   0.425  0.00  0.00     0.000 A 
ATOM      6  C7  UNL d   1      -4.517  -4.107   1.794  0.00  0.00    -0.073 A 
ATOM      7  C8  UNL d   1      -3.879  -3.072   2.680  0.00  0.00     0.078 C 
ENDROOT
BRANCH   1   8
ATOM      8  C1  UNL d   1      -5.875  -5.074   3.738  0.00  0.00     0.053 C 
ATOM      9  C   UNL d   1      -5.997  -3.682   4.339  0.00  0.00     0.018 C 
ENDBRANCH   1   8
TORSDOF 1
ENDMDL
