MODEL 1
REMARK minimizedAffinity 8.51562405
REMARK minimizedRMSD -1
REMARK  1 active torsions:
REMARK  status: ('A' for Active; 'I' for Inactive)
REMARK    1  A    between atoms: C1_2  and  C2_3 
ROOT
ATOM      1  C2  UNL d   1      -4.739  -3.866   3.368  0.00  0.00    -0.076 A 
ATOM      2  C3  UNL d   1      -4.813  -3.173   4.589  0.00  0.00     0.004 A 
ATOM      3  C4  UNL d   1      -5.436  -3.741   5.699  0.00  0.00    -0.003 A 
ATOM      4  C5  UNL d   1      -5.994  -5.011   5.606  0.00  0.00     0.000 A 
ATOM      5  C6  UNL d   1      -5.915  -5.720   4.408  0.00  0.00     0.000 A 
ATOM      6  C7  UNL d   1      -5.276  -5.168   3.284  0.00  0.00    -0.073 A 
ATOM      7  C8  UNL d   1      -5.224  -5.974   2.015  0.00  0.00     0.078 C 
ENDROOT
BRANCH   1   8
ATOM      8  C1  UNL d   1      -4.074  -3.188   2.190  0.00  0.00     0.053 C 
ATOM      9  C   UNL d   1      -2.563  -3.109   2.340  0.00  0.00     0.018 C 
ENDBRANCH   1   8
TORSDOF 1
ENDMDL
