MODEL 1
REMARK minimizedAffinity 2.61941028
REMARK minimizedRMSD -1
REMARK  1 active torsions:
REMARK  status: ('A' for Active; 'I' for Inactive)
REMARK    1  A    between atoms: C1_2  and  C2_3 
ROOT
ATOM      1  C2  UNL d   1      -4.847  -4.165   3.922  0.00  0.00    -0.076 A 
ATOM      2  C3  UNL d   1      -5.775  -5.221   3.942  0.00  0.00     0.004 A 
ATOM      3  C4  UNL d   1      -6.000  -6.000   2.809  0.00  0.00    -0.003 A 
ATOM      4  C5  UNL d   1      -5.299  -5.737   1.637  0.00  0.00     0.000 A 
ATOM      5  C6  UNL d   1      -4.362  -4.705   1.604  0.00  0.00     0.000 A 
ATOM      6  C7  UNL d   1      -4.111  -3.920   2.743  0.00  0.00    -0.073 A 
ATOM      7  C8  UNL d   1      -3.094  -2.817   2.649  0.00  0.00     0.078 C 
ENDROOT
BRANCH   1   8
ATOM      8  C1  UNL d   1      -4.664  -3.337   5.174  0.00  0.00     0.053 C 
ATOM      9  C   UNL d   1      -5.956  -3.178   5.960  0.00  0.00     0.018 C 
ENDBRANCH   1   8
TORSDOF 1
ENDMDL
