MODEL 1
REMARK minimizedAffinity 13.5964746
REMARK minimizedRMSD -1
REMARK  1 active torsions:
REMARK  status: ('A' for Active; 'I' for Inactive)
REMARK    1  A    between atoms: C1_2  and  C2_3 
ROOT
ATOM      1  C2  UNL d   1      -4.939  -4.873   0.568  0.00  0.00    -0.076 A 
ATOM      2  C3  UNL d   1      -5.531  -3.792   1.246  0.00  0.00     0.004 A 
ATOM      3  C4  UNL d   1      -4.755  -2.752   1.754  0.00  0.00    -0.003 A 
ATOM      4  C5  UNL d   1      -3.374  -2.774   1.592  0.00  0.00     0.000 A 
ATOM      5  C6  UNL d   1      -2.772  -3.829   0.906  0.00  0.00     0.000 A 
ATOM      6  C7  UNL d   1      -3.541  -4.878   0.374  0.00  0.00    -0.073 A 
ATOM      7  C8  UNL d   1      -2.839  -5.993  -0.350  0.00  0.00     0.078 C 
ENDROOT
BRANCH   1   8
ATOM      8  C1  UNL d   1      -5.829  -5.986   0.063  0.00  0.00     0.053 C 
ATOM      9  C   UNL d   1      -6.000  -5.955  -1.448  0.00  0.00     0.018 C 
ENDBRANCH   1   8
TORSDOF 1
ENDMDL
