MODEL 1
REMARK minimizedAffinity 4.39425087
REMARK minimizedRMSD -1
REMARK  1 active torsions:
REMARK  status: ('A' for Active; 'I' for Inactive)
REMARK    1  A    between atoms: C1_2  and  C2_3 
ROOT
ATOM      1  C2  UNL d   1      -4.067  -5.048   0.767  0.00  0.00    -0.076 A 
ATOM      2  C3  UNL d   1      -5.059  -5.994   1.076  0.00  0.00     0.004 A 
ATOM      3  C4  UNL d   1      -5.682  -5.999   2.323  0.00  0.00    -0.003 A 
ATOM      4  C5  UNL d   1      -5.323  -5.058   3.281  0.00  0.00     0.000 A 
ATOM      5  C6  UNL d   1      -4.352  -4.101   2.986  0.00  0.00     0.000 A 
ATOM      6  C7  UNL d   1      -3.727  -4.072   1.727  0.00  0.00    -0.073 A 
ATOM      7  C8  UNL d   1      -2.683  -3.021   1.465  0.00  0.00     0.078 C 
ENDROOT
BRANCH   1   8
ATOM      8  C1  UNL d   1      -3.407  -5.108  -0.592  0.00  0.00     0.053 C 
ATOM      9  C   UNL d   1      -4.161  -5.999  -1.567  0.00  0.00     0.018 C 
ENDBRANCH   1   8
TORSDOF 1
ENDMDL
