MODEL 1
REMARK minimizedAffinity 17.3941231
REMARK minimizedRMSD -1
REMARK  1 active torsions:
REMARK  status: ('A' for Active; 'I' for Inactive)
REMARK    1  A    between atoms: C1_2  and  C2_3 
ROOT
ATOM      1  C2  UNL d   1      -1.544  -2.289   3.311  0.00  0.00    -0.076 A 
ATOM      2  C3  UNL d   1      -0.859  -2.759   2.177  0.00  0.00     0.004 A 
ATOM      3  C4  UNL d   1       0.294  -2.123   1.720  0.00  0.00    -0.003 A 
ATOM      4  C5  UNL d   1       0.782  -1.007   2.391  0.00  0.00     0.000 A 
ATOM      5  C6  UNL d   1       0.125  -0.538   3.528  0.00  0.00     0.000 A 
ATOM      6  C7  UNL d   1      -1.029  -1.177   4.011  0.00  0.00    -0.073 A 
ATOM      7  C8  UNL d   1      -1.701  -0.625   5.239  0.00  0.00     0.078 C 
ENDROOT
BRANCH   1   8
ATOM      8  C1  UNL d   1      -2.804  -3.004   3.743  0.00  0.00     0.053 C 
ATOM      9  C   UNL d   1      -3.633  -3.489   2.564  0.00  0.00     0.018 C 
ENDBRANCH   1   8
TORSDOF 1
ENDMDL
