MODEL 1
REMARK minimizedAffinity 13.0528545
REMARK minimizedRMSD -1
REMARK  1 active torsions:
REMARK  status: ('A' for Active; 'I' for Inactive)
REMARK    1  A    between atoms: C1_2  and  C2_3 
ROOT
ATOM      1  C2  UNL d   1      -2.668   3.660  -3.507  0.00  0.00    -0.076 A 
ATOM      2  C3  UNL d   1      -3.498   2.537  -3.343  0.00  0.00     0.004 A 
ATOM      3  C4  UNL d   1      -4.411   2.467  -2.292  0.00  0.00    -0.003 A 
ATOM      4  C5  UNL d   1      -4.510   3.520  -1.389  0.00  0.00     0.000 A 
ATOM      5  C6  UNL d   1      -3.708   4.649  -1.547  0.00  0.00     0.000 A 
ATOM      6  C7  UNL d   1      -2.794   4.743  -2.610  0.00  0.00    -0.073 A 
ATOM      7  C8  UNL d   1      -1.949   5.981  -2.729  0.00  0.00     0.078 C 
ENDROOT
BRANCH   1   8
ATOM      8  C1  UNL d   1      -1.678   3.668  -4.649  0.00  0.00     0.053 C 
ATOM      9  C   UNL d   1      -2.317   4.058  -5.973  0.00  0.00     0.018 C 
ENDBRANCH   1   8
TORSDOF 1
ENDMDL
