MODEL 1
REMARK minimizedAffinity 5.8322525
REMARK minimizedRMSD -1
REMARK  1 active torsions:
REMARK  status: ('A' for Active; 'I' for Inactive)
REMARK    1  A    between atoms: C1_2  and  C2_3 
ROOT
ATOM      1  C2  UNL d   1      -4.539  -4.195   2.523  0.00  0.00    -0.076 A 
ATOM      2  C3  UNL d   1      -5.529  -5.191   2.454  0.00  0.00     0.004 A 
ATOM      3  C4  UNL d   1      -5.658  -5.997   1.324  0.00  0.00    -0.003 A 
ATOM      4  C5  UNL d   1      -4.798  -5.820   0.245  0.00  0.00     0.000 A 
ATOM      5  C6  UNL d   1      -3.800  -4.849   0.304  0.00  0.00     0.000 A 
ATOM      6  C7  UNL d   1      -3.645  -4.039   1.442  0.00  0.00    -0.073 A 
ATOM      7  C8  UNL d   1      -2.555  -3.004   1.449  0.00  0.00     0.078 C 
ENDROOT
BRANCH   1   8
ATOM      8  C1  UNL d   1      -4.464  -3.334   3.763  0.00  0.00     0.053 C 
ATOM      9  C   UNL d   1      -5.791  -3.261   4.503  0.00  0.00     0.018 C 
ENDBRANCH   1   8
TORSDOF 1
ENDMDL
