MODEL 1
REMARK minimizedAffinity -1.18994188
REMARK minimizedRMSD -1
REMARK  0 active torsions:
REMARK  status: ('A' for Active; 'I' for Inactive)
ROOT
ATOM      1  O1  BZF d   1      -0.334   4.574   0.803  0.00  0.00    -0.204 OA
ATOM      2  C2  BZF d   1      -0.270   5.213   2.026  0.00  0.00     0.174 A 
ATOM      3  C3  BZF d   1       0.960   5.091   2.566  0.00  0.00    -0.012 A 
ATOM      4  C3A BZF d   1       1.738   4.407   1.578  0.00  0.00    -0.107 A 
ATOM      5  C4  BZF d   1       3.043   4.008   1.522  0.00  0.00     0.055 A 
ATOM      6  C5  BZF d   1       3.470   3.298   0.446  0.00  0.00    -0.016 A 
ATOM      7  C6  BZF d   1       2.621   2.965  -0.589  0.00  0.00     0.022 A 
ATOM      8  C7  BZF d   1       1.319   3.343  -0.580  0.00  0.00     0.029 A 
ATOM      9  C7A BZF d   1       0.892   4.090   0.491  0.00  0.00     0.058 A 
ENDROOT
TORSDOF 0
ENDMDL
