MODEL 1
REMARK minimizedAffinity -1.11527944
REMARK minimizedRMSD -1
REMARK  0 active torsions:
REMARK  status: ('A' for Active; 'I' for Inactive)
ROOT
ATOM      1  O1  BZF d   1      -0.999   1.596   0.120  0.00  0.00    -0.204 OA
ATOM      2  C2  BZF d   1      -0.464   0.417  -0.362  0.00  0.00     0.174 A 
ATOM      3  C3  BZF d   1       0.881   0.491  -0.425  0.00  0.00    -0.012 A 
ATOM      4  C3A BZF d   1       1.214   1.765   0.136  0.00  0.00    -0.107 A 
ATOM      5  C4  BZF d   1       2.395   2.411   0.363  0.00  0.00     0.055 A 
ATOM      6  C5  BZF d   1       2.371   3.677   0.858  0.00  0.00    -0.016 A 
ATOM      7  C6  BZF d   1       1.186   4.328   1.130  0.00  0.00     0.022 A 
ATOM      8  C7  BZF d   1      -0.011   3.726   0.925  0.00  0.00     0.029 A 
ATOM      9  C7A BZF d   1       0.010   2.435   0.457  0.00  0.00     0.058 A 
ENDROOT
TORSDOF 0
ENDMDL
