MODEL 1
REMARK minimizedAffinity 0.715487123
REMARK minimizedRMSD -1
REMARK  0 active torsions:
REMARK  status: ('A' for Active; 'I' for Inactive)
ROOT
ATOM      1  O1  BZF d   1      -3.225   1.043   1.879  0.00  0.00    -0.204 OA
ATOM      2  C2  BZF d   1      -3.559   2.136   1.104  0.00  0.00     0.174 A 
ATOM      3  C3  BZF d   1      -2.587   2.401   0.207  0.00  0.00    -0.012 A 
ATOM      4  C3A BZF d   1      -1.625   1.356   0.375  0.00  0.00    -0.107 A 
ATOM      5  C4  BZF d   1      -0.442   1.061  -0.240  0.00  0.00     0.055 A 
ATOM      6  C5  BZF d   1       0.293   0.010   0.209  0.00  0.00    -0.016 A 
ATOM      7  C6  BZF d   1      -0.123  -0.764   1.273  0.00  0.00     0.022 A 
ATOM      8  C7  BZF d   1      -1.292  -0.514   1.911  0.00  0.00     0.029 A 
ATOM      9  C7A BZF d   1      -2.052   0.528   1.439  0.00  0.00     0.058 A 
ENDROOT
TORSDOF 0
ENDMDL
