MODEL 1
REMARK minimizedAffinity -4.01818323
REMARK minimizedRMSD -1
REMARK  0 active torsions:
REMARK  status: ('A' for Active; 'I' for Inactive)
ROOT
ATOM      1  O1  BZF d   1      -0.815   0.385   0.828  0.00  0.00    -0.204 OA
ATOM      2  C2  BZF d   1      -0.140   1.226  -0.036  0.00  0.00     0.174 A 
ATOM      3  C3  BZF d   1       0.703   0.527  -0.822  0.00  0.00    -0.012 A 
ATOM      4  C3A BZF d   1       0.478  -0.846  -0.489  0.00  0.00    -0.107 A 
ATOM      5  C4  BZF d   1       1.005  -2.021  -0.943  0.00  0.00     0.055 A 
ATOM      6  C5  BZF d   1       0.623  -3.187  -0.357  0.00  0.00    -0.016 A 
ATOM      7  C6  BZF d   1      -0.278  -3.213   0.686  0.00  0.00     0.022 A 
ATOM      8  C7  BZF d   1      -0.832  -2.074   1.168  0.00  0.00     0.029 A 
ATOM      9  C7A BZF d   1      -0.473  -0.897   0.556  0.00  0.00     0.058 A 
ENDROOT
TORSDOF 0
ENDMDL
