MODEL 1
REMARK minimizedAffinity -4.49247932
REMARK minimizedRMSD -1
REMARK  0 active torsions:
REMARK  status: ('A' for Active; 'I' for Inactive)
ROOT
ATOM      1  O1  BZF d   1      -0.604  -3.030   1.093  0.00  0.00    -0.204 OA
ATOM      2  C2  BZF d   1       0.430  -3.558   0.344  0.00  0.00     0.174 A 
ATOM      3  C3  BZF d   1       0.945  -2.627  -0.485  0.00  0.00    -0.012 A 
ATOM      4  C3A BZF d   1       0.246  -1.418  -0.172  0.00  0.00    -0.107 A 
ATOM      5  C4  BZF d   1       0.323  -0.140  -0.647  0.00  0.00     0.055 A 
ATOM      6  C5  BZF d   1      -0.551   0.791  -0.182  0.00  0.00    -0.016 A 
ATOM      7  C6  BZF d   1      -1.516   0.478   0.753  0.00  0.00     0.022 A 
ATOM      8  C7  BZF d   1      -1.627  -0.775   1.258  0.00  0.00     0.029 A 
ATOM      9  C7A BZF d   1      -0.724  -1.710   0.814  0.00  0.00     0.058 A 
ENDROOT
TORSDOF 0
ENDMDL
