MODEL 1
REMARK minimizedAffinity -3.17297387
REMARK minimizedRMSD -1
REMARK  0 active torsions:
REMARK  status: ('A' for Active; 'I' for Inactive)
ROOT
ATOM      1  O1  BZF d   1      -1.627  -0.482   0.865  0.00  0.00    -0.204 OA
ATOM      2  C2  BZF d   1      -0.446  -0.275   0.179  0.00  0.00     0.174 A 
ATOM      3  C3  BZF d   1      -0.374   0.991  -0.279  0.00  0.00    -0.012 A 
ATOM      4  C3A BZF d   1      -1.544   1.641   0.227  0.00  0.00    -0.107 A 
ATOM      5  C4  BZF d   1      -2.028   2.914   0.126  0.00  0.00     0.055 A 
ATOM      6  C5  BZF d   1      -3.236   3.206   0.676  0.00  0.00    -0.016 A 
ATOM      7  C6  BZF d   1      -3.988   2.251   1.327  0.00  0.00     0.022 A 
ATOM      8  C7  BZF d   1      -3.547   0.976   1.456  0.00  0.00     0.029 A 
ATOM      9  C7A BZF d   1      -2.311   0.685   0.931  0.00  0.00     0.058 A 
ENDROOT
TORSDOF 0
ENDMDL
