MODEL 1
REMARK minimizedAffinity -2.5138638
REMARK minimizedRMSD -1
REMARK  0 active torsions:
REMARK  status: ('A' for Active; 'I' for Inactive)
ROOT
ATOM      1  O1  BZF d   1      -0.957   0.889  -0.778  0.00  0.00    -0.204 OA
ATOM      2  C2  BZF d   1       0.021  -0.069  -0.590  0.00  0.00     0.174 A 
ATOM      3  C3  BZF d   1      -0.075  -0.616   0.638  0.00  0.00    -0.012 A 
ATOM      4  C3A BZF d   1      -1.239  -0.025   1.224  0.00  0.00    -0.107 A 
ATOM      5  C4  BZF d   1      -1.864  -0.177   2.429  0.00  0.00     0.055 A 
ATOM      6  C5  BZF d   1      -2.939   0.604   2.718  0.00  0.00    -0.016 A 
ATOM      7  C6  BZF d   1      -3.411   1.548   1.830  0.00  0.00     0.022 A 
ATOM      8  C7  BZF d   1      -2.827   1.731   0.621  0.00  0.00     0.029 A 
ATOM      9  C7A BZF d   1      -1.761   0.922   0.312  0.00  0.00     0.058 A 
ENDROOT
TORSDOF 0
ENDMDL
