MODEL 1
REMARK minimizedAffinity 3.53914094
REMARK minimizedRMSD -1
REMARK  0 active torsions:
REMARK  status: ('A' for Active; 'I' for Inactive)
ROOT
ATOM      1  O1  BZF d   1      -0.441   1.125   0.918  0.00  0.00    -0.204 OA
ATOM      2  C2  BZF d   1      -1.741   1.202   0.456  0.00  0.00     0.174 A 
ATOM      3  C3  BZF d   1      -2.375   2.267   0.987  0.00  0.00    -0.012 A 
ATOM      4  C3A BZF d   1      -1.383   2.947   1.762  0.00  0.00    -0.107 A 
ATOM      5  C4  BZF d   1      -1.400   4.085   2.517  0.00  0.00     0.055 A 
ATOM      6  C5  BZF d   1      -0.282   4.437   3.206  0.00  0.00    -0.016 A 
ATOM      7  C6  BZF d   1       0.866   3.673   3.166  0.00  0.00     0.022 A 
ATOM      8  C7  BZF d   1       0.931   2.538   2.427  0.00  0.00     0.029 A 
ATOM      9  C7A BZF d   1      -0.186   2.198   1.704  0.00  0.00     0.058 A 
ENDROOT
TORSDOF 0
ENDMDL
