MODEL 1
REMARK minimizedAffinity 7.41716719
REMARK minimizedRMSD -1
REMARK  0 active torsions:
REMARK  status: ('A' for Active; 'I' for Inactive)
ROOT
ATOM      1  O1  BZF d   1      -3.326  -2.366  -0.636  0.00  0.00    -0.204 OA
ATOM      2  C2  BZF d   1      -4.441  -3.175  -0.536  0.00  0.00     0.174 A 
ATOM      3  C3  BZF d   1      -4.268  -4.316  -1.233  0.00  0.00    -0.012 A 
ATOM      4  C3A BZF d   1      -2.927  -4.255  -1.728  0.00  0.00    -0.107 A 
ATOM      5  C4  BZF d   1      -2.164  -5.103  -2.478  0.00  0.00     0.055 A 
ATOM      6  C5  BZF d   1      -0.917  -4.714  -2.852  0.00  0.00    -0.016 A 
ATOM      7  C6  BZF d   1      -0.404  -3.483  -2.498  0.00  0.00     0.022 A 
ATOM      8  C7  BZF d   1      -1.121  -2.610  -1.750  0.00  0.00     0.029 A 
ATOM      9  C7A BZF d   1      -2.370  -3.014  -1.343  0.00  0.00     0.058 A 
ENDROOT
TORSDOF 0
ENDMDL
