MODEL 1
REMARK minimizedAffinity -5.00427961
REMARK minimizedRMSD -1
REMARK  0 active torsions:
REMARK  status: ('A' for Active; 'I' for Inactive)
ROOT
ATOM      1  O1  BZF d   1      -1.952  -2.201  -1.940  0.00  0.00    -0.204 OA
ATOM      2  C2  BZF d   1      -1.866  -3.545  -2.248  0.00  0.00     0.174 A 
ATOM      3  C3  BZF d   1      -0.578  -3.942  -2.305  0.00  0.00    -0.012 A 
ATOM      4  C3A BZF d   1       0.186  -2.794  -1.922  0.00  0.00    -0.107 A 
ATOM      5  C4  BZF d   1       1.524  -2.565  -1.773  0.00  0.00     0.055 A 
ATOM      6  C5  BZF d   1       1.948  -1.313  -1.459  0.00  0.00    -0.016 A 
ATOM      7  C6  BZF d   1       1.064  -0.267  -1.293  0.00  0.00     0.022 A 
ATOM      8  C7  BZF d   1      -0.273  -0.447  -1.426  0.00  0.00     0.029 A 
ATOM      9  C7A BZF d   1      -0.707  -1.718  -1.711  0.00  0.00     0.058 A 
ENDROOT
TORSDOF 0
ENDMDL
