MODEL 1
REMARK minimizedAffinity 3.407547
REMARK minimizedRMSD -1
REMARK  0 active torsions:
REMARK  status: ('A' for Active; 'I' for Inactive)
ROOT
ATOM      1  O1  BZF d   1      -1.093  -3.765  -5.268  0.00  0.00    -0.204 OA
ATOM      2  C2  BZF d   1      -1.082  -4.938  -5.997  0.00  0.00     0.174 A 
ATOM      3  C3  BZF d   1      -1.312  -6.000  -5.199  0.00  0.00    -0.012 A 
ATOM      4  C3A BZF d   1      -1.569  -5.449  -3.904  0.00  0.00    -0.107 A 
ATOM      5  C4  BZF d   1      -1.878  -6.000  -2.693  0.00  0.00     0.055 A 
ATOM      6  C5  BZF d   1      -1.994  -5.189  -1.609  0.00  0.00    -0.016 A 
ATOM      7  C6  BZF d   1      -1.802  -3.826  -1.697  0.00  0.00     0.022 A 
ATOM      8  C7  BZF d   1      -1.498  -3.233  -2.878  0.00  0.00     0.029 A 
ATOM      9  C7A BZF d   1      -1.413  -4.045  -3.982  0.00  0.00     0.058 A 
ENDROOT
TORSDOF 0
ENDMDL
