MODEL 1
REMARK minimizedAffinity 6.34288168
REMARK minimizedRMSD -1
REMARK  0 active torsions:
REMARK  status: ('A' for Active; 'I' for Inactive)
ROOT
ATOM      1  O1  BZF d   1       1.762   3.392   2.409  0.00  0.00    -0.204 OA
ATOM      2  C2  BZF d   1       1.117   4.080   3.418  0.00  0.00     0.174 A 
ATOM      3  C3  BZF d   1      -0.208   4.153   3.176  0.00  0.00    -0.012 A 
ATOM      4  C3A BZF d   1      -0.416   3.389   1.985  0.00  0.00    -0.107 A 
ATOM      5  C4  BZF d   1      -1.525   3.075   1.252  0.00  0.00     0.055 A 
ATOM      6  C5  BZF d   1      -1.377   2.370   0.099  0.00  0.00    -0.016 A 
ATOM      7  C6  BZF d   1      -0.137   1.968  -0.352  0.00  0.00     0.022 A 
ATOM      8  C7  BZF d   1       0.991   2.251   0.343  0.00  0.00     0.029 A 
ATOM      9  C7A BZF d   1       0.842   2.935   1.525  0.00  0.00     0.058 A 
ENDROOT
TORSDOF 0
ENDMDL
