MODEL 1
REMARK minimizedAffinity 9.40056515
REMARK minimizedRMSD -1
REMARK  0 active torsions:
REMARK  status: ('A' for Active; 'I' for Inactive)
ROOT
ATOM      1  O1  BZF d   1      -1.690  -2.412  -1.672  0.00  0.00    -0.204 OA
ATOM      2  C2  BZF d   1      -0.385  -2.581  -2.094  0.00  0.00     0.174 A 
ATOM      3  C3  BZF d   1      -0.258  -3.716  -2.812  0.00  0.00    -0.012 A 
ATOM      4  C3A BZF d   1      -1.583  -4.246  -2.917  0.00  0.00    -0.107 A 
ATOM      5  C4  BZF d   1      -2.107  -5.350  -3.525  0.00  0.00     0.055 A 
ATOM      6  C5  BZF d   1      -3.431  -5.620  -3.377  0.00  0.00    -0.016 A 
ATOM      7  C6  BZF d   1      -4.257  -4.811  -2.625  0.00  0.00     0.022 A 
ATOM      8  C7  BZF d   1      -3.784  -3.702  -2.007  0.00  0.00     0.029 A 
ATOM      9  C7A BZF d   1      -2.454  -3.408  -2.182  0.00  0.00     0.058 A 
ENDROOT
TORSDOF 0
ENDMDL
