MODEL 1
REMARK minimizedAffinity 7.08948278
REMARK minimizedRMSD -1
REMARK  0 active torsions:
REMARK  status: ('A' for Active; 'I' for Inactive)
ROOT
ATOM      1  O1  BZF d   1       2.410   5.323   2.050  0.00  0.00    -0.204 OA
ATOM      2  C2  BZF d   1       1.235   4.703   2.429  0.00  0.00     0.174 A 
ATOM      3  C3  BZF d   1       1.057   3.556   1.743  0.00  0.00    -0.012 A 
ATOM      4  C3A BZF d   1       2.236   3.406   0.947  0.00  0.00    -0.107 A 
ATOM      5  C4  BZF d   1       2.658   2.454   0.063  0.00  0.00     0.055 A 
ATOM      6  C5  BZF d   1       3.828   2.642  -0.602  0.00  0.00    -0.016 A 
ATOM      7  C6  BZF d   1       4.598   3.771  -0.411  0.00  0.00     0.022 A 
ATOM      8  C7  BZF d   1       4.223   4.740   0.459  0.00  0.00     0.029 A 
ATOM      9  C7A BZF d   1       3.058   4.537   1.157  0.00  0.00     0.058 A 
ENDROOT
TORSDOF 0
ENDMDL
