MODEL 1
REMARK minimizedAffinity 0.666536987
REMARK minimizedRMSD -1
REMARK  0 active torsions:
REMARK  status: ('A' for Active; 'I' for Inactive)
ROOT
ATOM      1  O1  BZF d   1       2.686  -2.248   4.531  0.00  0.00    -0.204 OA
ATOM      2  C2  BZF d   1       1.943  -3.361   4.186  0.00  0.00     0.174 A 
ATOM      3  C3  BZF d   1       2.636  -4.492   4.428  0.00  0.00    -0.012 A 
ATOM      4  C3A BZF d   1       3.854  -4.063   5.043  0.00  0.00    -0.107 A 
ATOM      5  C4  BZF d   1       4.945  -4.726   5.529  0.00  0.00     0.055 A 
ATOM      6  C5  BZF d   1       5.999  -4.008   5.999  0.00  0.00    -0.016 A 
ATOM      7  C6  BZF d   1       5.997  -2.628   5.995  0.00  0.00     0.022 A 
ATOM      8  C7  BZF d   1       4.936  -1.927   5.529  0.00  0.00     0.029 A 
ATOM      9  C7A BZF d   1       3.856  -2.650   5.083  0.00  0.00     0.058 A 
ENDROOT
TORSDOF 0
ENDMDL
