MODEL 1
REMARK minimizedAffinity -2.21182513
REMARK minimizedRMSD -1
REMARK  0 active torsions:
REMARK  status: ('A' for Active; 'I' for Inactive)
ROOT
ATOM      1  O1  BZF d   1      -0.092   0.304  -1.298  0.00  0.00    -0.204 OA
ATOM      2  C2  BZF d   1       0.340  -0.206  -2.507  0.00  0.00     0.174 A 
ATOM      3  C3  BZF d   1       0.876  -1.433  -2.344  0.00  0.00    -0.012 A 
ATOM      4  C3A BZF d   1       0.689  -1.745  -0.960  0.00  0.00    -0.107 A 
ATOM      5  C4  BZF d   1       0.997  -2.831  -0.192  0.00  0.00     0.055 A 
ATOM      6  C5  BZF d   1       0.745  -2.790   1.142  0.00  0.00    -0.016 A 
ATOM      7  C6  BZF d   1       0.192  -1.678   1.743  0.00  0.00     0.022 A 
ATOM      8  C7  BZF d   1      -0.135  -0.578   1.022  0.00  0.00     0.029 A 
ATOM      9  C7A BZF d   1       0.088  -0.629  -0.333  0.00  0.00     0.058 A 
ENDROOT
TORSDOF 0
ENDMDL
