MODEL 1
REMARK minimizedAffinity -1.64972651
REMARK minimizedRMSD -1
REMARK  0 active torsions:
REMARK  status: ('A' for Active; 'I' for Inactive)
ROOT
ATOM      1  C   UNL d   1       3.390   0.302  -0.177  0.00  0.00     0.172 C 
ATOM      2  N   UNL d   1       3.249   0.818  -1.518  0.00  0.00    -0.070 N 
ATOM      3  C1  UNL d   1       2.063   1.076  -2.154  0.00  0.00    -0.004 A 
ATOM      4  C2  UNL d   1       2.355   1.556  -3.412  0.00  0.00    -0.047 A 
ATOM      5  C3  UNL d   1       3.764   1.588  -3.537  0.00  0.00    -0.047 A 
ATOM      6  C4  UNL d   1       4.292   1.126  -2.350  0.00  0.00    -0.004 A 
ENDROOT
TORSDOF 0
ENDMDL
