MODEL 1
REMARK minimizedAffinity 3.07647252
REMARK minimizedRMSD -1
REMARK  0 active torsions:
REMARK  status: ('A' for Active; 'I' for Inactive)
ROOT
ATOM      1  C   UNL d   1      -5.451  -3.948  -2.690  0.00  0.00     0.172 C 
ATOM      2  N   UNL d   1      -4.113  -3.407  -2.630  0.00  0.00    -0.070 N 
ATOM      3  C1  UNL d   1      -3.222  -3.364  -3.668  0.00  0.00    -0.004 A 
ATOM      4  C2  UNL d   1      -2.065  -2.775  -3.207  0.00  0.00    -0.047 A 
ATOM      5  C3  UNL d   1      -2.267  -2.455  -1.843  0.00  0.00    -0.047 A 
ATOM      6  C4  UNL d   1      -3.544  -2.857  -1.512  0.00  0.00    -0.004 A 
ENDROOT
TORSDOF 0
ENDMDL
