MODEL 1
REMARK minimizedAffinity -2.73749089
REMARK minimizedRMSD -1
REMARK  0 active torsions:
REMARK  status: ('A' for Active; 'I' for Inactive)
ROOT
ATOM      1  C   UNL d   1       3.408   1.652  -2.226  0.00  0.00     0.172 C 
ATOM      2  N   UNL d   1       3.981   1.132  -1.007  0.00  0.00    -0.070 N 
ATOM      3  C1  UNL d   1       3.278   0.610   0.046  0.00  0.00    -0.004 A 
ATOM      4  C2  UNL d   1       4.184   0.226   1.010  0.00  0.00    -0.047 A 
ATOM      5  C3  UNL d   1       5.477   0.530   0.521  0.00  0.00    -0.047 A 
ATOM      6  C4  UNL d   1       5.322   1.090  -0.729  0.00  0.00    -0.004 A 
ENDROOT
TORSDOF 0
ENDMDL
