MODEL 1
REMARK minimizedAffinity -0.910336435
REMARK minimizedRMSD -1
REMARK  0 active torsions:
REMARK  status: ('A' for Active; 'I' for Inactive)
ROOT
ATOM      1  C   UNL d   1       3.665   1.535  -2.061  0.00  0.00     0.172 C 
ATOM      2  N   UNL d   1       3.549   1.052  -0.705  0.00  0.00    -0.070 N 
ATOM      3  C1  UNL d   1       2.807   1.632   0.289  0.00  0.00    -0.004 A 
ATOM      4  C2  UNL d   1       2.959   0.871   1.428  0.00  0.00    -0.047 A 
ATOM      5  C3  UNL d   1       3.823  -0.203   1.107  0.00  0.00    -0.047 A 
ATOM      6  C4  UNL d   1       4.173  -0.067  -0.219  0.00  0.00    -0.004 A 
ENDROOT
TORSDOF 0
ENDMDL
