MODEL 1
REMARK minimizedAffinity 0.248913929
REMARK minimizedRMSD -1
REMARK  0 active torsions:
REMARK  status: ('A' for Active; 'I' for Inactive)
ROOT
ATOM      1  C   UNL d   1       5.874  -0.273   1.705  0.00  0.00     0.172 C 
ATOM      2  N   UNL d   1       4.802   0.542   1.183  0.00  0.00    -0.070 N 
ATOM      3  C1  UNL d   1       3.607   0.078   0.702  0.00  0.00    -0.004 A 
ATOM      4  C2  UNL d   1       2.862   1.165   0.301  0.00  0.00    -0.047 A 
ATOM      5  C3  UNL d   1       3.637   2.324   0.549  0.00  0.00    -0.047 A 
ATOM      6  C4  UNL d   1       4.833   1.909   1.094  0.00  0.00    -0.004 A 
ENDROOT
TORSDOF 0
ENDMDL
