MODEL 1
REMARK minimizedAffinity 0.750514388
REMARK minimizedRMSD -1
REMARK  0 active torsions:
REMARK  status: ('A' for Active; 'I' for Inactive)
ROOT
ATOM      1  C   UNL d   1       3.355   1.918  -2.289  0.00  0.00     0.172 C 
ATOM      2  N   UNL d   1       3.337   1.176  -1.051  0.00  0.00    -0.070 N 
ATOM      3  C1  UNL d   1       4.219   0.189  -0.699  0.00  0.00    -0.004 A 
ATOM      4  C2  UNL d   1       3.866  -0.266   0.553  0.00  0.00    -0.047 A 
ATOM      5  C3  UNL d   1       2.732   0.472   0.967  0.00  0.00    -0.047 A 
ATOM      6  C4  UNL d   1       2.426   1.358  -0.044  0.00  0.00    -0.004 A 
ENDROOT
TORSDOF 0
ENDMDL
