MODEL 1
REMARK minimizedAffinity 2.18278384
REMARK minimizedRMSD -1
REMARK  0 active torsions:
REMARK  status: ('A' for Active; 'I' for Inactive)
ROOT
ATOM      1  C   UNL d   1       6.000  -0.583   1.128  0.00  0.00     0.172 C 
ATOM      2  N   UNL d   1       4.662  -0.122   0.841  0.00  0.00    -0.070 N 
ATOM      3  C1  UNL d   1       3.504  -0.710   1.276  0.00  0.00    -0.004 A 
ATOM      4  C2  UNL d   1       2.447   0.029   0.790  0.00  0.00    -0.047 A 
ATOM      5  C3  UNL d   1       2.988   1.097   0.036  0.00  0.00    -0.047 A 
ATOM      6  C4  UNL d   1       4.361   0.980   0.084  0.00  0.00    -0.004 A 
ENDROOT
TORSDOF 0
ENDMDL
