MODEL 1
REMARK minimizedAffinity 4.82849789
REMARK minimizedRMSD -1
REMARK  0 active torsions:
REMARK  status: ('A' for Active; 'I' for Inactive)
ROOT
ATOM      1  C   UNL d   1      -1.260  -3.058  -5.898  0.00  0.00     0.172 C 
ATOM      2  N   UNL d   1      -1.599  -3.203  -4.502  0.00  0.00    -0.070 N 
ATOM      3  C1  UNL d   1      -2.323  -2.309  -3.759  0.00  0.00    -0.004 A 
ATOM      4  C2  UNL d   1      -2.427  -2.811  -2.479  0.00  0.00    -0.047 A 
ATOM      5  C3  UNL d   1      -1.741  -4.049  -2.452  0.00  0.00    -0.047 A 
ATOM      6  C4  UNL d   1      -1.238  -4.267  -3.718  0.00  0.00    -0.004 A 
ENDROOT
TORSDOF 0
ENDMDL
