MODEL 1
REMARK minimizedAffinity 0.994403899
REMARK minimizedRMSD -1
REMARK  0 active torsions:
REMARK  status: ('A' for Active; 'I' for Inactive)
ROOT
ATOM      1  C   UNL d   1       5.130  -0.580   0.893  0.00  0.00     0.172 C 
ATOM      2  N   UNL d   1       3.963   0.139   0.437  0.00  0.00    -0.070 N 
ATOM      3  C1  UNL d   1       3.967   1.379  -0.144  0.00  0.00    -0.004 A 
ATOM      4  C2  UNL d   1       2.662   1.713  -0.435  0.00  0.00    -0.047 A 
ATOM      5  C3  UNL d   1       1.845   0.637  -0.012  0.00  0.00    -0.047 A 
ATOM      6  C4  UNL d   1       2.677  -0.324   0.523  0.00  0.00    -0.004 A 
ENDROOT
TORSDOF 0
ENDMDL
