MODEL 1
REMARK minimizedAffinity 0.784781456
REMARK minimizedRMSD -1
REMARK  0 active torsions:
REMARK  status: ('A' for Active; 'I' for Inactive)
ROOT
ATOM      1  C   UNL d   1       2.610   1.362  -2.086  0.00  0.00     0.172 C 
ATOM      2  N   UNL d   1       2.649   1.611  -3.508  0.00  0.00    -0.070 N 
ATOM      3  C1  UNL d   1       1.720   2.322  -4.220  0.00  0.00    -0.004 A 
ATOM      4  C2  UNL d   1       2.117   2.331  -5.540  0.00  0.00    -0.047 A 
ATOM      5  C3  UNL d   1       3.325   1.599  -5.624  0.00  0.00    -0.047 A 
ATOM      6  C4  UNL d   1       3.632   1.165  -4.351  0.00  0.00    -0.004 A 
ENDROOT
TORSDOF 0
ENDMDL
