MODEL 1
REMARK minimizedAffinity 8.05249596
REMARK minimizedRMSD -1
REMARK  0 active torsions:
REMARK  status: ('A' for Active; 'I' for Inactive)
ROOT
ATOM      1  C   UNL d   1       1.450  -4.185  -3.993  0.00  0.00     0.172 C 
ATOM      2  N   UNL d   1       2.400  -3.466  -4.809  0.00  0.00    -0.070 N 
ATOM      3  C1  UNL d   1       2.255  -2.181  -5.258  0.00  0.00    -0.004 A 
ATOM      4  C2  UNL d   1       3.373  -1.864  -5.999  0.00  0.00    -0.047 A 
ATOM      5  C3  UNL d   1       4.218  -2.999  -5.996  0.00  0.00    -0.047 A 
ATOM      6  C4  UNL d   1       3.592  -3.976  -5.252  0.00  0.00    -0.004 A 
ENDROOT
TORSDOF 0
ENDMDL
