MODEL 1
REMARK minimizedAffinity 0.369593799
REMARK minimizedRMSD -1
REMARK  0 active torsions:
REMARK  status: ('A' for Active; 'I' for Inactive)
ROOT
ATOM      1  C   UNL d   1       4.880  -0.450   1.559  0.00  0.00     0.172 C 
ATOM      2  N   UNL d   1       3.758   0.409   1.257  0.00  0.00    -0.070 N 
ATOM      3  C1  UNL d   1       2.458   0.181   1.620  0.00  0.00    -0.004 A 
ATOM      4  C2  UNL d   1       1.697   1.227   1.145  0.00  0.00    -0.047 A 
ATOM      5  C3  UNL d   1       2.571   2.115   0.472  0.00  0.00    -0.047 A 
ATOM      6  C4  UNL d   1       3.841   1.583   0.557  0.00  0.00    -0.004 A 
ENDROOT
TORSDOF 0
ENDMDL
