MODEL 1
REMARK minimizedAffinity 4.29158354
REMARK minimizedRMSD -1
REMARK  0 active torsions:
REMARK  status: ('A' for Active; 'I' for Inactive)
ROOT
ATOM      1  C   UNL d   1      -4.569  -4.351  -2.503  0.00  0.00     0.172 C 
ATOM      2  N   UNL d   1      -3.444  -3.446  -2.540  0.00  0.00    -0.070 N 
ATOM      3  C1  UNL d   1      -2.893  -2.813  -1.458  0.00  0.00    -0.004 A 
ATOM      4  C2  UNL d   1      -1.844  -2.041  -1.910  0.00  0.00    -0.047 A 
ATOM      5  C3  UNL d   1      -1.763  -2.216  -3.312  0.00  0.00    -0.047 A 
ATOM      6  C4  UNL d   1      -2.765  -3.091  -3.675  0.00  0.00    -0.004 A 
ENDROOT
TORSDOF 0
ENDMDL
