MODEL 1
REMARK minimizedAffinity 6.89251709
REMARK minimizedRMSD -1
REMARK  0 active torsions:
REMARK  status: ('A' for Active; 'I' for Inactive)
ROOT
ATOM      1  C   UNL d   1      -1.133  -2.696  -0.080  0.00  0.00     0.172 C 
ATOM      2  N   UNL d   1      -1.961  -2.751  -1.262  0.00  0.00    -0.070 N 
ATOM      3  C1  UNL d   1      -3.245  -3.223  -1.315  0.00  0.00    -0.004 A 
ATOM      4  C2  UNL d   1      -3.684  -3.106  -2.616  0.00  0.00    -0.047 A 
ATOM      5  C3  UNL d   1      -2.627  -2.546  -3.371  0.00  0.00    -0.047 A 
ATOM      6  C4  UNL d   1      -1.572  -2.336  -2.508  0.00  0.00    -0.004 A 
ENDROOT
TORSDOF 0
ENDMDL
