MODEL 1
REMARK minimizedAffinity 0.766111612
REMARK minimizedRMSD -1
REMARK  0 active torsions:
REMARK  status: ('A' for Active; 'I' for Inactive)
ROOT
ATOM      1  C   UNL d   1      -3.265  -3.406  -2.159  0.00  0.00     0.172 C 
ATOM      2  N   UNL d   1      -2.380  -3.480  -1.021  0.00  0.00    -0.070 N 
ATOM      3  C1  UNL d   1      -2.227  -4.564  -0.198  0.00  0.00    -0.004 A 
ATOM      4  C2  UNL d   1      -1.294  -4.237   0.762  0.00  0.00    -0.047 A 
ATOM      5  C3  UNL d   1      -0.873  -2.910   0.508  0.00  0.00    -0.047 A 
ATOM      6  C4  UNL d   1      -1.561  -2.466  -0.601  0.00  0.00    -0.004 A 
ENDROOT
TORSDOF 0
ENDMDL
