MODEL 1
REMARK minimizedAffinity -0.188759193
REMARK minimizedRMSD -1
REMARK  0 active torsions:
REMARK  status: ('A' for Active; 'I' for Inactive)
ROOT
ATOM      1  C   UNL d   1      -1.836  -3.532   0.816  0.00  0.00     0.172 C 
ATOM      2  N   UNL d   1      -2.396  -3.783  -0.491  0.00  0.00    -0.070 N 
ATOM      3  C1  UNL d   1      -2.362  -2.919  -1.554  0.00  0.00    -0.004 A 
ATOM      4  C2  UNL d   1      -3.001  -3.528  -2.613  0.00  0.00    -0.047 A 
ATOM      5  C3  UNL d   1      -3.433  -4.801  -2.171  0.00  0.00    -0.047 A 
ATOM      6  C4  UNL d   1      -3.046  -4.933  -0.854  0.00  0.00    -0.004 A 
ENDROOT
TORSDOF 0
ENDMDL
