MODEL 1
REMARK minimizedAffinity 10.2516041
REMARK minimizedRMSD -1
REMARK  0 active torsions:
REMARK  status: ('A' for Active; 'I' for Inactive)
ROOT
ATOM      1  C4' PXY d   1      -5.163  -5.948  -6.000  0.00  0.00     0.077 C 
ATOM      2  C1' PXY d   1      -0.078  -5.067  -3.397  0.00  0.00     0.077 C 
ATOM      3  C1  PXY d   1      -1.406  -5.297  -4.092  0.00  0.00    -0.082 A 
ATOM      4  C2  PXY d   1      -2.532  -5.019  -3.457  0.00  0.00     0.003 A 
ATOM      5  C3  PXY d   1      -3.743  -5.251  -4.058  0.00  0.00     0.003 A 
ATOM      6  C4  PXY d   1      -3.800  -5.723  -5.342  0.00  0.00    -0.082 A 
ATOM      7  C5  PXY d   1      -2.654  -6.000  -6.000  0.00  0.00     0.003 A 
ATOM      8  C6  PXY d   1      -1.436  -5.796  -5.357  0.00  0.00     0.003 A 
ENDROOT
TORSDOF 0
ENDMDL
