MODEL 1
REMARK minimizedAffinity 6.65388775
REMARK minimizedRMSD -1
REMARK  0 active torsions:
REMARK  status: ('A' for Active; 'I' for Inactive)
ROOT
ATOM      1  C4' PXY d   1       2.259   1.899   2.667  0.00  0.00     0.077 C 
ATOM      2  C1' PXY d   1       0.728   4.333  -2.347  0.00  0.00     0.077 C 
ATOM      3  C1  PXY d   1       1.117   3.694  -1.029  0.00  0.00    -0.082 A 
ATOM      4  C2  PXY d   1       2.334   3.881  -0.545  0.00  0.00     0.003 A 
ATOM      5  C3  PXY d   1       2.713   3.285   0.630  0.00  0.00     0.003 A 
ATOM      6  C4  PXY d   1       1.820   2.532   1.344  0.00  0.00    -0.082 A 
ATOM      7  C5  PXY d   1       0.572   2.346   0.863  0.00  0.00     0.003 A 
ATOM      8  C6  PXY d   1       0.221   2.926  -0.352  0.00  0.00     0.003 A 
ENDROOT
TORSDOF 0
ENDMDL
