MODEL 1
REMARK minimizedAffinity 14.3737631
REMARK minimizedRMSD -1
REMARK  0 active torsions:
REMARK  status: ('A' for Active; 'I' for Inactive)
ROOT
ATOM      1  C4' PXY d   1      -4.897   0.320  -1.033  0.00  0.00     0.077 C 
ATOM      2  C1' PXY d   1      -3.405   2.878  -5.997  0.00  0.00     0.077 C 
ATOM      3  C1  PXY d   1      -3.803   2.198  -4.702  0.00  0.00    -0.082 A 
ATOM      4  C2  PXY d   1      -3.836   2.898  -3.579  0.00  0.00     0.003 A 
ATOM      5  C3  PXY d   1      -4.162   2.291  -2.394  0.00  0.00     0.003 A 
ATOM      6  C4  PXY d   1      -4.510   0.967  -2.366  0.00  0.00    -0.082 A 
ATOM      7  C5  PXY d   1      -4.489   0.249  -3.509  0.00  0.00     0.003 A 
ATOM      8  C6  PXY d   1      -4.115   0.874  -4.695  0.00  0.00     0.003 A 
ENDROOT
TORSDOF 0
ENDMDL
