MODEL 1
REMARK minimizedAffinity 9.57261944
REMARK minimizedRMSD -1
REMARK  0 active torsions:
REMARK  status: ('A' for Active; 'I' for Inactive)
ROOT
ATOM      1  C4' PXY d   1       4.832  -5.737  -1.442  0.00  0.00     0.077 C 
ATOM      2  C1' PXY d   1      -0.560  -4.118  -2.755  0.00  0.00     0.077 C 
ATOM      3  C1  PXY d   1       0.857  -4.545  -2.423  0.00  0.00    -0.082 A 
ATOM      4  C2  PXY d   1       1.150  -4.941  -1.195  0.00  0.00     0.003 A 
ATOM      5  C3  PXY d   1       2.432  -5.300  -0.870  0.00  0.00     0.003 A 
ATOM      6  C4  PXY d   1       3.414  -5.306  -1.825  0.00  0.00    -0.082 A 
ATOM      7  C5  PXY d   1       3.120  -4.914  -3.083  0.00  0.00     0.003 A 
ATOM      8  C6  PXY d   1       1.821  -4.514  -3.383  0.00  0.00     0.003 A 
ENDROOT
TORSDOF 0
ENDMDL
