MODEL 1
REMARK minimizedAffinity 16.8272114
REMARK minimizedRMSD -1
REMARK  0 active torsions:
REMARK  status: ('A' for Active; 'I' for Inactive)
ROOT
ATOM      1  C4' PXY d   1       1.526  -3.797   0.695  0.00  0.00     0.077 C 
ATOM      2  C1' PXY d   1       2.173  -5.135  -4.892  0.00  0.00     0.077 C 
ATOM      3  C1  PXY d   1       1.990  -4.782  -3.429  0.00  0.00    -0.082 A 
ATOM      4  C2  PXY d   1       3.027  -4.357  -2.724  0.00  0.00     0.003 A 
ATOM      5  C3  PXY d   1       2.886  -4.064  -1.392  0.00  0.00     0.003 A 
ATOM      6  C4  PXY d   1       1.661  -4.156  -0.788  0.00  0.00    -0.082 A 
ATOM      7  C5  PXY d   1       0.597  -4.578  -1.502  0.00  0.00     0.003 A 
ATOM      8  C6  PXY d   1       0.769  -4.910  -2.843  0.00  0.00     0.003 A 
ENDROOT
TORSDOF 0
ENDMDL
