MODEL 1
REMARK minimizedAffinity 6.39061546
REMARK minimizedRMSD -1
REMARK  0 active torsions:
REMARK  status: ('A' for Active; 'I' for Inactive)
ROOT
ATOM      1  C4' PXY d   1      -1.180   6.000  -2.232  0.00  0.00     0.077 C 
ATOM      2  C1' PXY d   1      -0.048   1.746   1.514  0.00  0.00     0.077 C 
ATOM      3  C1  PXY d   1      -0.356   2.864   0.538  0.00  0.00    -0.082 A 
ATOM      4  C2  PXY d   1       0.232   2.878  -0.648  0.00  0.00     0.003 A 
ATOM      5  C3  PXY d   1      -0.011   3.898  -1.531  0.00  0.00     0.003 A 
ATOM      6  C4  PXY d   1      -0.906   4.886  -1.218  0.00  0.00    -0.082 A 
ATOM      7  C5  PXY d   1      -1.518   4.873  -0.015  0.00  0.00     0.003 A 
ATOM      8  C6  PXY d   1      -1.226   3.851   0.883  0.00  0.00     0.003 A 
ENDROOT
TORSDOF 0
ENDMDL
