MODEL 1
REMARK minimizedAffinity 9.57913113
REMARK minimizedRMSD -1
REMARK  0 active torsions:
REMARK  status: ('A' for Active; 'I' for Inactive)
ROOT
ATOM      1  C4' PXY d   1       1.741  -2.354  -4.886  0.00  0.00     0.077 C 
ATOM      2  C1' PXY d   1       1.276  -5.511  -0.065  0.00  0.00     0.077 C 
ATOM      3  C1  PXY d   1       1.411  -4.685  -1.330  0.00  0.00    -0.082 A 
ATOM      4  C2  PXY d   1       0.494  -3.776  -1.618  0.00  0.00     0.003 A 
ATOM      5  C3  PXY d   1       0.584  -3.042  -2.773  0.00  0.00     0.003 A 
ATOM      6  C4  PXY d   1       1.651  -3.204  -3.615  0.00  0.00    -0.082 A 
ATOM      7  C5  PXY d   1       2.596  -4.122  -3.323  0.00  0.00     0.003 A 
ATOM      8  C6  PXY d   1       2.465  -4.885  -2.166  0.00  0.00     0.003 A 
ENDROOT
TORSDOF 0
ENDMDL
