MODEL 1
REMARK minimizedAffinity 6.50354719
REMARK minimizedRMSD -1
REMARK  0 active torsions:
REMARK  status: ('A' for Active; 'I' for Inactive)
ROOT
ATOM      1  C4' PXY d   1       1.489   1.908   2.467  0.00  0.00     0.077 C 
ATOM      2  C1' PXY d   1      -1.685   3.526  -2.085  0.00  0.00     0.077 C 
ATOM      3  C1  PXY d   1      -0.847   3.092  -0.899  0.00  0.00    -0.082 A 
ATOM      4  C2  PXY d   1      -1.285   3.320   0.329  0.00  0.00     0.003 A 
ATOM      5  C3  PXY d   1      -0.524   2.963   1.413  0.00  0.00     0.003 A 
ATOM      6  C4  PXY d   1       0.672   2.320   1.240  0.00  0.00    -0.082 A 
ATOM      7  C5  PXY d   1       1.120   2.075  -0.010  0.00  0.00     0.003 A 
ATOM      8  C6  PXY d   1       0.352   2.482  -1.098  0.00  0.00     0.003 A 
ENDROOT
TORSDOF 0
ENDMDL
