MODEL 1
REMARK minimizedAffinity 8.1579113
REMARK minimizedRMSD -1
REMARK  0 active torsions:
REMARK  status: ('A' for Active; 'I' for Inactive)
ROOT
ATOM      1  C4' PXY d   1      -2.284   4.562  -1.190  0.00  0.00     0.077 C 
ATOM      2  C1' PXY d   1       1.281   0.935   1.558  0.00  0.00     0.077 C 
ATOM      3  C1  PXY d   1       0.336   1.878   0.840  0.00  0.00    -0.082 A 
ATOM      4  C2  PXY d   1       0.803   2.679  -0.103  0.00  0.00     0.003 A 
ATOM      5  C3  PXY d   1      -0.031   3.561  -0.740  0.00  0.00     0.003 A 
ATOM      6  C4  PXY d   1      -1.368   3.586  -0.445  0.00  0.00    -0.082 A 
ATOM      7  C5  PXY d   1      -1.855   2.764   0.509  0.00  0.00     0.003 A 
ATOM      8  C6  PXY d   1      -0.983   1.905   1.172  0.00  0.00     0.003 A 
ENDROOT
TORSDOF 0
ENDMDL
