MODEL 1
REMARK minimizedAffinity 9.06671619
REMARK minimizedRMSD -1
REMARK  0 active torsions:
REMARK  status: ('A' for Active; 'I' for Inactive)
ROOT
ATOM      1  O1  BZF d   1       4.633  -0.562  -3.713  0.00  0.00    -0.204 OA
ATOM      2  C2  BZF d   1       3.719  -1.554  -4.012  0.00  0.00     0.174 A 
ATOM      3  C3  BZF d   1       3.010  -1.897  -2.918  0.00  0.00    -0.012 A 
ATOM      4  C3A BZF d   1       3.447  -1.003  -1.890  0.00  0.00    -0.107 A 
ATOM      5  C4  BZF d   1       3.100  -0.836  -0.580  0.00  0.00     0.055 A 
ATOM      6  C5  BZF d   1       3.769   0.079   0.169  0.00  0.00    -0.016 A 
ATOM      7  C6  BZF d   1       4.792   0.840  -0.357  0.00  0.00     0.022 A 
ATOM      8  C7  BZF d   1       5.169   0.714  -1.653  0.00  0.00     0.029 A 
ATOM      9  C7A BZF d   1       4.473  -0.187  -2.421  0.00  0.00     0.058 A 
ENDROOT
TORSDOF 0
ENDMDL
