MODEL 1
REMARK minimizedAffinity 16.5397911
REMARK minimizedRMSD -1
REMARK  0 active torsions:
REMARK  status: ('A' for Active; 'I' for Inactive)
ROOT
ATOM      1  O1  BZF d   1       2.061   0.320  -1.363  0.00  0.00    -0.204 OA
ATOM      2  C2  BZF d   1       3.202  -0.080  -0.695  0.00  0.00     0.174 A 
ATOM      3  C3  BZF d   1       3.059   0.082   0.636  0.00  0.00    -0.012 A 
ATOM      4  C3A BZF d   1       1.712   0.530   0.818  0.00  0.00    -0.107 A 
ATOM      5  C4  BZF d   1       0.969   0.849   1.919  0.00  0.00     0.055 A 
ATOM      6  C5  BZF d   1      -0.293   1.323   1.749  0.00  0.00    -0.016 A 
ATOM      7  C6  BZF d   1      -0.841   1.496   0.495  0.00  0.00     0.022 A 
ATOM      8  C7  BZF d   1      -0.145   1.188  -0.627  0.00  0.00     0.029 A 
ATOM      9  C7A BZF d   1       1.119   0.678  -0.457  0.00  0.00     0.058 A 
ENDROOT
TORSDOF 0
ENDMDL
