MODEL 1
REMARK minimizedAffinity 14.5345755
REMARK minimizedRMSD -1
REMARK  0 active torsions:
REMARK  status: ('A' for Active; 'I' for Inactive)
ROOT
ATOM      1  O1  BZF d   1      -1.418   0.248  -3.546  0.00  0.00    -0.204 OA
ATOM      2  C2  BZF d   1      -1.702  -0.733  -2.615  0.00  0.00     0.174 A 
ATOM      3  C3  BZF d   1      -3.017  -1.032  -2.621  0.00  0.00    -0.012 A 
ATOM      4  C3A BZF d   1      -3.576  -0.252  -3.682  0.00  0.00    -0.107 A 
ATOM      5  C4  BZF d   1      -4.836  -0.127  -4.192  0.00  0.00     0.055 A 
ATOM      6  C5  BZF d   1      -5.062   0.775  -5.183  0.00  0.00    -0.016 A 
ATOM      7  C6  BZF d   1      -4.052   1.572  -5.682  0.00  0.00     0.022 A 
ATOM      8  C7  BZF d   1      -2.785   1.480  -5.212  0.00  0.00     0.029 A 
ATOM      9  C7A BZF d   1      -2.547   0.546  -4.234  0.00  0.00     0.058 A 
ENDROOT
TORSDOF 0
ENDMDL
