MODEL 1
REMARK minimizedAffinity 15.6491051
REMARK minimizedRMSD -1
REMARK  0 active torsions:
REMARK  status: ('A' for Active; 'I' for Inactive)
ROOT
ATOM      1  O1  BZF d   1       2.757  -0.018  -1.382  0.00  0.00    -0.204 OA
ATOM      2  C2  BZF d   1       3.884  -0.599  -0.834  0.00  0.00     0.174 A 
ATOM      3  C3  BZF d   1       3.769  -0.695   0.506  0.00  0.00    -0.012 A 
ATOM      4  C3A BZF d   1       2.452  -0.224   0.806  0.00  0.00    -0.107 A 
ATOM      5  C4  BZF d   1       1.743  -0.090   1.965  0.00  0.00     0.055 A 
ATOM      6  C5  BZF d   1       0.507   0.472   1.923  0.00  0.00    -0.016 A 
ATOM      7  C6  BZF d   1      -0.049   0.916   0.741  0.00  0.00     0.022 A 
ATOM      8  C7  BZF d   1       0.613   0.800  -0.436  0.00  0.00     0.029 A 
ATOM      9  C7A BZF d   1       1.850   0.202  -0.401  0.00  0.00     0.058 A 
ENDROOT
TORSDOF 0
ENDMDL
