MODEL 1
REMARK minimizedAffinity 7.48053265
REMARK minimizedRMSD -1
REMARK  0 active torsions:
REMARK  status: ('A' for Active; 'I' for Inactive)
ROOT
ATOM      1  O1  BZF d   1       1.145  -3.947  -0.928  0.00  0.00    -0.204 OA
ATOM      2  C2  BZF d   1       1.086  -3.934  -2.309  0.00  0.00     0.174 A 
ATOM      3  C3  BZF d   1       1.712  -2.847  -2.804  0.00  0.00    -0.012 A 
ATOM      4  C3A BZF d   1       2.273  -2.185  -1.667  0.00  0.00    -0.107 A 
ATOM      5  C4  BZF d   1       3.025  -1.055  -1.515  0.00  0.00     0.055 A 
ATOM      6  C5  BZF d   1       3.348  -0.640  -0.261  0.00  0.00    -0.016 A 
ATOM      7  C6  BZF d   1       2.932  -1.328   0.860  0.00  0.00     0.022 A 
ATOM      8  C7  BZF d   1       2.189  -2.457   0.759  0.00  0.00     0.029 A 
ATOM      9  C7A BZF d   1       1.889  -2.896  -0.507  0.00  0.00     0.058 A 
ENDROOT
TORSDOF 0
ENDMDL
