MODEL 1
REMARK minimizedAffinity 3.72131276
REMARK minimizedRMSD -1
REMARK  0 active torsions:
REMARK  status: ('A' for Active; 'I' for Inactive)
ROOT
ATOM      1  O1  BZF d   1       1.284  -3.471  -0.097  0.00  0.00    -0.204 OA
ATOM      2  C2  BZF d   1       1.738  -2.910  -1.276  0.00  0.00     0.174 A 
ATOM      3  C3  BZF d   1       1.119  -3.464  -2.338  0.00  0.00    -0.012 A 
ATOM      4  C3A BZF d   1       0.156  -4.366  -1.785  0.00  0.00    -0.107 A 
ATOM      5  C4  BZF d   1      -0.776  -5.198  -2.336  0.00  0.00     0.055 A 
ATOM      6  C5  BZF d   1      -1.510  -6.000  -1.521  0.00  0.00    -0.016 A 
ATOM      7  C6  BZF d   1      -1.335  -5.999  -0.153  0.00  0.00     0.022 A 
ATOM      8  C7  BZF d   1      -0.426  -5.187   0.441  0.00  0.00     0.029 A 
ATOM      9  C7A BZF d   1       0.294  -4.352  -0.378  0.00  0.00     0.058 A 
ENDROOT
TORSDOF 0
ENDMDL
