MODEL 1
REMARK minimizedAffinity 14.1328878
REMARK minimizedRMSD -1
REMARK  0 active torsions:
REMARK  status: ('A' for Active; 'I' for Inactive)
ROOT
ATOM      1  O1  BZF d   1       1.178  -4.077  -0.785  0.00  0.00    -0.204 OA
ATOM      2  C2  BZF d   1       0.847  -4.056  -2.126  0.00  0.00     0.174 A 
ATOM      3  C3  BZF d   1       1.298  -2.929  -2.713  0.00  0.00    -0.012 A 
ATOM      4  C3A BZF d   1       2.032  -2.242  -1.695  0.00  0.00    -0.107 A 
ATOM      5  C4  BZF d   1       2.731  -1.069  -1.670  0.00  0.00     0.055 A 
ATOM      6  C5  BZF d   1       3.270  -0.646  -0.496  0.00  0.00    -0.016 A 
ATOM      7  C6  BZF d   1       3.125  -1.367   0.671  0.00  0.00     0.022 A 
ATOM      8  C7  BZF d   1       2.445  -2.539   0.695  0.00  0.00     0.029 A 
ATOM      9  C7A BZF d   1       1.927  -2.986  -0.496  0.00  0.00     0.058 A 
ENDROOT
TORSDOF 0
ENDMDL
