MODEL 1
REMARK minimizedAffinity 14.7150402
REMARK minimizedRMSD -1
REMARK  0 active torsions:
REMARK  status: ('A' for Active; 'I' for Inactive)
ROOT
ATOM      1  O1  BZF d   1       4.560  -0.382  -2.194  0.00  0.00    -0.204 OA
ATOM      2  C2  BZF d   1       5.887  -0.705  -2.402  0.00  0.00     0.174 A 
ATOM      3  C3  BZF d   1       6.000  -1.931  -2.953  0.00  0.00    -0.012 A 
ATOM      4  C3A BZF d   1       4.656  -2.364  -3.185  0.00  0.00    -0.107 A 
ATOM      5  C4  BZF d   1       4.114  -3.495  -3.727  0.00  0.00     0.055 A 
ATOM      6  C5  BZF d   1       2.763  -3.639  -3.740  0.00  0.00    -0.016 A 
ATOM      7  C6  BZF d   1       1.925  -2.677  -3.216  0.00  0.00     0.022 A 
ATOM      8  C7  BZF d   1       2.415  -1.536  -2.672  0.00  0.00     0.029 A 
ATOM      9  C7A BZF d   1       3.779  -1.373  -2.687  0.00  0.00     0.058 A 
ENDROOT
TORSDOF 0
ENDMDL
