MODEL 1
REMARK minimizedAffinity -6.49223661
REMARK minimizedRMSD -1
REMARK  1 active torsions:
REMARK  status: ('A' for Active; 'I' for Inactive)
REMARK    1  A    between atoms: C1_2  and  C2_3 
ROOT
ATOM      1  C2  UNL d   1       0.221   0.722   0.758  0.00  0.00    -0.081 A 
ATOM      2  C3  UNL d   1      -0.731  -0.297   0.877  0.00  0.00     0.006 A 
ATOM      3  C4  UNL d   1      -1.869  -0.114   1.666  0.00  0.00     0.002 A 
ATOM      4  C5  UNL d   1      -2.077   1.092   2.342  0.00  0.00    -0.080 A 
ATOM      5  C6  UNL d   1      -3.310   1.313   3.169  0.00  0.00     0.076 C 
ATOM      6  C7  UNL d   1      -1.117   2.104   2.238  0.00  0.00     0.002 A 
ATOM      7  C8  UNL d   1       0.021   1.922   1.449  0.00  0.00     0.006 A 
ENDROOT
BRANCH   1   8
ATOM      8  C1  UNL d   1       1.417   0.552  -0.144  0.00  0.00     0.054 C 
ATOM      9  C   UNL d   1       2.690   0.333   0.660  0.00  0.00     0.018 C 
ENDBRANCH   1   8
TORSDOF 1
ENDMDL
