MODEL 1
REMARK minimizedAffinity 0.900497139
REMARK minimizedRMSD -1
REMARK  1 active torsions:
REMARK  status: ('A' for Active; 'I' for Inactive)
REMARK    1  A    between atoms: C1_2  and  C2_3 
ROOT
ATOM      1  C2  UNL d   1      -2.868   1.356   2.496  0.00  0.00    -0.081 A 
ATOM      2  C3  UNL d   1      -2.266   0.106   2.305  0.00  0.00     0.006 A 
ATOM      3  C4  UNL d   1      -0.961   0.015   1.816  0.00  0.00     0.002 A 
ATOM      4  C5  UNL d   1      -0.233   1.171   1.517  0.00  0.00    -0.080 A 
ATOM      5  C6  UNL d   1       1.179   1.088   1.020  0.00  0.00     0.076 C 
ATOM      6  C7  UNL d   1      -0.840   2.420   1.690  0.00  0.00     0.002 A 
ATOM      7  C8  UNL d   1      -2.145   2.511   2.179  0.00  0.00     0.006 A 
ENDROOT
BRANCH   1   8
ATOM      8  C1  UNL d   1      -4.252   1.459   3.084  0.00  0.00     0.054 C 
ATOM      9  C   UNL d   1      -4.204   1.937   4.529  0.00  0.00     0.018 C 
ENDBRANCH   1   8
TORSDOF 1
ENDMDL
