MODEL 1
REMARK minimizedAffinity -0.456448823
REMARK minimizedRMSD -1
REMARK  1 active torsions:
REMARK  status: ('A' for Active; 'I' for Inactive)
REMARK    1  A    between atoms: C1_2  and  C2_3 
ROOT
ATOM      1  C2  UNL d   1      -2.985   0.968   3.234  0.00  0.00    -0.081 A 
ATOM      2  C3  UNL d   1      -2.530  -0.210   2.629  0.00  0.00     0.006 A 
ATOM      3  C4  UNL d   1      -1.392  -0.195   1.818  0.00  0.00     0.002 A 
ATOM      4  C5  UNL d   1      -0.687   0.994   1.606  0.00  0.00    -0.080 A 
ATOM      5  C6  UNL d   1       0.553   1.018   0.763  0.00  0.00     0.076 C 
ATOM      6  C7  UNL d   1      -1.152   2.174   2.197  0.00  0.00     0.002 A 
ATOM      7  C8  UNL d   1      -2.290   2.160   3.007  0.00  0.00     0.006 A 
ENDROOT
BRANCH   1   8
ATOM      8  C1  UNL d   1      -4.174   0.943   4.160  0.00  0.00     0.054 C 
ATOM      9  C   UNL d   1      -4.258   2.217   4.988  0.00  0.00     0.018 C 
ENDBRANCH   1   8
TORSDOF 1
ENDMDL
