MODEL 1
REMARK minimizedAffinity -4.42384672
REMARK minimizedRMSD -1
REMARK  1 active torsions:
REMARK  status: ('A' for Active; 'I' for Inactive)
REMARK    1  A    between atoms: C1_2  and  C2_3 
ROOT
ATOM      1  C2  UNL d   1      -0.968   0.401   1.791  0.00  0.00    -0.081 A 
ATOM      2  C3  UNL d   1      -0.968   1.789   1.981  0.00  0.00     0.006 A 
ATOM      3  C4  UNL d   1      -1.989   2.404   2.710  0.00  0.00     0.002 A 
ATOM      4  C5  UNL d   1      -3.022   1.642   3.266  0.00  0.00    -0.080 A 
ATOM      5  C6  UNL d   1      -4.107   2.286   4.076  0.00  0.00     0.076 C 
ATOM      6  C7  UNL d   1      -3.032   0.258   3.061  0.00  0.00     0.002 A 
ATOM      7  C8  UNL d   1      -2.011  -0.357   2.332  0.00  0.00     0.006 A 
ENDROOT
BRANCH   1   8
ATOM      8  C1  UNL d   1       0.166  -0.272   1.061  0.00  0.00     0.054 C 
ATOM      9  C   UNL d   1       1.115   0.749   0.449  0.00  0.00     0.018 C 
ENDBRANCH   1   8
TORSDOF 1
ENDMDL
