MODEL 1
REMARK minimizedAffinity -3.79580808
REMARK minimizedRMSD -1
REMARK  1 active torsions:
REMARK  status: ('A' for Active; 'I' for Inactive)
REMARK    1  A    between atoms: C1_2  and  C2_3 
ROOT
ATOM      1  C2  UNL d   1      -3.061   1.201   2.844  0.00  0.00    -0.081 A 
ATOM      2  C3  UNL d   1      -2.744   0.111   2.024  0.00  0.00     0.006 A 
ATOM      3  C4  UNL d   1      -1.524   0.067   1.345  0.00  0.00     0.002 A 
ATOM      4  C5  UNL d   1      -0.598   1.107   1.481  0.00  0.00    -0.080 A 
ATOM      5  C6  UNL d   1       0.728   1.058   0.781  0.00  0.00     0.076 C 
ATOM      6  C7  UNL d   1      -0.922   2.204   2.286  0.00  0.00     0.002 A 
ATOM      7  C8  UNL d   1      -2.142   2.249   2.965  0.00  0.00     0.006 A 
ENDROOT
BRANCH   1   8
ATOM      8  C1  UNL d   1      -4.348   1.221   3.628  0.00  0.00     0.054 C 
ATOM      9  C   UNL d   1      -4.184   1.975   4.941  0.00  0.00     0.018 C 
ENDBRANCH   1   8
TORSDOF 1
ENDMDL
