MODEL 1
REMARK minimizedAffinity -4.32311344
REMARK minimizedRMSD -1
REMARK  1 active torsions:
REMARK  status: ('A' for Active; 'I' for Inactive)
REMARK    1  A    between atoms: C1_2  and  C2_3 
ROOT
ATOM      1  C2  UNL d   1      -1.819   2.062   2.291  0.00  0.00    -0.081 A 
ATOM      2  C3  UNL d   1      -1.930   0.667   2.238  0.00  0.00     0.006 A 
ATOM      3  C4  UNL d   1      -0.967  -0.095   1.572  0.00  0.00     0.002 A 
ATOM      4  C5  UNL d   1       0.126   0.524   0.956  0.00  0.00    -0.080 A 
ATOM      5  C6  UNL d   1       1.183  -0.284   0.264  0.00  0.00     0.076 C 
ATOM      6  C7  UNL d   1       0.227   1.919   0.994  0.00  0.00     0.002 A 
ATOM      7  C8  UNL d   1      -0.736   2.681   1.659  0.00  0.00     0.006 A 
ENDROOT
BRANCH   1   8
ATOM      8  C1  UNL d   1      -2.821   2.881   3.063  0.00  0.00     0.054 C 
ATOM      9  C   UNL d   1      -3.644   2.009   4.001  0.00  0.00     0.018 C 
ENDBRANCH   1   8
TORSDOF 1
ENDMDL
