MODEL 1
REMARK minimizedAffinity -1.29470026
REMARK minimizedRMSD -1
REMARK  1 active torsions:
REMARK  status: ('A' for Active; 'I' for Inactive)
REMARK    1  A    between atoms: C1_2  and  C2_3 
ROOT
ATOM      1  C2  UNL d   1      -2.144   1.803   2.677  0.00  0.00    -0.081 A 
ATOM      2  C3  UNL d   1      -2.189   0.463   2.274  0.00  0.00     0.006 A 
ATOM      3  C4  UNL d   1      -1.115  -0.106   1.585  0.00  0.00     0.002 A 
ATOM      4  C5  UNL d   1       0.024   0.652   1.296  0.00  0.00    -0.080 A 
ATOM      5  C6  UNL d   1       1.196   0.045   0.584  0.00  0.00     0.076 C 
ATOM      6  C7  UNL d   1       0.062   1.996   1.683  0.00  0.00     0.002 A 
ATOM      7  C8  UNL d   1      -1.011   2.566   2.371  0.00  0.00     0.006 A 
ENDROOT
BRANCH   1   8
ATOM      8  C1  UNL d   1      -3.273   2.402   3.476  0.00  0.00     0.054 C 
ATOM      9  C   UNL d   1      -4.221   1.326   3.986  0.00  0.00     0.018 C 
ENDBRANCH   1   8
TORSDOF 1
ENDMDL
