MODEL 1
REMARK minimizedAffinity 2.28168535
REMARK minimizedRMSD -1
REMARK  1 active torsions:
REMARK  status: ('A' for Active; 'I' for Inactive)
REMARK    1  A    between atoms: C1_2  and  C2_3 
ROOT
ATOM      1  C2  UNL d   1      -1.437   1.687   2.949  0.00  0.00    -0.081 A 
ATOM      2  C3  UNL d   1      -0.171   2.134   2.551  0.00  0.00     0.006 A 
ATOM      3  C4  UNL d   1       0.627   1.349   1.715  0.00  0.00     0.002 A 
ATOM      4  C5  UNL d   1       0.169   0.108   1.258  0.00  0.00    -0.080 A 
ATOM      5  C6  UNL d   1       1.003  -0.731   0.336  0.00  0.00     0.076 C 
ATOM      6  C7  UNL d   1      -1.088  -0.346   1.669  0.00  0.00     0.002 A 
ATOM      7  C8  UNL d   1      -1.886   0.439   2.505  0.00  0.00     0.006 A 
ENDROOT
BRANCH   1   8
ATOM      8  C1  UNL d   1      -2.326   2.560   3.797  0.00  0.00     0.054 C 
ATOM      9  C   UNL d   1      -3.594   1.825   4.208  0.00  0.00     0.018 C 
ENDBRANCH   1   8
TORSDOF 1
ENDMDL
