MODEL 1
REMARK minimizedAffinity 2.3012619
REMARK minimizedRMSD -1
REMARK  1 active torsions:
REMARK  status: ('A' for Active; 'I' for Inactive)
REMARK    1  A    between atoms: C1_2  and  C2_3 
ROOT
ATOM      1  C2  UNL d   1       1.942   0.316   0.401  0.00  0.00    -0.081 A 
ATOM      2  C3  UNL d   1       1.308  -0.434   1.399  0.00  0.00     0.006 A 
ATOM      3  C4  UNL d   1       0.280   0.126   2.162  0.00  0.00     0.002 A 
ATOM      4  C5  UNL d   1      -0.136   1.442   1.934  0.00  0.00    -0.080 A 
ATOM      5  C6  UNL d   1      -1.258   2.045   2.725  0.00  0.00     0.076 C 
ATOM      6  C7  UNL d   1       0.509   2.198   0.950  0.00  0.00     0.002 A 
ATOM      7  C8  UNL d   1       1.537   1.639   0.187  0.00  0.00     0.006 A 
ENDROOT
BRANCH   1   8
ATOM      8  C1  UNL d   1       3.006  -0.306  -0.466  0.00  0.00     0.054 C 
ATOM      9  C   UNL d   1       3.222   0.499  -1.740  0.00  0.00     0.018 C 
ENDBRANCH   1   8
TORSDOF 1
ENDMDL
