MODEL 1
REMARK minimizedAffinity -1.22105539
REMARK minimizedRMSD -1
REMARK  1 active torsions:
REMARK  status: ('A' for Active; 'I' for Inactive)
REMARK    1  A    between atoms: C1_2  and  C2_3 
ROOT
ATOM      1  C2  UNL d   1       1.865   0.682   1.452  0.00  0.00    -0.081 A 
ATOM      2  C3  UNL d   1       0.949   0.363   2.462  0.00  0.00     0.006 A 
ATOM      3  C4  UNL d   1      -0.255   1.064   2.573  0.00  0.00     0.002 A 
ATOM      4  C5  UNL d   1      -0.565   2.088   1.672  0.00  0.00    -0.080 A 
ATOM      5  C6  UNL d   1      -1.867   2.828   1.762  0.00  0.00     0.076 C 
ATOM      6  C7  UNL d   1       0.358   2.419   0.674  0.00  0.00     0.002 A 
ATOM      7  C8  UNL d   1       1.562   1.719   0.564  0.00  0.00     0.006 A 
ENDROOT
BRANCH   1   8
ATOM      8  C1  UNL d   1       3.135  -0.115   1.290  0.00  0.00     0.054 C 
ATOM      9  C   UNL d   1       3.161  -0.848  -0.043  0.00  0.00     0.018 C 
ENDBRANCH   1   8
TORSDOF 1
ENDMDL
