MODEL 1
REMARK minimizedAffinity 3.87019372
REMARK minimizedRMSD -1
REMARK  0 active torsions:
REMARK  status: ('A' for Active; 'I' for Inactive)
ROOT
ATOM      1  C   UNL d   1      -4.242   0.546  -1.989  0.00  0.00     0.077 C 
ATOM      2  C1  UNL d   1      -3.083   1.480  -2.167  0.00  0.00    -0.074 A 
ATOM      3  C2  UNL d   1      -1.883   1.277  -1.477  0.00  0.00    -0.005 A 
ATOM      4  C3  UNL d   1      -0.810   2.149  -1.660  0.00  0.00     0.006 A 
ATOM      5  C4  UNL d   1      -0.925   3.232  -2.532  0.00  0.00    -0.005 A 
ATOM      6  C5  UNL d   1      -2.117   3.451  -3.231  0.00  0.00    -0.074 A 
ATOM      7  C6  UNL d   1      -2.254   4.604  -4.180  0.00  0.00     0.077 C 
ATOM      8  C7  UNL d   1      -3.188   2.566  -3.048  0.00  0.00    -0.001 A 
ENDROOT
TORSDOF 0
ENDMDL
