MODEL 1
REMARK minimizedAffinity 5.24459553
REMARK minimizedRMSD -1
REMARK  0 active torsions:
REMARK  status: ('A' for Active; 'I' for Inactive)
ROOT
ATOM      1  C   UNL d   1       1.702  -1.197   3.090  0.00  0.00     0.077 C 
ATOM      2  C1  UNL d   1       0.923   0.015   2.673  0.00  0.00    -0.074 A 
ATOM      3  C2  UNL d   1       1.521   1.030   1.921  0.00  0.00    -0.005 A 
ATOM      4  C3  UNL d   1       0.781   2.147   1.532  0.00  0.00     0.006 A 
ATOM      5  C4  UNL d   1      -0.563   2.259   1.891  0.00  0.00    -0.005 A 
ATOM      6  C5  UNL d   1      -1.178   1.253   2.642  0.00  0.00    -0.074 A 
ATOM      7  C6  UNL d   1      -2.624   1.353   3.028  0.00  0.00     0.077 C 
ATOM      8  C7  UNL d   1      -0.430   0.131   3.023  0.00  0.00    -0.001 A 
ENDROOT
TORSDOF 0
ENDMDL
