MODEL 1
REMARK minimizedAffinity -1.81507587
REMARK minimizedRMSD -1
REMARK  0 active torsions:
REMARK  status: ('A' for Active; 'I' for Inactive)
ROOT
ATOM      1  C   UNL d   1       0.709   4.632  -1.052  0.00  0.00     0.077 C 
ATOM      2  C1  UNL d   1       0.242   3.444  -0.264  0.00  0.00    -0.074 A 
ATOM      3  C2  UNL d   1      -0.464   2.406  -0.880  0.00  0.00    -0.005 A 
ATOM      4  C3  UNL d   1      -0.884   1.303  -0.137  0.00  0.00     0.006 A 
ATOM      5  C4  UNL d   1      -0.602   1.227   1.228  0.00  0.00    -0.005 A 
ATOM      6  C5  UNL d   1       0.103   2.255   1.861  0.00  0.00    -0.074 A 
ATOM      7  C6  UNL d   1       0.423   2.184   3.325  0.00  0.00     0.077 C 
ATOM      8  C7  UNL d   1       0.528   3.357   1.106  0.00  0.00    -0.001 A 
ENDROOT
TORSDOF 0
ENDMDL
