MODEL 1
REMARK minimizedAffinity -3.03029275
REMARK minimizedRMSD -1
REMARK  0 active torsions:
REMARK  status: ('A' for Active; 'I' for Inactive)
ROOT
ATOM      1  C   UNL d   1       0.742  -4.363  -1.518  0.00  0.00     0.077 C 
ATOM      2  C1  UNL d   1       2.148  -3.871  -1.691  0.00  0.00    -0.074 A 
ATOM      3  C2  UNL d   1       2.509  -2.576  -1.307  0.00  0.00    -0.005 A 
ATOM      4  C3  UNL d   1       3.823  -2.135  -1.465  0.00  0.00     0.006 A 
ATOM      5  C4  UNL d   1       4.788  -2.984  -2.008  0.00  0.00    -0.005 A 
ATOM      6  C5  UNL d   1       4.446  -4.284  -2.397  0.00  0.00    -0.074 A 
ATOM      7  C6  UNL d   1       5.473  -5.212  -2.972  0.00  0.00     0.077 C 
ATOM      8  C7  UNL d   1       3.125  -4.721  -2.228  0.00  0.00    -0.001 A 
ENDROOT
TORSDOF 0
ENDMDL
