MODEL 1
REMARK minimizedAffinity 10.2026663
REMARK minimizedRMSD -1
REMARK  0 active torsions:
REMARK  status: ('A' for Active; 'I' for Inactive)
ROOT
ATOM      1  C   UNL d   1       2.069   4.052   1.096  0.00  0.00     0.077 C 
ATOM      2  C1  UNL d   1       0.807   3.545   1.727  0.00  0.00    -0.074 A 
ATOM      3  C2  UNL d   1       0.833   2.474   2.626  0.00  0.00    -0.005 A 
ATOM      4  C3  UNL d   1      -0.348   2.020   3.213  0.00  0.00     0.006 A 
ATOM      5  C4  UNL d   1      -1.565   2.630   2.907  0.00  0.00    -0.005 A 
ATOM      6  C5  UNL d   1      -1.610   3.703   2.011  0.00  0.00    -0.074 A 
ATOM      7  C6  UNL d   1      -2.908   4.377   1.678  0.00  0.00     0.077 C 
ATOM      8  C7  UNL d   1      -0.418   4.158   1.431  0.00  0.00    -0.001 A 
ENDROOT
TORSDOF 0
ENDMDL
