MODEL 1
REMARK minimizedAffinity 4.4150219
REMARK minimizedRMSD -1
REMARK  0 active torsions:
REMARK  status: ('A' for Active; 'I' for Inactive)
ROOT
ATOM      1  C   UNL d   1       0.645   2.601   1.677  0.00  0.00     0.077 C 
ATOM      2  C1  UNL d   1       0.303   3.055   0.289  0.00  0.00    -0.074 A 
ATOM      3  C2  UNL d   1       1.203   3.819  -0.460  0.00  0.00    -0.005 A 
ATOM      4  C3  UNL d   1       0.875   4.226  -1.753  0.00  0.00     0.006 A 
ATOM      5  C4  UNL d   1      -0.355   3.873  -2.310  0.00  0.00    -0.005 A 
ATOM      6  C5  UNL d   1      -1.268   3.109  -1.576  0.00  0.00    -0.074 A 
ATOM      7  C6  UNL d   1      -2.590   2.713  -2.163  0.00  0.00     0.077 C 
ATOM      8  C7  UNL d   1      -0.928   2.698  -0.280  0.00  0.00    -0.001 A 
ENDROOT
TORSDOF 0
ENDMDL
