MODEL 1
REMARK minimizedAffinity 14.4489489
REMARK minimizedRMSD -1
REMARK  0 active torsions:
REMARK  status: ('A' for Active; 'I' for Inactive)
ROOT
ATOM      1  C   UNL d   1      -3.478   5.309   1.511  0.00  0.00     0.077 C 
ATOM      2  C1  UNL d   1      -2.475   4.204   1.360  0.00  0.00    -0.074 A 
ATOM      3  C2  UNL d   1      -2.435   3.141   2.267  0.00  0.00    -0.005 A 
ATOM      4  C3  UNL d   1      -1.502   2.116   2.109  0.00  0.00     0.006 A 
ATOM      5  C4  UNL d   1      -0.602   2.144   1.044  0.00  0.00    -0.005 A 
ATOM      6  C5  UNL d   1      -0.627   3.199   0.126  0.00  0.00    -0.074 A 
ATOM      7  C6  UNL d   1       0.328   3.239  -1.030  0.00  0.00     0.077 C 
ATOM      8  C7  UNL d   1      -1.571   4.222   0.288  0.00  0.00    -0.001 A 
ENDROOT
TORSDOF 0
ENDMDL
