MODEL 1
REMARK minimizedAffinity 16.0352726
REMARK minimizedRMSD -1
REMARK  0 active torsions:
REMARK  status: ('A' for Active; 'I' for Inactive)
ROOT
ATOM      1  C   UNL d   1       1.436   3.837  -0.535  0.00  0.00     0.077 C 
ATOM      2  C1  UNL d   1       0.552   3.409   0.598  0.00  0.00    -0.074 A 
ATOM      3  C2  UNL d   1      -0.795   3.783   0.640  0.00  0.00    -0.005 A 
ATOM      4  C3  UNL d   1      -1.608   3.370   1.695  0.00  0.00     0.006 A 
ATOM      5  C4  UNL d   1      -1.083   2.579   2.718  0.00  0.00    -0.005 A 
ATOM      6  C5  UNL d   1       0.261   2.194   2.693  0.00  0.00    -0.074 A 
ATOM      7  C6  UNL d   1       0.839   1.337   3.780  0.00  0.00     0.077 C 
ATOM      8  C7  UNL d   1       1.070   2.608   1.626  0.00  0.00    -0.001 A 
ENDROOT
TORSDOF 0
ENDMDL
