MODEL 1
REMARK minimizedAffinity -2.15550089
REMARK minimizedRMSD -1
REMARK  0 active torsions:
REMARK  status: ('A' for Active; 'I' for Inactive)
ROOT
ATOM      1  C   UNL d   1       0.113   0.072  -1.120  0.00  0.00     0.172 C 
ATOM      2  N   UNL d   1      -0.108   1.350  -1.753  0.00  0.00    -0.070 N 
ATOM      3  C1  UNL d   1      -1.330   1.893  -2.051  0.00  0.00    -0.004 A 
ATOM      4  C2  UNL d   1      -1.115   3.117  -2.646  0.00  0.00    -0.047 A 
ATOM      5  C3  UNL d   1       0.285   3.317  -2.709  0.00  0.00    -0.047 A 
ATOM      6  C4  UNL d   1       0.884   2.208  -2.149  0.00  0.00    -0.004 A 
ENDROOT
TORSDOF 0
ENDMDL
