MODEL 1
REMARK minimizedAffinity -1.22524309
REMARK minimizedRMSD -1
REMARK  0 active torsions:
REMARK  status: ('A' for Active; 'I' for Inactive)
ROOT
ATOM      1  C   UNL d   1       2.239  -1.565  -0.472  0.00  0.00     0.172 C 
ATOM      2  N   UNL d   1       1.249  -1.034   0.435  0.00  0.00    -0.070 N 
ATOM      3  C1  UNL d   1       0.368  -0.025   0.153  0.00  0.00    -0.004 A 
ATOM      4  C2  UNL d   1      -0.405   0.186   1.274  0.00  0.00    -0.047 A 
ATOM      5  C3  UNL d   1       0.027  -0.727   2.265  0.00  0.00    -0.047 A 
ATOM      6  C4  UNL d   1       1.052  -1.470   1.719  0.00  0.00    -0.004 A 
ENDROOT
TORSDOF 0
ENDMDL
