MODEL 1
REMARK minimizedAffinity -1.63573933
REMARK minimizedRMSD -1
REMARK  0 active torsions:
REMARK  status: ('A' for Active; 'I' for Inactive)
ROOT
ATOM      1  C   UNL d   1       0.316  -1.156   2.735  0.00  0.00     0.172 C 
ATOM      2  N   UNL d   1       0.068  -0.695   1.389  0.00  0.00    -0.070 N 
ATOM      3  C1  UNL d   1      -0.952   0.134   1.005  0.00  0.00    -0.004 A 
ATOM      4  C2  UNL d   1      -0.842   0.336  -0.354  0.00  0.00    -0.047 A 
ATOM      5  C3  UNL d   1       0.282  -0.398  -0.802  0.00  0.00    -0.047 A 
ATOM      6  C4  UNL d   1       0.827  -1.026   0.298  0.00  0.00    -0.004 A 
ENDROOT
TORSDOF 0
ENDMDL
