MODEL 1
REMARK minimizedAffinity -0.688521147
REMARK minimizedRMSD -1
REMARK  0 active torsions:
REMARK  status: ('A' for Active; 'I' for Inactive)
ROOT
ATOM      1  C   UNL d   1       1.722  -0.996  -0.862  0.00  0.00     0.172 C 
ATOM      2  N   UNL d   1       0.507  -0.356  -0.415  0.00  0.00    -0.070 N 
ATOM      3  C1  UNL d   1      -0.235  -0.724   0.676  0.00  0.00    -0.004 A 
ATOM      4  C2  UNL d   1      -1.312   0.130   0.762  0.00  0.00    -0.047 A 
ATOM      5  C3  UNL d   1      -1.216   1.043  -0.315  0.00  0.00    -0.047 A 
ATOM      6  C4  UNL d   1      -0.081   0.719  -1.028  0.00  0.00    -0.004 A 
ENDROOT
TORSDOF 0
ENDMDL
