MODEL 1
REMARK minimizedAffinity -2.31387448
REMARK minimizedRMSD -1
REMARK  0 active torsions:
REMARK  status: ('A' for Active; 'I' for Inactive)
ROOT
ATOM      1  C   UNL d   1      -0.465   0.782  -1.370  0.00  0.00     0.172 C 
ATOM      2  N   UNL d   1      -0.264   0.145  -0.090  0.00  0.00    -0.070 N 
ATOM      3  C1  UNL d   1      -0.867   0.507   1.085  0.00  0.00    -0.004 A 
ATOM      4  C2  UNL d   1      -0.414  -0.344   2.071  0.00  0.00    -0.047 A 
ATOM      5  C3  UNL d   1       0.493  -1.247   1.467  0.00  0.00    -0.047 A 
ATOM      6  C4  UNL d   1       0.567  -0.922   0.129  0.00  0.00    -0.004 A 
ENDROOT
TORSDOF 0
ENDMDL
