MODEL 1
REMARK minimizedAffinity -3.91406989
REMARK minimizedRMSD -1
REMARK  0 active torsions:
REMARK  status: ('A' for Active; 'I' for Inactive)
ROOT
ATOM      1  C   UNL d   1       0.329  -0.013  -0.887  0.00  0.00     0.172 C 
ATOM      2  N   UNL d   1       0.954  -0.381   0.362  0.00  0.00    -0.070 N 
ATOM      3  C1  UNL d   1       0.426  -0.180   1.609  0.00  0.00    -0.004 A 
ATOM      4  C2  UNL d   1       1.325  -0.668   2.532  0.00  0.00    -0.047 A 
ATOM      5  C3  UNL d   1       2.433  -1.179   1.815  0.00  0.00    -0.047 A 
ATOM      6  C4  UNL d   1       2.177  -0.988   0.473  0.00  0.00    -0.004 A 
ENDROOT
TORSDOF 0
ENDMDL
