MODEL 1
REMARK minimizedAffinity -3.7353611
REMARK minimizedRMSD -1
REMARK  0 active torsions:
REMARK  status: ('A' for Active; 'I' for Inactive)
ROOT
ATOM      1  C   UNL d   1      -0.095  -0.246   0.875  0.00  0.00     0.172 C 
ATOM      2  N   UNL d   1       1.054  -0.727   1.606  0.00  0.00    -0.070 N 
ATOM      3  C1  UNL d   1       1.073  -1.062   2.933  0.00  0.00    -0.004 A 
ATOM      4  C2  UNL d   1       2.350  -1.473   3.246  0.00  0.00    -0.047 A 
ATOM      5  C3  UNL d   1       3.126  -1.382   2.066  0.00  0.00    -0.047 A 
ATOM      6  C4  UNL d   1       2.298  -0.918   1.066  0.00  0.00    -0.004 A 
ENDROOT
TORSDOF 0
ENDMDL
