MODEL 1
REMARK minimizedAffinity -0.129757345
REMARK minimizedRMSD -1
REMARK  0 active torsions:
REMARK  status: ('A' for Active; 'I' for Inactive)
ROOT
ATOM      1  C   UNL d   1      -0.065  -0.421  -0.630  0.00  0.00     0.172 C 
ATOM      2  N   UNL d   1      -0.145  -0.792   0.763  0.00  0.00    -0.070 N 
ATOM      3  C1  UNL d   1       0.779  -1.539   1.445  0.00  0.00    -0.004 A 
ATOM      4  C2  UNL d   1       0.340  -1.670   2.744  0.00  0.00    -0.047 A 
ATOM      5  C3  UNL d   1      -0.891  -0.979   2.847  0.00  0.00    -0.047 A 
ATOM      6  C4  UNL d   1      -1.167  -0.445   1.606  0.00  0.00    -0.004 A 
ENDROOT
TORSDOF 0
ENDMDL
