MODEL 1
REMARK minimizedAffinity -3.70720267
REMARK minimizedRMSD -1
REMARK  0 active torsions:
REMARK  status: ('A' for Active; 'I' for Inactive)
ROOT
ATOM      1  C   UNL d   1       2.117  -1.875   0.377  0.00  0.00     0.172 C 
ATOM      2  N   UNL d   1       0.918  -1.253   0.888  0.00  0.00    -0.070 N 
ATOM      3  C1  UNL d   1       0.367  -1.474   2.122  0.00  0.00    -0.004 A 
ATOM      4  C2  UNL d   1      -0.764  -0.694   2.225  0.00  0.00    -0.047 A 
ATOM      5  C3  UNL d   1      -0.899   0.020   1.010  0.00  0.00    -0.047 A 
ATOM      6  C4  UNL d   1       0.156  -0.345   0.201  0.00  0.00    -0.004 A 
ENDROOT
TORSDOF 0
ENDMDL
