MODEL 1
REMARK minimizedAffinity 9.77688313
REMARK minimizedRMSD -1
REMARK  3 active torsions:
REMARK  status: ('A' for Active; 'I' for Inactive)
REMARK    1  A    between atoms: C3'_2  and  C2'_3 
REMARK    2  A    between atoms: C2'_3  and  C1'_4 
REMARK    3  A    between atoms: C1'_4  and  C1_5 
ROOT
ATOM      1  C1  N4B d   1       5.271  -3.455  -3.671  0.00  0.00    -0.075 A 
ATOM      2  C2  N4B d   1       5.987  -2.564  -2.841  0.00  0.00     0.002 A 
ATOM      3  C3  N4B d   1       5.337  -1.515  -2.239  0.00  0.00     0.002 A 
ATOM      4  C4  N4B d   1       3.982  -1.326  -2.465  0.00  0.00    -0.004 A 
ATOM      5  C5  N4B d   1       3.293  -2.206  -3.247  0.00  0.00     0.002 A 
ATOM      6  C6  N4B d   1       3.932  -3.268  -3.856  0.00  0.00     0.002 A 
ENDROOT
BRANCH   1   7
ATOM      7  C1' N4B d   1       5.955  -4.567  -4.419  0.00  0.00     0.057 C 
BRANCH   7   8
ATOM      8  C2' N4B d   1       5.593  -5.901  -3.774  0.00  0.00     0.009 C 
BRANCH   8   9
ATOM      9  C3' N4B d   1       5.990  -5.950  -2.309  0.00  0.00     0.004 C 
ATOM     10  C4' N4B d   1       4.828  -5.739  -1.385  0.00  0.00     0.003 C 
ENDBRANCH   8   9
ENDBRANCH   7   8
ENDBRANCH   1   7
TORSDOF 3
ENDMDL
