MODEL 1
REMARK minimizedAffinity -0.807860255
REMARK minimizedRMSD -1
REMARK  3 active torsions:
REMARK  status: ('A' for Active; 'I' for Inactive)
REMARK    1  A    between atoms: C3'_2  and  C2'_3 
REMARK    2  A    between atoms: C2'_3  and  C1'_4 
REMARK    3  A    between atoms: C1'_4  and  C1_5 
ROOT
ATOM      1  C1  N4B d   1      -3.165   1.749  -1.937  0.00  0.00    -0.075 A 
ATOM      2  C2  N4B d   1      -3.054   1.860  -3.340  0.00  0.00     0.002 A 
ATOM      3  C3  N4B d   1      -4.132   2.275  -4.084  0.00  0.00     0.002 A 
ATOM      4  C4  N4B d   1      -5.331   2.564  -3.451  0.00  0.00    -0.004 A 
ATOM      5  C5  N4B d   1      -5.423   2.478  -2.092  0.00  0.00     0.002 A 
ATOM      6  C6  N4B d   1      -4.347   2.067  -1.332  0.00  0.00     0.002 A 
ENDROOT
BRANCH   1   7
ATOM      7  C1' N4B d   1      -2.041   1.217  -1.091  0.00  0.00     0.057 C 
BRANCH   7   8
ATOM      8  C2' N4B d   1      -0.759   1.972  -1.430  0.00  0.00     0.009 C 
BRANCH   8   9
ATOM      9  C3' N4B d   1      -0.328   2.895  -0.304  0.00  0.00     0.004 C 
ATOM     10  C4' N4B d   1       0.118   4.240  -0.794  0.00  0.00     0.003 C 
ENDBRANCH   8   9
ENDBRANCH   7   8
ENDBRANCH   1   7
TORSDOF 3
ENDMDL
