MODEL 1
REMARK minimizedAffinity 7.34413147
REMARK minimizedRMSD -1
REMARK  3 active torsions:
REMARK  status: ('A' for Active; 'I' for Inactive)
REMARK    1  A    between atoms: C3'_2  and  C2'_3 
REMARK    2  A    between atoms: C2'_3  and  C1'_4 
REMARK    3  A    between atoms: C1'_4  and  C1_5 
ROOT
ATOM      1  C1  N4B d   1       4.158  -4.364  -2.045  0.00  0.00    -0.075 A 
ATOM      2  C2  N4B d   1       3.742  -3.023  -1.895  0.00  0.00     0.002 A 
ATOM      3  C3  N4B d   1       4.322  -2.227  -0.938  0.00  0.00     0.002 A 
ATOM      4  C4  N4B d   1       5.302  -2.754  -0.110  0.00  0.00    -0.004 A 
ATOM      5  C5  N4B d   1       5.716  -4.043  -0.278  0.00  0.00     0.002 A 
ATOM      6  C6  N4B d   1       5.145  -4.853  -1.239  0.00  0.00     0.002 A 
ENDROOT
BRANCH   1   7
ATOM      7  C1' N4B d   1       3.493  -5.297  -3.020  0.00  0.00     0.057 C 
BRANCH   7   8
ATOM      8  C2' N4B d   1       2.123  -5.695  -2.479  0.00  0.00     0.009 C 
BRANCH   8   9
ATOM      9  C3' N4B d   1       1.959  -5.317  -1.016  0.00  0.00     0.004 C 
ATOM     10  C4' N4B d   1       0.666  -4.609  -0.741  0.00  0.00     0.003 C 
ENDBRANCH   8   9
ENDBRANCH   7   8
ENDBRANCH   1   7
TORSDOF 3
ENDMDL
