MODEL 1
REMARK minimizedAffinity 7.18193531
REMARK minimizedRMSD -1
REMARK  3 active torsions:
REMARK  status: ('A' for Active; 'I' for Inactive)
REMARK    1  A    between atoms: C3'_2  and  C2'_3 
REMARK    2  A    between atoms: C2'_3  and  C1'_4 
REMARK    3  A    between atoms: C1'_4  and  C1_5 
ROOT
ATOM      1  C1  N4B d   1       3.611  -4.339  -1.484  0.00  0.00    -0.075 A 
ATOM      2  C2  N4B d   1       2.997  -3.971  -0.267  0.00  0.00     0.002 A 
ATOM      3  C3  N4B d   1       1.758  -4.468   0.055  0.00  0.00     0.002 A 
ATOM      4  C4  N4B d   1       1.108  -5.316  -0.830  0.00  0.00    -0.004 A 
ATOM      5  C5  N4B d   1       1.719  -5.686  -1.992  0.00  0.00     0.002 A 
ATOM      6  C6  N4B d   1       2.966  -5.198  -2.326  0.00  0.00     0.002 A 
ENDROOT
BRANCH   1   7
ATOM      7  C1' N4B d   1       4.927  -3.754  -1.918  0.00  0.00     0.057 C 
BRANCH   7   8
ATOM      8  C2' N4B d   1       4.941  -2.262  -1.601  0.00  0.00     0.009 C 
BRANCH   8   9
ATOM      9  C3' N4B d   1       3.856  -1.511  -2.355  0.00  0.00     0.004 C 
ATOM     10  C4' N4B d   1       4.059  -1.536  -3.841  0.00  0.00     0.003 C 
ENDBRANCH   8   9
ENDBRANCH   7   8
ENDBRANCH   1   7
TORSDOF 3
ENDMDL
