MODEL 1
REMARK minimizedAffinity 0.186273456
REMARK minimizedRMSD -1
REMARK  3 active torsions:
REMARK  status: ('A' for Active; 'I' for Inactive)
REMARK    1  A    between atoms: C3'_2  and  C2'_3 
REMARK    2  A    between atoms: C2'_3  and  C1'_4 
REMARK    3  A    between atoms: C1'_4  and  C1_5 
ROOT
ATOM      1  C1  N4B d   1       0.297   2.700   0.771  0.00  0.00    -0.075 A 
ATOM      2  C2  N4B d   1      -0.638   1.979   1.546  0.00  0.00     0.002 A 
ATOM      3  C3  N4B d   1      -0.296   1.538   2.801  0.00  0.00     0.002 A 
ATOM      4  C4  N4B d   1       0.976   1.788   3.292  0.00  0.00    -0.004 A 
ATOM      5  C5  N4B d   1       1.865   2.507   2.548  0.00  0.00     0.002 A 
ATOM      6  C6  N4B d   1       1.534   2.960   1.287  0.00  0.00     0.002 A 
ENDROOT
BRANCH   1   7
ATOM      7  C1' N4B d   1      -0.002   3.128  -0.639  0.00  0.00     0.057 C 
BRANCH   7   8
ATOM      8  C2' N4B d   1       0.803   4.383  -0.963  0.00  0.00     0.009 C 
BRANCH   8   9
ATOM      9  C3' N4B d   1       0.013   5.361  -1.815  0.00  0.00     0.004 C 
ATOM     10  C4' N4B d   1       0.806   5.900  -2.968  0.00  0.00     0.003 C 
ENDBRANCH   8   9
ENDBRANCH   7   8
ENDBRANCH   1   7
TORSDOF 3
ENDMDL
