MODEL 1
REMARK minimizedAffinity 8.57310772
REMARK minimizedRMSD -1
REMARK  3 active torsions:
REMARK  status: ('A' for Active; 'I' for Inactive)
REMARK    1  A    between atoms: C3'_2  and  C2'_3 
REMARK    2  A    between atoms: C2'_3  and  C1'_4 
REMARK    3  A    between atoms: C1'_4  and  C1_5 
ROOT
ATOM      1  C1  N4B d   1       2.208  -2.931   5.373  0.00  0.00    -0.075 A 
ATOM      2  C2  N4B d   1       3.266  -3.626   5.999  0.00  0.00     0.002 A 
ATOM      3  C3  N4B d   1       4.477  -3.751   5.363  0.00  0.00     0.002 A 
ATOM      4  C4  N4B d   1       4.647  -3.207   4.099  0.00  0.00    -0.004 A 
ATOM      5  C5  N4B d   1       3.629  -2.515   3.512  0.00  0.00     0.002 A 
ATOM      6  C6  N4B d   1       2.407  -2.378   4.141  0.00  0.00     0.002 A 
ENDROOT
BRANCH   1   7
ATOM      7  C1' N4B d   1       0.840  -2.842   5.991  0.00  0.00     0.057 C 
BRANCH   7   8
ATOM      8  C2' N4B d   1       0.385  -1.386   5.995  0.00  0.00     0.009 C 
BRANCH   8   9
ATOM      9  C3' N4B d   1      -0.434  -1.043   4.762  0.00  0.00     0.004 C 
ATOM     10  C4' N4B d   1      -0.105   0.309   4.203  0.00  0.00     0.003 C 
ENDBRANCH   8   9
ENDBRANCH   7   8
ENDBRANCH   1   7
TORSDOF 3
ENDMDL
