MODEL 1
REMARK minimizedAffinity -4.42776155
REMARK minimizedRMSD -1
REMARK  0 active torsions:
REMARK  status: ('A' for Active; 'I' for Inactive)
ROOT
ATOM      1  C4' PXY d   1      -0.473   3.680  -1.408  0.00  0.00     0.077 C 
ATOM      2  C1' PXY d   1      -0.517  -0.678   2.389  0.00  0.00     0.077 C 
ATOM      3  C1  PXY d   1      -0.516   0.469   1.398  0.00  0.00    -0.082 A 
ATOM      4  C2  PXY d   1       0.145   0.349   0.259  0.00  0.00     0.003 A 
ATOM      5  C3  PXY d   1       0.182   1.388  -0.635  0.00  0.00     0.003 A 
ATOM      6  C4  PXY d   1      -0.508   2.543  -0.382  0.00  0.00    -0.082 A 
ATOM      7  C5  PXY d   1      -1.194   2.670   0.773  0.00  0.00     0.003 A 
ATOM      8  C6  PXY d   1      -1.185   1.618   1.685  0.00  0.00     0.003 A 
ENDROOT
TORSDOF 0
ENDMDL
