MODEL 1
REMARK minimizedAffinity -2.66113687
REMARK minimizedRMSD -1
REMARK  0 active torsions:
REMARK  status: ('A' for Active; 'I' for Inactive)
ROOT
ATOM      1  C4' PXY d   1      -1.488   2.911   1.853  0.00  0.00     0.077 C 
ATOM      2  C1' PXY d   1       0.610  -1.668  -0.983  0.00  0.00     0.077 C 
ATOM      3  C1  PXY d   1       0.061  -0.460  -0.250  0.00  0.00    -0.082 A 
ATOM      4  C2  PXY d   1       0.173  -0.386   1.066  0.00  0.00     0.003 A 
ATOM      5  C3  PXY d   1      -0.346   0.684   1.748  0.00  0.00     0.003 A 
ATOM      6  C4  PXY d   1      -0.940   1.715   1.071  0.00  0.00    -0.082 A 
ATOM      7  C5  PXY d   1      -1.049   1.652  -0.273  0.00  0.00     0.003 A 
ATOM      8  C6  PXY d   1      -0.552   0.538  -0.943  0.00  0.00     0.003 A 
ENDROOT
TORSDOF 0
ENDMDL
