MODEL 1
REMARK minimizedAffinity -5.932096
REMARK minimizedRMSD -1
REMARK  0 active torsions:
REMARK  status: ('A' for Active; 'I' for Inactive)
ROOT
ATOM      1  C4' PXY d   1       1.446  -1.230  -1.115  0.00  0.00     0.077 C 
ATOM      2  C1' PXY d   1      -2.190   2.703   1.061  0.00  0.00     0.077 C 
ATOM      3  C1  PXY d   1      -1.231   1.670   0.502  0.00  0.00    -0.082 A 
ATOM      4  C2  PXY d   1      -0.960   1.663  -0.793  0.00  0.00     0.003 A 
ATOM      5  C3  PXY d   1      -0.120   0.716  -1.320  0.00  0.00     0.003 A 
ATOM      6  C4  PXY d   1       0.491  -0.200  -0.505  0.00  0.00    -0.082 A 
ATOM      7  C5  PXY d   1       0.228  -0.192   0.819  0.00  0.00     0.003 A 
ATOM      8  C6  PXY d   1      -0.660   0.752   1.328  0.00  0.00     0.003 A 
ENDROOT
TORSDOF 0
ENDMDL
