MODEL 1
REMARK minimizedAffinity -4.47795153
REMARK minimizedRMSD -1
REMARK  0 active torsions:
REMARK  status: ('A' for Active; 'I' for Inactive)
ROOT
ATOM      1  C4' PXY d   1      -0.377   3.754  -0.869  0.00  0.00     0.077 C 
ATOM      2  C1' PXY d   1      -0.401  -1.265   2.000  0.00  0.00     0.077 C 
ATOM      3  C1  PXY d   1      -0.406   0.054   1.253  0.00  0.00    -0.082 A 
ATOM      4  C2  PXY d   1       0.312   0.184   0.149  0.00  0.00     0.003 A 
ATOM      5  C3  PXY d   1       0.344   1.380  -0.521  0.00  0.00     0.003 A 
ATOM      6  C4  PXY d   1      -0.409   2.437  -0.087  0.00  0.00    -0.082 A 
ATOM      7  C5  PXY d   1      -1.153   2.310   1.032  0.00  0.00     0.003 A 
ATOM      8  C6  PXY d   1      -1.140   1.100   1.721  0.00  0.00     0.003 A 
ENDROOT
TORSDOF 0
ENDMDL
