MODEL 1
REMARK minimizedAffinity -5.39788771
REMARK minimizedRMSD -1
REMARK  0 active torsions:
REMARK  status: ('A' for Active; 'I' for Inactive)
ROOT
ATOM      1  C4' PXY d   1       0.753  -1.708  -0.994  0.00  0.00     0.077 C 
ATOM      2  C1' PXY d   1      -1.577   2.959   1.497  0.00  0.00     0.077 C 
ATOM      3  C1  PXY d   1      -0.960   1.732   0.855  0.00  0.00    -0.082 A 
ATOM      4  C2  PXY d   1      -0.745   1.714  -0.450  0.00  0.00     0.003 A 
ATOM      5  C3  PXY d   1      -0.218   0.601  -1.052  0.00  0.00     0.003 A 
ATOM      6  C4  PXY d   1       0.142  -0.487  -0.302  0.00  0.00    -0.082 A 
ATOM      7  C5  PXY d   1      -0.065  -0.473   1.032  0.00  0.00     0.003 A 
ATOM      8  C6  PXY d   1      -0.639   0.652   1.618  0.00  0.00     0.003 A 
ENDROOT
TORSDOF 0
ENDMDL
