MODEL 1
REMARK minimizedAffinity -5.00832701
REMARK minimizedRMSD -1
REMARK  0 active torsions:
REMARK  status: ('A' for Active; 'I' for Inactive)
ROOT
ATOM      1  C4' PXY d   1       1.218  -1.493  -0.609  0.00  0.00     0.077 C 
ATOM      2  C1' PXY d   1      -2.068   2.851   1.326  0.00  0.00     0.077 C 
ATOM      3  C1  PXY d   1      -1.202   1.709   0.831  0.00  0.00    -0.082 A 
ATOM      4  C2  PXY d   1      -0.766   1.713  -0.418  0.00  0.00     0.003 A 
ATOM      5  C3  PXY d   1      -0.009   0.673  -0.892  0.00  0.00     0.003 A 
ATOM      6  C4  PXY d   1       0.349  -0.356  -0.063  0.00  0.00    -0.082 A 
ATOM      7  C5  PXY d   1      -0.083  -0.363   1.216  0.00  0.00     0.003 A 
ATOM      8  C6  PXY d   1      -0.885   0.683   1.665  0.00  0.00     0.003 A 
ENDROOT
TORSDOF 0
ENDMDL
