MODEL 1
REMARK minimizedAffinity -5.31387091
REMARK minimizedRMSD -1
REMARK  0 active torsions:
REMARK  status: ('A' for Active; 'I' for Inactive)
ROOT
ATOM      1  C4' PXY d   1      -0.394   3.789  -0.803  0.00  0.00     0.077 C 
ATOM      2  C1' PXY d   1      -1.080  -0.861   2.562  0.00  0.00     0.077 C 
ATOM      3  C1  PXY d   1      -0.911   0.363   1.684  0.00  0.00    -0.082 A 
ATOM      4  C2  PXY d   1      -0.175   0.286   0.588  0.00  0.00     0.003 A 
ATOM      5  C3  PXY d   1       0.014   1.392  -0.200  0.00  0.00     0.003 A 
ATOM      6  C4  PXY d   1      -0.600   2.576   0.108  0.00  0.00    -0.082 A 
ATOM      7  C5  PXY d   1      -1.362   2.660   1.219  0.00  0.00     0.003 A 
ATOM      8  C6  PXY d   1      -1.508   1.537   2.028  0.00  0.00     0.003 A 
ENDROOT
TORSDOF 0
ENDMDL
