MODEL 1
REMARK minimizedAffinity -4.97657824
REMARK minimizedRMSD -1
REMARK  0 active torsions:
REMARK  status: ('A' for Active; 'I' for Inactive)
ROOT
ATOM      1  C4' PXY d   1       0.383   2.572  -1.893  0.00  0.00     0.077 C 
ATOM      2  C1' PXY d   1      -0.973  -0.469   2.832  0.00  0.00     0.077 C 
ATOM      3  C1  PXY d   1      -0.606   0.323   1.593  0.00  0.00    -0.082 A 
ATOM      4  C2  PXY d   1      -1.218   1.469   1.343  0.00  0.00     0.003 A 
ATOM      5  C3  PXY d   1      -0.921   2.182   0.210  0.00  0.00     0.003 A 
ATOM      6  C4  PXY d   1       0.051   1.744  -0.649  0.00  0.00    -0.082 A 
ATOM      7  C5  PXY d   1       0.688   0.581  -0.396  0.00  0.00     0.003 A 
ATOM      8  C6  PXY d   1       0.343  -0.148   0.738  0.00  0.00     0.003 A 
ENDROOT
TORSDOF 0
ENDMDL
