MODEL 1
REMARK minimizedAffinity -5.52805138
REMARK minimizedRMSD -1
REMARK  0 active torsions:
REMARK  status: ('A' for Active; 'I' for Inactive)
ROOT
ATOM      1  C4' PXY d   1       0.994  -0.922  -0.943  0.00  0.00     0.077 C 
ATOM      2  C1' PXY d   1      -1.795   3.669   1.190  0.00  0.00     0.077 C 
ATOM      3  C1  PXY d   1      -1.065   2.459   0.642  0.00  0.00    -0.082 A 
ATOM      4  C2  PXY d   1      -0.225   2.605  -0.369  0.00  0.00     0.003 A 
ATOM      5  C3  PXY d   1       0.420   1.516  -0.898  0.00  0.00     0.003 A 
ATOM      6  C4  PXY d   1       0.242   0.273  -0.352  0.00  0.00    -0.082 A 
ATOM      7  C5  PXY d   1      -0.605   0.118   0.687  0.00  0.00     0.003 A 
ATOM      8  C6  PXY d   1      -1.281   1.229   1.183  0.00  0.00     0.003 A 
ENDROOT
TORSDOF 0
ENDMDL
