MODEL 1
REMARK minimizedAffinity -3.26903915
REMARK minimizedRMSD -1
REMARK  0 active torsions:
REMARK  status: ('A' for Active; 'I' for Inactive)
ROOT
ATOM      1  C4' PXY d   1      -0.687   1.821   1.748  0.00  0.00     0.077 C 
ATOM      2  C1' PXY d   1       1.260  -2.368  -1.726  0.00  0.00     0.077 C 
ATOM      3  C1  PXY d   1       0.760  -1.263  -0.817  0.00  0.00    -0.082 A 
ATOM      4  C2  PXY d   1      -0.127  -1.541   0.124  0.00  0.00     0.003 A 
ATOM      5  C3  PXY d   1      -0.613  -0.547   0.934  0.00  0.00     0.003 A 
ATOM      6  C4  PXY d   1      -0.148   0.735   0.814  0.00  0.00    -0.082 A 
ATOM      7  C5  PXY d   1       0.766   1.025  -0.137  0.00  0.00     0.003 A 
ATOM      8  C6  PXY d   1       1.216   0.009  -0.976  0.00  0.00     0.003 A 
ENDROOT
TORSDOF 0
ENDMDL
