MODEL 1
REMARK minimizedAffinity -3.13254786
REMARK minimizedRMSD -1
REMARK  0 active torsions:
REMARK  status: ('A' for Active; 'I' for Inactive)
ROOT
ATOM      1  C4' PXY d   1       0.741  -2.813  -1.420  0.00  0.00     0.077 C 
ATOM      2  C1' PXY d   1      -0.643   1.717   1.894  0.00  0.00     0.077 C 
ATOM      3  C1  PXY d   1      -0.280   0.537   1.014  0.00  0.00    -0.082 A 
ATOM      4  C2  PXY d   1      -0.554  -0.692   1.423  0.00  0.00     0.003 A 
ATOM      5  C3  PXY d   1      -0.204  -1.772   0.654  0.00  0.00     0.003 A 
ATOM      6  C4  PXY d   1       0.384  -1.591  -0.569  0.00  0.00    -0.082 A 
ATOM      7  C5  PXY d   1       0.656  -0.340  -0.997  0.00  0.00     0.003 A 
ATOM      8  C6  PXY d   1       0.330   0.741  -0.184  0.00  0.00     0.003 A 
ENDROOT
TORSDOF 0
ENDMDL
