MODEL 1
REMARK minimizedAffinity -3.7483592
REMARK minimizedRMSD -1
REMARK  0 active torsions:
REMARK  status: ('A' for Active; 'I' for Inactive)
ROOT
ATOM      1  C4' PXY d   1       1.168  -1.381  -0.762  0.00  0.00     0.077 C 
ATOM      2  C1' PXY d   1      -1.948   2.927   1.507  0.00  0.00     0.077 C 
ATOM      3  C1  PXY d   1      -1.134   1.801   0.900  0.00  0.00    -0.082 A 
ATOM      4  C2  PXY d   1      -0.899   0.709   1.608  0.00  0.00     0.003 A 
ATOM      5  C3  PXY d   1      -0.138  -0.306   1.086  0.00  0.00     0.003 A 
ATOM      6  C4  PXY d   1       0.343  -0.223  -0.193  0.00  0.00    -0.082 A 
ATOM      7  C5  PXY d   1       0.099   0.884  -0.926  0.00  0.00     0.003 A 
ATOM      8  C6  PXY d   1      -0.641   1.920  -0.363  0.00  0.00     0.003 A 
ENDROOT
TORSDOF 0
ENDMDL
