MODEL 1
REMARK minimizedAffinity -4.22499514
REMARK minimizedRMSD -1
REMARK  0 active torsions:
REMARK  status: ('A' for Active; 'I' for Inactive)
ROOT
ATOM      1  C4' PXY d   1       0.992  -1.218  -0.492  0.00  0.00     0.077 C 
ATOM      2  C1' PXY d   1      -2.261   3.210   1.305  0.00  0.00     0.077 C 
ATOM      3  C1  PXY d   1      -1.408   2.043   0.846  0.00  0.00    -0.082 A 
ATOM      4  C2  PXY d   1      -0.590   2.196  -0.183  0.00  0.00     0.003 A 
ATOM      5  C3  PXY d   1       0.165   1.143  -0.631  0.00  0.00     0.003 A 
ATOM      6  C4  PXY d   1       0.120  -0.065   0.012  0.00  0.00    -0.082 A 
ATOM      7  C5  PXY d   1      -0.705  -0.226   1.069  0.00  0.00     0.003 A 
ATOM      8  C6  PXY d   1      -1.493   0.844   1.483  0.00  0.00     0.003 A 
ENDROOT
TORSDOF 0
ENDMDL
