MODEL 1
REMARK minimizedAffinity -3.78695798
REMARK minimizedRMSD -1
REMARK  0 active torsions:
REMARK  status: ('A' for Active; 'I' for Inactive)
ROOT
ATOM      1  C4' PXY d   1       1.483  -1.097  -0.775  0.00  0.00     0.077 C 
ATOM      2  C1' PXY d   1      -1.873   3.108   1.340  0.00  0.00     0.077 C 
ATOM      3  C1  PXY d   1      -0.992   2.011   0.774  0.00  0.00    -0.082 A 
ATOM      4  C2  PXY d   1      -1.002   0.811   1.332  0.00  0.00     0.003 A 
ATOM      5  C3  PXY d   1      -0.188  -0.183   0.852  0.00  0.00     0.003 A 
ATOM      6  C4  PXY d   1       0.604   0.038  -0.243  0.00  0.00    -0.082 A 
ATOM      7  C5  PXY d   1       0.611   1.256  -0.824  0.00  0.00     0.003 A 
ATOM      8  C6  PXY d   1      -0.192   2.264  -0.297  0.00  0.00     0.003 A 
ENDROOT
TORSDOF 0
ENDMDL
