MODEL 1
REMARK minimizedAffinity -4.12712049
REMARK minimizedRMSD -1
REMARK  0 active torsions:
REMARK  status: ('A' for Active; 'I' for Inactive)
ROOT
ATOM      1  C4' PXY d   1      -2.454   2.877   1.669  0.00  0.00     0.077 C 
ATOM      2  C1' PXY d   1       0.964  -1.318  -0.364  0.00  0.00     0.077 C 
ATOM      3  C1  PXY d   1       0.066  -0.225   0.180  0.00  0.00    -0.082 A 
ATOM      4  C2  PXY d   1      -0.553   0.591  -0.658  0.00  0.00     0.003 A 
ATOM      5  C3  PXY d   1      -1.344   1.605  -0.182  0.00  0.00     0.003 A 
ATOM      6  C4  PXY d   1      -1.545   1.753   1.164  0.00  0.00    -0.082 A 
ATOM      7  C5  PXY d   1      -0.925   0.918   2.025  0.00  0.00     0.003 A 
ATOM      8  C6  PXY d   1      -0.094  -0.079   1.523  0.00  0.00     0.003 A 
ENDROOT
TORSDOF 0
ENDMDL
