MODEL 1
REMARK minimizedAffinity -5.56075859
REMARK minimizedRMSD -1
REMARK  0 active torsions:
REMARK  status: ('A' for Active; 'I' for Inactive)
ROOT
ATOM      1  C4' PXY d   1      -2.349   2.785   1.532  0.00  0.00     0.077 C 
ATOM      2  C1' PXY d   1       1.660  -0.980  -0.247  0.00  0.00     0.077 C 
ATOM      3  C1  PXY d   1       0.604  -0.002   0.228  0.00  0.00    -0.082 A 
ATOM      4  C2  PXY d   1       0.207   0.972  -0.575  0.00  0.00     0.003 A 
ATOM      5  C3  PXY d   1      -0.724   1.885  -0.149  0.00  0.00     0.003 A 
ATOM      6  C4  PXY d   1      -1.292   1.768   1.091  0.00  0.00    -0.082 A 
ATOM      7  C5  PXY d   1      -0.900   0.771   1.912  0.00  0.00     0.003 A 
ATOM      8  C6  PXY d   1       0.076  -0.120   1.477  0.00  0.00     0.003 A 
ENDROOT
TORSDOF 0
ENDMDL
