MODEL 1
REMARK minimizedAffinity -3.01501274
REMARK minimizedRMSD -1
REMARK  0 active torsions:
REMARK  status: ('A' for Active; 'I' for Inactive)
ROOT
ATOM      1  C4' PXY d   1      -2.558   2.947   1.430  0.00  0.00     0.077 C 
ATOM      2  C1' PXY d   1       1.090  -1.057  -0.590  0.00  0.00     0.077 C 
ATOM      3  C1  PXY d   1       0.126  -0.016  -0.054  0.00  0.00    -0.082 A 
ATOM      4  C2  PXY d   1      -0.016   1.134  -0.693  0.00  0.00     0.003 A 
ATOM      5  C3  PXY d   1      -0.859   2.099  -0.205  0.00  0.00     0.003 A 
ATOM      6  C4  PXY d   1      -1.604   1.863   0.920  0.00  0.00    -0.082 A 
ATOM      7  C5  PXY d   1      -1.473   0.688   1.571  0.00  0.00     0.003 A 
ATOM      8  C6  PXY d   1      -0.581  -0.262   1.082  0.00  0.00     0.003 A 
ENDROOT
TORSDOF 0
ENDMDL
