MODEL 1
REMARK minimizedAffinity -4.71854305
REMARK minimizedRMSD -1
REMARK  0 active torsions:
REMARK  status: ('A' for Active; 'I' for Inactive)
ROOT
ATOM      1  C4' PXY d   1       0.196   3.011  -1.438  0.00  0.00     0.077 C 
ATOM      2  C1' PXY d   1      -0.758  -1.011   2.603  0.00  0.00     0.077 C 
ATOM      3  C1  PXY d   1      -0.520   0.050   1.546  0.00  0.00    -0.082 A 
ATOM      4  C2  PXY d   1       0.279  -0.213   0.525  0.00  0.00     0.003 A 
ATOM      5  C3  PXY d   1       0.532   0.745  -0.423  0.00  0.00     0.003 A 
ATOM      6  C4  PXY d   1      -0.082   1.967  -0.353  0.00  0.00    -0.082 A 
ATOM      7  C5  PXY d   1      -0.906   2.240   0.681  0.00  0.00     0.003 A 
ATOM      8  C6  PXY d   1      -1.117   1.267   1.654  0.00  0.00     0.003 A 
ENDROOT
TORSDOF 0
ENDMDL
