MODEL 1
REMARK minimizedAffinity -3.2556746
REMARK minimizedRMSD -1
REMARK  0 active torsions:
REMARK  status: ('A' for Active; 'I' for Inactive)
ROOT
ATOM      1  C4' PXY d   1       1.027  -2.375  -1.329  0.00  0.00     0.077 C 
ATOM      2  C1' PXY d   1      -0.933   1.919   2.007  0.00  0.00     0.077 C 
ATOM      3  C1  PXY d   1      -0.424   0.799   1.122  0.00  0.00    -0.082 A 
ATOM      4  C2  PXY d   1      -0.269  -0.415   1.626  0.00  0.00     0.003 A 
ATOM      5  C3  PXY d   1       0.221  -1.432   0.847  0.00  0.00     0.003 A 
ATOM      6  C4  PXY d   1       0.506  -1.217  -0.475  0.00  0.00    -0.082 A 
ATOM      7  C5  PXY d   1       0.341   0.016  -0.999  0.00  0.00     0.003 A 
ATOM      8  C6  PXY d   1      -0.119   1.045  -0.181  0.00  0.00     0.003 A 
ENDROOT
TORSDOF 0
ENDMDL
