MODEL 1
REMARK minimizedAffinity -5.64590883
REMARK minimizedRMSD -1
REMARK  0 active torsions:
REMARK  status: ('A' for Active; 'I' for Inactive)
ROOT
ATOM      1  C4' PXY d   1       1.081  -1.066  -0.899  0.00  0.00     0.077 C 
ATOM      2  C1' PXY d   1      -2.002   3.016   1.794  0.00  0.00     0.077 C 
ATOM      3  C1  PXY d   1      -1.189   1.941   1.099  0.00  0.00    -0.082 A 
ATOM      4  C2  PXY d   1      -0.835   2.104  -0.165  0.00  0.00     0.003 A 
ATOM      5  C3  PXY d   1      -0.127   1.127  -0.818  0.00  0.00     0.003 A 
ATOM      6  C4  PXY d   1       0.268  -0.003  -0.154  0.00  0.00    -0.082 A 
ATOM      7  C5  PXY d   1      -0.080  -0.171   1.139  0.00  0.00     0.003 A 
ATOM      8  C6  PXY d   1      -0.834   0.813   1.772  0.00  0.00     0.003 A 
ENDROOT
TORSDOF 0
ENDMDL
