MODEL 1
REMARK minimizedAffinity -2.57000351
REMARK minimizedRMSD -1
REMARK  1 active torsions:
REMARK  status: ('A' for Active; 'I' for Inactive)
REMARK    1  A    between atoms: C1_2  and  C2_3 
ROOT
ATOM      1  C2  UNL d   1      -0.211   0.042  -0.200  0.00  0.00    -0.077 A 
ATOM      2  C3  UNL d   1       0.159   1.369  -0.461  0.00  0.00     0.002 A 
ATOM      3  C4  UNL d   1       1.353   1.651  -1.127  0.00  0.00     0.002 A 
ATOM      4  C5  UNL d   1       2.184   0.612  -1.541  0.00  0.00    -0.004 A 
ATOM      5  C6  UNL d   1       1.825  -0.711  -1.284  0.00  0.00     0.002 A 
ATOM      6  C7  UNL d   1       0.633  -0.994  -0.618  0.00  0.00     0.002 A 
ENDROOT
BRANCH   1   7
ATOM      7  C1  UNL d   1      -1.523  -0.265   0.475  0.00  0.00     0.055 C 
ATOM      8  C   UNL d   1      -1.316  -1.091   1.736  0.00  0.00     0.019 C 
ENDBRANCH   1   7
TORSDOF 1
ENDMDL
