MODEL 1
REMARK minimizedAffinity -3.9522233
REMARK minimizedRMSD -1
REMARK  1 active torsions:
REMARK  status: ('A' for Active; 'I' for Inactive)
REMARK    1  A    between atoms: C1_2  and  C2_3 
ROOT
ATOM      1  C2  UNL d   1      -0.032  -1.126   1.396  0.00  0.00    -0.077 A 
ATOM      2  C3  UNL d   1      -1.316  -0.591   1.219  0.00  0.00     0.002 A 
ATOM      3  C4  UNL d   1      -1.733  -0.161  -0.042  0.00  0.00     0.002 A 
ATOM      4  C5  UNL d   1      -0.875  -0.265  -1.135  0.00  0.00    -0.004 A 
ATOM      5  C6  UNL d   1       0.404  -0.794  -0.968  0.00  0.00     0.002 A 
ATOM      6  C7  UNL d   1       0.823  -1.224   0.292  0.00  0.00     0.002 A 
ENDROOT
BRANCH   1   7
ATOM      7  C1  UNL d   1       0.402  -1.636   2.746  0.00  0.00     0.055 C 
ATOM      8  C   UNL d   1       0.760  -3.114   2.690  0.00  0.00     0.019 C 
ENDBRANCH   1   7
TORSDOF 1
ENDMDL
