MODEL 1
REMARK minimizedAffinity 2.1536634
REMARK minimizedRMSD -1
REMARK  1 active torsions:
REMARK  status: ('A' for Active; 'I' for Inactive)
REMARK    1  A    between atoms: C1_2  and  C2_3 
ROOT
ATOM      1  C2  UNL d   1      -0.401  -1.038   0.603  0.00  0.00    -0.077 A 
ATOM      2  C3  UNL d   1      -1.557  -0.246   0.665  0.00  0.00     0.002 A 
ATOM      3  C4  UNL d   1      -2.256  -0.111   1.866  0.00  0.00     0.002 A 
ATOM      4  C5  UNL d   1      -1.805  -0.761   3.014  0.00  0.00    -0.004 A 
ATOM      5  C6  UNL d   1      -0.658  -1.552   2.961  0.00  0.00     0.002 A 
ATOM      6  C7  UNL d   1       0.041  -1.689   1.761  0.00  0.00     0.002 A 
ENDROOT
BRANCH   1   7
ATOM      7  C1  UNL d   1       0.382  -1.145  -0.680  0.00  0.00     0.055 C 
ATOM      8  C   UNL d   1       1.733  -1.806  -0.450  0.00  0.00     0.019 C 
ENDBRANCH   1   7
TORSDOF 1
ENDMDL
