MODEL 1
REMARK minimizedAffinity -3.63031006
REMARK minimizedRMSD -1
REMARK  1 active torsions:
REMARK  status: ('A' for Active; 'I' for Inactive)
REMARK    1  A    between atoms: C1_2  and  C2_3 
ROOT
ATOM      1  C2  UNL d   1       1.431  -2.770   1.447  0.00  0.00    -0.077 A 
ATOM      2  C3  UNL d   1       0.529  -2.568   2.500  0.00  0.00     0.002 A 
ATOM      3  C4  UNL d   1      -0.267  -1.422   2.538  0.00  0.00     0.002 A 
ATOM      4  C5  UNL d   1      -0.172  -0.471   1.524  0.00  0.00    -0.004 A 
ATOM      5  C6  UNL d   1       0.724  -0.662   0.473  0.00  0.00     0.002 A 
ATOM      6  C7  UNL d   1       1.522  -1.807   0.434  0.00  0.00     0.002 A 
ENDROOT
BRANCH   1   7
ATOM      7  C1  UNL d   1       2.255  -4.030   1.378  0.00  0.00     0.055 C 
ATOM      8  C   UNL d   1       3.308  -3.944   0.283  0.00  0.00     0.019 C 
ENDBRANCH   1   7
TORSDOF 1
ENDMDL
