MODEL 1
REMARK minimizedAffinity -0.572274506
REMARK minimizedRMSD -1
REMARK  1 active torsions:
REMARK  status: ('A' for Active; 'I' for Inactive)
REMARK    1  A    between atoms: C1_2  and  C2_3 
ROOT
ATOM      1  C2  UNL d   1       1.023  -2.229   1.517  0.00  0.00    -0.077 A 
ATOM      2  C3  UNL d   1       0.271  -1.979   2.673  0.00  0.00     0.002 A 
ATOM      3  C4  UNL d   1      -0.593  -0.884   2.732  0.00  0.00     0.002 A 
ATOM      4  C5  UNL d   1      -0.716  -0.033   1.636  0.00  0.00    -0.004 A 
ATOM      5  C6  UNL d   1       0.030  -0.271   0.482  0.00  0.00     0.002 A 
ATOM      6  C7  UNL d   1       0.895  -1.364   0.422  0.00  0.00     0.002 A 
ENDROOT
BRANCH   1   7
ATOM      7  C1  UNL d   1       1.919  -3.437   1.434  0.00  0.00     0.055 C 
ATOM      8  C   UNL d   1       2.865  -3.345   0.246  0.00  0.00     0.019 C 
ENDBRANCH   1   7
TORSDOF 1
ENDMDL
