MODEL 1
REMARK minimizedAffinity 2.13443279
REMARK minimizedRMSD -1
REMARK  1 active torsions:
REMARK  status: ('A' for Active; 'I' for Inactive)
REMARK    1  A    between atoms: C1_2  and  C2_3 
ROOT
ATOM      1  C2  UNL d   1      -1.056  -1.163   1.803  0.00  0.00    -0.077 A 
ATOM      2  C3  UNL d   1      -1.889  -0.576   0.840  0.00  0.00     0.002 A 
ATOM      3  C4  UNL d   1      -1.386  -0.240  -0.419  0.00  0.00     0.002 A 
ATOM      4  C5  UNL d   1      -0.051  -0.491  -0.727  0.00  0.00    -0.004 A 
ATOM      5  C6  UNL d   1       0.786  -1.072   0.225  0.00  0.00     0.002 A 
ATOM      6  C7  UNL d   1       0.286  -1.407   1.484  0.00  0.00     0.002 A 
ENDROOT
BRANCH   1   7
ATOM      7  C1  UNL d   1      -1.608  -1.570   3.144  0.00  0.00     0.055 C 
ATOM      8  C   UNL d   1      -2.095  -3.012   3.127  0.00  0.00     0.019 C 
ENDBRANCH   1   7
TORSDOF 1
ENDMDL
