MODEL 1
REMARK minimizedAffinity 1.81996655
REMARK minimizedRMSD -1
REMARK  1 active torsions:
REMARK  status: ('A' for Active; 'I' for Inactive)
REMARK    1  A    between atoms: C1_2  and  C2_3 
ROOT
ATOM      1  C2  UNL d   1       1.417  -4.245   2.369  0.00  0.00    -0.077 A 
ATOM      2  C3  UNL d   1       2.360  -4.956   3.124  0.00  0.00     0.002 A 
ATOM      3  C4  UNL d   1       3.658  -5.138   2.641  0.00  0.00     0.002 A 
ATOM      4  C5  UNL d   1       4.024  -4.610   1.405  0.00  0.00    -0.004 A 
ATOM      5  C6  UNL d   1       3.093  -3.902   0.647  0.00  0.00     0.002 A 
ATOM      6  C7  UNL d   1       1.795  -3.720   1.127  0.00  0.00     0.002 A 
ENDROOT
BRANCH   1   7
ATOM      7  C1  UNL d   1       0.031  -4.004   2.910  0.00  0.00     0.055 C 
ATOM      8  C   UNL d   1      -0.224  -2.522   3.140  0.00  0.00     0.019 C 
ENDBRANCH   1   7
TORSDOF 1
ENDMDL
