MODEL 1
REMARK minimizedAffinity 6.27994823
REMARK minimizedRMSD -1
REMARK  0 active torsions:
REMARK  status: ('A' for Active; 'I' for Inactive)
ROOT
ATOM      1  C1  BNZ d   1      -3.459   5.423  -0.323  0.00  0.00     0.000 A 
ATOM      2  C2  BNZ d   1      -4.518   6.000   0.326  0.00  0.00     0.000 A 
ATOM      3  C3  BNZ d   1      -5.766   5.999  -0.233  0.00  0.00     0.000 A 
ATOM      4  C4  BNZ d   1      -5.945   5.458  -1.455  0.00  0.00     0.000 A 
ATOM      5  C5  BNZ d   1      -4.885   4.880  -2.126  0.00  0.00     0.000 A 
ATOM      6  C6  BNZ d   1      -3.639   4.848  -1.543  0.00  0.00     0.000 A 
ENDROOT
TORSDOF 0
ENDMDL
