MODEL 1
REMARK minimizedAffinity 2.43693995
REMARK minimizedRMSD -1
REMARK  0 active torsions:
REMARK  status: ('A' for Active; 'I' for Inactive)
ROOT
ATOM      1  C1  BNZ d   1       5.661  -3.931  -1.300  0.00  0.00     0.000 A 
ATOM      2  C2  BNZ d   1       5.815  -2.602  -1.594  0.00  0.00     0.000 A 
ATOM      3  C3  BNZ d   1       5.088  -1.651  -0.934  0.00  0.00     0.000 A 
ATOM      4  C4  BNZ d   1       4.181  -2.031  -0.011  0.00  0.00     0.000 A 
ATOM      5  C5  BNZ d   1       4.008  -3.367   0.290  0.00  0.00     0.000 A 
ATOM      6  C6  BNZ d   1       4.769  -4.319  -0.349  0.00  0.00     0.000 A 
ENDROOT
TORSDOF 0
ENDMDL
