MODEL 1
REMARK minimizedAffinity 0.490604311
REMARK minimizedRMSD -1
REMARK  0 active torsions:
REMARK  status: ('A' for Active; 'I' for Inactive)
ROOT
ATOM      1  C1  BNZ d   1      -2.296   1.891   2.566  0.00  0.00     0.000 A 
ATOM      2  C2  BNZ d   1      -1.688   2.874   1.831  0.00  0.00     0.000 A 
ATOM      3  C3  BNZ d   1      -1.872   2.951   0.478  0.00  0.00     0.000 A 
ATOM      4  C4  BNZ d   1      -2.629   2.023  -0.142  0.00  0.00     0.000 A 
ATOM      5  C5  BNZ d   1      -3.241   1.021   0.584  0.00  0.00     0.000 A 
ATOM      6  C6  BNZ d   1      -3.086   0.970   1.951  0.00  0.00     0.000 A 
ENDROOT
TORSDOF 0
ENDMDL
