MODEL 1
REMARK minimizedAffinity 7.96247816
REMARK minimizedRMSD -1
REMARK  0 active torsions:
REMARK  status: ('A' for Active; 'I' for Inactive)
ROOT
ATOM      1  C1  BNZ d   1      -0.263   2.974   0.891  0.00  0.00     0.000 A 
ATOM      2  C2  BNZ d   1      -1.114   3.743   0.141  0.00  0.00     0.000 A 
ATOM      3  C3  BNZ d   1      -0.699   4.933  -0.388  0.00  0.00     0.000 A 
ATOM      4  C4  BNZ d   1       0.551   5.371  -0.135  0.00  0.00     0.000 A 
ATOM      5  C5  BNZ d   1       1.418   4.612   0.627  0.00  0.00     0.000 A 
ATOM      6  C6  BNZ d   1       1.009   3.396   1.125  0.00  0.00     0.000 A 
ENDROOT
TORSDOF 0
ENDMDL
