MODEL 1
REMARK minimizedAffinity 6.34017372
REMARK minimizedRMSD -1
REMARK  0 active torsions:
REMARK  status: ('A' for Active; 'I' for Inactive)
ROOT
ATOM      1  C1  BNZ d   1       4.015  -1.952   0.081  0.00  0.00     0.000 A 
ATOM      2  C2  BNZ d   1       5.200  -1.725  -0.567  0.00  0.00     0.000 A 
ATOM      3  C3  BNZ d   1       5.940  -2.765  -1.057  0.00  0.00     0.000 A 
ATOM      4  C4  BNZ d   1       5.515  -4.030  -0.863  0.00  0.00     0.000 A 
ATOM      5  C5  BNZ d   1       4.327  -4.276  -0.204  0.00  0.00     0.000 A 
ATOM      6  C6  BNZ d   1       3.565  -3.225   0.254  0.00  0.00     0.000 A 
ENDROOT
TORSDOF 0
ENDMDL
