MODEL 1
REMARK minimizedAffinity 4.82421303
REMARK minimizedRMSD -1
REMARK  0 active torsions:
REMARK  status: ('A' for Active; 'I' for Inactive)
ROOT
ATOM      1  C1  BNZ d   1       0.532   2.759   0.748  0.00  0.00     0.000 A 
ATOM      2  C2  BNZ d   1      -0.754   2.958   0.320  0.00  0.00     0.000 A 
ATOM      3  C3  BNZ d   1      -1.144   4.166  -0.188  0.00  0.00     0.000 A 
ATOM      4  C4  BNZ d   1      -0.260   5.184  -0.229  0.00  0.00     0.000 A 
ATOM      5  C5  BNZ d   1       1.037   5.002   0.208  0.00  0.00     0.000 A 
ATOM      6  C6  BNZ d   1       1.436   3.774   0.682  0.00  0.00     0.000 A 
ENDROOT
TORSDOF 0
ENDMDL
