MODEL 1
REMARK minimizedAffinity -2.37051415
REMARK minimizedRMSD -1
REMARK  1 active torsions:
REMARK  status: ('A' for Active; 'I' for Inactive)
REMARK    1  A    between atoms: C1_2  and  C2_3 
ROOT
ATOM      1  C2  UNL d   1      -0.219  -1.173  -0.305  0.00  0.00    -0.077 A 
ATOM      2  C3  UNL d   1      -1.414  -1.902  -0.224  0.00  0.00     0.002 A 
ATOM      3  C4  UNL d   1      -1.439  -3.257  -0.559  0.00  0.00     0.002 A 
ATOM      4  C5  UNL d   1      -0.272  -3.895  -0.973  0.00  0.00    -0.004 A 
ATOM      5  C6  UNL d   1       0.921  -3.179  -1.060  0.00  0.00     0.002 A 
ATOM      6  C7  UNL d   1       0.948  -1.824  -0.726  0.00  0.00     0.002 A 
ENDROOT
BRANCH   1   7
ATOM      7  C1  UNL d   1      -0.179   0.277   0.103  0.00  0.00     0.055 C 
ATOM      8  C   UNL d   1       0.010   0.424   1.605  0.00  0.00     0.019 C 
ENDBRANCH   1   7
TORSDOF 1
ENDMDL
