MODEL 1
REMARK minimizedAffinity 0.829828382
REMARK minimizedRMSD -1
REMARK  1 active torsions:
REMARK  status: ('A' for Active; 'I' for Inactive)
REMARK    1  A    between atoms: C1_2  and  C2_3 
ROOT
ATOM      1  C2  UNL d   1       0.012  -1.952  -0.895  0.00  0.00    -0.077 A 
ATOM      2  C3  UNL d   1      -1.003  -2.043  -1.859  0.00  0.00     0.002 A 
ATOM      3  C4  UNL d   1      -1.658  -3.255  -2.083  0.00  0.00     0.002 A 
ATOM      4  C5  UNL d   1      -1.310  -4.384  -1.345  0.00  0.00    -0.004 A 
ATOM      5  C6  UNL d   1      -0.301  -4.305  -0.385  0.00  0.00     0.002 A 
ATOM      6  C7  UNL d   1       0.356  -3.095  -0.161  0.00  0.00     0.002 A 
ENDROOT
BRANCH   1   7
ATOM      7  C1  UNL d   1       0.686  -0.634  -0.617  0.00  0.00     0.055 C 
ATOM      8  C   UNL d   1       0.654  -0.298   0.867  0.00  0.00     0.019 C 
ENDBRANCH   1   7
TORSDOF 1
ENDMDL
