MODEL 1
REMARK minimizedAffinity -3.06309056
REMARK minimizedRMSD -1
REMARK  1 active torsions:
REMARK  status: ('A' for Active; 'I' for Inactive)
REMARK    1  A    between atoms: C1_2  and  C2_3 
ROOT
ATOM      1  C2  UNL d   1       0.196  -1.460  -0.585  0.00  0.00    -0.077 A 
ATOM      2  C3  UNL d   1      -0.192  -1.326   0.756  0.00  0.00     0.002 A 
ATOM      3  C4  UNL d   1      -0.168  -0.075   1.376  0.00  0.00     0.002 A 
ATOM      4  C5  UNL d   1       0.238   1.051   0.663  0.00  0.00    -0.004 A 
ATOM      5  C6  UNL d   1       0.628   0.928  -0.670  0.00  0.00     0.002 A 
ATOM      6  C7  UNL d   1       0.606  -0.322  -1.291  0.00  0.00     0.002 A 
ENDROOT
BRANCH   1   7
ATOM      7  C1  UNL d   1       0.124  -2.799  -1.270  0.00  0.00     0.055 C 
ATOM      8  C   UNL d   1      -0.926  -3.694  -0.628  0.00  0.00     0.019 C 
ENDBRANCH   1   7
TORSDOF 1
ENDMDL
