MODEL 1
REMARK minimizedAffinity -1.6565392
REMARK minimizedRMSD -1
REMARK  1 active torsions:
REMARK  status: ('A' for Active; 'I' for Inactive)
REMARK    1  A    between atoms: C1_2  and  C2_3 
ROOT
ATOM      1  C2  UNL d   1      -0.247   1.512   0.370  0.00  0.00    -0.077 A 
ATOM      2  C3  UNL d   1      -0.364   1.734  -1.010  0.00  0.00     0.002 A 
ATOM      3  C4  UNL d   1      -0.349   3.034  -1.520  0.00  0.00     0.002 A 
ATOM      4  C5  UNL d   1      -0.214   4.121  -0.659  0.00  0.00    -0.004 A 
ATOM      5  C6  UNL d   1      -0.100   3.911   0.715  0.00  0.00     0.002 A 
ATOM      6  C7  UNL d   1      -0.115   2.612   1.227  0.00  0.00     0.002 A 
ENDROOT
BRANCH   1   7
ATOM      7  C1  UNL d   1      -0.213   0.109   0.917  0.00  0.00     0.055 C 
ATOM      8  C   UNL d   1       0.779  -0.758   0.156  0.00  0.00     0.019 C 
ENDBRANCH   1   7
TORSDOF 1
ENDMDL
