MODEL 1
REMARK minimizedAffinity -4.14975739
REMARK minimizedRMSD -1
REMARK  1 active torsions:
REMARK  status: ('A' for Active; 'I' for Inactive)
REMARK    1  A    between atoms: C1_2  and  C2_3 
ROOT
ATOM      1  C2  UNL d   1       0.147   1.769  -0.048  0.00  0.00    -0.077 A 
ATOM      2  C3  UNL d   1       0.481   0.504  -0.551  0.00  0.00     0.002 A 
ATOM      3  C4  UNL d   1       0.542  -0.602   0.299  0.00  0.00     0.002 A 
ATOM      4  C5  UNL d   1       0.267  -0.454   1.657  0.00  0.00    -0.004 A 
ATOM      5  C6  UNL d   1      -0.064   0.800   2.168  0.00  0.00     0.002 A 
ATOM      6  C7  UNL d   1      -0.124   1.906   1.320  0.00  0.00     0.002 A 
ENDROOT
BRANCH   1   7
ATOM      7  C1  UNL d   1       0.032   2.953  -0.972  0.00  0.00     0.055 C 
ATOM      8  C   UNL d   1      -0.363   4.211  -0.213  0.00  0.00     0.019 C 
ENDBRANCH   1   7
TORSDOF 1
ENDMDL
