MODEL 1
REMARK minimizedAffinity -4.95658207
REMARK minimizedRMSD -1
REMARK  1 active torsions:
REMARK  status: ('A' for Active; 'I' for Inactive)
REMARK    1  A    between atoms: C1_2  and  C2_3 
ROOT
ATOM      1  C2  UNL d   1      -0.215   0.030   0.520  0.00  0.00    -0.081 A 
ATOM      2  C3  UNL d   1       0.422   1.199   0.086  0.00  0.00     0.006 A 
ATOM      3  C4  UNL d   1       1.143   1.209  -1.111  0.00  0.00     0.002 A 
ATOM      4  C5  UNL d   1       1.233   0.054  -1.895  0.00  0.00    -0.080 A 
ATOM      5  C6  UNL d   1       1.979   0.060  -3.197  0.00  0.00     0.076 C 
ATOM      6  C7  UNL d   1       0.611  -1.118  -1.453  0.00  0.00     0.002 A 
ATOM      7  C8  UNL d   1      -0.110  -1.129  -0.256  0.00  0.00     0.006 A 
ENDROOT
BRANCH   1   8
ATOM      8  C1  UNL d   1      -1.048   0.033   1.777  0.00  0.00     0.054 C 
ATOM      9  C   UNL d   1      -2.534   0.094   1.456  0.00  0.00     0.018 C 
ENDBRANCH   1   8
TORSDOF 1
ENDMDL
