MODEL 1
REMARK minimizedAffinity -3.38157988
REMARK minimizedRMSD -1
REMARK  1 active torsions:
REMARK  status: ('A' for Active; 'I' for Inactive)
REMARK    1  A    between atoms: C1_2  and  C2_3 
ROOT
ATOM      1  C2  UNL d   1       0.240  -0.066   0.643  0.00  0.00    -0.081 A 
ATOM      2  C3  UNL d   1       1.064   0.995   0.250  0.00  0.00     0.006 A 
ATOM      3  C4  UNL d   1       1.482   1.114  -1.078  0.00  0.00     0.002 A 
ATOM      4  C5  UNL d   1       1.075   0.179  -2.036  0.00  0.00    -0.080 A 
ATOM      5  C6  UNL d   1       1.492   0.312  -3.471  0.00  0.00     0.076 C 
ATOM      6  C7  UNL d   1       0.266  -0.891  -1.640  0.00  0.00     0.002 A 
ATOM      7  C8  UNL d   1      -0.151  -1.011  -0.313  0.00  0.00     0.006 A 
ENDROOT
BRANCH   1   8
ATOM      8  C1  UNL d   1      -0.265  -0.161   2.060  0.00  0.00     0.054 C 
ATOM      9  C   UNL d   1      -1.735   0.225   2.151  0.00  0.00     0.018 C 
ENDBRANCH   1   8
TORSDOF 1
ENDMDL
