MODEL 1
REMARK minimizedAffinity -4.51146936
REMARK minimizedRMSD -1
REMARK  1 active torsions:
REMARK  status: ('A' for Active; 'I' for Inactive)
REMARK    1  A    between atoms: C1_2  and  C2_3 
ROOT
ATOM      1  C2  UNL d   1      -0.071  -0.202   0.615  0.00  0.00    -0.081 A 
ATOM      2  C3  UNL d   1      -0.175  -1.284  -0.268  0.00  0.00     0.006 A 
ATOM      3  C4  UNL d   1       0.412  -1.224  -1.534  0.00  0.00     0.002 A 
ATOM      4  C5  UNL d   1       1.119  -0.085  -1.935  0.00  0.00    -0.080 A 
ATOM      5  C6  UNL d   1       1.780  -0.020  -3.280  0.00  0.00     0.076 C 
ATOM      6  C7  UNL d   1       1.208   1.003  -1.060  0.00  0.00     0.002 A 
ATOM      7  C8  UNL d   1       0.620   0.944   0.205  0.00  0.00     0.006 A 
ENDROOT
BRANCH   1   8
ATOM      8  C1  UNL d   1      -0.648  -0.289   2.005  0.00  0.00     0.054 C 
ATOM      9  C   UNL d   1      -1.853   0.628   2.162  0.00  0.00     0.018 C 
ENDBRANCH   1   8
TORSDOF 1
ENDMDL
