MODEL 1
REMARK minimizedAffinity -3.32779646
REMARK minimizedRMSD -1
REMARK  1 active torsions:
REMARK  status: ('A' for Active; 'I' for Inactive)
REMARK    1  A    between atoms: C1_2  and  C2_3 
ROOT
ATOM      1  C2  UNL d   1      -0.002  -0.290   0.597  0.00  0.00    -0.081 A 
ATOM      2  C3  UNL d   1       0.921   0.732   0.345  0.00  0.00     0.006 A 
ATOM      3  C4  UNL d   1       1.468   0.894  -0.930  0.00  0.00     0.002 A 
ATOM      4  C5  UNL d   1       1.094   0.043  -1.976  0.00  0.00    -0.080 A 
ATOM      5  C6  UNL d   1       1.650   0.225  -3.357  0.00  0.00     0.076 C 
ATOM      6  C7  UNL d   1       0.184  -0.988  -1.720  0.00  0.00     0.002 A 
ATOM      7  C8  UNL d   1      -0.362  -1.151  -0.445  0.00  0.00     0.006 A 
ENDROOT
BRANCH   1   8
ATOM      8  C1  UNL d   1      -0.642  -0.427   1.955  0.00  0.00     0.054 C 
ATOM      9  C   UNL d   1      -1.974   0.308   2.016  0.00  0.00     0.018 C 
ENDBRANCH   1   8
TORSDOF 1
ENDMDL
