MODEL 1
REMARK minimizedAffinity -5.34351492
REMARK minimizedRMSD -1
REMARK  1 active torsions:
REMARK  status: ('A' for Active; 'I' for Inactive)
REMARK    1  A    between atoms: C1_2  and  C2_3 
ROOT
ATOM      1  C2  UNL d   1      -0.365  -0.038   0.666  0.00  0.00    -0.081 A 
ATOM      2  C3  UNL d   1       0.315   1.060   0.124  0.00  0.00     0.006 A 
ATOM      3  C4  UNL d   1       1.056   0.923  -1.052  0.00  0.00     0.002 A 
ATOM      4  C5  UNL d   1       1.122  -0.309  -1.710  0.00  0.00    -0.080 A 
ATOM      5  C6  UNL d   1       1.889  -0.462  -2.990  0.00  0.00     0.076 C 
ATOM      6  C7  UNL d   1       0.457  -1.410  -1.159  0.00  0.00     0.002 A 
ATOM      7  C8  UNL d   1      -0.283  -1.275   0.017  0.00  0.00     0.006 A 
ENDROOT
BRANCH   1   8
ATOM      8  C1  UNL d   1      -1.217   0.121   1.899  0.00  0.00     0.054 C 
ATOM      9  C   UNL d   1      -2.649   0.491   1.539  0.00  0.00     0.018 C 
ENDBRANCH   1   8
TORSDOF 1
ENDMDL
