MODEL 1
REMARK minimizedAffinity -3.92336154
REMARK minimizedRMSD -1
REMARK  1 active torsions:
REMARK  status: ('A' for Active; 'I' for Inactive)
REMARK    1  A    between atoms: C1_2  and  C2_3 
ROOT
ATOM      1  C2  UNL d   1      -2.386   2.986   3.211  0.00  0.00    -0.081 A 
ATOM      2  C3  UNL d   1      -3.718   3.031   2.783  0.00  0.00     0.006 A 
ATOM      3  C4  UNL d   1      -4.292   1.934   2.136  0.00  0.00     0.002 A 
ATOM      4  C5  UNL d   1      -3.546   0.771   1.915  0.00  0.00    -0.080 A 
ATOM      5  C6  UNL d   1      -4.158  -0.425   1.249  0.00  0.00     0.076 C 
ATOM      6  C7  UNL d   1      -2.210   0.732   2.328  0.00  0.00     0.002 A 
ATOM      7  C8  UNL d   1      -1.635   1.829   2.973  0.00  0.00     0.006 A 
ENDROOT
BRANCH   1   8
ATOM      8  C1  UNL d   1      -1.784   4.144   3.966  0.00  0.00     0.054 C 
ATOM      9  C   UNL d   1      -2.125   4.075   5.448  0.00  0.00     0.018 C 
ENDBRANCH   1   8
TORSDOF 1
ENDMDL
