MODEL 1
REMARK minimizedAffinity -4.4808135
REMARK minimizedRMSD -1
REMARK  1 active torsions:
REMARK  status: ('A' for Active; 'I' for Inactive)
REMARK    1  A    between atoms: C1_2  and  C2_3 
ROOT
ATOM      1  C2  UNL d   1      -1.067   0.621   0.516  0.00  0.00    -0.081 A 
ATOM      2  C3  UNL d   1       0.161  -0.042   0.628  0.00  0.00     0.006 A 
ATOM      3  C4  UNL d   1       0.944  -0.278  -0.504  0.00  0.00     0.002 A 
ATOM      4  C5  UNL d   1       0.517   0.151  -1.765  0.00  0.00    -0.080 A 
ATOM      5  C6  UNL d   1       1.362  -0.069  -2.984  0.00  0.00     0.076 C 
ATOM      6  C7  UNL d   1      -0.718   0.799  -1.880  0.00  0.00     0.002 A 
ATOM      7  C8  UNL d   1      -1.502   1.035  -0.748  0.00  0.00     0.006 A 
ENDROOT
BRANCH   1   8
ATOM      8  C1  UNL d   1      -1.883   0.935   1.744  0.00  0.00     0.054 C 
ATOM      9  C   UNL d   1      -2.670   2.226   1.570  0.00  0.00     0.018 C 
ENDBRANCH   1   8
TORSDOF 1
ENDMDL
