MODEL 1
REMARK minimizedAffinity -0.971430004
REMARK minimizedRMSD -1
REMARK  1 active torsions:
REMARK  status: ('A' for Active; 'I' for Inactive)
REMARK    1  A    between atoms: C1_2  and  C2_3 
ROOT
ATOM      1  C2  UNL d   1      -1.596   0.782   0.786  0.00  0.00    -0.081 A 
ATOM      2  C3  UNL d   1      -0.585  -0.020   1.329  0.00  0.00     0.006 A 
ATOM      3  C4  UNL d   1       0.635  -0.170   0.665  0.00  0.00     0.002 A 
ATOM      4  C5  UNL d   1       0.867   0.487  -0.549  0.00  0.00    -0.080 A 
ATOM      5  C6  UNL d   1       2.183   0.359  -1.257  0.00  0.00     0.076 C 
ATOM      6  C7  UNL d   1      -0.149   1.275  -1.100  0.00  0.00     0.002 A 
ATOM      7  C8  UNL d   1      -1.369   1.424  -0.436  0.00  0.00     0.006 A 
ENDROOT
BRANCH   1   8
ATOM      8  C1  UNL d   1      -2.888   0.997   1.532  0.00  0.00     0.054 C 
ATOM      9  C   UNL d   1      -3.295   2.464   1.523  0.00  0.00     0.018 C 
ENDBRANCH   1   8
TORSDOF 1
ENDMDL
