MODEL 1
REMARK minimizedAffinity 11.3685408
REMARK minimizedRMSD -1
REMARK  0 active torsions:
REMARK  status: ('A' for Active; 'I' for Inactive)
ROOT
ATOM      1  O1  BZF d   1       4.165  -5.891   2.668  0.00  0.00    -0.204 OA
ATOM      2  C2  BZF d   1       4.205  -4.987   1.624  0.00  0.00     0.174 A 
ATOM      3  C3  BZF d   1       4.632  -3.781   2.052  0.00  0.00    -0.012 A 
ATOM      4  C3A BZF d   1       4.962  -3.967   3.432  0.00  0.00    -0.107 A 
ATOM      5  C4  BZF d   1       5.456  -3.138   4.398  0.00  0.00     0.055 A 
ATOM      6  C5  BZF d   1       5.596  -3.611   5.665  0.00  0.00    -0.016 A 
ATOM      7  C6  BZF d   1       5.249  -4.903   6.000  0.00  0.00     0.022 A 
ATOM      8  C7  BZF d   1       4.760  -5.764   5.074  0.00  0.00     0.029 A 
ATOM      9  C7A BZF d   1       4.648  -5.299   3.786  0.00  0.00     0.058 A 
ENDROOT
TORSDOF 0
ENDMDL
