MODEL 1
REMARK minimizedAffinity 4.60630035
REMARK minimizedRMSD -1
REMARK  0 active torsions:
REMARK  status: ('A' for Active; 'I' for Inactive)
ROOT
ATOM      1  O1  BZF d   1       1.457   4.093  -5.958  0.00  0.00    -0.204 OA
ATOM      2  C2  BZF d   1       2.211   5.250  -5.909  0.00  0.00     0.174 A 
ATOM      3  C3  BZF d   1       3.526   4.961  -5.837  0.00  0.00    -0.012 A 
ATOM      4  C3A BZF d   1       3.604   3.535  -5.934  0.00  0.00    -0.107 A 
ATOM      5  C4  BZF d   1       4.644   2.650  -5.939  0.00  0.00     0.055 A 
ATOM      6  C5  BZF d   1       4.377   1.318  -5.974  0.00  0.00    -0.016 A 
ATOM      7  C6  BZF d   1       3.085   0.837  -5.999  0.00  0.00     0.022 A 
ATOM      8  C7  BZF d   1       2.021   1.676  -6.000  0.00  0.00     0.029 A 
ATOM      9  C7A BZF d   1       2.287   3.024  -5.998  0.00  0.00     0.058 A 
ENDROOT
TORSDOF 0
ENDMDL
