MODEL 1
REMARK minimizedAffinity 9.67853737
REMARK minimizedRMSD -1
REMARK  0 active torsions:
REMARK  status: ('A' for Active; 'I' for Inactive)
ROOT
ATOM      1  O1  BZF d   1      -0.026   5.155   3.004  0.00  0.00    -0.204 OA
ATOM      2  C2  BZF d   1       0.094   6.000   4.090  0.00  0.00     0.174 A 
ATOM      3  C3  BZF d   1       1.297   5.850   4.681  0.00  0.00    -0.012 A 
ATOM      4  C3A BZF d   1       2.006   4.916   3.862  0.00  0.00    -0.107 A 
ATOM      5  C4  BZF d   1       3.259   4.376   3.921  0.00  0.00     0.055 A 
ATOM      6  C5  BZF d   1       3.617   3.436   3.008  0.00  0.00    -0.016 A 
ATOM      7  C6  BZF d   1       2.748   3.009   2.026  0.00  0.00     0.022 A 
ATOM      8  C7  BZF d   1       1.496   3.519   1.924  0.00  0.00     0.029 A 
ATOM      9  C7A BZF d   1       1.142   4.493   2.825  0.00  0.00     0.058 A 
ENDROOT
TORSDOF 0
ENDMDL
