MODEL 1
REMARK minimizedAffinity 4.61235666
REMARK minimizedRMSD -1
REMARK  0 active torsions:
REMARK  status: ('A' for Active; 'I' for Inactive)
ROOT
ATOM      1  O1  BZF d   1       2.987   5.752  -5.930  0.00  0.00    -0.204 OA
ATOM      2  C2  BZF d   1       4.367   5.745  -5.998  0.00  0.00     0.174 A 
ATOM      3  C3  BZF d   1       4.840   4.482  -5.982  0.00  0.00    -0.012 A 
ATOM      4  C3A BZF d   1       3.679   3.645  -5.992  0.00  0.00    -0.107 A 
ATOM      5  C4  BZF d   1       3.497   2.292  -5.999  0.00  0.00     0.055 A 
ATOM      6  C5  BZF d   1       2.234   1.795  -5.933  0.00  0.00    -0.016 A 
ATOM      7  C6  BZF d   1       1.132   2.621  -5.855  0.00  0.00     0.022 A 
ATOM      8  C7  BZF d   1       1.262   3.970  -5.850  0.00  0.00     0.029 A 
ATOM      9  C7A BZF d   1       2.535   4.476  -5.949  0.00  0.00     0.058 A 
ENDROOT
TORSDOF 0
ENDMDL
