MODEL 1
REMARK minimizedAffinity -0.0552242771
REMARK minimizedRMSD -1
REMARK  0 active torsions:
REMARK  status: ('A' for Active; 'I' for Inactive)
ROOT
ATOM      1  O1  BZF d   1       4.025   1.182  -5.972  0.00  0.00    -0.204 OA
ATOM      2  C2  BZF d   1       5.406   1.128  -5.957  0.00  0.00     0.174 A 
ATOM      3  C3  BZF d   1       5.934   2.368  -6.000  0.00  0.00    -0.012 A 
ATOM      4  C3A BZF d   1       4.813   3.256  -5.952  0.00  0.00    -0.107 A 
ATOM      5  C4  BZF d   1       4.692   4.616  -5.948  0.00  0.00     0.055 A 
ATOM      6  C5  BZF d   1       3.451   5.169  -5.969  0.00  0.00    -0.016 A 
ATOM      7  C6  BZF d   1       2.311   4.393  -6.000  0.00  0.00     0.022 A 
ATOM      8  C7  BZF d   1       2.380   3.040  -6.000  0.00  0.00     0.029 A 
ATOM      9  C7A BZF d   1       3.632   2.478  -5.945  0.00  0.00     0.058 A 
ENDROOT
TORSDOF 0
ENDMDL
