MODEL 1
REMARK minimizedAffinity 13.8388796
REMARK minimizedRMSD -1
REMARK  0 active torsions:
REMARK  status: ('A' for Active; 'I' for Inactive)
ROOT
ATOM      1  O1  BZF d   1      -0.945  -0.765  -0.182  0.00  0.00    -0.204 OA
ATOM      2  C2  BZF d   1      -2.252  -0.369  -0.387  0.00  0.00     0.174 A 
ATOM      3  C3  BZF d   1      -2.830  -0.004   0.775  0.00  0.00    -0.012 A 
ATOM      4  C3A BZF d   1      -1.792  -0.095   1.756  0.00  0.00    -0.107 A 
ATOM      5  C4  BZF d   1      -1.744   0.154   3.098  0.00  0.00     0.055 A 
ATOM      6  C5  BZF d   1      -0.596  -0.105   3.777  0.00  0.00    -0.016 A 
ATOM      7  C6  BZF d   1       0.520  -0.618   3.148  0.00  0.00     0.022 A 
ATOM      8  C7  BZF d   1       0.522  -0.877   1.818  0.00  0.00     0.029 A 
ATOM      9  C7A BZF d   1      -0.627  -0.585   1.123  0.00  0.00     0.058 A 
ENDROOT
TORSDOF 0
ENDMDL
