MODEL 1
REMARK minimizedAffinity 0.419408977
REMARK minimizedRMSD -1
REMARK  0 active torsions:
REMARK  status: ('A' for Active; 'I' for Inactive)
ROOT
ATOM      1  O1  BZF d   1       1.972   3.531  -5.977  0.00  0.00    -0.204 OA
ATOM      2  C2  BZF d   1       2.259   4.882  -6.000  0.00  0.00     0.174 A 
ATOM      3  C3  BZF d   1       3.591   5.089  -5.957  0.00  0.00    -0.012 A 
ATOM      4  C3A BZF d   1       4.176   3.784  -5.998  0.00  0.00    -0.107 A 
ATOM      5  C4  BZF d   1       5.465   3.333  -6.000  0.00  0.00     0.055 A 
ATOM      6  C5  BZF d   1       5.696   1.994  -5.971  0.00  0.00    -0.016 A 
ATOM      7  C6  BZF d   1       4.663   1.080  -5.936  0.00  0.00     0.022 A 
ATOM      8  C7  BZF d   1       3.368   1.480  -5.938  0.00  0.00     0.029 A 
ATOM      9  C7A BZF d   1       3.131   2.831  -6.000  0.00  0.00     0.058 A 
ENDROOT
TORSDOF 0
ENDMDL
