MODEL 1
REMARK minimizedAffinity -2.81444979
REMARK minimizedRMSD -1
REMARK  0 active torsions:
REMARK  status: ('A' for Active; 'I' for Inactive)
ROOT
ATOM      1  O1  BZF d   1       1.964   5.162  -5.887  0.00  0.00    -0.204 OA
ATOM      2  C2  BZF d   1       1.384   3.908  -5.872  0.00  0.00     0.174 A 
ATOM      3  C3  BZF d   1       2.325   2.945  -5.949  0.00  0.00    -0.012 A 
ATOM      4  C3A BZF d   1       3.576   3.638  -5.924  0.00  0.00    -0.107 A 
ATOM      5  C4  BZF d   1       4.878   3.227  -5.956  0.00  0.00     0.055 A 
ATOM      6  C5  BZF d   1       5.865   4.161  -5.991  0.00  0.00    -0.016 A 
ATOM      7  C6  BZF d   1       5.586   5.512  -6.000  0.00  0.00     0.022 A 
ATOM      8  C7  BZF d   1       4.310   5.968  -5.963  0.00  0.00     0.029 A 
ATOM      9  C7A BZF d   1       3.312   5.027  -5.895  0.00  0.00     0.058 A 
ENDROOT
TORSDOF 0
ENDMDL
