MODEL 1
REMARK minimizedAffinity -3.00297832
REMARK minimizedRMSD -1
REMARK  0 active torsions:
REMARK  status: ('A' for Active; 'I' for Inactive)
ROOT
ATOM      1  O1  BZF d   1       5.974   3.643  -5.333  0.00  0.00    -0.204 OA
ATOM      2  C2  BZF d   1       5.744   2.283  -5.411  0.00  0.00     0.174 A 
ATOM      3  C3  BZF d   1       4.435   2.030  -5.612  0.00  0.00    -0.012 A 
ATOM      4  C3A BZF d   1       3.821   3.314  -5.755  0.00  0.00    -0.107 A 
ATOM      5  C4  BZF d   1       2.539   3.721  -5.990  0.00  0.00     0.055 A 
ATOM      6  C5  BZF d   1       2.259   5.051  -6.000  0.00  0.00    -0.016 A 
ATOM      7  C6  BZF d   1       3.234   6.000  -5.775  0.00  0.00     0.022 A 
ATOM      8  C7  BZF d   1       4.522   5.645  -5.542  0.00  0.00     0.029 A 
ATOM      9  C7A BZF d   1       4.814   4.303  -5.564  0.00  0.00     0.058 A 
ENDROOT
TORSDOF 0
ENDMDL
