MODEL 1
REMARK minimizedAffinity -1.52847397
REMARK minimizedRMSD -1
REMARK  0 active torsions:
REMARK  status: ('A' for Active; 'I' for Inactive)
ROOT
ATOM      1  O1  BZF d   1       3.716  -3.347   3.240  0.00  0.00    -0.204 OA
ATOM      2  C2  BZF d   1       4.567  -4.432   3.169  0.00  0.00     0.174 A 
ATOM      3  C3  BZF d   1       4.744  -4.819   1.889  0.00  0.00    -0.012 A 
ATOM      4  C3A BZF d   1       4.028  -3.861   1.104  0.00  0.00    -0.107 A 
ATOM      5  C4  BZF d   1       3.840  -3.699  -0.239  0.00  0.00     0.055 A 
ATOM      6  C5  BZF d   1       3.025  -2.704  -0.677  0.00  0.00    -0.016 A 
ATOM      7  C6  BZF d   1       2.378  -1.857   0.199  0.00  0.00     0.022 A 
ATOM      8  C7  BZF d   1       2.537  -1.975   1.540  0.00  0.00     0.029 A 
ATOM      9  C7A BZF d   1       3.387  -2.959   1.985  0.00  0.00     0.058 A 
ENDROOT
TORSDOF 0
ENDMDL
