MODEL 1
REMARK minimizedAffinity -5.15442181
REMARK minimizedRMSD -1
REMARK  1 active torsions:
REMARK  status: ('A' for Active; 'I' for Inactive)
REMARK    1  A    between atoms: C1_2  and  C2_3 
ROOT
ATOM      1  C2  UNL d   1       0.257  -0.148   0.279  0.00  0.00    -0.073 A 
ATOM      2  C3  UNL d   1       1.031  -0.639   1.335  0.00  0.00    -0.002 A 
ATOM      3  C4  UNL d   1       1.036   0.013   2.569  0.00  0.00     0.004 A 
ATOM      4  C5  UNL d   1       0.263   1.157   2.761  0.00  0.00    -0.004 A 
ATOM      5  C6  UNL d   1      -0.527   1.657   1.721  0.00  0.00    -0.075 A 
ATOM      6  C7  UNL d   1      -1.363   2.889   1.911  0.00  0.00     0.076 C 
ATOM      7  C8  UNL d   1      -0.525   0.998   0.484  0.00  0.00     0.001 A 
ENDROOT
BRANCH   1   8
ATOM      8  C1  UNL d   1       0.243  -0.852  -1.053  0.00  0.00     0.053 C 
ATOM      9  C   UNL d   1      -0.035  -2.340  -0.909  0.00  0.00     0.018 C 
ENDBRANCH   1   8
TORSDOF 1
ENDMDL
