MODEL 1
REMARK minimizedAffinity -4.52933073
REMARK minimizedRMSD -1
REMARK  1 active torsions:
REMARK  status: ('A' for Active; 'I' for Inactive)
REMARK    1  A    between atoms: C1_2  and  C2_3 
ROOT
ATOM      1  C2  UNL d   1       0.394  -0.435  -0.424  0.00  0.00    -0.073 A 
ATOM      2  C3  UNL d   1       0.160   0.480  -1.457  0.00  0.00    -0.002 A 
ATOM      3  C4  UNL d   1      -0.201   1.796  -1.166  0.00  0.00     0.004 A 
ATOM      4  C5  UNL d   1      -0.324   2.213   0.159  0.00  0.00    -0.004 A 
ATOM      5  C6  UNL d   1      -0.083   1.317   1.206  0.00  0.00    -0.075 A 
ATOM      6  C7  UNL d   1      -0.214   1.749   2.637  0.00  0.00     0.076 C 
ATOM      7  C8  UNL d   1       0.276  -0.004   0.905  0.00  0.00     0.001 A 
ENDROOT
BRANCH   1   8
ATOM      8  C1  UNL d   1       0.789  -1.855  -0.734  0.00  0.00     0.053 C 
ATOM      9  C   UNL d   1      -0.329  -2.621  -1.423  0.00  0.00     0.018 C 
ENDBRANCH   1   8
TORSDOF 1
ENDMDL
