MODEL 1
REMARK minimizedAffinity -2.6658535
REMARK minimizedRMSD -1
REMARK  1 active torsions:
REMARK  status: ('A' for Active; 'I' for Inactive)
REMARK    1  A    between atoms: C1_2  and  C2_3 
ROOT
ATOM      1  C2  UNL d   1       0.065   0.415   1.053  0.00  0.00    -0.073 A 
ATOM      2  C3  UNL d   1       0.769  -0.154  -0.014  0.00  0.00    -0.002 A 
ATOM      3  C4  UNL d   1       0.194  -0.217  -1.284  0.00  0.00     0.004 A 
ATOM      4  C5  UNL d   1      -1.086   0.293  -1.501  0.00  0.00    -0.004 A 
ATOM      5  C6  UNL d   1      -1.800   0.876  -0.450  0.00  0.00    -0.075 A 
ATOM      6  C7  UNL d   1      -3.179   1.427  -0.667  0.00  0.00     0.076 C 
ATOM      7  C8  UNL d   1      -1.217   0.933   0.823  0.00  0.00     0.001 A 
ENDROOT
BRANCH   1   8
ATOM      8  C1  UNL d   1       0.685   0.491   2.424  0.00  0.00     0.053 C 
ATOM      9  C   UNL d   1       0.747   1.919   2.943  0.00  0.00     0.018 C 
ENDBRANCH   1   8
TORSDOF 1
ENDMDL
