MODEL 1
REMARK minimizedAffinity -0.911651433
REMARK minimizedRMSD -1
REMARK  0 active torsions:
REMARK  status: ('A' for Active; 'I' for Inactive)
ROOT
ATOM      1  C   UNL d   1      -1.691   0.168   0.414  0.00  0.00     0.020 A 
ATOM      2  C1  UNL d   1      -1.218  -1.024   0.960  0.00  0.00     0.020 A 
ATOM      3  C2  UNL d   1       0.151  -1.302   0.948  0.00  0.00     0.034 A 
ATOM      4  C3  UNL d   1       1.050  -0.388   0.387  0.00  0.00     0.017 A 
ATOM      5  C4  UNL d   1       0.573   0.809  -0.161  0.00  0.00     0.017 A 
ATOM      6  C5  UNL d   1      -0.798   1.082  -0.145  0.00  0.00     0.034 A 
ATOM      7 Cl   UNL d   1       1.622   1.986  -0.869  0.00  0.00    -0.070 Cl
ATOM      8 Cl1  UNL d   1       2.729  -0.797   0.406  0.00  0.00    -0.070 Cl
ENDROOT
TORSDOF 0
ENDMDL
