MODEL 1
REMARK minimizedAffinity -4.21159458
REMARK minimizedRMSD -1
REMARK  0 active torsions:
REMARK  status: ('A' for Active; 'I' for Inactive)
ROOT
ATOM      1  C   UNL d   1       0.056   1.660   0.781  0.00  0.00     0.020 A 
ATOM      2  C1  UNL d   1      -1.295   1.371   0.967  0.00  0.00     0.020 A 
ATOM      3  C2  UNL d   1      -1.743   0.050   0.894  0.00  0.00     0.034 A 
ATOM      4  C3  UNL d   1      -0.840  -0.986   0.634  0.00  0.00     0.017 A 
ATOM      5  C4  UNL d   1       0.517  -0.695   0.447  0.00  0.00     0.017 A 
ATOM      6  C5  UNL d   1       0.960   0.629   0.522  0.00  0.00     0.034 A 
ATOM      7 Cl   UNL d   1       1.691  -1.921   0.123  0.00  0.00    -0.070 Cl
ATOM      8 Cl1  UNL d   1      -1.464  -2.596   0.557  0.00  0.00    -0.070 Cl
ENDROOT
TORSDOF 0
ENDMDL
