MODEL 1
REMARK minimizedAffinity -0.502100408
REMARK minimizedRMSD -1
REMARK  0 active torsions:
REMARK  status: ('A' for Active; 'I' for Inactive)
ROOT
ATOM      1  C   UNL d   1      -2.332  -0.009   0.686  0.00  0.00     0.020 A 
ATOM      2  C1  UNL d   1      -2.279   1.380   0.577  0.00  0.00     0.020 A 
ATOM      3  C2  UNL d   1      -1.074   2.009   0.258  0.00  0.00     0.034 A 
ATOM      4  C3  UNL d   1       0.082   1.250   0.048  0.00  0.00     0.017 A 
ATOM      5  C4  UNL d   1       0.028  -0.144   0.158  0.00  0.00     0.017 A 
ATOM      6  C5  UNL d   1      -1.181  -0.769   0.477  0.00  0.00     0.034 A 
ATOM      7 Cl   UNL d   1       1.414  -1.148  -0.088  0.00  0.00    -0.070 Cl
ATOM      8 Cl1  UNL d   1       1.538   2.095  -0.344  0.00  0.00    -0.070 Cl
ENDROOT
TORSDOF 0
ENDMDL
