MODEL 1
REMARK minimizedAffinity -2.85080218
REMARK minimizedRMSD -1
REMARK  0 active torsions:
REMARK  status: ('A' for Active; 'I' for Inactive)
ROOT
ATOM      1  C   UNL d   1      -0.773   1.370  -1.482  0.00  0.00     0.020 A 
ATOM      2  C1  UNL d   1       0.130   0.721  -0.640  0.00  0.00     0.020 A 
ATOM      3  C2  UNL d   1       1.501   0.806  -0.889  0.00  0.00     0.034 A 
ATOM      4  C3  UNL d   1       1.974   1.542  -1.981  0.00  0.00     0.017 A 
ATOM      5  C4  UNL d   1       1.068   2.193  -2.825  0.00  0.00     0.017 A 
ATOM      6  C5  UNL d   1      -0.305   2.105  -2.572  0.00  0.00     0.034 A 
ATOM      7 Cl   UNL d   1       1.576   3.120  -4.193  0.00  0.00    -0.070 Cl
ATOM      8 Cl1  UNL d   1       3.683   1.605  -2.228  0.00  0.00    -0.070 Cl
ENDROOT
TORSDOF 0
ENDMDL
