MODEL 1
REMARK minimizedAffinity -4.72680664
REMARK minimizedRMSD -1
REMARK  0 active torsions:
REMARK  status: ('A' for Active; 'I' for Inactive)
ROOT
ATOM      1  C   UNL d   1      -1.477  -2.147   1.164  0.00  0.00     0.020 A 
ATOM      2  C1  UNL d   1      -2.213  -1.147   0.531  0.00  0.00     0.020 A 
ATOM      3  C2  UNL d   1      -1.555  -0.091  -0.104  0.00  0.00     0.034 A 
ATOM      4  C3  UNL d   1      -0.157  -0.034  -0.109  0.00  0.00     0.017 A 
ATOM      5  C4  UNL d   1       0.582  -1.039   0.526  0.00  0.00     0.017 A 
ATOM      6  C5  UNL d   1      -0.082  -2.094   1.161  0.00  0.00     0.034 A 
ATOM      7 Cl   UNL d   1       2.310  -1.038   0.563  0.00  0.00    -0.070 Cl
ATOM      8 Cl1  UNL d   1       0.590   1.299  -0.914  0.00  0.00    -0.070 Cl
ENDROOT
TORSDOF 0
ENDMDL
