MODEL 1
REMARK minimizedAffinity -3.18539262
REMARK minimizedRMSD -1
REMARK  0 active torsions:
REMARK  status: ('A' for Active; 'I' for Inactive)
ROOT
ATOM      1  C   UNL d   1       1.458  -0.535  -0.569  0.00  0.00     0.020 A 
ATOM      2  C1  UNL d   1       0.953   0.764  -0.615  0.00  0.00     0.020 A 
ATOM      3  C2  UNL d   1      -0.345   1.024  -0.170  0.00  0.00     0.034 A 
ATOM      4  C3  UNL d   1      -1.142  -0.016   0.323  0.00  0.00     0.017 A 
ATOM      5  C4  UNL d   1      -0.634  -1.319   0.369  0.00  0.00     0.017 A 
ATOM      6  C5  UNL d   1       0.666  -1.574  -0.078  0.00  0.00     0.034 A 
ATOM      7 Cl   UNL d   1      -1.557  -2.653   0.964  0.00  0.00    -0.070 Cl
ATOM      8 Cl1  UNL d   1      -2.737   0.379   0.857  0.00  0.00    -0.070 Cl
ENDROOT
TORSDOF 0
ENDMDL
