MODEL 1
REMARK minimizedAffinity -4.42592144
REMARK minimizedRMSD -1
REMARK  0 active torsions:
REMARK  status: ('A' for Active; 'I' for Inactive)
ROOT
ATOM      1  C   UNL d   1      -2.478  -1.278   1.110  0.00  0.00     0.020 A 
ATOM      2  C1  UNL d   1      -1.793  -2.404   1.564  0.00  0.00     0.020 A 
ATOM      3  C2  UNL d   1      -0.421  -2.526   1.337  0.00  0.00     0.034 A 
ATOM      4  C3  UNL d   1       0.271  -1.519   0.653  0.00  0.00     0.017 A 
ATOM      5  C4  UNL d   1      -0.417  -0.389   0.198  0.00  0.00     0.017 A 
ATOM      6  C5  UNL d   1      -1.791  -0.272   0.428  0.00  0.00     0.034 A 
ATOM      7 Cl   UNL d   1       0.368   0.895  -0.653  0.00  0.00    -0.070 Cl
ATOM      8 Cl1  UNL d   1       1.968  -1.735   0.408  0.00  0.00    -0.070 Cl
ENDROOT
TORSDOF 0
ENDMDL
