MODEL 1
REMARK minimizedAffinity -4.73727942
REMARK minimizedRMSD -1
REMARK  0 active torsions:
REMARK  status: ('A' for Active; 'I' for Inactive)
ROOT
ATOM      1  C   UNL d   1      -2.759  -2.069   1.776  0.00  0.00     0.020 A 
ATOM      2  C1  UNL d   1      -1.646  -2.766   1.308  0.00  0.00     0.020 A 
ATOM      3  C2  UNL d   1      -0.561  -2.069   0.771  0.00  0.00     0.034 A 
ATOM      4  C3  UNL d   1      -0.587  -0.672   0.701  0.00  0.00     0.017 A 
ATOM      5  C4  UNL d   1      -1.705   0.027   1.170  0.00  0.00     0.017 A 
ATOM      6  C5  UNL d   1      -2.789  -0.676   1.707  0.00  0.00     0.034 A 
ATOM      7 Cl   UNL d   1      -1.811   1.751   1.117  0.00  0.00    -0.070 Cl
ATOM      8 Cl1  UNL d   1       0.789   0.124   0.025  0.00  0.00    -0.070 Cl
ENDROOT
TORSDOF 0
ENDMDL
