MODEL 1
REMARK minimizedAffinity -2.30393672
REMARK minimizedRMSD -1
REMARK  0 active torsions:
REMARK  status: ('A' for Active; 'I' for Inactive)
ROOT
ATOM      1  C   UNL d   1      -0.001  -2.283   1.472  0.00  0.00     0.020 A 
ATOM      2  C1  UNL d   1       1.095  -1.943   0.681  0.00  0.00     0.020 A 
ATOM      3  C2  UNL d   1       1.136  -0.702   0.042  0.00  0.00     0.034 A 
ATOM      4  C3  UNL d   1       0.079   0.203   0.192  0.00  0.00     0.017 A 
ATOM      5  C4  UNL d   1      -1.021  -0.140   0.987  0.00  0.00     0.017 A 
ATOM      6  C5  UNL d   1      -1.057  -1.383   1.625  0.00  0.00     0.034 A 
ATOM      7 Cl   UNL d   1      -2.363   0.924   1.220  0.00  0.00    -0.070 Cl
ATOM      8 Cl1  UNL d   1       0.197   1.719  -0.627  0.00  0.00    -0.070 Cl
ENDROOT
TORSDOF 0
ENDMDL
