MODEL 1
REMARK minimizedAffinity -3.69666243
REMARK minimizedRMSD -1
REMARK  0 active torsions:
REMARK  status: ('A' for Active; 'I' for Inactive)
ROOT
ATOM      1  C   UNL d   1      -1.978  -1.123   0.481  0.00  0.00     0.020 A 
ATOM      2  C1  UNL d   1      -1.297  -1.985   1.340  0.00  0.00     0.020 A 
ATOM      3  C2  UNL d   1       0.088  -1.880   1.481  0.00  0.00     0.034 A 
ATOM      4  C3  UNL d   1       0.797  -0.911   0.762  0.00  0.00     0.017 A 
ATOM      5  C4  UNL d   1       0.113  -0.046  -0.100  0.00  0.00     0.017 A 
ATOM      6  C5  UNL d   1      -1.274  -0.155  -0.237  0.00  0.00     0.034 A 
ATOM      7 Cl   UNL d   1       0.919   1.175  -1.021  0.00  0.00    -0.070 Cl
ATOM      8 Cl1  UNL d   1       2.509  -0.837   0.985  0.00  0.00    -0.070 Cl
ENDROOT
TORSDOF 0
ENDMDL
