MODEL 1
REMARK minimizedAffinity -4.25950241
REMARK minimizedRMSD -1
REMARK  0 active torsions:
REMARK  status: ('A' for Active; 'I' for Inactive)
ROOT
ATOM      1  C   UNL d   1      -1.613  -2.067   1.068  0.00  0.00     0.020 A 
ATOM      2  C1  UNL d   1      -2.241  -0.938   0.543  0.00  0.00     0.020 A 
ATOM      3  C2  UNL d   1      -1.481   0.064  -0.065  0.00  0.00     0.034 A 
ATOM      4  C3  UNL d   1      -0.090  -0.061  -0.150  0.00  0.00     0.017 A 
ATOM      5  C4  UNL d   1       0.539  -1.195   0.376  0.00  0.00     0.017 A 
ATOM      6  C5  UNL d   1      -0.226  -2.195   0.984  0.00  0.00     0.034 A 
ATOM      7 Cl   UNL d   1       2.252  -1.420   0.308  0.00  0.00    -0.070 Cl
ATOM      8 Cl1  UNL d   1       0.786   1.216  -0.916  0.00  0.00    -0.070 Cl
ENDROOT
TORSDOF 0
ENDMDL
