MODEL 1
REMARK minimizedAffinity -4.59678888
REMARK minimizedRMSD -1
REMARK  0 active torsions:
REMARK  status: ('A' for Active; 'I' for Inactive)
ROOT
ATOM      1  C   UNL d   1      -2.196  -1.787   1.153  0.00  0.00     0.020 A 
ATOM      2  C1  UNL d   1      -1.275  -2.812   1.371  0.00  0.00     0.020 A 
ATOM      3  C2  UNL d   1       0.080  -2.601   1.108  0.00  0.00     0.034 A 
ATOM      4  C3  UNL d   1       0.519  -1.363   0.625  0.00  0.00     0.017 A 
ATOM      5  C4  UNL d   1      -0.406  -0.335   0.407  0.00  0.00     0.017 A 
ATOM      6  C5  UNL d   1      -1.761  -0.551   0.672  0.00  0.00     0.034 A 
ATOM      7 Cl   UNL d   1       0.060   1.220  -0.186  0.00  0.00    -0.070 Cl
ATOM      8 Cl1  UNL d   1       2.209  -1.172   0.322  0.00  0.00    -0.070 Cl
ENDROOT
TORSDOF 0
ENDMDL
