MODEL 1
REMARK minimizedAffinity -3.48563528
REMARK minimizedRMSD -1
REMARK  0 active torsions:
REMARK  status: ('A' for Active; 'I' for Inactive)
ROOT
ATOM      1  C   UNL d   1      -1.966  -1.933  -0.183  0.00  0.00     0.020 A 
ATOM      2  C1  UNL d   1      -1.350  -2.642   0.848  0.00  0.00     0.020 A 
ATOM      3  C2  UNL d   1      -0.069  -2.284   1.273  0.00  0.00     0.034 A 
ATOM      4  C3  UNL d   1       0.601  -1.216   0.666  0.00  0.00     0.017 A 
ATOM      5  C4  UNL d   1      -0.017  -0.506  -0.369  0.00  0.00     0.017 A 
ATOM      6  C5  UNL d   1      -1.300  -0.868  -0.790  0.00  0.00     0.034 A 
ATOM      7 Cl   UNL d   1       0.747   0.824  -1.166  0.00  0.00    -0.070 Cl
ATOM      8 Cl1  UNL d   1       2.184  -0.829   1.242  0.00  0.00    -0.070 Cl
ENDROOT
TORSDOF 0
ENDMDL
