MODEL 1
REMARK minimizedAffinity -0.927568495
REMARK minimizedRMSD -1
REMARK  0 active torsions:
REMARK  status: ('A' for Active; 'I' for Inactive)
ROOT
ATOM      1  C   UNL d   1       0.867   1.045  -0.521  0.00  0.00     0.020 A 
ATOM      2  C1  UNL d   1       1.259  -0.289  -0.417  0.00  0.00     0.020 A 
ATOM      3  C2  UNL d   1       0.372  -1.240   0.090  0.00  0.00     0.034 A 
ATOM      4  C3  UNL d   1      -0.913  -0.859   0.495  0.00  0.00     0.017 A 
ATOM      5  C4  UNL d   1      -1.306   0.480   0.391  0.00  0.00     0.017 A 
ATOM      6  C5  UNL d   1      -0.413   1.428  -0.118  0.00  0.00     0.034 A 
ATOM      7 Cl   UNL d   1      -2.874   1.026   0.871  0.00  0.00    -0.070 Cl
ATOM      8 Cl1  UNL d   1      -1.958  -2.089   1.112  0.00  0.00    -0.070 Cl
ENDROOT
TORSDOF 0
ENDMDL
