MODEL 1
REMARK minimizedAffinity -5.93693924
REMARK minimizedRMSD -1
REMARK  0 active torsions:
REMARK  status: ('A' for Active; 'I' for Inactive)
ROOT
ATOM      1  C   UNL d   1      -2.644  -0.555   1.983  0.00  0.00     0.020 A 
ATOM      2  C1  UNL d   1      -2.182  -1.867   2.078  0.00  0.00     0.020 A 
ATOM      3  C2  UNL d   1      -0.935  -2.208   1.549  0.00  0.00     0.034 A 
ATOM      4  C3  UNL d   1      -0.147  -1.236   0.922  0.00  0.00     0.017 A 
ATOM      5  C4  UNL d   1      -0.612   0.080   0.827  0.00  0.00     0.017 A 
ATOM      6  C5  UNL d   1      -1.861   0.416   1.359  0.00  0.00     0.034 A 
ATOM      7 Cl   UNL d   1       0.305   1.335   0.069  0.00  0.00    -0.070 Cl
ATOM      8 Cl1  UNL d   1       1.385  -1.728   0.291  0.00  0.00    -0.070 Cl
ENDROOT
TORSDOF 0
ENDMDL
