MODEL 1
REMARK minimizedAffinity -3.44271588
REMARK minimizedRMSD -1
REMARK  0 active torsions:
REMARK  status: ('A' for Active; 'I' for Inactive)
ROOT
ATOM      1  C   UNL d   1      -2.108  -1.146   0.751  0.00  0.00     0.020 A 
ATOM      2  C1  UNL d   1      -1.388  -2.186   1.337  0.00  0.00     0.020 A 
ATOM      3  C2  UNL d   1       0.009  -2.167   1.317  0.00  0.00     0.034 A 
ATOM      4  C3  UNL d   1       0.689  -1.105   0.710  0.00  0.00     0.017 A 
ATOM      5  C4  UNL d   1      -0.034  -0.061   0.123  0.00  0.00     0.017 A 
ATOM      6  C5  UNL d   1      -1.432  -0.085   0.145  0.00  0.00     0.034 A 
ATOM      7 Cl   UNL d   1       0.735   1.283  -0.645  0.00  0.00    -0.070 Cl
ATOM      8 Cl1  UNL d   1       2.417  -1.145   0.723  0.00  0.00    -0.070 Cl
ENDROOT
TORSDOF 0
ENDMDL
