MODEL 1
REMARK minimizedAffinity 7.92861032
REMARK minimizedRMSD -1
REMARK  1 active torsions:
REMARK  status: ('A' for Active; 'I' for Inactive)
REMARK    1  A    between atoms: C1_2  and  C2_3 
ROOT
ATOM      1  C2  UNL d   1       1.132   3.868  -3.730  0.00  0.00    -0.073 A 
ATOM      2  C3  UNL d   1       2.151   4.485  -4.465  0.00  0.00    -0.002 A 
ATOM      3  C4  UNL d   1       1.844   5.243  -5.596  0.00  0.00     0.004 A 
ATOM      4  C5  UNL d   1       0.518   5.397  -5.999  0.00  0.00    -0.004 A 
ATOM      5  C6  UNL d   1      -0.515   4.798  -5.271  0.00  0.00    -0.075 A 
ATOM      6  C7  UNL d   1      -1.946   4.953  -5.693  0.00  0.00     0.076 C 
ATOM      7  C8  UNL d   1      -0.199   4.036  -4.138  0.00  0.00     0.001 A 
ENDROOT
BRANCH   1   8
ATOM      8  C1  UNL d   1       1.458   3.054  -2.504  0.00  0.00     0.053 C 
ATOM      9  C   UNL d   1       2.540   2.021  -2.777  0.00  0.00     0.018 C 
ENDBRANCH   1   8
TORSDOF 1
ENDMDL
