MODEL 1
REMARK minimizedAffinity 10.4610319
REMARK minimizedRMSD -1
REMARK  1 active torsions:
REMARK  status: ('A' for Active; 'I' for Inactive)
REMARK    1  A    between atoms: C1_2  and  C2_3 
ROOT
ATOM      1  C2  UNL d   1       1.966  -4.710  -2.876  0.00  0.00    -0.073 A 
ATOM      2  C3  UNL d   1       0.881  -3.926  -3.283  0.00  0.00    -0.002 A 
ATOM      3  C4  UNL d   1       0.534  -2.777  -2.570  0.00  0.00     0.004 A 
ATOM      4  C5  UNL d   1       1.271  -2.398  -1.449  0.00  0.00    -0.004 A 
ATOM      5  C6  UNL d   1       2.366  -3.163  -1.033  0.00  0.00    -0.075 A 
ATOM      6  C7  UNL d   1       3.168  -2.770   0.173  0.00  0.00     0.076 C 
ATOM      7  C8  UNL d   1       2.707  -4.316  -1.752  0.00  0.00     0.001 A 
ENDROOT
BRANCH   1   8
ATOM      8  C1  UNL d   1       2.348  -5.948  -3.646  0.00  0.00     0.053 C 
ATOM      9  C   UNL d   1       1.678  -6.000  -5.010  0.00  0.00     0.018 C 
ENDBRANCH   1   8
TORSDOF 1
ENDMDL
