MODEL 1
REMARK minimizedAffinity 8.64713287
REMARK minimizedRMSD -1
REMARK  1 active torsions:
REMARK  status: ('A' for Active; 'I' for Inactive)
REMARK    1  A    between atoms: C1_2  and  C2_3 
ROOT
ATOM      1  C2  UNL d   1       2.174   1.972   2.604  0.00  0.00    -0.073 A 
ATOM      2  C3  UNL d   1       2.265   1.855   3.995  0.00  0.00    -0.002 A 
ATOM      3  C4  UNL d   1       3.127   2.682   4.717  0.00  0.00     0.004 A 
ATOM      4  C5  UNL d   1       3.900   3.637   4.057  0.00  0.00    -0.004 A 
ATOM      5  C6  UNL d   1       3.814   3.778   2.669  0.00  0.00    -0.075 A 
ATOM      6  C7  UNL d   1       4.640   4.799   1.944  0.00  0.00     0.076 C 
ATOM      7  C8  UNL d   1       2.948   2.942   1.950  0.00  0.00     0.001 A 
ENDROOT
BRANCH   1   8
ATOM      8  C1  UNL d   1       1.240   1.086   1.820  0.00  0.00     0.053 C 
ATOM      9  C   UNL d   1       1.730  -0.352   1.767  0.00  0.00     0.018 C 
ENDBRANCH   1   8
TORSDOF 1
ENDMDL
