MODEL 1
REMARK minimizedAffinity 0.185865372
REMARK minimizedRMSD -1
REMARK  1 active torsions:
REMARK  status: ('A' for Active; 'I' for Inactive)
REMARK    1  A    between atoms: C1_2  and  C2_3 
ROOT
ATOM      1  C2  UNL d   1      -1.624  -2.682   0.081  0.00  0.00    -0.073 A 
ATOM      2  C3  UNL d   1      -2.745  -3.512  -0.032  0.00  0.00    -0.002 A 
ATOM      3  C4  UNL d   1      -2.976  -4.230  -1.206  0.00  0.00     0.004 A 
ATOM      4  C5  UNL d   1      -2.085  -4.131  -2.275  0.00  0.00    -0.004 A 
ATOM      5  C6  UNL d   1      -0.953  -3.316  -2.177  0.00  0.00    -0.075 A 
ATOM      6  C7  UNL d   1       0.013  -3.197  -3.319  0.00  0.00     0.076 C 
ATOM      7  C8  UNL d   1      -0.730  -2.596  -0.996  0.00  0.00     0.001 A 
ENDROOT
BRANCH   1   8
ATOM      8  C1  UNL d   1      -1.368  -1.909   1.349  0.00  0.00     0.053 C 
ATOM      9  C   UNL d   1      -0.463  -0.710   1.114  0.00  0.00     0.018 C 
ENDBRANCH   1   8
TORSDOF 1
ENDMDL
