MODEL 1
REMARK minimizedAffinity 3.67434454
REMARK minimizedRMSD -1
REMARK  1 active torsions:
REMARK  status: ('A' for Active; 'I' for Inactive)
REMARK    1  A    between atoms: C1_2  and  C2_3 
ROOT
ATOM      1  C2  UNL d   1      -3.957   5.221  -4.722  0.00  0.00    -0.073 A 
ATOM      2  C3  UNL d   1      -3.417   4.829  -5.952  0.00  0.00    -0.002 A 
ATOM      3  C4  UNL d   1      -2.224   4.106  -6.000  0.00  0.00     0.004 A 
ATOM      4  C5  UNL d   1      -1.564   3.762  -4.820  0.00  0.00    -0.004 A 
ATOM      5  C6  UNL d   1      -2.094   4.135  -3.581  0.00  0.00    -0.075 A 
ATOM      6  C7  UNL d   1      -1.395   3.774  -2.303  0.00  0.00     0.076 C 
ATOM      7  C8  UNL d   1      -3.291   4.863  -3.541  0.00  0.00     0.001 A 
ENDROOT
BRANCH   1   8
ATOM      8  C1  UNL d   1      -5.248   5.996  -4.665  0.00  0.00     0.053 C 
ATOM      9  C   UNL d   1      -6.000   5.949  -5.986  0.00  0.00     0.018 C 
ENDBRANCH   1   8
TORSDOF 1
ENDMDL
