MODEL 1
REMARK minimizedAffinity 2.23214078
REMARK minimizedRMSD -1
REMARK  1 active torsions:
REMARK  status: ('A' for Active; 'I' for Inactive)
REMARK    1  A    between atoms: C1_2  and  C2_3 
ROOT
ATOM      1  C2  UNL d   1       0.189   1.999   0.906  0.00  0.00    -0.073 A 
ATOM      2  C3  UNL d   1       0.492   0.690   1.297  0.00  0.00    -0.002 A 
ATOM      3  C4  UNL d   1      -0.526  -0.252   1.455  0.00  0.00     0.004 A 
ATOM      4  C5  UNL d   1      -1.854   0.103   1.218  0.00  0.00    -0.004 A 
ATOM      5  C6  UNL d   1      -2.175   1.403   0.815  0.00  0.00    -0.075 A 
ATOM      6  C7  UNL d   1      -3.599   1.802   0.558  0.00  0.00     0.076 C 
ATOM      7  C8  UNL d   1      -1.148   2.344   0.661  0.00  0.00     0.001 A 
ENDROOT
BRANCH   1   8
ATOM      8  C1  UNL d   1       1.285   3.018   0.728  0.00  0.00     0.053 C 
ATOM      9  C   UNL d   1       0.942   4.043  -0.341  0.00  0.00     0.018 C 
ENDBRANCH   1   8
TORSDOF 1
ENDMDL
