MODEL 1
REMARK minimizedAffinity 7.48624229
REMARK minimizedRMSD -1
REMARK  1 active torsions:
REMARK  status: ('A' for Active; 'I' for Inactive)
REMARK    1  A    between atoms: C1_2  and  C2_3 
ROOT
ATOM      1  C2  UNL d   1      -4.109   0.251   2.655  0.00  0.00    -0.073 A 
ATOM      2  C3  UNL d   1      -4.757   0.895   1.595  0.00  0.00    -0.002 A 
ATOM      3  C4  UNL d   1      -4.021   1.419   0.532  0.00  0.00     0.004 A 
ATOM      4  C5  UNL d   1      -2.631   1.300   0.514  0.00  0.00    -0.004 A 
ATOM      5  C6  UNL d   1      -1.966   0.650   1.559  0.00  0.00    -0.075 A 
ATOM      6  C7  UNL d   1      -0.471   0.515   1.556  0.00  0.00     0.076 C 
ATOM      7  C8  UNL d   1      -2.712   0.128   2.624  0.00  0.00     0.001 A 
ENDROOT
BRANCH   1   8
ATOM      8  C1  UNL d   1      -4.900  -0.322   3.802  0.00  0.00     0.053 C 
ATOM      9  C   UNL d   1      -4.479  -1.746   4.129  0.00  0.00     0.018 C 
ENDBRANCH   1   8
TORSDOF 1
ENDMDL
