MODEL 1
REMARK minimizedAffinity 9.14898968
REMARK minimizedRMSD -1
REMARK  1 active torsions:
REMARK  status: ('A' for Active; 'I' for Inactive)
REMARK    1  A    between atoms: C1_2  and  C2_3 
ROOT
ATOM      1  C2  UNL d   1       4.260   3.897   4.067  0.00  0.00    -0.073 A 
ATOM      2  C3  UNL d   1       4.721   4.675   2.999  0.00  0.00    -0.002 A 
ATOM      3  C4  UNL d   1       4.128   4.567   1.740  0.00  0.00     0.004 A 
ATOM      4  C5  UNL d   1       3.065   3.686   1.539  0.00  0.00    -0.004 A 
ATOM      5  C6  UNL d   1       2.583   2.909   2.597  0.00  0.00    -0.075 A 
ATOM      6  C7  UNL d   1       1.442   1.955   2.396  0.00  0.00     0.076 C 
ATOM      7  C8  UNL d   1       3.186   3.022   3.857  0.00  0.00     0.001 A 
ENDROOT
BRANCH   1   8
ATOM      8  C1  UNL d   1       4.894   4.016   5.429  0.00  0.00     0.053 C 
ATOM      9  C   UNL d   1       5.998   2.991   5.635  0.00  0.00     0.018 C 
ENDBRANCH   1   8
TORSDOF 1
ENDMDL
