MODEL 1
REMARK minimizedAffinity 4.0045476
REMARK minimizedRMSD -1
REMARK  1 active torsions:
REMARK  status: ('A' for Active; 'I' for Inactive)
REMARK    1  A    between atoms: C1_2  and  C2_3 
ROOT
ATOM      1  C2  UNL d   1      -3.094  -0.408   2.173  0.00  0.00    -0.073 A 
ATOM      2  C3  UNL d   1      -2.358  -1.598   2.143  0.00  0.00    -0.002 A 
ATOM      3  C4  UNL d   1      -2.768  -2.700   2.895  0.00  0.00     0.004 A 
ATOM      4  C5  UNL d   1      -3.919  -2.625   3.678  0.00  0.00    -0.004 A 
ATOM      5  C6  UNL d   1      -4.674  -1.449   3.713  0.00  0.00    -0.075 A 
ATOM      6  C7  UNL d   1      -5.914  -1.352   4.552  0.00  0.00     0.076 C 
ATOM      7  C8  UNL d   1      -4.255  -0.346   2.957  0.00  0.00     0.001 A 
ENDROOT
BRANCH   1   8
ATOM      8  C1  UNL d   1      -2.659   0.782   1.358  0.00  0.00     0.053 C 
ATOM      9  C   UNL d   1      -3.812   1.389   0.575  0.00  0.00     0.018 C 
ENDBRANCH   1   8
TORSDOF 1
ENDMDL
