MODEL 1
REMARK minimizedAffinity 14.2602158
REMARK minimizedRMSD -1
REMARK  1 active torsions:
REMARK  status: ('A' for Active; 'I' for Inactive)
REMARK    1  A    between atoms: C1_2  and  C2_3 
ROOT
ATOM      1  C2  UNL d   1       4.157   3.876   4.271  0.00  0.00    -0.073 A 
ATOM      2  C3  UNL d   1       4.627   4.560   3.144  0.00  0.00    -0.002 A 
ATOM      3  C4  UNL d   1       3.996   4.400   1.910  0.00  0.00     0.004 A 
ATOM      4  C5  UNL d   1       2.887   3.563   1.790  0.00  0.00    -0.004 A 
ATOM      5  C6  UNL d   1       2.396   2.880   2.908  0.00  0.00    -0.075 A 
ATOM      6  C7  UNL d   1       1.205   1.973   2.796  0.00  0.00     0.076 C 
ATOM      7  C8  UNL d   1       3.036   3.043   4.144  0.00  0.00     0.001 A 
ENDROOT
BRANCH   1   8
ATOM      8  C1  UNL d   1       4.830   4.050   5.608  0.00  0.00     0.053 C 
ATOM      9  C   UNL d   1       5.999   3.093   5.786  0.00  0.00     0.018 C 
ENDBRANCH   1   8
TORSDOF 1
ENDMDL
