MODEL 1
REMARK minimizedAffinity 6.57379532
REMARK minimizedRMSD -1
REMARK  1 active torsions:
REMARK  status: ('A' for Active; 'I' for Inactive)
REMARK    1  A    between atoms: C1_2  and  C2_3 
ROOT
ATOM      1  C2  UNL d   1      -1.448  -0.273   2.462  0.00  0.00    -0.073 A 
ATOM      2  C3  UNL d   1      -0.885  -1.522   2.175  0.00  0.00    -0.002 A 
ATOM      3  C4  UNL d   1      -1.589  -2.694   2.453  0.00  0.00     0.004 A 
ATOM      4  C5  UNL d   1      -2.865  -2.630   3.014  0.00  0.00    -0.004 A 
ATOM      5  C6  UNL d   1      -3.450  -1.391   3.297  0.00  0.00    -0.075 A 
ATOM      6  C7  UNL d   1      -4.820  -1.306   3.902  0.00  0.00     0.076 C 
ATOM      7  C8  UNL d   1      -2.735  -0.219   3.017  0.00  0.00     0.001 A 
ENDROOT
BRANCH   1   8
ATOM      8  C1  UNL d   1      -0.694   0.995   2.158  0.00  0.00     0.053 C 
ATOM      9  C   UNL d   1      -0.301   1.086   0.692  0.00  0.00     0.018 C 
ENDBRANCH   1   8
TORSDOF 1
ENDMDL
