MODEL 1
REMARK minimizedAffinity -4.63928127
REMARK minimizedRMSD -1
REMARK  2 active torsions:
REMARK  status: ('A' for Active; 'I' for Inactive)
REMARK    1  A    between atoms: C1_2  and  C2_3 
REMARK    2  A    between atoms: C2_3  and  C3_4 
ROOT
ATOM      1  C3  UNL d   1       0.114   0.017  -0.849  0.00  0.00    -0.075 A 
ATOM      2  C4  UNL d   1       0.421   1.219  -0.196  0.00  0.00     0.002 A 
ATOM      3  C5  UNL d   1       1.428   1.264   0.769  0.00  0.00     0.002 A 
ATOM      4  C6  UNL d   1       2.132   0.109   1.100  0.00  0.00    -0.004 A 
ATOM      5  C7  UNL d   1       1.825  -1.095   0.469  0.00  0.00     0.002 A 
ATOM      6  C8  UNL d   1       0.821  -1.142  -0.500  0.00  0.00     0.002 A 
ENDROOT
BRANCH   1   7
ATOM      7  C2  UNL d   1      -0.954  -0.033  -1.915  0.00  0.00     0.056 C 
BRANCH   7   8
ATOM      8  C1  UNL d   1      -0.632  -0.978  -3.078  0.00  0.00     0.007 C 
ATOM      9  C   UNL d   1      -1.013  -0.408  -4.438  0.00  0.00     0.009 C 
ENDBRANCH   7   8
ENDBRANCH   1   7
TORSDOF 2
ENDMDL
