MODEL 1
REMARK minimizedAffinity 2.29515743
REMARK minimizedRMSD -1
REMARK  2 active torsions:
REMARK  status: ('A' for Active; 'I' for Inactive)
REMARK    1  A    between atoms: C1_2  and  C2_3 
REMARK    2  A    between atoms: C2_3  and  C3_4 
ROOT
ATOM      1  C3  UNL d   1      -1.217  -2.985  -3.831  0.00  0.00    -0.075 A 
ATOM      2  C4  UNL d   1      -1.208  -1.723  -3.218  0.00  0.00     0.002 A 
ATOM      3  C5  UNL d   1      -1.220  -0.561  -3.990  0.00  0.00     0.002 A 
ATOM      4  C6  UNL d   1      -1.230  -0.644  -5.380  0.00  0.00    -0.004 A 
ATOM      5  C7  UNL d   1      -1.223  -1.892  -6.000  0.00  0.00     0.002 A 
ATOM      6  C8  UNL d   1      -1.215  -3.057  -5.230  0.00  0.00     0.002 A 
ENDROOT
BRANCH   1   7
ATOM      7  C2  UNL d   1      -1.234  -4.246  -3.001  0.00  0.00     0.056 C 
BRANCH   7   8
ATOM      8  C1  UNL d   1      -0.458  -4.137  -1.684  0.00  0.00     0.007 C 
ATOM      9  C   UNL d   1      -0.085  -5.490  -1.093  0.00  0.00     0.009 C 
ENDBRANCH   7   8
ENDBRANCH   1   7
TORSDOF 2
ENDMDL
