MODEL 1
REMARK minimizedAffinity -1.26132667
REMARK minimizedRMSD -1
REMARK  2 active torsions:
REMARK  status: ('A' for Active; 'I' for Inactive)
REMARK    1  A    between atoms: C1_2  and  C2_3 
REMARK    2  A    between atoms: C2_3  and  C3_4 
ROOT
ATOM      1  C3  UNL d   1       0.013  -1.280  -1.007  0.00  0.00    -0.075 A 
ATOM      2  C4  UNL d   1       1.380  -1.498  -0.781  0.00  0.00     0.002 A 
ATOM      3  C5  UNL d   1       2.041  -0.838   0.255  0.00  0.00     0.002 A 
ATOM      4  C6  UNL d   1       1.349   0.054   1.070  0.00  0.00    -0.004 A 
ATOM      5  C7  UNL d   1      -0.005   0.291   0.845  0.00  0.00     0.002 A 
ATOM      6  C8  UNL d   1      -0.671  -0.371  -0.188  0.00  0.00     0.002 A 
ENDROOT
BRANCH   1   7
ATOM      7  C2  UNL d   1      -0.716  -2.013  -2.108  0.00  0.00     0.056 C 
BRANCH   7   8
ATOM      8  C1  UNL d   1      -1.245  -1.102  -3.220  0.00  0.00     0.007 C 
ATOM      9  C   UNL d   1      -1.204  -1.749  -4.597  0.00  0.00     0.009 C 
ENDBRANCH   7   8
ENDBRANCH   1   7
TORSDOF 2
ENDMDL
