MODEL 1
REMARK minimizedAffinity -3.80470085
REMARK minimizedRMSD -1
REMARK  2 active torsions:
REMARK  status: ('A' for Active; 'I' for Inactive)
REMARK    1  A    between atoms: C1_2  and  C2_3 
REMARK    2  A    between atoms: C2_3  and  C3_4 
ROOT
ATOM      1  C3  UNL d   1      -0.753  -0.382  -1.610  0.00  0.00    -0.075 A 
ATOM      2  C4  UNL d   1       0.116  -1.482  -1.570  0.00  0.00     0.002 A 
ATOM      3  C5  UNL d   1       1.128  -1.552  -0.612  0.00  0.00     0.002 A 
ATOM      4  C6  UNL d   1       1.289  -0.520   0.310  0.00  0.00    -0.004 A 
ATOM      5  C7  UNL d   1       0.443   0.585   0.269  0.00  0.00     0.002 A 
ATOM      6  C8  UNL d   1      -0.573   0.655  -0.686  0.00  0.00     0.002 A 
ENDROOT
BRANCH   1   7
ATOM      7  C2  UNL d   1      -1.868  -0.315  -2.626  0.00  0.00     0.056 C 
BRANCH   7   8
ATOM      8  C1  UNL d   1      -1.404  -0.502  -4.075  0.00  0.00     0.007 C 
ATOM      9  C   UNL d   1      -1.600  -1.922  -4.589  0.00  0.00     0.009 C 
ENDBRANCH   7   8
ENDBRANCH   1   7
TORSDOF 2
ENDMDL
