MODEL 1
REMARK minimizedAffinity -3.04319501
REMARK minimizedRMSD -1
REMARK  2 active torsions:
REMARK  status: ('A' for Active; 'I' for Inactive)
REMARK    1  A    between atoms: C1_2  and  C2_3 
REMARK    2  A    between atoms: C2_3  and  C3_4 
ROOT
ATOM      1  C3  UNL d   1       0.791  -1.134  -0.639  0.00  0.00    -0.075 A 
ATOM      2  C4  UNL d   1       2.088  -1.660  -0.740  0.00  0.00     0.002 A 
ATOM      3  C5  UNL d   1       3.161  -1.023  -0.118  0.00  0.00     0.002 A 
ATOM      4  C6  UNL d   1       2.955   0.152   0.603  0.00  0.00    -0.004 A 
ATOM      5  C7  UNL d   1       1.675   0.692   0.696  0.00  0.00     0.002 A 
ATOM      6  C8  UNL d   1       0.598   0.054   0.078  0.00  0.00     0.002 A 
ENDROOT
BRANCH   1   7
ATOM      7  C2  UNL d   1      -0.379  -1.835  -1.286  0.00  0.00     0.056 C 
BRANCH   7   8
ATOM      8  C1  UNL d   1      -1.186  -0.949  -2.242  0.00  0.00     0.007 C 
ATOM      9  C   UNL d   1      -1.581  -1.661  -3.529  0.00  0.00     0.009 C 
ENDBRANCH   7   8
ENDBRANCH   1   7
TORSDOF 2
ENDMDL
