MODEL 1
REMARK minimizedAffinity -1.03893411
REMARK minimizedRMSD -1
REMARK  2 active torsions:
REMARK  status: ('A' for Active; 'I' for Inactive)
REMARK    1  A    between atoms: C1_2  and  C2_3 
REMARK    2  A    between atoms: C2_3  and  C3_4 
ROOT
ATOM      1  C3  UNL d   1      -1.015   0.932   0.532  0.00  0.00    -0.075 A 
ATOM      2  C4  UNL d   1      -0.756  -0.443   0.628  0.00  0.00     0.002 A 
ATOM      3  C5  UNL d   1       0.545  -0.930   0.494  0.00  0.00     0.002 A 
ATOM      4  C6  UNL d   1       1.599  -0.052   0.252  0.00  0.00    -0.004 A 
ATOM      5  C7  UNL d   1       1.351   1.314   0.138  0.00  0.00     0.002 A 
ATOM      6  C8  UNL d   1       0.051   1.804   0.277  0.00  0.00     0.002 A 
ENDROOT
BRANCH   1   7
ATOM      7  C2  UNL d   1      -2.416   1.468   0.706  0.00  0.00     0.056 C 
BRANCH   7   8
ATOM      8  C1  UNL d   1      -2.479   2.979   0.949  0.00  0.00     0.007 C 
ATOM      9  C   UNL d   1      -3.259   3.353   2.203  0.00  0.00     0.009 C 
ENDBRANCH   7   8
ENDBRANCH   1   7
TORSDOF 2
ENDMDL
