MODEL 1
REMARK minimizedAffinity 3.21717405
REMARK minimizedRMSD -1
REMARK  0 active torsions:
REMARK  status: ('A' for Active; 'I' for Inactive)
ROOT
ATOM      1  N1  IND d   1       3.974   5.601  -4.774  0.00  0.00    -0.196 N 
ATOM      2  C2  IND d   1       3.434   5.999  -5.965  0.00  0.00     0.054 A 
ATOM      3  C3  IND d   1       2.112   5.718  -6.000  0.00  0.00    -0.031 A 
ATOM      4  C4  IND d   1       0.609   4.698  -4.176  0.00  0.00     0.051 A 
ATOM      5  C5  IND d   1       0.655   4.140  -2.929  0.00  0.00    -0.031 A 
ATOM      6  C6  IND d   1       1.834   4.041  -2.218  0.00  0.00     0.015 A 
ATOM      7  C7  IND d   1       3.013   4.508  -2.725  0.00  0.00    -0.016 A 
ATOM      8  C8  IND d   1       2.971   5.069  -3.994  0.00  0.00    -0.047 A 
ATOM      9  C9  IND d   1       1.786   5.134  -4.737  0.00  0.00    -0.096 A 
ATOM     10  HN1 IND d   1       4.801   5.671  -4.550  0.00  0.00     0.298 HD
ENDROOT
TORSDOF 0
ENDMDL
