MODEL 1
REMARK minimizedAffinity 12.2764378
REMARK minimizedRMSD -1
REMARK  0 active torsions:
REMARK  status: ('A' for Active; 'I' for Inactive)
ROOT
ATOM      1  N1  IND d   1      -2.990  -1.435  -2.168  0.00  0.00    -0.196 N 
ATOM      2  C2  IND d   1      -2.320  -2.167  -3.108  0.00  0.00     0.054 A 
ATOM      3  C3  IND d   1      -1.178  -2.669  -2.587  0.00  0.00    -0.031 A 
ATOM      4  C4  IND d   1      -0.262  -2.499  -0.188  0.00  0.00     0.051 A 
ATOM      5  C5  IND d   1      -0.504  -1.903   1.018  0.00  0.00    -0.031 A 
ATOM      6  C6  IND d   1      -1.611  -1.106   1.228  0.00  0.00     0.015 A 
ATOM      7  C7  IND d   1      -2.527  -0.884   0.239  0.00  0.00    -0.016 A 
ATOM      8  C8  IND d   1      -2.281  -1.483  -0.988  0.00  0.00    -0.047 A 
ATOM      9  C9  IND d   1      -1.137  -2.257  -1.220  0.00  0.00    -0.096 A 
ATOM     10  HN1 IND d   1      -3.730  -1.015  -2.293  0.00  0.00     0.298 HD
ENDROOT
TORSDOF 0
ENDMDL
