MODEL 1
REMARK minimizedAffinity -1.32419062
REMARK minimizedRMSD -1
REMARK  0 active torsions:
REMARK  status: ('A' for Active; 'I' for Inactive)
ROOT
ATOM      1  N1  IND d   1       5.681   1.435  -1.162  0.00  0.00    -0.196 N 
ATOM      2  C2  IND d   1       5.611   2.377  -2.151  0.00  0.00     0.054 A 
ATOM      3  C3  IND d   1       4.577   3.218  -1.926  0.00  0.00    -0.031 A 
ATOM      4  C4  IND d   1       2.932   3.297   0.052  0.00  0.00     0.051 A 
ATOM      5  C5  IND d   1       2.576   2.619   1.185  0.00  0.00    -0.031 A 
ATOM      6  C6  IND d   1       3.252   1.491   1.602  0.00  0.00     0.015 A 
ATOM      7  C7  IND d   1       4.322   1.003   0.906  0.00  0.00    -0.016 A 
ATOM      8  C8  IND d   1       4.682   1.684  -0.248  0.00  0.00    -0.047 A 
ATOM      9  C9  IND d   1       3.973   2.805  -0.700  0.00  0.00    -0.096 A 
ATOM     10  HN1 IND d   1       6.254   0.795  -1.119  0.00  0.00     0.298 HD
ENDROOT
TORSDOF 0
ENDMDL
