MODEL 1
REMARK minimizedAffinity 7.26482391
REMARK minimizedRMSD -1
REMARK  0 active torsions:
REMARK  status: ('A' for Active; 'I' for Inactive)
ROOT
ATOM      1  N1  IND d   1       1.238  -0.738   4.866  0.00  0.00    -0.196 N 
ATOM      2  C2  IND d   1       0.003  -0.300   4.479  0.00  0.00     0.054 A 
ATOM      3  C3  IND d   1       0.030   0.103   3.188  0.00  0.00    -0.031 A 
ATOM      4  C4  IND d   1       1.967   0.036   1.495  0.00  0.00     0.051 A 
ATOM      5  C5  IND d   1       3.300  -0.248   1.393  0.00  0.00    -0.031 A 
ATOM      6  C6  IND d   1       4.028  -0.723   2.466  0.00  0.00     0.015 A 
ATOM      7  C7  IND d   1       3.445  -0.942   3.681  0.00  0.00    -0.016 A 
ATOM      8  C8  IND d   1       2.093  -0.648   3.790  0.00  0.00    -0.047 A 
ATOM      9  C9  IND d   1       1.359  -0.126   2.717  0.00  0.00    -0.096 A 
ATOM     10  HN1 IND d   1       1.446  -1.023   5.650  0.00  0.00     0.298 HD
ENDROOT
TORSDOF 0
ENDMDL
