MODEL 1
REMARK minimizedAffinity 17.7613258
REMARK minimizedRMSD -1
REMARK  0 active torsions:
REMARK  status: ('A' for Active; 'I' for Inactive)
ROOT
ATOM      1  N1  IND d   1      -2.952  -3.370  -5.231  0.00  0.00    -0.196 N 
ATOM      2  C2  IND d   1      -1.973  -2.801  -5.996  0.00  0.00     0.054 A 
ATOM      3  C3  IND d   1      -1.230  -1.950  -5.253  0.00  0.00    -0.031 A 
ATOM      4  C4  IND d   1      -1.380  -1.415  -2.740  0.00  0.00     0.051 A 
ATOM      5  C5  IND d   1      -2.138  -1.661  -1.629  0.00  0.00    -0.031 A 
ATOM      6  C6  IND d   1      -3.226  -2.509  -1.663  0.00  0.00     0.015 A 
ATOM      7  C7  IND d   1      -3.592  -3.154  -2.810  0.00  0.00    -0.016 A 
ATOM      8  C8  IND d   1      -2.829  -2.900  -3.941  0.00  0.00    -0.047 A 
ATOM      9  C9  IND d   1      -1.749  -2.008  -3.924  0.00  0.00    -0.096 A 
ATOM     10  HN1 IND d   1      -3.545  -3.927  -5.508  0.00  0.00     0.298 HD
ENDROOT
TORSDOF 0
ENDMDL
