MODEL 1
REMARK minimizedAffinity -2.37205267
REMARK minimizedRMSD -1
REMARK  0 active torsions:
REMARK  status: ('A' for Active; 'I' for Inactive)
ROOT
ATOM      1  N1  IND d   1      -3.885  -4.234  -2.058  0.00  0.00    -0.196 N 
ATOM      2  C2  IND d   1      -3.961  -3.694  -0.805  0.00  0.00     0.054 A 
ATOM      3  C3  IND d   1      -3.225  -2.562  -0.735  0.00  0.00    -0.031 A 
ATOM      4  C4  IND d   1      -1.897  -1.359  -2.584  0.00  0.00     0.051 A 
ATOM      5  C5  IND d   1      -1.501  -1.490  -3.885  0.00  0.00    -0.031 A 
ATOM      6  C6  IND d   1      -1.890  -2.564  -4.661  0.00  0.00     0.015 A 
ATOM      7  C7  IND d   1      -2.701  -3.544  -4.164  0.00  0.00    -0.016 A 
ATOM      8  C8  IND d   1      -3.100  -3.417  -2.841  0.00  0.00    -0.047 A 
ATOM      9  C9  IND d   1      -2.674  -2.352  -2.037  0.00  0.00    -0.096 A 
ATOM     10  HN1 IND d   1      -4.264  -4.963  -2.314  0.00  0.00     0.298 HD
ENDROOT
TORSDOF 0
ENDMDL
