MODEL 1
REMARK minimizedAffinity 8.0952673
REMARK minimizedRMSD -1
REMARK  0 active torsions:
REMARK  status: ('A' for Active; 'I' for Inactive)
ROOT
ATOM      1  N1  IND d   1       0.756   3.780  -3.401  0.00  0.00    -0.196 N 
ATOM      2  C2  IND d   1       0.365   4.953  -2.819  0.00  0.00     0.054 A 
ATOM      3  C3  IND d   1       1.072   5.989  -3.324  0.00  0.00    -0.031 A 
ATOM      4  C4  IND d   1       2.849   6.000  -5.187  0.00  0.00     0.051 A 
ATOM      5  C5  IND d   1       3.568   5.164  -5.995  0.00  0.00    -0.031 A 
ATOM      6  C6  IND d   1       3.380   3.797  -5.982  0.00  0.00     0.015 A 
ATOM      7  C7  IND d   1       2.454   3.213  -5.164  0.00  0.00    -0.016 A 
ATOM      8  C8  IND d   1       1.728   4.058  -4.336  0.00  0.00    -0.047 A 
ATOM      9  C9  IND d   1       1.944   5.442  -4.315  0.00  0.00    -0.096 A 
ATOM     10  HN1 IND d   1       0.448   3.000  -3.213  0.00  0.00     0.298 HD
ENDROOT
TORSDOF 0
ENDMDL
