MODEL 1
REMARK minimizedAffinity 11.3062153
REMARK minimizedRMSD -1
REMARK  0 active torsions:
REMARK  status: ('A' for Active; 'I' for Inactive)
ROOT
ATOM      1  N1  IND d   1       4.879   1.081  -2.935  0.00  0.00    -0.196 N 
ATOM      2  C2  IND d   1       4.669   1.812  -1.799  0.00  0.00     0.054 A 
ATOM      3  C3  IND d   1       3.748   2.776  -2.023  0.00  0.00    -0.031 A 
ATOM      4  C4  IND d   1       2.383   3.272  -4.148  0.00  0.00     0.051 A 
ATOM      5  C5  IND d   1       2.251   2.896  -5.456  0.00  0.00    -0.031 A 
ATOM      6  C6  IND d   1       3.001   1.874  -6.000  0.00  0.00     0.015 A 
ATOM      7  C7  IND d   1       3.908   1.179  -5.251  0.00  0.00    -0.016 A 
ATOM      8  C8  IND d   1       4.049   1.562  -3.924  0.00  0.00    -0.047 A 
ATOM      9  C9  IND d   1       3.321   2.627  -3.378  0.00  0.00    -0.096 A 
ATOM     10  HN1 IND d   1       5.435   0.431  -3.018  0.00  0.00     0.298 HD
ENDROOT
TORSDOF 0
ENDMDL
