MODEL 1
REMARK minimizedAffinity 4.02341175
REMARK minimizedRMSD -1
REMARK  0 active torsions:
REMARK  status: ('A' for Active; 'I' for Inactive)
ROOT
ATOM      1  N1  IND d   1      -1.416  -0.923  -2.390  0.00  0.00    -0.196 N 
ATOM      2  C2  IND d   1      -1.796  -1.329  -1.142  0.00  0.00     0.054 A 
ATOM      3  C3  IND d   1      -2.538  -2.457  -1.220  0.00  0.00    -0.031 A 
ATOM      4  C4  IND d   1      -3.165  -3.863  -3.283  0.00  0.00     0.051 A 
ATOM      5  C5  IND d   1      -3.077  -3.873  -4.647  0.00  0.00    -0.031 A 
ATOM      6  C6  IND d   1      -2.415  -2.881  -5.342  0.00  0.00     0.015 A 
ATOM      7  C7  IND d   1      -1.804  -1.844  -4.696  0.00  0.00    -0.016 A 
ATOM      8  C8  IND d   1      -1.898  -1.827  -3.311  0.00  0.00    -0.047 A 
ATOM      9  C9  IND d   1      -2.604  -2.808  -2.603  0.00  0.00    -0.096 A 
ATOM     10  HN1 IND d   1      -0.954  -0.220  -2.570  0.00  0.00     0.298 HD
ENDROOT
TORSDOF 0
ENDMDL
