MODEL 1
REMARK minimizedAffinity 6.44675446
REMARK minimizedRMSD -1
REMARK  0 active torsions:
REMARK  status: ('A' for Active; 'I' for Inactive)
ROOT
ATOM      1  N1  IND d   1      -5.499  -2.912  -4.438  0.00  0.00    -0.196 N 
ATOM      2  C2  IND d   1      -5.646  -3.000  -3.082  0.00  0.00     0.054 A 
ATOM      3  C3  IND d   1      -4.507  -3.454  -2.513  0.00  0.00    -0.031 A 
ATOM      4  C4  IND d   1      -2.245  -4.017  -3.607  0.00  0.00     0.051 A 
ATOM      5  C5  IND d   1      -1.635  -4.127  -4.825  0.00  0.00    -0.031 A 
ATOM      6  C6  IND d   1      -2.294  -3.829  -6.000  0.00  0.00     0.015 A 
ATOM      7  C7  IND d   1      -3.591  -3.397  -6.000  0.00  0.00    -0.016 A 
ATOM      8  C8  IND d   1      -4.215  -3.291  -4.765  0.00  0.00    -0.047 A 
ATOM      9  C9  IND d   1      -3.565  -3.632  -3.573  0.00  0.00    -0.096 A 
ATOM     10  HN1 IND d   1      -6.106  -2.662  -4.994  0.00  0.00     0.298 HD
ENDROOT
TORSDOF 0
ENDMDL
