MODEL 1
REMARK minimizedAffinity 8.91739845
REMARK minimizedRMSD -1
REMARK  0 active torsions:
REMARK  status: ('A' for Active; 'I' for Inactive)
ROOT
ATOM      1  N1  IND d   1      -2.247  -2.716   3.615  0.00  0.00    -0.196 N 
ATOM      2  C2  IND d   1      -2.313  -1.354   3.524  0.00  0.00     0.054 A 
ATOM      3  C3  IND d   1      -1.630  -0.921   2.440  0.00  0.00    -0.031 A 
ATOM      4  C4  IND d   1      -0.417  -2.280   0.622  0.00  0.00     0.051 A 
ATOM      5  C5  IND d   1      -0.053  -3.555   0.293  0.00  0.00    -0.031 A 
ATOM      6  C6  IND d   1      -0.412  -4.639   1.069  0.00  0.00     0.015 A 
ATOM      7  C7  IND d   1      -1.160  -4.487   2.201  0.00  0.00    -0.016 A 
ATOM      8  C8  IND d   1      -1.525  -3.192   2.542  0.00  0.00    -0.047 A 
ATOM      9  C9  IND d   1      -1.128  -2.085   1.782  0.00  0.00    -0.096 A 
ATOM     10  HN1 IND d   1      -2.597  -3.195   4.237  0.00  0.00     0.298 HD
ENDROOT
TORSDOF 0
ENDMDL
