MODEL 1
REMARK minimizedAffinity 14.4645338
REMARK minimizedRMSD -1
REMARK  0 active torsions:
REMARK  status: ('A' for Active; 'I' for Inactive)
ROOT
ATOM      1  N1  IND d   1       0.749  -1.825   0.272  0.00  0.00    -0.196 N 
ATOM      2  C2  IND d   1      -0.453  -2.470   0.183  0.00  0.00     0.054 A 
ATOM      3  C3  IND d   1      -1.352  -1.910   1.022  0.00  0.00    -0.031 A 
ATOM      4  C4  IND d   1      -1.097   0.139   2.560  0.00  0.00     0.051 A 
ATOM      5  C5  IND d   1      -0.173   1.039   3.011  0.00  0.00    -0.031 A 
ATOM      6  C6  IND d   1       1.131   1.033   2.560  0.00  0.00     0.015 A 
ATOM      7  C7  IND d   1       1.559   0.129   1.630  0.00  0.00    -0.016 A 
ATOM      8  C8  IND d   1       0.625  -0.792   1.176  0.00  0.00    -0.047 A 
ATOM      9  C9  IND d   1      -0.689  -0.817   1.661  0.00  0.00    -0.096 A 
ATOM     10  HN1 IND d   1       1.462  -2.029  -0.162  0.00  0.00     0.298 HD
ENDROOT
TORSDOF 0
ENDMDL
