MODEL 1
REMARK minimizedAffinity 23.5142212
REMARK minimizedRMSD -1
REMARK  0 active torsions:
REMARK  status: ('A' for Active; 'I' for Inactive)
ROOT
ATOM      1  N1  IND d   1      -3.188  -2.682  -2.352  0.00  0.00    -0.196 N 
ATOM      2  C2  IND d   1      -2.172  -2.250  -1.546  0.00  0.00     0.054 A 
ATOM      3  C3  IND d   1      -1.086  -1.935  -2.286  0.00  0.00    -0.031 A 
ATOM      4  C4  IND d   1      -0.786  -1.954  -4.842  0.00  0.00     0.051 A 
ATOM      5  C5  IND d   1      -1.423  -2.307  -5.999  0.00  0.00    -0.031 A 
ATOM      6  C6  IND d   1      -2.707  -2.811  -5.999  0.00  0.00     0.015 A 
ATOM      7  C7  IND d   1      -3.410  -2.971  -4.839  0.00  0.00    -0.016 A 
ATOM      8  C8  IND d   1      -2.764  -2.619  -3.662  0.00  0.00    -0.047 A 
ATOM      9  C9  IND d   1      -1.446  -2.147  -3.652  0.00  0.00    -0.096 A 
ATOM     10  HN1 IND d   1      -3.961  -2.948  -2.087  0.00  0.00     0.298 HD
ENDROOT
TORSDOF 0
ENDMDL
