MODEL 1
REMARK minimizedAffinity -0.770966828
REMARK minimizedRMSD -1
REMARK  0 active torsions:
REMARK  status: ('A' for Active; 'I' for Inactive)
ROOT
ATOM      1  N1  IND d   1      -5.063  -3.500   0.044  0.00  0.00    -0.196 N 
ATOM      2  C2  IND d   1      -5.692  -4.543  -0.578  0.00  0.00     0.054 A 
ATOM      3  C3  IND d   1      -4.916  -5.036  -1.569  0.00  0.00    -0.031 A 
ATOM      4  C4  IND d   1      -2.538  -4.351  -2.280  0.00  0.00     0.051 A 
ATOM      5  C5  IND d   1      -1.565  -3.424  -2.032  0.00  0.00    -0.031 A 
ATOM      6  C6  IND d   1      -1.710  -2.457  -1.058  0.00  0.00     0.015 A 
ATOM      7  C7  IND d   1      -2.834  -2.388  -0.284  0.00  0.00    -0.016 A 
ATOM      8  C8  IND d   1      -3.827  -3.323  -0.538  0.00  0.00    -0.047 A 
ATOM      9  C9  IND d   1      -3.704  -4.280  -1.554  0.00  0.00    -0.096 A 
ATOM     10  HN1 IND d   1      -5.386  -3.033   0.690  0.00  0.00     0.298 HD
ENDROOT
TORSDOF 0
ENDMDL
