MODEL 1
REMARK minimizedAffinity 5.15861225
REMARK minimizedRMSD -1
REMARK  0 active torsions:
REMARK  status: ('A' for Active; 'I' for Inactive)
ROOT
ATOM      1  N1  IND d   1       1.661   2.210  -6.000  0.00  0.00    -0.196 N 
ATOM      2  C2  IND d   1       2.779   1.511  -5.639  0.00  0.00     0.054 A 
ATOM      3  C3  IND d   1       3.744   2.355  -5.210  0.00  0.00    -0.031 A 
ATOM      4  C4  IND d   1       3.669   4.912  -4.919  0.00  0.00     0.051 A 
ATOM      5  C5  IND d   1       2.874   6.000  -5.151  0.00  0.00    -0.031 A 
ATOM      6  C6  IND d   1       1.608   5.877  -5.686  0.00  0.00     0.015 A 
ATOM      7  C7  IND d   1       1.083   4.656  -6.000  0.00  0.00    -0.016 A 
ATOM      8  C8  IND d   1       1.889   3.550  -5.772  0.00  0.00    -0.047 A 
ATOM      9  C9  IND d   1       3.191   3.671  -5.270  0.00  0.00    -0.096 A 
ATOM     10  HN1 IND d   1       0.937   1.870  -6.316  0.00  0.00     0.298 HD
ENDROOT
TORSDOF 0
ENDMDL
