MODEL 1
REMARK minimizedAffinity 17.8911781
REMARK minimizedRMSD -1
REMARK  0 active torsions:
REMARK  status: ('A' for Active; 'I' for Inactive)
ROOT
ATOM      1  N1  IND d   1       1.191  -0.427   3.377  0.00  0.00    -0.196 N 
ATOM      2  C2  IND d   1       0.092   0.234   3.849  0.00  0.00     0.054 A 
ATOM      3  C3  IND d   1       0.009   1.465   3.296  0.00  0.00    -0.031 A 
ATOM      4  C4  IND d   1       1.511   2.562   1.516  0.00  0.00     0.051 A 
ATOM      5  C5  IND d   1       2.662   2.362   0.806  0.00  0.00    -0.031 A 
ATOM      6  C6  IND d   1       3.394   1.198   0.916  0.00  0.00     0.015 A 
ATOM      7  C7  IND d   1       2.995   0.181   1.737  0.00  0.00    -0.016 A 
ATOM      8  C8  IND d   1       1.831   0.383   2.465  0.00  0.00    -0.047 A 
ATOM      9  C9  IND d   1       1.107   1.580   2.389  0.00  0.00    -0.096 A 
ATOM     10  HN1 IND d   1       1.441  -1.216   3.610  0.00  0.00     0.298 HD
ENDROOT
TORSDOF 0
ENDMDL
