MODEL 1
REMARK minimizedAffinity 2.72889805
REMARK minimizedRMSD -1
REMARK  0 active torsions:
REMARK  status: ('A' for Active; 'I' for Inactive)
ROOT
ATOM      1  N1  IND d   1       3.204   4.985  -5.999  0.00  0.00    -0.196 N 
ATOM      2  C2  IND d   1       3.187   6.000  -5.083  0.00  0.00     0.054 A 
ATOM      3  C3  IND d   1       3.847   5.634  -3.962  0.00  0.00    -0.031 A 
ATOM      4  C4  IND d   1       5.119   3.455  -3.451  0.00  0.00     0.051 A 
ATOM      5  C5  IND d   1       5.385   2.217  -3.965  0.00  0.00    -0.031 A 
ATOM      6  C6  IND d   1       4.931   1.831  -5.210  0.00  0.00     0.015 A 
ATOM      7  C7  IND d   1       4.200   2.677  -5.995  0.00  0.00    -0.016 A 
ATOM      8  C8  IND d   1       3.922   3.933  -5.473  0.00  0.00    -0.047 A 
ATOM      9  C9  IND d   1       4.344   4.314  -4.193  0.00  0.00    -0.096 A 
ATOM     10  HN1 IND d   1       2.830   5.000  -6.772  0.00  0.00     0.298 HD
ENDROOT
TORSDOF 0
ENDMDL
