MODEL 1
REMARK minimizedAffinity 4.03127766
REMARK minimizedRMSD -1
REMARK  0 active torsions:
REMARK  status: ('A' for Active; 'I' for Inactive)
ROOT
ATOM      1  N1  IND d   1      -3.382  -3.238  -4.558  0.00  0.00    -0.196 N 
ATOM      2  C2  IND d   1      -2.086  -2.952  -4.886  0.00  0.00     0.054 A 
ATOM      3  C3  IND d   1      -1.463  -2.342  -3.853  0.00  0.00    -0.031 A 
ATOM      4  C4  IND d   1      -2.349  -1.806  -1.496  0.00  0.00     0.051 A 
ATOM      5  C5  IND d   1      -3.485  -1.845  -0.737  0.00  0.00    -0.031 A 
ATOM      6  C6  IND d   1      -4.668  -2.363  -1.222  0.00  0.00     0.015 A 
ATOM      7  C7  IND d   1      -4.756  -2.875  -2.486  0.00  0.00    -0.016 A 
ATOM      8  C8  IND d   1      -3.607  -2.830  -3.262  0.00  0.00    -0.047 A 
ATOM      9  C9  IND d   1      -2.414  -2.266  -2.789  0.00  0.00    -0.096 A 
ATOM     10  HN1 IND d   1      -3.960  -3.611  -5.075  0.00  0.00     0.298 HD
ENDROOT
TORSDOF 0
ENDMDL
