MODEL 1
REMARK minimizedAffinity -3.44326186
REMARK minimizedRMSD -1
REMARK  2 active torsions:
REMARK  status: ('A' for Active; 'I' for Inactive)
REMARK    1  A    between atoms: C2'_3  and  C1'_4 
REMARK    2  A    between atoms: C1'_4  and  C1_5 
ROOT
ATOM      1  C1  I4B d   1       0.153  -0.019  -0.182  0.00  0.00    -0.075 A 
ATOM      2  C2  I4B d   1      -0.497  -0.866   0.680  0.00  0.00     0.003 A 
ATOM      3  C3  I4B d   1      -1.874  -1.145   0.502  0.00  0.00     0.002 A 
ATOM      4  C4  I4B d   1      -2.568  -0.519  -0.514  0.00  0.00    -0.004 A 
ATOM      5  C5  I4B d   1      -1.902   0.322  -1.400  0.00  0.00     0.002 A 
ATOM      6  C6  I4B d   1      -0.530   0.564  -1.241  0.00  0.00     0.003 A 
ENDROOT
BRANCH   1   7
ATOM      7  C1' I4B d   1       1.600   0.279   0.055  0.00  0.00     0.060 C 
BRANCH   7   8
ATOM      8  C2' I4B d   1       1.721   1.744   0.424  0.00  0.00    -0.013 C 
ATOM      9  C4' I4B d   1       1.656   1.937   1.916  0.00  0.00     0.013 C 
ATOM     10  C3' I4B d   1       3.016   2.256  -0.132  0.00  0.00     0.013 C 
ENDBRANCH   7   8
ENDBRANCH   1   7
TORSDOF 2
ENDMDL
