MODEL 1
REMARK minimizedAffinity -5.0361042
REMARK minimizedRMSD -1
REMARK  2 active torsions:
REMARK  status: ('A' for Active; 'I' for Inactive)
REMARK    1  A    between atoms: C2'_3  and  C1'_4 
REMARK    2  A    between atoms: C1'_4  and  C1_5 
ROOT
ATOM      1  C1  I4B d   1      -1.943  -0.624  -0.181  0.00  0.00    -0.075 A 
ATOM      2  C2  I4B d   1      -0.929  -0.211   0.646  0.00  0.00     0.003 A 
ATOM      3  C3  I4B d   1       0.311   0.203   0.101  0.00  0.00     0.002 A 
ATOM      4  C4  I4B d   1       0.509   0.140  -1.263  0.00  0.00    -0.004 A 
ATOM      5  C5  I4B d   1      -0.528  -0.257  -2.101  0.00  0.00     0.002 A 
ATOM      6  C6  I4B d   1      -1.767  -0.629  -1.559  0.00  0.00     0.003 A 
ENDROOT
BRANCH   1   7
ATOM      7  C1' I4B d   1      -3.228  -1.085   0.430  0.00  0.00     0.060 C 
BRANCH   7   8
ATOM      8  C2' I4B d   1      -3.008  -2.478   0.984  0.00  0.00    -0.013 C 
ATOM      9  C4' I4B d   1      -2.201  -3.322   0.033  0.00  0.00     0.013 C 
ATOM     10  C3' I4B d   1      -2.318  -2.345   2.309  0.00  0.00     0.013 C 
ENDBRANCH   7   8
ENDBRANCH   1   7
TORSDOF 2
ENDMDL
