MODEL 1
REMARK minimizedAffinity -4.5259552
REMARK minimizedRMSD -1
REMARK  2 active torsions:
REMARK  status: ('A' for Active; 'I' for Inactive)
REMARK    1  A    between atoms: C2'_3  and  C1'_4 
REMARK    2  A    between atoms: C1'_4  and  C1_5 
ROOT
ATOM      1  C1  I4B d   1      -0.423  -0.949   0.117  0.00  0.00    -0.075 A 
ATOM      2  C2  I4B d   1      -1.201  -0.408  -0.876  0.00  0.00     0.003 A 
ATOM      3  C3  I4B d   1      -2.567  -0.765  -0.986  0.00  0.00     0.002 A 
ATOM      4  C4  I4B d   1      -3.097  -1.698  -0.119  0.00  0.00    -0.004 A 
ATOM      5  C5  I4B d   1      -2.313  -2.229   0.902  0.00  0.00     0.002 A 
ATOM      6  C6  I4B d   1      -0.971  -1.843   1.028  0.00  0.00     0.003 A 
ENDROOT
BRANCH   1   7
ATOM      7  C1' I4B d   1       1.024  -0.576   0.183  0.00  0.00     0.060 C 
BRANCH   7   8
ATOM      8  C2' I4B d   1       1.112   0.933   0.294  0.00  0.00    -0.013 C 
ATOM      9  C4' I4B d   1       0.995   1.382   1.727  0.00  0.00     0.013 C 
ATOM     10  C3' I4B d   1       2.417   1.366  -0.304  0.00  0.00     0.013 C 
ENDBRANCH   7   8
ENDBRANCH   1   7
TORSDOF 2
ENDMDL
