MODEL 1
REMARK minimizedAffinity -3.66355848
REMARK minimizedRMSD -1
REMARK  2 active torsions:
REMARK  status: ('A' for Active; 'I' for Inactive)
REMARK    1  A    between atoms: C2'_3  and  C1'_4 
REMARK    2  A    between atoms: C1'_4  and  C1_5 
ROOT
ATOM      1  C1  I4B d   1      -1.587  -0.349   0.393  0.00  0.00    -0.075 A 
ATOM      2  C2  I4B d   1      -0.660   0.322  -0.366  0.00  0.00     0.003 A 
ATOM      3  C3  I4B d   1       0.721   0.064  -0.196  0.00  0.00     0.002 A 
ATOM      4  C4  I4B d   1       1.132  -0.829   0.773  0.00  0.00    -0.004 A 
ATOM      5  C5  I4B d   1       0.191  -1.525   1.525  0.00  0.00     0.002 A 
ATOM      6  C6  I4B d   1      -1.178  -1.293   1.326  0.00  0.00     0.003 A 
ENDROOT
BRANCH   1   7
ATOM      7  C1' I4B d   1      -3.036  -0.029   0.211  0.00  0.00     0.060 C 
BRANCH   7   8
ATOM      8  C2' I4B d   1      -3.636  -1.081  -0.699  0.00  0.00    -0.013 C 
ATOM      9  C4' I4B d   1      -2.634  -1.556  -1.718  0.00  0.00     0.013 C 
ATOM     10  C3' I4B d   1      -4.116  -2.215   0.158  0.00  0.00     0.013 C 
ENDBRANCH   7   8
ENDBRANCH   1   7
TORSDOF 2
ENDMDL
