MODEL 1
REMARK minimizedAffinity -5.0240593
REMARK minimizedRMSD -1
REMARK  2 active torsions:
REMARK  status: ('A' for Active; 'I' for Inactive)
REMARK    1  A    between atoms: C2'_3  and  C1'_4 
REMARK    2  A    between atoms: C1'_4  and  C1_5 
ROOT
ATOM      1  C1  I4B d   1       0.384   0.020   0.106  0.00  0.00    -0.075 A 
ATOM      2  C2  I4B d   1      -0.280  -0.784   0.999  0.00  0.00     0.003 A 
ATOM      3  C3  I4B d   1      -1.638  -1.119   0.783  0.00  0.00     0.002 A 
ATOM      4  C4  I4B d   1      -2.304  -0.590  -0.304  0.00  0.00    -0.004 A 
ATOM      5  C5  I4B d   1      -1.623   0.207  -1.220  0.00  0.00     0.002 A 
ATOM      6  C6  I4B d   1      -0.267   0.504  -1.021  0.00  0.00     0.003 A 
ENDROOT
BRANCH   1   7
ATOM      7  C1' I4B d   1       1.810   0.380   0.383  0.00  0.00     0.060 C 
BRANCH   7   8
ATOM      8  C2' I4B d   1       1.869   1.867   0.669  0.00  0.00    -0.013 C 
ATOM      9  C4' I4B d   1       1.845   2.139   2.150  0.00  0.00     0.013 C 
ATOM     10  C3' I4B d   1       3.116   2.411   0.038  0.00  0.00     0.013 C 
ENDBRANCH   7   8
ENDBRANCH   1   7
TORSDOF 2
ENDMDL
