MODEL 1
REMARK minimizedAffinity 0.799858272
REMARK minimizedRMSD -1
REMARK  2 active torsions:
REMARK  status: ('A' for Active; 'I' for Inactive)
REMARK    1  A    between atoms: C2'_3  and  C1'_4 
REMARK    2  A    between atoms: C1'_4  and  C1_5 
ROOT
ATOM      1  C1  I4B d   1       0.848   0.085   0.126  0.00  0.00    -0.075 A 
ATOM      2  C2  I4B d   1      -0.096  -0.730   0.698  0.00  0.00     0.003 A 
ATOM      3  C3  I4B d   1      -1.339  -0.942   0.054  0.00  0.00     0.002 A 
ATOM      4  C4  I4B d   1      -1.614  -0.284  -1.127  0.00  0.00    -0.004 A 
ATOM      5  C5  I4B d   1      -0.646   0.524  -1.718  0.00  0.00     0.002 A 
ATOM      6  C6  I4B d   1       0.597   0.700  -1.094  0.00  0.00     0.003 A 
ENDROOT
BRANCH   1   7
ATOM      7  C1' I4B d   1       2.137   0.313   0.849  0.00  0.00     0.060 C 
BRANCH   7   8
ATOM      8  C2' I4B d   1       2.232   1.789   1.181  0.00  0.00    -0.013 C 
ATOM      9  C4' I4B d   1       2.504   2.002   2.646  0.00  0.00     0.013 C 
ATOM     10  C3' I4B d   1       3.319   2.384   0.336  0.00  0.00     0.013 C 
ENDBRANCH   7   8
ENDBRANCH   1   7
TORSDOF 2
ENDMDL
