MODEL 1
REMARK minimizedAffinity -4.29126406
REMARK minimizedRMSD -1
REMARK  2 active torsions:
REMARK  status: ('A' for Active; 'I' for Inactive)
REMARK    1  A    between atoms: C2'_3  and  C1'_4 
REMARK    2  A    between atoms: C1'_4  and  C1_5 
ROOT
ATOM      1  C1  I4B d   1       0.060   0.066  -0.020  0.00  0.00    -0.075 A 
ATOM      2  C2  I4B d   1      -0.901  -0.422   0.829  0.00  0.00     0.003 A 
ATOM      3  C3  I4B d   1      -2.235  -0.581   0.380  0.00  0.00     0.002 A 
ATOM      4  C4  I4B d   1      -2.571  -0.196  -0.902  0.00  0.00    -0.004 A 
ATOM      5  C5  I4B d   1      -1.590   0.277  -1.769  0.00  0.00     0.002 A 
ATOM      6  C6  I4B d   1      -0.263   0.398  -1.329  0.00  0.00     0.003 A 
ENDROOT
BRANCH   1   7
ATOM      7  C1' I4B d   1       1.451   0.253   0.497  0.00  0.00     0.060 C 
BRANCH   7   8
ATOM      8  C2' I4B d   1       1.654   1.729   0.770  0.00  0.00    -0.013 C 
ATOM      9  C4' I4B d   1       1.605   2.022   2.246  0.00  0.00     0.013 C 
ATOM     10  C3' I4B d   1       2.973   2.132   0.181  0.00  0.00     0.013 C 
ENDBRANCH   7   8
ENDBRANCH   1   7
TORSDOF 2
ENDMDL
