MODEL 1
REMARK minimizedAffinity 0.865546405
REMARK minimizedRMSD -1
REMARK  2 active torsions:
REMARK  status: ('A' for Active; 'I' for Inactive)
REMARK    1  A    between atoms: C2'_3  and  C1'_4 
REMARK    2  A    between atoms: C1'_4  and  C1_5 
ROOT
ATOM      1  C1  I4B d   1       0.499  -0.520   0.755  0.00  0.00    -0.075 A 
ATOM      2  C2  I4B d   1       0.065   0.773   0.912  0.00  0.00     0.003 A 
ATOM      3  C3  I4B d   1      -1.162   1.038   1.567  0.00  0.00     0.002 A 
ATOM      4  C4  I4B d   1      -1.942  -0.014   2.001  0.00  0.00    -0.004 A 
ATOM      5  C5  I4B d   1      -1.489  -1.323   1.862  0.00  0.00     0.002 A 
ATOM      6  C6  I4B d   1      -0.255  -1.577   1.246  0.00  0.00     0.003 A 
ENDROOT
BRANCH   1   7
ATOM      7  C1' I4B d   1       1.784  -0.766   0.030  0.00  0.00     0.060 C 
BRANCH   7   8
ATOM      8  C2' I4B d   1       1.905   0.270  -1.069  0.00  0.00    -0.013 C 
ATOM      9  C4' I4B d   1       3.343   0.652  -1.302  0.00  0.00     0.013 C 
ATOM     10  C3' I4B d   1       1.288  -0.298  -2.312  0.00  0.00     0.013 C 
ENDBRANCH   7   8
ENDBRANCH   1   7
TORSDOF 2
ENDMDL
