MODEL 1
REMARK minimizedAffinity -6.12047577
REMARK minimizedRMSD -1
REMARK  2 active torsions:
REMARK  status: ('A' for Active; 'I' for Inactive)
REMARK    1  A    between atoms: C2'_3  and  C1'_4 
REMARK    2  A    between atoms: C1'_4  and  C1_5 
ROOT
ATOM      1  C1  I4B d   1      -0.983  -0.686  -0.141  0.00  0.00    -0.075 A 
ATOM      2  C2  I4B d   1      -2.139  -0.664  -0.880  0.00  0.00     0.003 A 
ATOM      3  C3  I4B d   1      -3.171  -1.598  -0.618  0.00  0.00     0.002 A 
ATOM      4  C4  I4B d   1      -2.984  -2.562   0.352  0.00  0.00    -0.004 A 
ATOM      5  C5  I4B d   1      -1.821  -2.568   1.115  0.00  0.00     0.002 A 
ATOM      6  C6  I4B d   1      -0.818  -1.617   0.876  0.00  0.00     0.003 A 
ENDROOT
BRANCH   1   7
ATOM      7  C1' I4B d   1       0.099   0.294  -0.466  0.00  0.00     0.060 C 
BRANCH   7   8
ATOM      8  C2' I4B d   1       1.206   0.123   0.554  0.00  0.00    -0.013 C 
ATOM      9  C4' I4B d   1       2.174  -0.951   0.134  0.00  0.00     0.013 C 
ATOM     10  C3' I4B d   1       1.899   1.444   0.712  0.00  0.00     0.013 C 
ENDBRANCH   7   8
ENDBRANCH   1   7
TORSDOF 2
ENDMDL
