MODEL 1
REMARK minimizedAffinity -3.01140189
REMARK minimizedRMSD -1
REMARK  2 active torsions:
REMARK  status: ('A' for Active; 'I' for Inactive)
REMARK    1  A    between atoms: C2'_3  and  C1'_4 
REMARK    2  A    between atoms: C1'_4  and  C1_5 
ROOT
ATOM      1  C1  I4B d   1       0.070  -0.011   0.036  0.00  0.00    -0.075 A 
ATOM      2  C2  I4B d   1      -0.364   0.226  -1.244  0.00  0.00     0.003 A 
ATOM      3  C3  I4B d   1      -1.720   0.008  -1.589  0.00  0.00     0.002 A 
ATOM      4  C4  I4B d   1      -2.590  -0.492  -0.641  0.00  0.00    -0.004 A 
ATOM      5  C5  I4B d   1      -2.153  -0.710   0.662  0.00  0.00     0.002 A 
ATOM      6  C6  I4B d   1      -0.817  -0.457   1.007  0.00  0.00     0.003 A 
ENDROOT
BRANCH   1   7
ATOM      7  C1' I4B d   1       1.516   0.198   0.357  0.00  0.00     0.060 C 
BRANCH   7   8
ATOM      8  C2' I4B d   1       1.733   1.680   0.589  0.00  0.00    -0.013 C 
ATOM      9  C4' I4B d   1       2.217   1.947   1.990  0.00  0.00     0.013 C 
ATOM     10  C3' I4B d   1       2.721   2.168  -0.428  0.00  0.00     0.013 C 
ENDBRANCH   7   8
ENDBRANCH   1   7
TORSDOF 2
ENDMDL
