MODEL 1
REMARK minimizedAffinity -2.25392342
REMARK minimizedRMSD -1
REMARK  2 active torsions:
REMARK  status: ('A' for Active; 'I' for Inactive)
REMARK    1  A    between atoms: C2'_3  and  C1'_4 
REMARK    2  A    between atoms: C1'_4  and  C1_5 
ROOT
ATOM      1  C1  I4B d   1       0.302  -0.056  -0.168  0.00  0.00    -0.075 A 
ATOM      2  C2  I4B d   1      -0.597  -0.544   0.747  0.00  0.00     0.003 A 
ATOM      3  C3  I4B d   1      -1.939  -0.792   0.366  0.00  0.00     0.002 A 
ATOM      4  C4  I4B d   1      -2.347  -0.490  -0.917  0.00  0.00    -0.004 A 
ATOM      5  C5  I4B d   1      -1.429  -0.016  -1.849  0.00  0.00     0.002 A 
ATOM      6  C6  I4B d   1      -0.093   0.191  -1.476  0.00  0.00     0.003 A 
ENDROOT
BRANCH   1   7
ATOM      7  C1' I4B d   1       1.702   0.225   0.277  0.00  0.00     0.060 C 
BRANCH   7   8
ATOM      8  C2' I4B d   1       1.790   1.693   0.644  0.00  0.00    -0.013 C 
ATOM      9  C4' I4B d   1       1.971   1.874   2.128  0.00  0.00     0.013 C 
ATOM     10  C3' I4B d   1       2.934   2.292  -0.118  0.00  0.00     0.013 C 
ENDBRANCH   7   8
ENDBRANCH   1   7
TORSDOF 2
ENDMDL
