MODEL 1
REMARK minimizedAffinity -5.12998152
REMARK minimizedRMSD -1
REMARK  2 active torsions:
REMARK  status: ('A' for Active; 'I' for Inactive)
REMARK    1  A    between atoms: C2'_3  and  C1'_4 
REMARK    2  A    between atoms: C1'_4  and  C1_5 
ROOT
ATOM      1  C1  I4B d   1       0.452  -0.173   0.464  0.00  0.00    -0.075 A 
ATOM      2  C2  I4B d   1      -0.316  -0.827   1.395  0.00  0.00     0.003 A 
ATOM      3  C3  I4B d   1      -1.673  -1.123   1.119  0.00  0.00     0.002 A 
ATOM      4  C4  I4B d   1      -2.231  -0.705  -0.072  0.00  0.00    -0.004 A 
ATOM      5  C5  I4B d   1      -1.444  -0.063  -1.024  0.00  0.00     0.002 A 
ATOM      6  C6  I4B d   1      -0.091   0.194  -0.760  0.00  0.00     0.003 A 
ENDROOT
BRANCH   1   7
ATOM      7  C1' I4B d   1       1.872   0.153   0.803  0.00  0.00     0.060 C 
BRANCH   7   8
ATOM      8  C2' I4B d   1       1.923   1.596   1.262  0.00  0.00    -0.013 C 
ATOM      9  C4' I4B d   1       2.184   1.688   2.742  0.00  0.00     0.013 C 
ATOM     10  C3' I4B d   1       2.995   2.294   0.479  0.00  0.00     0.013 C 
ENDBRANCH   7   8
ENDBRANCH   1   7
TORSDOF 2
ENDMDL
