MODEL 1
REMARK minimizedAffinity -4.87595224
REMARK minimizedRMSD -1
REMARK  2 active torsions:
REMARK  status: ('A' for Active; 'I' for Inactive)
REMARK    1  A    between atoms: C2'_3  and  C1'_4 
REMARK    2  A    between atoms: C1'_4  and  C1_5 
ROOT
ATOM      1  C1  I4B d   1       0.457   0.028  -0.348  0.00  0.00    -0.075 A 
ATOM      2  C2  I4B d   1      -0.696   0.251   0.363  0.00  0.00     0.003 A 
ATOM      3  C3  I4B d   1      -1.954  -0.086  -0.193  0.00  0.00     0.002 A 
ATOM      4  C4  I4B d   1      -2.016  -0.592  -1.476  0.00  0.00    -0.004 A 
ATOM      5  C5  I4B d   1      -0.845  -0.838  -2.187  0.00  0.00     0.002 A 
ATOM      6  C6  I4B d   1       0.400  -0.538  -1.615  0.00  0.00     0.003 A 
ENDROOT
BRANCH   1   7
ATOM      7  C1' I4B d   1       1.766   0.426   0.257  0.00  0.00     0.060 C 
BRANCH   7   8
ATOM      8  C2' I4B d   1       1.757   1.930   0.441  0.00  0.00    -0.013 C 
ATOM      9  C4' I4B d   1       1.756   2.300   1.901  0.00  0.00     0.013 C 
ATOM     10  C3' I4B d   1       2.960   2.488  -0.258  0.00  0.00     0.013 C 
ENDBRANCH   7   8
ENDBRANCH   1   7
TORSDOF 2
ENDMDL
