MODEL 1
REMARK minimizedAffinity 9.02484131
REMARK minimizedRMSD -1
REMARK  0 active torsions:
REMARK  status: ('A' for Active; 'I' for Inactive)
ROOT
ATOM      1  C   UNL d   1       0.363   4.381  -0.258  0.00  0.00     0.020 A 
ATOM      2  C1  UNL d   1       0.308   4.986   0.997  0.00  0.00     0.020 A 
ATOM      3  C2  UNL d   1       0.858   4.342   2.107  0.00  0.00     0.034 A 
ATOM      4  C3  UNL d   1       1.464   3.088   1.965  0.00  0.00     0.017 A 
ATOM      5  C4  UNL d   1       1.518   2.482   0.705  0.00  0.00     0.017 A 
ATOM      6  C5  UNL d   1       0.967   3.131  -0.404  0.00  0.00     0.034 A 
ATOM      7 Cl   UNL d   1       2.250   0.937   0.451  0.00  0.00    -0.070 Cl
ATOM      8 Cl1  UNL d   1       2.123   2.349   3.381  0.00  0.00    -0.070 Cl
ENDROOT
TORSDOF 0
ENDMDL
