MODEL 1
REMARK minimizedAffinity 3.83209252
REMARK minimizedRMSD -1
REMARK  0 active torsions:
REMARK  status: ('A' for Active; 'I' for Inactive)
ROOT
ATOM      1  C   UNL d   1       2.523  -1.129  -1.163  0.00  0.00     0.020 A 
ATOM      2  C1  UNL d   1       3.208  -0.790  -2.329  0.00  0.00     0.020 A 
ATOM      3  C2  UNL d   1       3.899   0.421  -2.406  0.00  0.00     0.034 A 
ATOM      4  C3  UNL d   1       3.906   1.297  -1.314  0.00  0.00     0.017 A 
ATOM      5  C4  UNL d   1       3.219   0.956  -0.144  0.00  0.00     0.017 A 
ATOM      6  C5  UNL d   1       2.528  -0.258  -0.073  0.00  0.00     0.034 A 
ATOM      7 Cl   UNL d   1       3.182   1.985   1.244  0.00  0.00    -0.070 Cl
ATOM      8 Cl1  UNL d   1       4.782   2.778  -1.478  0.00  0.00    -0.070 Cl
ENDROOT
TORSDOF 0
ENDMDL
