MODEL 1
REMARK minimizedAffinity 13.3298264
REMARK minimizedRMSD -1
REMARK  0 active torsions:
REMARK  status: ('A' for Active; 'I' for Inactive)
ROOT
ATOM      1  C   UNL d   1       2.414   1.495   1.898  0.00  0.00     0.020 A 
ATOM      2  C1  UNL d   1       2.937   2.669   1.359  0.00  0.00     0.020 A 
ATOM      3  C2  UNL d   1       3.401   2.687   0.042  0.00  0.00     0.034 A 
ATOM      4  C3  UNL d   1       3.342   1.528  -0.741  0.00  0.00     0.017 A 
ATOM      5  C4  UNL d   1       2.817   0.350  -0.199  0.00  0.00     0.017 A 
ATOM      6  C5  UNL d   1       2.354   0.338   1.120  0.00  0.00     0.034 A 
ATOM      7 Cl   UNL d   1       2.711  -1.120  -1.103  0.00  0.00    -0.070 Cl
ATOM      8 Cl1  UNL d   1       3.933   1.622  -2.362  0.00  0.00    -0.070 Cl
ENDROOT
TORSDOF 0
ENDMDL
