MODEL 1
REMARK minimizedAffinity 1.33640218
REMARK minimizedRMSD -1
REMARK  0 active torsions:
REMARK  status: ('A' for Active; 'I' for Inactive)
ROOT
ATOM      1  C   UNL d   1      -6.000   5.126   5.534  0.00  0.00     0.020 A 
ATOM      2  C1  UNL d   1      -4.905   5.853   6.000  0.00  0.00     0.020 A 
ATOM      3  C2  UNL d   1      -3.769   5.994   5.200  0.00  0.00     0.034 A 
ATOM      4  C3  UNL d   1      -3.726   5.408   3.929  0.00  0.00     0.017 A 
ATOM      5  C4  UNL d   1      -4.826   4.679   3.462  0.00  0.00     0.017 A 
ATOM      6  C5  UNL d   1      -5.960   4.541   4.268  0.00  0.00     0.034 A 
ATOM      7 Cl   UNL d   1      -4.846   3.927   1.906  0.00  0.00    -0.070 Cl
ATOM      8 Cl1  UNL d   1      -2.290   5.624   2.993  0.00  0.00    -0.070 Cl
ENDROOT
TORSDOF 0
ENDMDL
