MODEL 1
REMARK minimizedAffinity 8.1275444
REMARK minimizedRMSD -1
REMARK  0 active torsions:
REMARK  status: ('A' for Active; 'I' for Inactive)
ROOT
ATOM      1  C   UNL d   1       2.287   1.612  -0.367  0.00  0.00     0.020 A 
ATOM      2  C1  UNL d   1       2.312   0.267  -0.001  0.00  0.00     0.020 A 
ATOM      3  C2  UNL d   1       3.467  -0.282   0.560  0.00  0.00     0.034 A 
ATOM      4  C3  UNL d   1       4.602   0.514   0.755  0.00  0.00     0.017 A 
ATOM      5  C4  UNL d   1       4.575   1.864   0.386  0.00  0.00     0.017 A 
ATOM      6  C5  UNL d   1       3.416   2.408  -0.174  0.00  0.00     0.034 A 
ATOM      7 Cl   UNL d   1       5.936   2.908   0.596  0.00  0.00    -0.070 Cl
ATOM      8 Cl1  UNL d   1       5.996  -0.232   1.453  0.00  0.00    -0.070 Cl
ENDROOT
TORSDOF 0
ENDMDL
