MODEL 1
REMARK minimizedAffinity 14.1672783
REMARK minimizedRMSD -1
REMARK  0 active torsions:
REMARK  status: ('A' for Active; 'I' for Inactive)
ROOT
ATOM      1  C   UNL d   1       6.000   3.206   0.091  0.00  0.00     0.020 A 
ATOM      2  C1  UNL d   1       5.185   2.967   1.197  0.00  0.00     0.020 A 
ATOM      3  C2  UNL d   1       4.025   2.203   1.057  0.00  0.00     0.034 A 
ATOM      4  C3  UNL d   1       3.675   1.676  -0.191  0.00  0.00     0.017 A 
ATOM      5  C4  UNL d   1       4.494   1.916  -1.301  0.00  0.00     0.017 A 
ATOM      6  C5  UNL d   1       5.655   2.682  -1.155  0.00  0.00     0.034 A 
ATOM      7 Cl   UNL d   1       4.129   1.298  -2.873  0.00  0.00    -0.070 Cl
ATOM      8 Cl1  UNL d   1       2.226   0.740  -0.291  0.00  0.00    -0.070 Cl
ENDROOT
TORSDOF 0
ENDMDL
