MODEL 1
REMARK minimizedAffinity 1.9810797
REMARK minimizedRMSD -1
REMARK  0 active torsions:
REMARK  status: ('A' for Active; 'I' for Inactive)
ROOT
ATOM      1  C   UNL d   1      -0.759  -4.894   6.000  0.00  0.00     0.020 A 
ATOM      2  C1  UNL d   1      -1.298  -6.000   5.343  0.00  0.00     0.020 A 
ATOM      3  C2  UNL d   1      -1.470  -5.974   3.958  0.00  0.00     0.034 A 
ATOM      4  C3  UNL d   1      -1.103  -4.840   3.224  0.00  0.00     0.017 A 
ATOM      5  C4  UNL d   1      -0.563  -3.730   3.884  0.00  0.00     0.017 A 
ATOM      6  C5  UNL d   1      -0.392  -3.762   5.271  0.00  0.00     0.034 A 
ATOM      7 Cl   UNL d   1      -0.086  -2.295   3.046  0.00  0.00    -0.070 Cl
ATOM      8 Cl1  UNL d   1      -1.344  -4.877   1.513  0.00  0.00    -0.070 Cl
ENDROOT
TORSDOF 0
ENDMDL
