MODEL 1
REMARK minimizedAffinity -2.68190408
REMARK minimizedRMSD -1
REMARK  0 active torsions:
REMARK  status: ('A' for Active; 'I' for Inactive)
ROOT
ATOM      1  C   UNL d   1       1.009  -2.116  -0.284  0.00  0.00     0.020 A 
ATOM      2  C1  UNL d   1       2.401  -2.137  -0.356  0.00  0.00     0.020 A 
ATOM      3  C2  UNL d   1       3.108  -0.947  -0.543  0.00  0.00     0.034 A 
ATOM      4  C3  UNL d   1       2.423   0.268  -0.659  0.00  0.00     0.017 A 
ATOM      5  C4  UNL d   1       1.026   0.287  -0.587  0.00  0.00     0.017 A 
ATOM      6  C5  UNL d   1       0.323  -0.907  -0.399  0.00  0.00     0.034 A 
ATOM      7 Cl   UNL d   1       0.111   1.748  -0.721  0.00  0.00    -0.070 Cl
ATOM      8 Cl1  UNL d   1       3.362   1.700  -0.888  0.00  0.00    -0.070 Cl
ENDROOT
TORSDOF 0
ENDMDL
