MODEL 1
REMARK minimizedAffinity -5.56883526
REMARK minimizedRMSD -1
REMARK  0 active torsions:
REMARK  status: ('A' for Active; 'I' for Inactive)
ROOT
ATOM      1  O1  BZF d   1       1.232   0.390  -1.651  0.00  0.00    -0.204 OA
ATOM      2  C2  BZF d   1       1.198   0.712  -0.308  0.00  0.00     0.174 A 
ATOM      3  C3  BZF d   1      -0.055   0.600   0.178  0.00  0.00    -0.012 A 
ATOM      4  C3A BZF d   1      -0.836   0.092  -0.907  0.00  0.00    -0.107 A 
ATOM      5  C4  BZF d   1      -2.153  -0.245  -1.039  0.00  0.00     0.055 A 
ATOM      6  C5  BZF d   1      -2.615  -0.641  -2.255  0.00  0.00    -0.016 A 
ATOM      7  C6  BZF d   1      -1.791  -0.707  -3.359  0.00  0.00     0.022 A 
ATOM      8  C7  BZF d   1      -0.476  -0.387  -3.276  0.00  0.00     0.029 A 
ATOM      9  C7A BZF d   1       0.001  -0.018  -2.041  0.00  0.00     0.058 A 
ENDROOT
TORSDOF 0
ENDMDL
