MODEL 1
REMARK minimizedAffinity -2.8661859
REMARK minimizedRMSD -1
REMARK  0 active torsions:
REMARK  status: ('A' for Active; 'I' for Inactive)
ROOT
ATOM      1  O1  BZF d   1       2.492   1.042   0.758  0.00  0.00    -0.204 OA
ATOM      2  C2  BZF d   1       3.112  -0.191   0.822  0.00  0.00     0.174 A 
ATOM      3  C3  BZF d   1       2.238  -1.180   0.543  0.00  0.00    -0.012 A 
ATOM      4  C3A BZF d   1       1.017  -0.518   0.199  0.00  0.00    -0.107 A 
ATOM      5  C4  BZF d   1      -0.215  -0.962  -0.189  0.00  0.00     0.055 A 
ATOM      6  C5  BZF d   1      -1.212  -0.059  -0.379  0.00  0.00    -0.016 A 
ATOM      7  C6  BZF d   1      -1.015   1.293  -0.186  0.00  0.00     0.022 A 
ATOM      8  C7  BZF d   1       0.191   1.781   0.193  0.00  0.00     0.029 A 
ATOM      9  C7A BZF d   1       1.210   0.874   0.354  0.00  0.00     0.058 A 
ENDROOT
TORSDOF 0
ENDMDL
