MODEL 1
REMARK minimizedAffinity -6.38548994
REMARK minimizedRMSD -1
REMARK  0 active torsions:
REMARK  status: ('A' for Active; 'I' for Inactive)
ROOT
ATOM      1  O1  BZF d   1      -0.761  -1.092   0.699  0.00  0.00    -0.204 OA
ATOM      2  C2  BZF d   1      -0.904   0.113   0.039  0.00  0.00     0.174 A 
ATOM      3  C3  BZF d   1       0.247   0.815   0.070  0.00  0.00    -0.012 A 
ATOM      4  C3A BZF d   1       1.193  -0.042   0.716  0.00  0.00    -0.107 A 
ATOM      5  C4  BZF d   1       2.516   0.087   1.029  0.00  0.00     0.055 A 
ATOM      6  C5  BZF d   1       3.130  -0.905   1.726  0.00  0.00    -0.016 A 
ATOM      7  C6  BZF d   1       2.451  -2.035   2.130  0.00  0.00     0.022 A 
ATOM      8  C7  BZF d   1       1.139  -2.211   1.839  0.00  0.00     0.029 A 
ATOM      9  C7A BZF d   1       0.524  -1.225   1.106  0.00  0.00     0.058 A 
ENDROOT
TORSDOF 0
ENDMDL
