MODEL 1
REMARK minimizedAffinity -4.33320808
REMARK minimizedRMSD -1
REMARK  0 active torsions:
REMARK  status: ('A' for Active; 'I' for Inactive)
ROOT
ATOM      1  O1  BZF d   1       1.257   1.625   0.215  0.00  0.00    -0.204 OA
ATOM      2  C2  BZF d   1       2.541   1.312   0.616  0.00  0.00     0.174 A 
ATOM      3  C3  BZF d   1       2.589   0.073   1.147  0.00  0.00    -0.012 A 
ATOM      4  C3A BZF d   1       1.268  -0.455   0.989  0.00  0.00    -0.107 A 
ATOM      5  C4  BZF d   1       0.691  -1.651   1.307  0.00  0.00     0.055 A 
ATOM      6  C5  BZF d   1      -0.639  -1.821   1.087  0.00  0.00    -0.016 A 
ATOM      7  C6  BZF d   1      -1.422  -0.817   0.556  0.00  0.00     0.022 A 
ATOM      8  C7  BZF d   1      -0.894   0.385   0.220  0.00  0.00     0.029 A 
ATOM      9  C7A BZF d   1       0.457   0.549   0.411  0.00  0.00     0.058 A 
ENDROOT
TORSDOF 0
ENDMDL
