MODEL 1
REMARK minimizedAffinity -3.29815626
REMARK minimizedRMSD -1
REMARK  0 active torsions:
REMARK  status: ('A' for Active; 'I' for Inactive)
ROOT
ATOM      1  O1  BZF d   1      -0.121  -1.575   1.237  0.00  0.00    -0.204 OA
ATOM      2  C2  BZF d   1      -1.169  -0.867   0.681  0.00  0.00     0.174 A 
ATOM      3  C3  BZF d   1      -0.752   0.336   0.238  0.00  0.00    -0.012 A 
ATOM      4  C3A BZF d   1       0.663   0.347   0.452  0.00  0.00    -0.107 A 
ATOM      5  C4  BZF d   1       1.643   1.263   0.201  0.00  0.00     0.055 A 
ATOM      6  C5  BZF d   1       2.915   0.995   0.598  0.00  0.00    -0.016 A 
ATOM      7  C6  BZF d   1       3.240  -0.175   1.252  0.00  0.00     0.022 A 
ATOM      8  C7  BZF d   1       2.303  -1.116   1.518  0.00  0.00     0.029 A 
ATOM      9  C7A BZF d   1       1.023  -0.863   1.089  0.00  0.00     0.058 A 
ENDROOT
TORSDOF 0
ENDMDL
