MODEL 1
REMARK minimizedAffinity -5.19237566
REMARK minimizedRMSD -1
REMARK  0 active torsions:
REMARK  status: ('A' for Active; 'I' for Inactive)
ROOT
ATOM      1  O1  BZF d   1       1.765   0.916   0.299  0.00  0.00    -0.204 OA
ATOM      2  C2  BZF d   1       2.915   0.313   0.772  0.00  0.00     0.174 A 
ATOM      3  C3  BZF d   1       2.622  -0.829   1.426  0.00  0.00    -0.012 A 
ATOM      4  C3A BZF d   1       1.209  -0.995   1.279  0.00  0.00    -0.107 A 
ATOM      5  C4  BZF d   1       0.328  -1.951   1.697  0.00  0.00     0.055 A 
ATOM      6  C5  BZF d   1      -0.998  -1.780   1.452  0.00  0.00    -0.016 A 
ATOM      7  C6  BZF d   1      -1.477  -0.665   0.796  0.00  0.00     0.022 A 
ATOM      8  C7  BZF d   1      -0.641   0.308   0.358  0.00  0.00     0.029 A 
ATOM      9  C7A BZF d   1       0.703   0.122   0.576  0.00  0.00     0.058 A 
ENDROOT
TORSDOF 0
ENDMDL
