MODEL 1
REMARK minimizedAffinity -3.94432187
REMARK minimizedRMSD -1
REMARK  0 active torsions:
REMARK  status: ('A' for Active; 'I' for Inactive)
ROOT
ATOM      1  O1  BZF d   1       0.857  -1.821   1.416  0.00  0.00    -0.204 OA
ATOM      2  C2  BZF d   1       2.107  -2.173   1.889  0.00  0.00     0.174 A 
ATOM      3  C3  BZF d   1       3.014  -1.219   1.597  0.00  0.00    -0.012 A 
ATOM      4  C3A BZF d   1       2.267  -0.165   0.980  0.00  0.00    -0.107 A 
ATOM      5  C4  BZF d   1       2.608   1.060   0.483  0.00  0.00     0.055 A 
ATOM      6  C5  BZF d   1       1.653   1.817  -0.119  0.00  0.00    -0.016 A 
ATOM      7  C6  BZF d   1       0.352   1.378  -0.246  0.00  0.00     0.022 A 
ATOM      8  C7  BZF d   1      -0.035   0.171   0.236  0.00  0.00     0.029 A 
ATOM      9  C7A BZF d   1       0.920  -0.582   0.874  0.00  0.00     0.058 A 
ENDROOT
TORSDOF 0
ENDMDL
