MODEL 1
REMARK minimizedAffinity -2.20880198
REMARK minimizedRMSD -1
REMARK  0 active torsions:
REMARK  status: ('A' for Active; 'I' for Inactive)
ROOT
ATOM      1  C1  BNZ d   1      -0.596  -0.057   0.898  0.00  0.00     0.000 A 
ATOM      2  C2  BNZ d   1      -0.466  -1.415   1.014  0.00  0.00     0.000 A 
ATOM      3  C3  BNZ d   1       0.310  -2.122   0.137  0.00  0.00     0.000 A 
ATOM      4  C4  BNZ d   1       0.921  -1.476  -0.876  0.00  0.00     0.000 A 
ATOM      5  C5  BNZ d   1       0.792  -0.108  -1.013  0.00  0.00     0.000 A 
ATOM      6  C6  BNZ d   1       0.042   0.605  -0.105  0.00  0.00     0.000 A 
ENDROOT
TORSDOF 0
ENDMDL
