MODEL 1
REMARK minimizedAffinity -5.31937456
REMARK minimizedRMSD -1
REMARK  0 active torsions:
REMARK  status: ('A' for Active; 'I' for Inactive)
ROOT
ATOM      1  C1  BNZ d   1      -0.120  -0.793  -0.182  0.00  0.00     0.000 A 
ATOM      2  C2  BNZ d   1       0.292  -1.478  -1.293  0.00  0.00     0.000 A 
ATOM      3  C3  BNZ d   1       0.277  -2.845  -1.318  0.00  0.00     0.000 A 
ATOM      4  C4  BNZ d   1      -0.112  -3.524  -0.220  0.00  0.00     0.000 A 
ATOM      5  C5  BNZ d   1      -0.521  -2.847   0.912  0.00  0.00     0.000 A 
ATOM      6  C6  BNZ d   1      -0.541  -1.471   0.920  0.00  0.00     0.000 A 
ENDROOT
TORSDOF 0
ENDMDL
