MODEL 1
REMARK minimizedAffinity -4.76298618
REMARK minimizedRMSD -1
REMARK  0 active torsions:
REMARK  status: ('A' for Active; 'I' for Inactive)
ROOT
ATOM      1  C1  BNZ d   1      -1.360  -2.544   0.965  0.00  0.00     0.000 A 
ATOM      2  C2  BNZ d   1      -0.507  -3.238   0.149  0.00  0.00     0.000 A 
ATOM      3  C3  BNZ d   1       0.622  -2.648  -0.347  0.00  0.00     0.000 A 
ATOM      4  C4  BNZ d   1       0.876  -1.356  -0.058  0.00  0.00     0.000 A 
ATOM      5  C5  BNZ d   1       0.021  -0.640   0.756  0.00  0.00     0.000 A 
ATOM      6  C6  BNZ d   1      -1.094  -1.249   1.285  0.00  0.00     0.000 A 
ENDROOT
TORSDOF 0
ENDMDL
