MODEL 1
REMARK minimizedAffinity -3.5833683
REMARK minimizedRMSD -1
REMARK  0 active torsions:
REMARK  status: ('A' for Active; 'I' for Inactive)
ROOT
ATOM      1  C1  BNZ d   1       0.922  -0.793  -1.223  0.00  0.00     0.000 A 
ATOM      2  C2  BNZ d   1       0.531  -1.641  -0.221  0.00  0.00     0.000 A 
ATOM      3  C3  BNZ d   1      -0.250  -1.195   0.808  0.00  0.00     0.000 A 
ATOM      4  C4  BNZ d   1      -0.605   0.105   0.855  0.00  0.00     0.000 A 
ATOM      5  C5  BNZ d   1      -0.212   0.974  -0.143  0.00  0.00     0.000 A 
ATOM      6  C6  BNZ d   1       0.542   0.513  -1.197  0.00  0.00     0.000 A 
ENDROOT
TORSDOF 0
ENDMDL
