MODEL 1
REMARK minimizedAffinity -4.61982822
REMARK minimizedRMSD -1
REMARK  0 active torsions:
REMARK  status: ('A' for Active; 'I' for Inactive)
ROOT
ATOM      1  C1  BNZ d   1       0.386  -0.157  -0.676  0.00  0.00     0.000 A 
ATOM      2  C2  BNZ d   1       0.380  -1.484  -1.015  0.00  0.00     0.000 A 
ATOM      3  C3  BNZ d   1      -0.082  -2.427  -0.140  0.00  0.00     0.000 A 
ATOM      4  C4  BNZ d   1      -0.500  -2.048   1.084  0.00  0.00     0.000 A 
ATOM      5  C5  BNZ d   1      -0.492  -0.715   1.444  0.00  0.00     0.000 A 
ATOM      6  C6  BNZ d   1      -0.062   0.236   0.547  0.00  0.00     0.000 A 
ENDROOT
TORSDOF 0
ENDMDL
