MODEL 1
REMARK minimizedAffinity -2.26677585
REMARK minimizedRMSD -1
REMARK  0 active torsions:
REMARK  status: ('A' for Active; 'I' for Inactive)
ROOT
ATOM      1  C1  BNZ d   1       0.055  -0.474  -1.164  0.00  0.00     0.000 A 
ATOM      2  C2  BNZ d   1       0.102  -1.842  -1.115  0.00  0.00     0.000 A 
ATOM      3  C3  BNZ d   1      -0.169  -2.511   0.045  0.00  0.00     0.000 A 
ATOM      4  C4  BNZ d   1      -0.449  -1.811   1.164  0.00  0.00     0.000 A 
ATOM      5  C5  BNZ d   1      -0.491  -0.431   1.133  0.00  0.00     0.000 A 
ATOM      6  C6  BNZ d   1      -0.256   0.237  -0.046  0.00  0.00     0.000 A 
ENDROOT
TORSDOF 0
ENDMDL
