MODEL 1
REMARK minimizedAffinity -1.89266706
REMARK minimizedRMSD -1
REMARK  0 active torsions:
REMARK  status: ('A' for Active; 'I' for Inactive)
ROOT
ATOM      1  C1  BNZ d   1       4.813  -2.085   5.829  0.00  0.00     0.000 A 
ATOM      2  C2  BNZ d   1       3.624  -2.763   5.832  0.00  0.00     0.000 A 
ATOM      3  C3  BNZ d   1       3.595  -4.127   5.916  0.00  0.00     0.000 A 
ATOM      4  C4  BNZ d   1       4.756  -4.812   5.958  0.00  0.00     0.000 A 
ATOM      5  C5  BNZ d   1       5.964  -4.144   5.947  0.00  0.00     0.000 A 
ATOM      6  C6  BNZ d   1       5.988  -2.769   5.901  0.00  0.00     0.000 A 
ENDROOT
TORSDOF 0
ENDMDL
