MODEL 1
REMARK minimizedAffinity -5.28073215
REMARK minimizedRMSD -1
REMARK  0 active torsions:
REMARK  status: ('A' for Active; 'I' for Inactive)
ROOT
ATOM      1  C1  BNZ d   1       0.215  -0.821  -0.744  0.00  0.00     0.000 A 
ATOM      2  C2  BNZ d   1       0.223  -1.515  -1.924  0.00  0.00     0.000 A 
ATOM      3  C3  BNZ d   1       0.034  -2.869  -1.941  0.00  0.00     0.000 A 
ATOM      4  C4  BNZ d   1      -0.123  -3.531  -0.777  0.00  0.00     0.000 A 
ATOM      5  C5  BNZ d   1      -0.124  -2.847   0.422  0.00  0.00     0.000 A 
ATOM      6  C6  BNZ d   1       0.027  -1.479   0.433  0.00  0.00     0.000 A 
ENDROOT
TORSDOF 0
ENDMDL
