MODEL 1
REMARK minimizedAffinity -3.15140676
REMARK minimizedRMSD -1
REMARK  0 active torsions:
REMARK  status: ('A' for Active; 'I' for Inactive)
ROOT
ATOM      1  C1  BNZ d   1      -1.055   0.004   0.709  0.00  0.00     0.000 A 
ATOM      2  C2  BNZ d   1      -0.822  -1.338   0.854  0.00  0.00     0.000 A 
ATOM      3  C3  BNZ d   1       0.006  -2.002  -0.008  0.00  0.00     0.000 A 
ATOM      4  C4  BNZ d   1       0.566  -1.333  -1.037  0.00  0.00     0.000 A 
ATOM      5  C5  BNZ d   1       0.334   0.018  -1.201  0.00  0.00     0.000 A 
ATOM      6  C6  BNZ d   1      -0.469   0.691  -0.309  0.00  0.00     0.000 A 
ENDROOT
TORSDOF 0
ENDMDL
