MODEL 1
REMARK minimizedAffinity -3.87365031
REMARK minimizedRMSD -1
REMARK  0 active torsions:
REMARK  status: ('A' for Active; 'I' for Inactive)
ROOT
ATOM      1  C1  BNZ d   1      -0.546  -3.436  -0.944  0.00  0.00     0.000 A 
ATOM      2  C2  BNZ d   1      -0.705  -2.877   0.296  0.00  0.00     0.000 A 
ATOM      3  C3  BNZ d   1      -0.526  -1.535   0.486  0.00  0.00     0.000 A 
ATOM      4  C4  BNZ d   1      -0.149  -0.762  -0.553  0.00  0.00     0.000 A 
ATOM      5  C5  BNZ d   1       0.024  -1.313  -1.807  0.00  0.00     0.000 A 
ATOM      6  C6  BNZ d   1      -0.195  -2.657  -2.003  0.00  0.00     0.000 A 
ENDROOT
TORSDOF 0
ENDMDL
