MODEL 1
REMARK minimizedAffinity -4.00088739
REMARK minimizedRMSD -1
REMARK  0 active torsions:
REMARK  status: ('A' for Active; 'I' for Inactive)
ROOT
ATOM      1  C1  BNZ d   1       1.106  -2.583  -0.611  0.00  0.00     0.000 A 
ATOM      2  C2  BNZ d   1       0.944  -1.234  -0.785  0.00  0.00     0.000 A 
ATOM      3  C3  BNZ d   1       0.052  -0.532  -0.023  0.00  0.00     0.000 A 
ATOM      4  C4  BNZ d   1      -0.704  -1.185   0.883  0.00  0.00     0.000 A 
ATOM      5  C5  BNZ d   1      -0.559  -2.546   1.064  0.00  0.00     0.000 A 
ATOM      6  C6  BNZ d   1       0.367  -3.243   0.322  0.00  0.00     0.000 A 
ENDROOT
TORSDOF 0
ENDMDL
