MODEL 1
REMARK minimizedAffinity -4.61530781
REMARK minimizedRMSD -1
REMARK  0 active torsions:
REMARK  status: ('A' for Active; 'I' for Inactive)
ROOT
ATOM      1  C1  BNZ d   1      -1.268  -1.989   0.372  0.00  0.00     0.000 A 
ATOM      2  C2  BNZ d   1      -1.250  -0.620   0.399  0.00  0.00     0.000 A 
ATOM      3  C3  BNZ d   1      -0.068   0.063   0.476  0.00  0.00     0.000 A 
ATOM      4  C4  BNZ d   1       1.090  -0.623   0.565  0.00  0.00     0.000 A 
ATOM      5  C5  BNZ d   1       1.087  -2.003   0.548  0.00  0.00     0.000 A 
ATOM      6  C6  BNZ d   1      -0.101  -2.687   0.432  0.00  0.00     0.000 A 
ENDROOT
TORSDOF 0
ENDMDL
