MODEL 1
REMARK minimizedAffinity -3.98901439
REMARK minimizedRMSD -1
REMARK  0 active torsions:
REMARK  status: ('A' for Active; 'I' for Inactive)
ROOT
ATOM      1  C1  BNZ d   1       0.730  -1.401  -0.262  0.00  0.00     0.000 A 
ATOM      2  C2  BNZ d   1       0.732  -0.050  -0.041  0.00  0.00     0.000 A 
ATOM      3  C3  BNZ d   1      -0.182   0.524   0.797  0.00  0.00     0.000 A 
ATOM      4  C4  BNZ d   1      -1.121  -0.248   1.382  0.00  0.00     0.000 A 
ATOM      5  C5  BNZ d   1      -1.142  -1.611   1.162  0.00  0.00     0.000 A 
ATOM      6  C6  BNZ d   1      -0.196  -2.190   0.348  0.00  0.00     0.000 A 
ENDROOT
TORSDOF 0
ENDMDL
