MODEL 1
REMARK minimizedAffinity -3.28544259
REMARK minimizedRMSD -1
REMARK  0 active torsions:
REMARK  status: ('A' for Active; 'I' for Inactive)
ROOT
ATOM      1  C1  BNZ d   1      -0.460   1.207  -0.395  0.00  0.00     0.000 A 
ATOM      2  C2  BNZ d   1      -0.796   0.462   0.704  0.00  0.00     0.000 A 
ATOM      3  C3  BNZ d   1      -0.499  -0.871   0.763  0.00  0.00     0.000 A 
ATOM      4  C4  BNZ d   1       0.096  -1.465  -0.292  0.00  0.00     0.000 A 
ATOM      5  C5  BNZ d   1       0.432  -0.729  -1.411  0.00  0.00     0.000 A 
ATOM      6  C6  BNZ d   1       0.167   0.620  -1.451  0.00  0.00     0.000 A 
ENDROOT
TORSDOF 0
ENDMDL
