MODEL 1
REMARK minimizedAffinity -3.58227897
REMARK minimizedRMSD -1
REMARK  0 active torsions:
REMARK  status: ('A' for Active; 'I' for Inactive)
ROOT
ATOM      1  C1  BNZ d   1      -0.032   0.022   0.391  0.00  0.00     0.000 A 
ATOM      2  C2  BNZ d   1       1.098  -0.700   0.113  0.00  0.00     0.000 A 
ATOM      3  C3  BNZ d   1       1.063  -2.066   0.072  0.00  0.00     0.000 A 
ATOM      4  C4  BNZ d   1      -0.090  -2.708   0.349  0.00  0.00     0.000 A 
ATOM      5  C5  BNZ d   1      -1.236  -1.994   0.641  0.00  0.00     0.000 A 
ATOM      6  C6  BNZ d   1      -1.206  -0.619   0.642  0.00  0.00     0.000 A 
ENDROOT
TORSDOF 0
ENDMDL
