MODEL 1
REMARK minimizedAffinity -4.20697069
REMARK minimizedRMSD -1
REMARK  2 active torsions:
REMARK  status: ('A' for Active; 'I' for Inactive)
REMARK    1  A    between atoms: C1_2  and  C2_3 
REMARK    2  A    between atoms: C2_3  and  C3_4 
ROOT
ATOM      1  C3  UNL d   1       1.837   0.220   0.682  0.00  0.00    -0.075 A 
ATOM      2  C4  UNL d   1       0.633  -0.500   0.687  0.00  0.00     0.002 A 
ATOM      3  C5  UNL d   1       0.528  -1.698   1.394  0.00  0.00     0.002 A 
ATOM      4  C6  UNL d   1       1.624  -2.196   2.095  0.00  0.00    -0.004 A 
ATOM      5  C7  UNL d   1       2.830  -1.498   2.083  0.00  0.00     0.002 A 
ATOM      6  C8  UNL d   1       2.937  -0.297   1.380  0.00  0.00     0.002 A 
ENDROOT
BRANCH   1   7
ATOM      7  C2  UNL d   1       1.949   1.532  -0.057  0.00  0.00     0.056 C 
BRANCH   7   8
ATOM      8  C1  UNL d   1       0.787   2.496   0.205  0.00  0.00     0.007 C 
ATOM      9  C   UNL d   1       1.093   3.930  -0.207  0.00  0.00     0.009 C 
ENDBRANCH   7   8
ENDBRANCH   1   7
TORSDOF 2
ENDMDL
