MODEL 1
REMARK minimizedAffinity 0.228972524
REMARK minimizedRMSD -1
REMARK  2 active torsions:
REMARK  status: ('A' for Active; 'I' for Inactive)
REMARK    1  A    between atoms: C1_2  and  C2_3 
REMARK    2  A    between atoms: C2_3  and  C3_4 
ROOT
ATOM      1  C3  UNL d   1      -1.803  -2.064  -1.387  0.00  0.00    -0.075 A 
ATOM      2  C4  UNL d   1      -0.682  -2.209  -2.217  0.00  0.00     0.002 A 
ATOM      3  C5  UNL d   1       0.557  -2.558  -1.680  0.00  0.00     0.002 A 
ATOM      4  C6  UNL d   1       0.695  -2.756  -0.308  0.00  0.00    -0.004 A 
ATOM      5  C7  UNL d   1      -0.408  -2.598   0.528  0.00  0.00     0.002 A 
ATOM      6  C8  UNL d   1      -1.651  -2.253  -0.007  0.00  0.00     0.002 A 
ENDROOT
BRANCH   1   7
ATOM      7  C2  UNL d   1      -3.153  -1.715  -1.965  0.00  0.00     0.056 C 
BRANCH   7   8
ATOM      8  C1  UNL d   1      -3.097  -0.707  -3.118  0.00  0.00     0.007 C 
ATOM      9  C   UNL d   1      -3.573   0.684  -2.722  0.00  0.00     0.009 C 
ENDBRANCH   7   8
ENDBRANCH   1   7
TORSDOF 2
ENDMDL
