MODEL 1
REMARK minimizedAffinity 9.20738506
REMARK minimizedRMSD -1
REMARK  2 active torsions:
REMARK  status: ('A' for Active; 'I' for Inactive)
REMARK    1  A    between atoms: C1_2  and  C2_3 
REMARK    2  A    between atoms: C2_3  and  C3_4 
ROOT
ATOM      1  C3  UNL d   1       1.416  -1.270   2.021  0.00  0.00    -0.075 A 
ATOM      2  C4  UNL d   1       1.209  -0.491   0.873  0.00  0.00     0.002 A 
ATOM      3  C5  UNL d   1       1.968   0.658   0.650  0.00  0.00     0.002 A 
ATOM      4  C6  UNL d   1       2.933   1.049   1.575  0.00  0.00    -0.004 A 
ATOM      5  C7  UNL d   1       3.135   0.293   2.728  0.00  0.00     0.002 A 
ATOM      6  C8  UNL d   1       2.381  -0.860   2.951  0.00  0.00     0.002 A 
ENDROOT
BRANCH   1   7
ATOM      7  C2  UNL d   1       0.618  -2.531   2.253  0.00  0.00     0.056 C 
BRANCH   7   8
ATOM      8  C1  UNL d   1       1.202  -3.448   3.333  0.00  0.00     0.007 C 
ATOM      9  C   UNL d   1       2.045  -4.582   2.767  0.00  0.00     0.009 C 
ENDBRANCH   7   8
ENDBRANCH   1   7
TORSDOF 2
ENDMDL
