MODEL 1
REMARK minimizedAffinity 5.89585829
REMARK minimizedRMSD -1
REMARK  2 active torsions:
REMARK  status: ('A' for Active; 'I' for Inactive)
REMARK    1  A    between atoms: C1_2  and  C2_3 
REMARK    2  A    between atoms: C2_3  and  C3_4 
ROOT
ATOM      1  C3  UNL d   1       0.705  -0.701   1.416  0.00  0.00    -0.075 A 
ATOM      2  C4  UNL d   1       1.181  -1.399   2.535  0.00  0.00     0.002 A 
ATOM      3  C5  UNL d   1       2.377  -1.025   3.148  0.00  0.00     0.002 A 
ATOM      4  C6  UNL d   1       3.116   0.044   2.645  0.00  0.00    -0.004 A 
ATOM      5  C7  UNL d   1       2.661   0.735   1.524  0.00  0.00     0.002 A 
ATOM      6  C8  UNL d   1       1.462   0.365   0.911  0.00  0.00     0.002 A 
ENDROOT
BRANCH   1   7
ATOM      7  C2  UNL d   1      -0.604  -1.082   0.766  0.00  0.00     0.056 C 
BRANCH   7   8
ATOM      8  C1  UNL d   1      -1.842  -0.577   1.514  0.00  0.00     0.007 C 
ATOM      9  C   UNL d   1      -2.051   0.926   1.383  0.00  0.00     0.009 C 
ENDBRANCH   7   8
ENDBRANCH   1   7
TORSDOF 2
ENDMDL
