MODEL 1
REMARK minimizedAffinity 10.5709362
REMARK minimizedRMSD -1
REMARK  2 active torsions:
REMARK  status: ('A' for Active; 'I' for Inactive)
REMARK    1  A    between atoms: C1_2  and  C2_3 
REMARK    2  A    between atoms: C2_3  and  C3_4 
ROOT
ATOM      1  C3  UNL d   1       1.981   0.561   1.782  0.00  0.00    -0.075 A 
ATOM      2  C4  UNL d   1       2.492  -0.307   2.757  0.00  0.00     0.002 A 
ATOM      3  C5  UNL d   1       1.905  -1.553   2.975  0.00  0.00     0.002 A 
ATOM      4  C6  UNL d   1       0.794  -1.943   2.229  0.00  0.00    -0.004 A 
ATOM      5  C7  UNL d   1       0.268  -1.082   1.269  0.00  0.00     0.002 A 
ATOM      6  C8  UNL d   1       0.856   0.164   1.046  0.00  0.00     0.002 A 
ENDROOT
BRANCH   1   7
ATOM      7  C2  UNL d   1       2.630   1.899   1.521  0.00  0.00     0.056 C 
BRANCH   7   8
ATOM      8  C1  UNL d   1       2.878   2.194   0.038  0.00  0.00     0.007 C 
ATOM      9  C   UNL d   1       2.309   3.533  -0.411  0.00  0.00     0.009 C 
ENDBRANCH   7   8
ENDBRANCH   1   7
TORSDOF 2
ENDMDL
