MODEL 1
REMARK minimizedAffinity -0.268858373
REMARK minimizedRMSD -1
REMARK  2 active torsions:
REMARK  status: ('A' for Active; 'I' for Inactive)
REMARK    1  A    between atoms: C1_2  and  C2_3 
REMARK    2  A    between atoms: C2_3  and  C3_4 
ROOT
ATOM      1  C3  UNL d   1       1.040  -0.448   1.227  0.00  0.00    -0.075 A 
ATOM      2  C4  UNL d   1       0.816   0.570   0.289  0.00  0.00     0.002 A 
ATOM      3  C5  UNL d   1       1.712   1.632   0.168  0.00  0.00     0.002 A 
ATOM      4  C6  UNL d   1       2.837   1.695   0.987  0.00  0.00    -0.004 A 
ATOM      5  C7  UNL d   1       3.062   0.698   1.934  0.00  0.00     0.002 A 
ATOM      6  C8  UNL d   1       2.168  -0.368   2.055  0.00  0.00     0.002 A 
ENDROOT
BRANCH   1   7
ATOM      7  C2  UNL d   1       0.089  -1.615   1.343  0.00  0.00     0.056 C 
BRANCH   7   8
ATOM      8  C1  UNL d   1      -1.318  -1.329   0.808  0.00  0.00     0.007 C 
ATOM      9  C   UNL d   1      -2.012  -2.565   0.253  0.00  0.00     0.009 C 
ENDBRANCH   7   8
ENDBRANCH   1   7
TORSDOF 2
ENDMDL
