MODEL 1
REMARK minimizedAffinity 6.83432007
REMARK minimizedRMSD -1
REMARK  2 active torsions:
REMARK  status: ('A' for Active; 'I' for Inactive)
REMARK    1  A    between atoms: C1_2  and  C2_3 
REMARK    2  A    between atoms: C2_3  and  C3_4 
ROOT
ATOM      1  C3  UNL d   1       0.947   0.911   0.905  0.00  0.00    -0.075 A 
ATOM      2  C4  UNL d   1       1.250  -0.450   1.060  0.00  0.00     0.002 A 
ATOM      3  C5  UNL d   1       0.234  -1.405   1.068  0.00  0.00     0.002 A 
ATOM      4  C6  UNL d   1      -1.096  -1.013   0.933  0.00  0.00    -0.004 A 
ATOM      5  C7  UNL d   1      -1.410   0.337   0.795  0.00  0.00     0.002 A 
ATOM      6  C8  UNL d   1      -0.395   1.295   0.782  0.00  0.00     0.002 A 
ENDROOT
BRANCH   1   7
ATOM      7  C2  UNL d   1       2.045   1.947   0.865  0.00  0.00     0.056 C 
BRANCH   7   8
ATOM      8  C1  UNL d   1       2.553   2.264  -0.546  0.00  0.00     0.007 C 
ATOM      9  C   UNL d   1       1.907   3.502  -1.153  0.00  0.00     0.009 C 
ENDBRANCH   7   8
ENDBRANCH   1   7
TORSDOF 2
ENDMDL
