MODEL 1
REMARK minimizedAffinity -1.64811945
REMARK minimizedRMSD -1
REMARK  1 active torsions:
REMARK  status: ('A' for Active; 'I' for Inactive)
REMARK    1  A    between atoms: C3_4  and  O_7 
ROOT
ATOM      1  C   UNL d   1      -5.856   5.993   0.010  0.00  0.00    -0.033 A 
ATOM      2  C1  UNL d   1      -5.998   4.976   0.956  0.00  0.00     0.039 A 
ATOM      3  C2  UNL d   1      -5.798   3.644   0.587  0.00  0.00    -0.080 A 
ATOM      4  C3  UNL d   1      -5.457   3.344  -0.729  0.00  0.00     0.150 A 
ATOM      5  C4  UNL d   1      -5.310   4.352  -1.676  0.00  0.00    -0.007 A 
ATOM      6  C5  UNL d   1      -5.511   5.681  -1.306  0.00  0.00     0.039 A 
ENDROOT
BRANCH   4   7
ATOM      7  O   UNL d   1      -5.256   2.059  -1.138  0.00  0.00    -0.526 OA
ATOM      8  H5  UNL d   1      -5.420   1.467  -0.384  0.00  0.00     0.418 HD
ENDBRANCH   4   7
TORSDOF 1
ENDMDL
