MODEL 1
REMARK minimizedAffinity 2.15546322
REMARK minimizedRMSD -1
REMARK  1 active torsions:
REMARK  status: ('A' for Active; 'I' for Inactive)
REMARK    1  A    between atoms: C3_4  and  O_7 
ROOT
ATOM      1  C   UNL d   1      -1.017   0.782   2.679  0.00  0.00    -0.033 A 
ATOM      2  C1  UNL d   1      -1.946   1.823   2.634  0.00  0.00     0.039 A 
ATOM      3  C2  UNL d   1      -2.798   1.954   1.536  0.00  0.00    -0.080 A 
ATOM      4  C3  UNL d   1      -2.712   1.038   0.491  0.00  0.00     0.150 A 
ATOM      5  C4  UNL d   1      -1.792  -0.004   0.531  0.00  0.00    -0.007 A 
ATOM      6  C5  UNL d   1      -0.941  -0.133   1.628  0.00  0.00     0.039 A 
ENDROOT
BRANCH   4   7
ATOM      7  O   UNL d   1      -3.519   1.128  -0.604  0.00  0.00    -0.526 OA
ATOM      8  H5  UNL d   1      -4.084   1.912  -0.506  0.00  0.00     0.418 HD
ENDBRANCH   4   7
TORSDOF 1
ENDMDL
