MODEL 1
REMARK minimizedAffinity -3.27955699
REMARK minimizedRMSD -1
REMARK  1 active torsions:
REMARK  status: ('A' for Active; 'I' for Inactive)
REMARK    1  A    between atoms: C3_4  and  O_7 
ROOT
ATOM      1  C   UNL d   1      -5.430   2.621  -1.159  0.00  0.00    -0.033 A 
ATOM      2  C1  UNL d   1      -4.041   2.472  -1.144  0.00  0.00     0.039 A 
ATOM      3  C2  UNL d   1      -3.216   3.598  -1.178  0.00  0.00    -0.080 A 
ATOM      4  C3  UNL d   1      -3.791   4.865  -1.226  0.00  0.00     0.150 A 
ATOM      5  C4  UNL d   1      -5.173   5.021  -1.237  0.00  0.00    -0.007 A 
ATOM      6  C5  UNL d   1      -5.996   3.896  -1.204  0.00  0.00     0.039 A 
ENDROOT
BRANCH   4   7
ATOM      7  O   UNL d   1      -3.027   5.993  -1.265  0.00  0.00    -0.526 OA
ATOM      8  H5  UNL d   1      -2.091   5.731  -1.281  0.00  0.00     0.418 HD
ENDBRANCH   4   7
TORSDOF 1
ENDMDL
