MODEL 1
REMARK minimizedAffinity 0.225317329
REMARK minimizedRMSD -1
REMARK  1 active torsions:
REMARK  status: ('A' for Active; 'I' for Inactive)
REMARK    1  A    between atoms: C3_4  and  O_7 
ROOT
ATOM      1  C   UNL d   1       2.099  -0.617   2.465  0.00  0.00    -0.033 A 
ATOM      2  C1  UNL d   1       1.320  -0.483   3.616  0.00  0.00     0.039 A 
ATOM      3  C2  UNL d   1       0.013  -0.001   3.524  0.00  0.00    -0.080 A 
ATOM      4  C3  UNL d   1      -0.503   0.341   2.277  0.00  0.00     0.150 A 
ATOM      5  C4  UNL d   1       0.266   0.206   1.126  0.00  0.00    -0.007 A 
ATOM      6  C5  UNL d   1       1.571  -0.275   1.220  0.00  0.00     0.039 A 
ENDROOT
BRANCH   4   7
ATOM      7  O   UNL d   1      -1.772   0.820   2.138  0.00  0.00    -0.526 OA
ATOM      8  H5  UNL d   1      -2.174   0.887   3.020  0.00  0.00     0.418 HD
ENDBRANCH   4   7
TORSDOF 1
ENDMDL
