MODEL 1
REMARK minimizedAffinity 3.9626987
REMARK minimizedRMSD -1
REMARK  1 active torsions:
REMARK  status: ('A' for Active; 'I' for Inactive)
REMARK    1  A    between atoms: C3_4  and  O_7 
ROOT
ATOM      1  C   UNL d   1       0.574  -0.284   1.190  0.00  0.00    -0.033 A 
ATOM      2  C1  UNL d   1      -0.741  -0.692   0.956  0.00  0.00     0.039 A 
ATOM      3  C2  UNL d   1      -1.015  -1.635  -0.036  0.00  0.00    -0.080 A 
ATOM      4  C3  UNL d   1       0.032  -2.163  -0.786  0.00  0.00     0.150 A 
ATOM      5  C4  UNL d   1       1.345  -1.764  -0.556  0.00  0.00    -0.007 A 
ATOM      6  C5  UNL d   1       1.617  -0.821   0.434  0.00  0.00     0.039 A 
ENDROOT
BRANCH   4   7
ATOM      7  O   UNL d   1      -0.187  -3.082  -1.769  0.00  0.00    -0.526 OA
ATOM      8  H5  UNL d   1      -1.143  -3.240  -1.834  0.00  0.00     0.418 HD
ENDBRANCH   4   7
TORSDOF 1
ENDMDL
