MODEL 1
REMARK minimizedAffinity 7.59184885
REMARK minimizedRMSD -1
REMARK  1 active torsions:
REMARK  status: ('A' for Active; 'I' for Inactive)
REMARK    1  A    between atoms: C3_4  and  O_7 
ROOT
ATOM      1  C   UNL d   1      -1.040   0.120   2.578  0.00  0.00    -0.033 A 
ATOM      2  C1  UNL d   1      -1.476  -0.819   1.641  0.00  0.00     0.039 A 
ATOM      3  C2  UNL d   1      -2.448  -0.471   0.701  0.00  0.00    -0.080 A 
ATOM      4  C3  UNL d   1      -2.973   0.818   0.707  0.00  0.00     0.150 A 
ATOM      5  C4  UNL d   1      -2.540   1.760   1.634  0.00  0.00    -0.007 A 
ATOM      6  C5  UNL d   1      -1.571   1.410   2.573  0.00  0.00     0.039 A 
ENDROOT
BRANCH   4   7
ATOM      7  O   UNL d   1      -3.927   1.204  -0.188  0.00  0.00    -0.526 OA
ATOM      8  H5  UNL d   1      -4.149   0.441  -0.748  0.00  0.00     0.418 HD
ENDBRANCH   4   7
TORSDOF 1
ENDMDL
