MODEL 1
REMARK minimizedAffinity 14.7472687
REMARK minimizedRMSD -1
REMARK  1 active torsions:
REMARK  status: ('A' for Active; 'I' for Inactive)
REMARK    1  A    between atoms: C1_2  and  C2_3 
ROOT
ATOM      1  C2  UNL d   1       4.997  -5.078   0.301  0.00  0.00    -0.073 A 
ATOM      2  C3  UNL d   1       3.776  -5.609  -0.131  0.00  0.00    -0.002 A 
ATOM      3  C4  UNL d   1       2.853  -4.801  -0.796  0.00  0.00     0.004 A 
ATOM      4  C5  UNL d   1       3.143  -3.459  -1.043  0.00  0.00    -0.004 A 
ATOM      5  C6  UNL d   1       4.363  -2.914  -0.629  0.00  0.00    -0.075 A 
ATOM      6  C7  UNL d   1       4.690  -1.472  -0.884  0.00  0.00     0.076 C 
ATOM      7  C8  UNL d   1       5.284  -3.731   0.041  0.00  0.00     0.001 A 
ENDROOT
BRANCH   1   8
ATOM      8  C1  UNL d   1       6.000  -5.948   1.015  0.00  0.00     0.053 C 
ATOM      9  C   UNL d   1       5.965  -5.741   2.521  0.00  0.00     0.018 C 
ENDBRANCH   1   8
TORSDOF 1
ENDMDL
