MODEL 1
REMARK minimizedAffinity 19.5436058
REMARK minimizedRMSD -1
REMARK  1 active torsions:
REMARK  status: ('A' for Active; 'I' for Inactive)
REMARK    1  A    between atoms: C1_2  and  C2_3 
ROOT
ATOM      1  C2  UNL d   1       3.748   3.104  -4.096  0.00  0.00    -0.073 A 
ATOM      2  C3  UNL d   1       3.888   2.039  -3.198  0.00  0.00    -0.002 A 
ATOM      3  C4  UNL d   1       2.925   1.816  -2.214  0.00  0.00     0.004 A 
ATOM      4  C5  UNL d   1       1.810   2.649  -2.121  0.00  0.00    -0.004 A 
ATOM      5  C6  UNL d   1       1.646   3.711  -3.016  0.00  0.00    -0.075 A 
ATOM      6  C7  UNL d   1       0.454   4.617  -2.928  0.00  0.00     0.076 C 
ATOM      7  C8  UNL d   1       2.619   3.930  -4.000  0.00  0.00     0.001 A 
ENDROOT
BRANCH   1   8
ATOM      8  C1  UNL d   1       4.782   3.345  -5.165  0.00  0.00     0.053 C 
ATOM      9  C   UNL d   1       5.909   4.241  -4.676  0.00  0.00     0.018 C 
ENDBRANCH   1   8
TORSDOF 1
ENDMDL
