MODEL 1
REMARK minimizedAffinity 11.3286848
REMARK minimizedRMSD -1
REMARK  1 active torsions:
REMARK  status: ('A' for Active; 'I' for Inactive)
REMARK    1  A    between atoms: C1_2  and  C2_3 
ROOT
ATOM      1  C2  UNL d   1      -4.925   1.895   4.656  0.00  0.00    -0.073 A 
ATOM      2  C3  UNL d   1      -5.999   1.599   3.809  0.00  0.00    -0.002 A 
ATOM      3  C4  UNL d   1      -5.775   0.996   2.571  0.00  0.00     0.004 A 
ATOM      4  C5  UNL d   1      -4.477   0.676   2.170  0.00  0.00    -0.004 A 
ATOM      5  C6  UNL d   1      -3.392   0.953   3.008  0.00  0.00    -0.075 A 
ATOM      6  C7  UNL d   1      -1.990   0.617   2.591  0.00  0.00     0.076 C 
ATOM      7  C8  UNL d   1      -3.625   1.561   4.249  0.00  0.00     0.001 A 
ENDROOT
BRANCH   1   8
ATOM      8  C1  UNL d   1      -5.162   2.540   5.997  0.00  0.00     0.053 C 
ATOM      9  C   UNL d   1      -5.279   4.052   5.889  0.00  0.00     0.018 C 
ENDBRANCH   1   8
TORSDOF 1
ENDMDL
