MODEL 1
REMARK minimizedAffinity 9.48453426
REMARK minimizedRMSD -1
REMARK  1 active torsions:
REMARK  status: ('A' for Active; 'I' for Inactive)
REMARK    1  A    between atoms: C1_2  and  C2_3 
ROOT
ATOM      1  C2  UNL d   1      -4.465  -4.587   4.430  0.00  0.00    -0.073 A 
ATOM      2  C3  UNL d   1      -4.459  -5.652   3.521  0.00  0.00    -0.002 A 
ATOM      3  C4  UNL d   1      -4.058  -5.449   2.200  0.00  0.00     0.004 A 
ATOM      4  C5  UNL d   1      -3.653  -4.183   1.776  0.00  0.00    -0.004 A 
ATOM      5  C6  UNL d   1      -3.641  -3.109   2.673  0.00  0.00    -0.075 A 
ATOM      6  C7  UNL d   1      -3.210  -1.741   2.232  0.00  0.00     0.076 C 
ATOM      7  C8  UNL d   1      -4.047  -3.321   3.997  0.00  0.00     0.001 A 
ENDROOT
BRANCH   1   8
ATOM      8  C1  UNL d   1      -4.891  -4.803   5.859  0.00  0.00     0.053 C 
ATOM      9  C   UNL d   1      -5.838  -5.985   5.999  0.00  0.00     0.018 C 
ENDBRANCH   1   8
TORSDOF 1
ENDMDL
