MODEL 1
REMARK minimizedAffinity 14.2826271
REMARK minimizedRMSD -1
REMARK  1 active torsions:
REMARK  status: ('A' for Active; 'I' for Inactive)
REMARK    1  A    between atoms: C1_2  and  C2_3 
ROOT
ATOM      1  C2  UNL d   1      -1.153  -0.044   3.047  0.00  0.00    -0.073 A 
ATOM      2  C3  UNL d   1      -0.451  -0.596   4.125  0.00  0.00    -0.002 A 
ATOM      3  C4  UNL d   1      -0.705  -0.163   5.427  0.00  0.00     0.004 A 
ATOM      4  C5  UNL d   1      -1.667   0.819   5.665  0.00  0.00    -0.004 A 
ATOM      5  C6  UNL d   1      -2.387   1.373   4.602  0.00  0.00    -0.075 A 
ATOM      6  C7  UNL d   1      -3.424   2.432   4.841  0.00  0.00     0.076 C 
ATOM      7  C8  UNL d   1      -2.125   0.935   3.297  0.00  0.00     0.001 A 
ENDROOT
BRANCH   1   8
ATOM      8  C1  UNL d   1      -0.887  -0.513   1.640  0.00  0.00     0.053 C 
ATOM      9  C   UNL d   1      -1.790  -1.670   1.244  0.00  0.00     0.018 C 
ENDBRANCH   1   8
TORSDOF 1
ENDMDL
