MODEL 1
REMARK minimizedAffinity 5.04086161
REMARK minimizedRMSD -1
REMARK  1 active torsions:
REMARK  status: ('A' for Active; 'I' for Inactive)
REMARK    1  A    between atoms: C1_2  and  C2_3 
ROOT
ATOM      1  C2  UNL d   1      -3.415  -0.221   0.898  0.00  0.00    -0.073 A 
ATOM      2  C3  UNL d   1      -2.380  -1.163   0.880  0.00  0.00    -0.002 A 
ATOM      3  C4  UNL d   1      -1.473  -1.234   1.939  0.00  0.00     0.004 A 
ATOM      4  C5  UNL d   1      -1.596  -0.371   3.028  0.00  0.00    -0.004 A 
ATOM      5  C6  UNL d   1      -2.631   0.569   3.069  0.00  0.00    -0.075 A 
ATOM      6  C7  UNL d   1      -2.776   1.507   4.232  0.00  0.00     0.076 C 
ATOM      7  C8  UNL d   1      -3.536   0.636   2.001  0.00  0.00     0.001 A 
ENDROOT
BRANCH   1   8
ATOM      8  C1  UNL d   1      -4.400  -0.145  -0.240  0.00  0.00     0.053 C 
ATOM      9  C   UNL d   1      -5.339   1.043  -0.103  0.00  0.00     0.018 C 
ENDBRANCH   1   8
TORSDOF 1
ENDMDL
