MODEL 1
REMARK minimizedAffinity 15.7505445
REMARK minimizedRMSD -1
REMARK  1 active torsions:
REMARK  status: ('A' for Active; 'I' for Inactive)
REMARK    1  A    between atoms: C1_2  and  C2_3 
ROOT
ATOM      1  C2  UNL d   1       2.765   1.945  -1.375  0.00  0.00    -0.073 A 
ATOM      2  C3  UNL d   1       1.529   2.051  -2.025  0.00  0.00    -0.002 A 
ATOM      3  C4  UNL d   1       1.393   2.861  -3.152  0.00  0.00     0.004 A 
ATOM      4  C5  UNL d   1       2.489   3.568  -3.646  0.00  0.00    -0.004 A 
ATOM      5  C6  UNL d   1       3.735   3.466  -3.018  0.00  0.00    -0.075 A 
ATOM      6  C7  UNL d   1       4.924   4.221  -3.535  0.00  0.00     0.076 C 
ATOM      7  C8  UNL d   1       3.863   2.652  -1.885  0.00  0.00     0.001 A 
ENDROOT
BRANCH   1   8
ATOM      8  C1  UNL d   1       2.918   1.066  -0.161  0.00  0.00     0.053 C 
ATOM      9  C   UNL d   1       2.713   1.839   1.132  0.00  0.00     0.018 C 
ENDBRANCH   1   8
TORSDOF 1
ENDMDL
