MODEL 1
REMARK minimizedAffinity 14.5435629
REMARK minimizedRMSD -1
REMARK  1 active torsions:
REMARK  status: ('A' for Active; 'I' for Inactive)
REMARK    1  A    between atoms: C1_2  and  C2_3 
ROOT
ATOM      1  C2  UNL d   1      -0.123  -1.056   2.224  0.00  0.00    -0.073 A 
ATOM      2  C3  UNL d   1      -0.927  -1.284   1.101  0.00  0.00    -0.002 A 
ATOM      3  C4  UNL d   1      -2.218  -0.757   1.040  0.00  0.00     0.004 A 
ATOM      4  C5  UNL d   1      -2.715   0.007   2.095  0.00  0.00    -0.004 A 
ATOM      5  C6  UNL d   1      -1.923   0.256   3.221  0.00  0.00    -0.075 A 
ATOM      6  C7  UNL d   1      -2.444   1.074   4.365  0.00  0.00     0.076 C 
ATOM      7  C8  UNL d   1      -0.628  -0.279   3.276  0.00  0.00     0.001 A 
ENDROOT
BRANCH   1   8
ATOM      8  C1  UNL d   1       1.274  -1.617   2.292  0.00  0.00     0.053 C 
ATOM      9  C   UNL d   1       1.607  -2.152   3.675  0.00  0.00     0.018 C 
ENDBRANCH   1   8
TORSDOF 1
ENDMDL
