MODEL 1
REMARK minimizedAffinity 11.4788055
REMARK minimizedRMSD -1
REMARK  1 active torsions:
REMARK  status: ('A' for Active; 'I' for Inactive)
REMARK    1  A    between atoms: C1_2  and  C2_3 
ROOT
ATOM      1  C2  UNL d   1       5.278   4.047  -2.251  0.00  0.00    -0.073 A 
ATOM      2  C3  UNL d   1       5.859   4.025  -3.524  0.00  0.00    -0.002 A 
ATOM      3  C4  UNL d   1       5.190   3.431  -4.594  0.00  0.00     0.004 A 
ATOM      4  C5  UNL d   1       3.932   2.859  -4.406  0.00  0.00    -0.004 A 
ATOM      5  C6  UNL d   1       3.329   2.880  -3.144  0.00  0.00    -0.075 A 
ATOM      6  C7  UNL d   1       1.978   2.267  -2.924  0.00  0.00     0.076 C 
ATOM      7  C8  UNL d   1       4.009   3.477  -2.073  0.00  0.00     0.001 A 
ENDROOT
BRANCH   1   8
ATOM      8  C1  UNL d   1       5.993   4.693  -1.093  0.00  0.00     0.053 C 
ATOM      9  C   UNL d   1       5.334   5.997  -0.671  0.00  0.00     0.018 C 
ENDBRANCH   1   8
TORSDOF 1
ENDMDL
