MODEL 1
REMARK minimizedAffinity 16.4213505
REMARK minimizedRMSD -1
REMARK  1 active torsions:
REMARK  status: ('A' for Active; 'I' for Inactive)
REMARK    1  A    between atoms: C1_2  and  C2_3 
ROOT
ATOM      1  C2  UNL d   1       2.667   1.740  -1.223  0.00  0.00    -0.073 A 
ATOM      2  C3  UNL d   1       2.005   0.703  -0.557  0.00  0.00    -0.002 A 
ATOM      3  C4  UNL d   1       2.400   0.323   0.727  0.00  0.00     0.004 A 
ATOM      4  C5  UNL d   1       3.455   0.981   1.359  0.00  0.00    -0.004 A 
ATOM      5  C6  UNL d   1       4.121   2.028   0.715  0.00  0.00    -0.075 A 
ATOM      6  C7  UNL d   1       5.260   2.744   1.380  0.00  0.00     0.076 C 
ATOM      7  C8  UNL d   1       3.720   2.402  -0.575  0.00  0.00     0.001 A 
ENDROOT
BRANCH   1   8
ATOM      8  C1  UNL d   1       2.239   2.158  -2.606  0.00  0.00     0.053 C 
ATOM      9  C   UNL d   1       1.774   3.605  -2.647  0.00  0.00     0.018 C 
ENDBRANCH   1   8
TORSDOF 1
ENDMDL
