MODEL 1
REMARK minimizedAffinity 20.5951176
REMARK minimizedRMSD -1
REMARK  1 active torsions:
REMARK  status: ('A' for Active; 'I' for Inactive)
REMARK    1  A    between atoms: C1_2  and  C2_3 
ROOT
ATOM      1  C2  UNL d   1       0.485   3.712  -3.366  0.00  0.00    -0.073 A 
ATOM      2  C3  UNL d   1       0.322   2.829  -2.293  0.00  0.00    -0.002 A 
ATOM      3  C4  UNL d   1       1.392   2.051  -1.851  0.00  0.00     0.004 A 
ATOM      4  C5  UNL d   1       2.637   2.153  -2.472  0.00  0.00    -0.004 A 
ATOM      5  C6  UNL d   1       2.824   3.038  -3.538  0.00  0.00    -0.075 A 
ATOM      6  C7  UNL d   1       4.156   3.158  -4.218  0.00  0.00     0.076 C 
ATOM      7  C8  UNL d   1       1.743   3.814  -3.978  0.00  0.00     0.001 A 
ENDROOT
BRANCH   1   8
ATOM      8  C1  UNL d   1      -0.667   4.559  -3.843  0.00  0.00     0.053 C 
ATOM      9  C   UNL d   1      -0.390   5.185  -5.201  0.00  0.00     0.018 C 
ENDBRANCH   1   8
TORSDOF 1
ENDMDL
