MODEL 1
REMARK minimizedAffinity -3.95279932
REMARK minimizedRMSD -1
REMARK  0 active torsions:
REMARK  status: ('A' for Active; 'I' for Inactive)
ROOT
ATOM      1  C   UNL d   1       0.416  -3.130   1.625  0.00  0.00    -0.002 A 
ATOM      2  C1  UNL d   1       1.680  -3.042   1.059  0.00  0.00     0.010 A 
ATOM      3  C2  UNL d   1       2.071  -1.893   0.370  0.00  0.00     0.041 A 
ATOM      4  C3  UNL d   1       1.162  -0.822   0.261  0.00  0.00    -0.075 A 
ATOM      5  S   UNL d   1       1.423   0.685  -0.536  0.00  0.00     0.015 SA
ATOM      6  C4  UNL d   1      -0.137   1.248  -0.142  0.00  0.00     0.022 A 
ATOM      7  C5  UNL d   1      -0.853   0.321   0.578  0.00  0.00     0.026 A 
ATOM      8  C6  UNL d   1      -0.116  -0.886   0.823  0.00  0.00    -0.082 A 
ATOM      9  C7  UNL d   1      -0.482  -2.066   1.514  0.00  0.00     0.045 A 
ENDROOT
TORSDOF 0
ENDMDL
