MODEL 1
REMARK minimizedAffinity -2.05345988
REMARK minimizedRMSD -1
REMARK  0 active torsions:
REMARK  status: ('A' for Active; 'I' for Inactive)
ROOT
ATOM      1  C   UNL d   1       1.898  -1.647  -0.310  0.00  0.00    -0.002 A 
ATOM      2  C1  UNL d   1       1.489  -2.595   0.617  0.00  0.00     0.010 A 
ATOM      3  C2  UNL d   1       0.462  -2.310   1.519  0.00  0.00     0.041 A 
ATOM      4  C3  UNL d   1      -0.154  -1.044   1.471  0.00  0.00    -0.075 A 
ATOM      5  S   UNL d   1      -1.433  -0.472   2.477  0.00  0.00     0.015 SA
ATOM      6  C4  UNL d   1      -1.468   1.043   1.698  0.00  0.00     0.022 A 
ATOM      7  C5  UNL d   1      -0.533   1.129   0.693  0.00  0.00     0.026 A 
ATOM      8  C6  UNL d   1       0.239  -0.073   0.546  0.00  0.00    -0.082 A 
ATOM      9  C7  UNL d   1       1.284  -0.393  -0.355  0.00  0.00     0.045 A 
ENDROOT
TORSDOF 0
ENDMDL
