MODEL 1
REMARK minimizedAffinity -2.84667921
REMARK minimizedRMSD -1
REMARK  0 active torsions:
REMARK  status: ('A' for Active; 'I' for Inactive)
ROOT
ATOM      1  C   UNL d   1       1.772  -2.331   1.162  0.00  0.00    -0.002 A 
ATOM      2  C1  UNL d   1       2.181  -1.546   0.094  0.00  0.00     0.010 A 
ATOM      3  C2  UNL d   1       1.374  -0.505  -0.372  0.00  0.00     0.041 A 
ATOM      4  C3  UNL d   1       0.139  -0.265   0.262  0.00  0.00    -0.075 A 
ATOM      5  S   UNL d   1      -1.013   0.955  -0.136  0.00  0.00     0.015 SA
ATOM      6  C4  UNL d   1      -2.074   0.462   1.103  0.00  0.00     0.022 A 
ATOM      7  C5  UNL d   1      -1.578  -0.606   1.813  0.00  0.00     0.026 A 
ATOM      8  C6  UNL d   1      -0.294  -1.042   1.340  0.00  0.00    -0.082 A 
ATOM      9  C7  UNL d   1       0.546  -2.090   1.788  0.00  0.00     0.045 A 
ENDROOT
TORSDOF 0
ENDMDL
