MODEL 1
REMARK minimizedAffinity -0.972963512
REMARK minimizedRMSD -1
REMARK  0 active torsions:
REMARK  status: ('A' for Active; 'I' for Inactive)
ROOT
ATOM      1  C   UNL d   1       1.542  -0.667  -0.385  0.00  0.00    -0.002 A 
ATOM      2  C1  UNL d   1       1.086   0.472   0.263  0.00  0.00     0.010 A 
ATOM      3  C2  UNL d   1      -0.045   1.148  -0.199  0.00  0.00     0.041 A 
ATOM      4  C3  UNL d   1      -0.718   0.653  -1.334  0.00  0.00    -0.075 A 
ATOM      5  S   UNL d   1      -2.126   1.315  -2.078  0.00  0.00     0.015 SA
ATOM      6  C4  UNL d   1      -2.155   0.100  -3.274  0.00  0.00     0.022 A 
ATOM      7  C5  UNL d   1      -1.124  -0.796  -3.124  0.00  0.00     0.026 A 
ATOM      8  C6  UNL d   1      -0.279  -0.493  -2.003  0.00  0.00    -0.082 A 
ATOM      9  C7  UNL d   1       0.871  -1.155  -1.511  0.00  0.00     0.045 A 
ENDROOT
TORSDOF 0
ENDMDL
