MODEL 1
REMARK minimizedAffinity -0.168577313
REMARK minimizedRMSD -1
REMARK  0 active torsions:
REMARK  status: ('A' for Active; 'I' for Inactive)
ROOT
ATOM      1  C   UNL d   1       1.755  -2.430   1.415  0.00  0.00    -0.002 A 
ATOM      2  C1  UNL d   1       0.513  -2.899   1.013  0.00  0.00     0.010 A 
ATOM      3  C2  UNL d   1      -0.415  -2.038   0.424  0.00  0.00     0.041 A 
ATOM      4  C3  UNL d   1      -0.070  -0.684   0.244  0.00  0.00    -0.075 A 
ATOM      5  S   UNL d   1      -1.047   0.553  -0.454  0.00  0.00     0.015 SA
ATOM      6  C4  UNL d   1       0.163   1.734  -0.236  0.00  0.00     0.022 A 
ATOM      7  C5  UNL d   1       1.290   1.215   0.355  0.00  0.00     0.026 A 
ATOM      8  C6  UNL d   1       1.175  -0.188   0.640  0.00  0.00    -0.082 A 
ATOM      9  C7  UNL d   1       2.094  -1.086   1.235  0.00  0.00     0.045 A 
ENDROOT
TORSDOF 0
ENDMDL
