MODEL 1
REMARK minimizedAffinity -3.11533999
REMARK minimizedRMSD -1
REMARK  0 active torsions:
REMARK  status: ('A' for Active; 'I' for Inactive)
ROOT
ATOM      1  C   UNL d   1       0.423   1.051  -2.146  0.00  0.00    -0.002 A 
ATOM      2  C1  UNL d   1      -0.769   1.315  -1.487  0.00  0.00     0.010 A 
ATOM      3  C2  UNL d   1      -1.095   0.638  -0.311  0.00  0.00     0.041 A 
ATOM      4  C3  UNL d   1      -0.194  -0.318   0.198  0.00  0.00    -0.075 A 
ATOM      5  S   UNL d   1      -0.382  -1.270   1.623  0.00  0.00     0.015 SA
ATOM      6  C4  UNL d   1       1.116  -2.049   1.391  0.00  0.00     0.022 A 
ATOM      7  C5  UNL d   1       1.757  -1.606   0.258  0.00  0.00     0.026 A 
ATOM      8  C6  UNL d   1       1.014  -0.601  -0.448  0.00  0.00    -0.082 A 
ATOM      9  C7  UNL d   1       1.315   0.102  -1.639  0.00  0.00     0.045 A 
ENDROOT
TORSDOF 0
ENDMDL
