MODEL 1
REMARK minimizedAffinity 0.949241579
REMARK minimizedRMSD -1
REMARK  1 active torsions:
REMARK  status: ('A' for Active; 'I' for Inactive)
REMARK    1  A    between atoms: C3_4  and  O_7 
ROOT
ATOM      1  C   UNL d   1      -0.129   2.000   2.235  0.00  0.00    -0.033 A 
ATOM      2  C1  UNL d   1       1.029   1.307   1.878  0.00  0.00     0.039 A 
ATOM      3  C2  UNL d   1       1.484   0.249   2.668  0.00  0.00    -0.080 A 
ATOM      4  C3  UNL d   1       0.772  -0.105   3.811  0.00  0.00     0.150 A 
ATOM      5  C4  UNL d   1      -0.385   0.579   4.171  0.00  0.00    -0.007 A 
ATOM      6  C5  UNL d   1      -0.837   1.635   3.381  0.00  0.00     0.039 A 
ENDROOT
BRANCH   4   7
ATOM      7  O   UNL d   1       1.179  -1.126   4.616  0.00  0.00    -0.526 OA
ATOM      8  H5  UNL d   1       2.008  -1.488   4.260  0.00  0.00     0.418 HD
ENDBRANCH   4   7
TORSDOF 1
ENDMDL
