MODEL 1
REMARK minimizedAffinity 5.89895391
REMARK minimizedRMSD -1
REMARK  1 active torsions:
REMARK  status: ('A' for Active; 'I' for Inactive)
REMARK    1  A    between atoms: C3_4  and  O_7 
ROOT
ATOM      1  C   UNL d   1      -4.458   2.255  -1.820  0.00  0.00    -0.033 A 
ATOM      2  C1  UNL d   1      -3.925   1.008  -1.489  0.00  0.00     0.039 A 
ATOM      3  C2  UNL d   1      -2.553   0.778  -1.611  0.00  0.00    -0.080 A 
ATOM      4  C3  UNL d   1      -1.727   1.803  -2.063  0.00  0.00     0.150 A 
ATOM      5  C4  UNL d   1      -2.250   3.049  -2.391  0.00  0.00    -0.007 A 
ATOM      6  C5  UNL d   1      -3.620   3.276  -2.270  0.00  0.00     0.039 A 
ENDROOT
BRANCH   4   7
ATOM      7  O   UNL d   1      -0.382   1.624  -2.203  0.00  0.00    -0.526 OA
ATOM      8  H5  UNL d   1      -0.168   0.706  -1.967  0.00  0.00     0.418 HD
ENDBRANCH   4   7
TORSDOF 1
ENDMDL
