MODEL 1
REMARK minimizedAffinity 5.23227596
REMARK minimizedRMSD -1
REMARK  1 active torsions:
REMARK  status: ('A' for Active; 'I' for Inactive)
REMARK    1  A    between atoms: C3_4  and  O_7 
ROOT
ATOM      1  C   UNL d   1      -0.582   0.586  -3.309  0.00  0.00    -0.033 A 
ATOM      2  C1  UNL d   1       0.316  -0.024  -2.431  0.00  0.00     0.039 A 
ATOM      3  C2  UNL d   1       0.417   0.423  -1.112  0.00  0.00    -0.080 A 
ATOM      4  C3  UNL d   1      -0.384   1.478  -0.684  0.00  0.00     0.150 A 
ATOM      5  C4  UNL d   1      -1.283   2.088  -1.553  0.00  0.00    -0.007 A 
ATOM      6  C5  UNL d   1      -1.382   1.641  -2.870  0.00  0.00     0.039 A 
ENDROOT
BRANCH   4   7
ATOM      7  O   UNL d   1      -0.317   1.952   0.592  0.00  0.00    -0.526 OA
ATOM      8  H5  UNL d   1       0.368   1.454   1.070  0.00  0.00     0.418 HD
ENDBRANCH   4   7
TORSDOF 1
ENDMDL
