MODEL 1
REMARK minimizedAffinity 3.69745493
REMARK minimizedRMSD -1
REMARK  1 active torsions:
REMARK  status: ('A' for Active; 'I' for Inactive)
REMARK    1  A    between atoms: C3_4  and  O_7 
ROOT
ATOM      1  C   UNL d   1      -4.527   3.369  -1.953  0.00  0.00    -0.033 A 
ATOM      2  C1  UNL d   1      -4.125   2.090  -1.563  0.00  0.00     0.039 A 
ATOM      3  C2  UNL d   1      -2.823   1.657  -1.819  0.00  0.00    -0.080 A 
ATOM      4  C3  UNL d   1      -1.933   2.511  -2.464  0.00  0.00     0.150 A 
ATOM      5  C4  UNL d   1      -2.325   3.788  -2.853  0.00  0.00    -0.007 A 
ATOM      6  C5  UNL d   1      -3.627   4.218  -2.597  0.00  0.00     0.039 A 
ENDROOT
BRANCH   4   7
ATOM      7  O   UNL d   1      -0.653   2.131  -2.740  0.00  0.00    -0.526 OA
ATOM      8  H5  UNL d   1      -0.533   1.215  -2.440  0.00  0.00     0.418 HD
ENDBRANCH   4   7
TORSDOF 1
ENDMDL
