MODEL 1
REMARK minimizedAffinity 1.34652293
REMARK minimizedRMSD -1
REMARK  1 active torsions:
REMARK  status: ('A' for Active; 'I' for Inactive)
REMARK    1  A    between atoms: C3_4  and  O_7 
ROOT
ATOM      1  C   UNL d   1      -3.263  -0.643  -3.167  0.00  0.00    -0.033 A 
ATOM      2  C1  UNL d   1      -3.010  -0.029  -1.939  0.00  0.00     0.039 A 
ATOM      3  C2  UNL d   1      -1.698   0.259  -1.558  0.00  0.00    -0.080 A 
ATOM      4  C3  UNL d   1      -0.650  -0.070  -2.414  0.00  0.00     0.150 A 
ATOM      5  C4  UNL d   1      -0.896  -0.678  -3.641  0.00  0.00    -0.007 A 
ATOM      6  C5  UNL d   1      -2.207  -0.966  -4.018  0.00  0.00     0.039 A 
ENDROOT
BRANCH   4   7
ATOM      7  O   UNL d   1       0.647   0.187  -2.084  0.00  0.00    -0.526 OA
ATOM      8  H5  UNL d   1       0.667   0.583  -1.197  0.00  0.00     0.418 HD
ENDBRANCH   4   7
TORSDOF 1
ENDMDL
