MODEL 1
REMARK minimizedAffinity 12.4994841
REMARK minimizedRMSD -1
REMARK  0 active torsions:
REMARK  status: ('A' for Active; 'I' for Inactive)
ROOT
ATOM      1  C   UNL d   1      -0.443  -1.224  -1.695  0.00  0.00    -0.002 A 
ATOM      2  C1  UNL d   1      -1.826  -1.129  -1.752  0.00  0.00     0.010 A 
ATOM      3  C2  UNL d   1      -2.442   0.068  -2.122  0.00  0.00     0.041 A 
ATOM      4  C3  UNL d   1      -1.636   1.179  -2.440  0.00  0.00    -0.075 A 
ATOM      5  S   UNL d   1      -2.169   2.747  -2.920  0.00  0.00     0.015 SA
ATOM      6  C4  UNL d   1      -0.573   3.327  -3.063  0.00  0.00     0.022 A 
ATOM      7  C5  UNL d   1       0.356   2.362  -2.755  0.00  0.00     0.026 A 
ATOM      8  C6  UNL d   1      -0.241   1.108  -2.391  0.00  0.00    -0.082 A 
ATOM      9  C7  UNL d   1       0.353  -0.119  -2.011  0.00  0.00     0.045 A 
ENDROOT
TORSDOF 0
ENDMDL
