MODEL 1
REMARK minimizedAffinity 8.5706358
REMARK minimizedRMSD -1
REMARK  0 active torsions:
REMARK  status: ('A' for Active; 'I' for Inactive)
ROOT
ATOM      1  C   UNL d   1       5.931   2.978   2.186  0.00  0.00    -0.002 A 
ATOM      2  C1  UNL d   1       5.928   3.455   0.882  0.00  0.00     0.010 A 
ATOM      3  C2  UNL d   1       5.945   2.570  -0.197  0.00  0.00     0.041 A 
ATOM      4  C3  UNL d   1       5.964   1.185   0.057  0.00  0.00    -0.075 A 
ATOM      5  S   UNL d   1       5.986  -0.086  -1.108  0.00  0.00     0.015 SA
ATOM      6  C4  UNL d   1       6.000  -1.291   0.096  0.00  0.00     0.022 A 
ATOM      7  C5  UNL d   1       5.988  -0.755   1.362  0.00  0.00     0.026 A 
ATOM      8  C6  UNL d   1       5.967   0.680   1.361  0.00  0.00    -0.082 A 
ATOM      9  C7  UNL d   1       5.950   1.603   2.434  0.00  0.00     0.045 A 
ENDROOT
TORSDOF 0
ENDMDL
