MODEL 1
REMARK minimizedAffinity -2.11284113
REMARK minimizedRMSD -1
REMARK  3 active torsions:
REMARK  status: ('A' for Active; 'I' for Inactive)
REMARK    1  A    between atoms: C3'_2  and  C2'_3 
REMARK    2  A    between atoms: C2'_3  and  C1'_4 
REMARK    3  A    between atoms: C1'_4  and  C1_5 
ROOT
ATOM      1  C1  N4B d   1      -0.288   1.028  -0.843  0.00  0.00    -0.075 A 
ATOM      2  C2  N4B d   1      -0.320   2.097  -1.765  0.00  0.00     0.002 A 
ATOM      3  C3  N4B d   1      -1.415   2.270  -2.576  0.00  0.00     0.002 A 
ATOM      4  C4  N4B d   1      -2.476   1.380  -2.496  0.00  0.00    -0.004 A 
ATOM      5  C5  N4B d   1      -2.447   0.366  -1.585  0.00  0.00     0.002 A 
ATOM      6  C6  N4B d   1      -1.355   0.182  -0.761  0.00  0.00     0.002 A 
ENDROOT
BRANCH   1   7
ATOM      7  C1' N4B d   1       0.923   0.747   0.005  0.00  0.00     0.057 C 
BRANCH   7   8
ATOM      8  C2' N4B d   1       1.911  -0.095  -0.797  0.00  0.00     0.009 C 
BRANCH   8   9
ATOM      9  C3' N4B d   1       2.298  -1.368  -0.065  0.00  0.00     0.004 C 
ATOM     10  C4' N4B d   1       2.230  -1.224   1.426  0.00  0.00     0.003 C 
ENDBRANCH   8   9
ENDBRANCH   7   8
ENDBRANCH   1   7
TORSDOF 3
ENDMDL
