MODEL 1
REMARK minimizedAffinity 0.557996392
REMARK minimizedRMSD -1
REMARK  3 active torsions:
REMARK  status: ('A' for Active; 'I' for Inactive)
REMARK    1  A    between atoms: C3'_2  and  C2'_3 
REMARK    2  A    between atoms: C2'_3  and  C1'_4 
REMARK    3  A    between atoms: C1'_4  and  C1_5 
ROOT
ATOM      1  C1  N4B d   1      -0.792   0.312  -0.518  0.00  0.00    -0.075 A 
ATOM      2  C2  N4B d   1       0.048   0.542   0.593  0.00  0.00     0.002 A 
ATOM      3  C3  N4B d   1      -0.312   0.076   1.834  0.00  0.00     0.002 A 
ATOM      4  C4  N4B d   1      -1.511  -0.604   1.990  0.00  0.00    -0.004 A 
ATOM      5  C5  N4B d   1      -2.305  -0.844   0.907  0.00  0.00     0.002 A 
ATOM      6  C6  N4B d   1      -1.954  -0.385  -0.347  0.00  0.00     0.002 A 
ENDROOT
BRANCH   1   7
ATOM      7  C1' N4B d   1      -0.483   0.876  -1.878  0.00  0.00     0.057 C 
BRANCH   7   8
ATOM      8  C2' N4B d   1      -1.109   2.262  -1.999  0.00  0.00     0.009 C 
BRANCH   8   9
ATOM      9  C3' N4B d   1      -2.236   2.290  -3.017  0.00  0.00     0.004 C 
ATOM     10  C4' N4B d   1      -2.094   1.231  -4.069  0.00  0.00     0.003 C 
ENDBRANCH   8   9
ENDBRANCH   7   8
ENDBRANCH   1   7
TORSDOF 3
ENDMDL
