MODEL 1
REMARK minimizedAffinity -3.18926978
REMARK minimizedRMSD -1
REMARK  3 active torsions:
REMARK  status: ('A' for Active; 'I' for Inactive)
REMARK    1  A    between atoms: C3'_2  and  C2'_3 
REMARK    2  A    between atoms: C2'_3  and  C1'_4 
REMARK    3  A    between atoms: C1'_4  and  C1_5 
ROOT
ATOM      1  C1  N4B d   1       0.299   0.060  -0.587  0.00  0.00    -0.075 A 
ATOM      2  C2  N4B d   1      -0.004  -0.796   0.494  0.00  0.00     0.002 A 
ATOM      3  C3  N4B d   1       1.005  -1.456   1.151  0.00  0.00     0.002 A 
ATOM      4  C4  N4B d   1       2.317  -1.290   0.736  0.00  0.00    -0.004 A 
ATOM      5  C5  N4B d   1       2.604  -0.441  -0.293  0.00  0.00     0.002 A 
ATOM      6  C6  N4B d   1       1.601   0.231  -0.961  0.00  0.00     0.002 A 
ENDROOT
BRANCH   1   7
ATOM      7  C1' N4B d   1      -0.778   0.736  -1.392  0.00  0.00     0.057 C 
BRANCH   7   8
ATOM      8  C2' N4B d   1      -0.665   2.246  -1.211  0.00  0.00     0.009 C 
BRANCH   8   9
ATOM      9  C3' N4B d   1      -1.472   3.005  -2.250  0.00  0.00     0.004 C 
ATOM     10  C4' N4B d   1      -2.283   2.100  -3.130  0.00  0.00     0.003 C 
ENDBRANCH   8   9
ENDBRANCH   7   8
ENDBRANCH   1   7
TORSDOF 3
ENDMDL
