MODEL 1
REMARK minimizedAffinity 1.71417308
REMARK minimizedRMSD -1
REMARK  3 active torsions:
REMARK  status: ('A' for Active; 'I' for Inactive)
REMARK    1  A    between atoms: C3'_2  and  C2'_3 
REMARK    2  A    between atoms: C2'_3  and  C1'_4 
REMARK    3  A    between atoms: C1'_4  and  C1_5 
ROOT
ATOM      1  C1  N4B d   1       0.819   0.455  -0.599  0.00  0.00    -0.075 A 
ATOM      2  C2  N4B d   1       0.069   0.097   0.543  0.00  0.00     0.002 A 
ATOM      3  C3  N4B d   1       0.653  -0.639   1.545  0.00  0.00     0.002 A 
ATOM      4  C4  N4B d   1       1.974  -1.042   1.419  0.00  0.00    -0.004 A 
ATOM      5  C5  N4B d   1       2.699  -0.670   0.325  0.00  0.00     0.002 A 
ATOM      6  C6  N4B d   1       2.126   0.073  -0.688  0.00  0.00     0.002 A 
ENDROOT
BRANCH   1   7
ATOM      7  C1' N4B d   1       0.200   1.185  -1.759  0.00  0.00     0.057 C 
BRANCH   7   8
ATOM      8  C2' N4B d   1      -1.241   0.715  -1.935  0.00  0.00     0.009 C 
BRANCH   8   9
ATOM      9  C3' N4B d   1      -2.067   1.703  -2.741  0.00  0.00     0.004 C 
ATOM     10  C4' N4B d   1      -1.926   1.506  -4.221  0.00  0.00     0.003 C 
ENDBRANCH   8   9
ENDBRANCH   7   8
ENDBRANCH   1   7
TORSDOF 3
ENDMDL
