MODEL 1
REMARK minimizedAffinity -6.80032682
REMARK minimizedRMSD -1
REMARK  3 active torsions:
REMARK  status: ('A' for Active; 'I' for Inactive)
REMARK    1  A    between atoms: C3'_2  and  C2'_3 
REMARK    2  A    between atoms: C2'_3  and  C1'_4 
REMARK    3  A    between atoms: C1'_4  and  C1_5 
ROOT
ATOM      1  C1  N4B d   1      -0.758  -0.958   0.956  0.00  0.00    -0.075 A 
ATOM      2  C2  N4B d   1      -1.108  -1.823   2.016  0.00  0.00     0.002 A 
ATOM      3  C3  N4B d   1      -0.303  -2.893   2.324  0.00  0.00     0.002 A 
ATOM      4  C4  N4B d   1       0.842  -3.127   1.577  0.00  0.00    -0.004 A 
ATOM      5  C5  N4B d   1       1.186  -2.272   0.571  0.00  0.00     0.002 A 
ATOM      6  C6  N4B d   1       0.389  -1.191   0.253  0.00  0.00     0.002 A 
ENDROOT
BRANCH   1   7
ATOM      7  C1' N4B d   1      -1.651   0.174   0.527  0.00  0.00     0.057 C 
BRANCH   7   8
ATOM      8  C2' N4B d   1      -1.433   0.449  -0.958  0.00  0.00     0.009 C 
BRANCH   8   9
ATOM      9  C3' N4B d   1      -2.740   0.459  -1.732  0.00  0.00     0.004 C 
ATOM     10  C4' N4B d   1      -2.709   1.383  -2.912  0.00  0.00     0.003 C 
ENDBRANCH   8   9
ENDBRANCH   7   8
ENDBRANCH   1   7
TORSDOF 3
ENDMDL
