MODEL 1
REMARK minimizedAffinity -6.3650198
REMARK minimizedRMSD -1
REMARK  3 active torsions:
REMARK  status: ('A' for Active; 'I' for Inactive)
REMARK    1  A    between atoms: C3'_2  and  C2'_3 
REMARK    2  A    between atoms: C2'_3  and  C1'_4 
REMARK    3  A    between atoms: C1'_4  and  C1_5 
ROOT
ATOM      1  C1  N4B d   1      -0.626  -0.558   1.037  0.00  0.00    -0.075 A 
ATOM      2  C2  N4B d   1       0.517  -0.767   0.234  0.00  0.00     0.002 A 
ATOM      3  C3  N4B d   1       1.495  -1.638   0.646  0.00  0.00     0.002 A 
ATOM      4  C4  N4B d   1       1.363  -2.294   1.861  0.00  0.00    -0.004 A 
ATOM      5  C5  N4B d   1       0.244  -2.106   2.619  0.00  0.00     0.002 A 
ATOM      6  C6  N4B d   1      -0.749  -1.237   2.215  0.00  0.00     0.002 A 
ENDROOT
BRANCH   1   7
ATOM      7  C1' N4B d   1      -1.682   0.448   0.670  0.00  0.00     0.057 C 
BRANCH   7   8
ATOM      8  C2' N4B d   1      -1.363   1.028  -0.705  0.00  0.00     0.009 C 
BRANCH   8   9
ATOM      9  C3' N4B d   1      -2.515   0.846  -1.679  0.00  0.00     0.004 C 
ATOM     10  C4' N4B d   1      -2.318   1.602  -2.959  0.00  0.00     0.003 C 
ENDBRANCH   8   9
ENDBRANCH   7   8
ENDBRANCH   1   7
TORSDOF 3
ENDMDL
