MODEL 1
REMARK minimizedAffinity -0.116068035
REMARK minimizedRMSD -1
REMARK  3 active torsions:
REMARK  status: ('A' for Active; 'I' for Inactive)
REMARK    1  A    between atoms: C3'_2  and  C2'_3 
REMARK    2  A    between atoms: C2'_3  and  C1'_4 
REMARK    3  A    between atoms: C1'_4  and  C1_5 
ROOT
ATOM      1  C1  N4B d   1      -0.476  -0.119   0.843  0.00  0.00    -0.075 A 
ATOM      2  C2  N4B d   1       0.559  -0.692   1.615  0.00  0.00     0.002 A 
ATOM      3  C3  N4B d   1       0.270  -1.285   2.819  0.00  0.00     0.002 A 
ATOM      4  C4  N4B d   1      -1.038  -1.302   3.279  0.00  0.00    -0.004 A 
ATOM      5  C5  N4B d   1      -2.036  -0.769   2.516  0.00  0.00     0.002 A 
ATOM      6  C6  N4B d   1      -1.760  -0.172   1.302  0.00  0.00     0.002 A 
ENDROOT
BRANCH   1   7
ATOM      7  C1' N4B d   1      -0.197   0.617  -0.439  0.00  0.00     0.057 C 
BRANCH   7   8
ATOM      8  C2' N4B d   1      -1.494   0.751  -1.231  0.00  0.00     0.009 C 
BRANCH   8   9
ATOM      9  C3' N4B d   1      -1.457   1.933  -2.185  0.00  0.00     0.004 C 
ATOM     10  C4' N4B d   1      -2.247   1.693  -3.437  0.00  0.00     0.003 C 
ENDBRANCH   8   9
ENDBRANCH   7   8
ENDBRANCH   1   7
TORSDOF 3
ENDMDL
