MODEL 1
REMARK minimizedAffinity -3.78622055
REMARK minimizedRMSD -1
REMARK  3 active torsions:
REMARK  status: ('A' for Active; 'I' for Inactive)
REMARK    1  A    between atoms: C3'_2  and  C2'_3 
REMARK    2  A    between atoms: C2'_3  and  C1'_4 
REMARK    3  A    between atoms: C1'_4  and  C1_5 
ROOT
ATOM      1  C1  N4B d   1      -1.100   0.968  -0.590  0.00  0.00    -0.075 A 
ATOM      2  C2  N4B d   1      -0.912   1.873  -1.658  0.00  0.00     0.002 A 
ATOM      3  C3  N4B d   1      -1.862   1.976  -2.644  0.00  0.00     0.002 A 
ATOM      4  C4  N4B d   1      -2.993   1.175  -2.594  0.00  0.00    -0.004 A 
ATOM      5  C5  N4B d   1      -3.179   0.322  -1.546  0.00  0.00     0.002 A 
ATOM      6  C6  N4B d   1      -2.234   0.211  -0.545  0.00  0.00     0.002 A 
ENDROOT
BRANCH   1   7
ATOM      7  C1' N4B d   1      -0.049   0.758   0.466  0.00  0.00     0.057 C 
BRANCH   7   8
ATOM      8  C2' N4B d   1       1.328   0.752  -0.191  0.00  0.00     0.009 C 
BRANCH   8   9
ATOM      9  C3' N4B d   1       1.752  -0.646  -0.608  0.00  0.00     0.004 C 
ATOM     10  C4' N4B d   1       2.127  -1.511   0.558  0.00  0.00     0.003 C 
ENDBRANCH   8   9
ENDBRANCH   7   8
ENDBRANCH   1   7
TORSDOF 3
ENDMDL
