MODEL 1
REMARK minimizedAffinity 6.4330039
REMARK minimizedRMSD -1
REMARK  2 active torsions:
REMARK  status: ('A' for Active; 'I' for Inactive)
REMARK    1  A    between atoms: C1_2  and  C2_3 
REMARK    2  A    between atoms: C2_3  and  C3_4 
ROOT
ATOM      1  C3  UNL d   1      -0.840   0.883  -0.312  0.00  0.00    -0.075 A 
ATOM      2  C4  UNL d   1      -0.267   0.333   0.844  0.00  0.00     0.002 A 
ATOM      3  C5  UNL d   1       0.905   0.869   1.378  0.00  0.00     0.002 A 
ATOM      4  C6  UNL d   1       1.524   1.953   0.759  0.00  0.00    -0.004 A 
ATOM      5  C7  UNL d   1       0.973   2.496  -0.399  0.00  0.00     0.002 A 
ATOM      6  C8  UNL d   1      -0.202   1.965  -0.934  0.00  0.00     0.002 A 
ENDROOT
BRANCH   1   7
ATOM      7  C2  UNL d   1      -2.124   0.326  -0.878  0.00  0.00     0.056 C 
BRANCH   7   8
ATOM      8  C1  UNL d   1      -1.968  -0.323  -2.257  0.00  0.00     0.007 C 
ATOM      9  C   UNL d   1      -2.991  -1.419  -2.524  0.00  0.00     0.009 C 
ENDBRANCH   7   8
ENDBRANCH   1   7
TORSDOF 2
ENDMDL
