MODEL 1
REMARK minimizedAffinity -0.883869171
REMARK minimizedRMSD -1
REMARK  2 active torsions:
REMARK  status: ('A' for Active; 'I' for Inactive)
REMARK    1  A    between atoms: C1_2  and  C2_3 
REMARK    2  A    between atoms: C2_3  and  C3_4 
ROOT
ATOM      1  C3  UNL d   1      -0.725   5.989  -4.284  0.00  0.00    -0.075 A 
ATOM      2  C4  UNL d   1      -0.013   6.000  -3.075  0.00  0.00     0.002 A 
ATOM      3  C5  UNL d   1      -0.689   5.994  -1.855  0.00  0.00     0.002 A 
ATOM      4  C6  UNL d   1      -2.082   5.988  -1.827  0.00  0.00    -0.004 A 
ATOM      5  C7  UNL d   1      -2.799   5.994  -3.021  0.00  0.00     0.002 A 
ATOM      6  C8  UNL d   1      -2.125   5.996  -4.244  0.00  0.00     0.002 A 
ENDROOT
BRANCH   1   7
ATOM      7  C2  UNL d   1       0.001   5.966  -5.608  0.00  0.00     0.056 C 
BRANCH   7   8
ATOM      8  C1  UNL d   1       1.246   5.073  -5.620  0.00  0.00     0.007 C 
ATOM      9  C   UNL d   1       2.518   5.822  -5.996  0.00  0.00     0.009 C 
ENDBRANCH   7   8
ENDBRANCH   1   7
TORSDOF 2
ENDMDL
