MODEL 1
REMARK minimizedAffinity 6.16416883
REMARK minimizedRMSD -1
REMARK  2 active torsions:
REMARK  status: ('A' for Active; 'I' for Inactive)
REMARK    1  A    between atoms: C1_2  and  C2_3 
REMARK    2  A    between atoms: C2_3  and  C3_4 
ROOT
ATOM      1  C3  UNL d   1       0.258   1.466   0.170  0.00  0.00    -0.075 A 
ATOM      2  C4  UNL d   1      -1.047   0.966   0.049  0.00  0.00     0.002 A 
ATOM      3  C5  UNL d   1      -1.511  -0.023   0.916  0.00  0.00     0.002 A 
ATOM      4  C6  UNL d   1      -0.675  -0.533   1.907  0.00  0.00    -0.004 A 
ATOM      5  C7  UNL d   1       0.629  -0.056   2.026  0.00  0.00     0.002 A 
ATOM      6  C8  UNL d   1       1.094   0.937   1.163  0.00  0.00     0.002 A 
ENDROOT
BRANCH   1   7
ATOM      7  C2  UNL d   1       0.755   2.557  -0.746  0.00  0.00     0.056 C 
BRANCH   7   8
ATOM      8  C1  UNL d   1       1.882   3.408  -0.149  0.00  0.00     0.007 C 
ATOM      9  C   UNL d   1       3.190   3.298  -0.920  0.00  0.00     0.009 C 
ENDBRANCH   7   8
ENDBRANCH   1   7
TORSDOF 2
ENDMDL
