MODEL 1
REMARK minimizedAffinity 5.59765339
REMARK minimizedRMSD -1
REMARK  2 active torsions:
REMARK  status: ('A' for Active; 'I' for Inactive)
REMARK    1  A    between atoms: C1_2  and  C2_3 
REMARK    2  A    between atoms: C2_3  and  C3_4 
ROOT
ATOM      1  C3  UNL d   1       2.099   4.747  -5.702  0.00  0.00    -0.075 A 
ATOM      2  C4  UNL d   1       2.810   5.923  -5.984  0.00  0.00     0.002 A 
ATOM      3  C5  UNL d   1       4.192   5.977  -5.798  0.00  0.00     0.002 A 
ATOM      4  C6  UNL d   1       4.877   4.864  -5.319  0.00  0.00    -0.004 A 
ATOM      5  C7  UNL d   1       4.179   3.696  -5.019  0.00  0.00     0.002 A 
ATOM      6  C8  UNL d   1       2.797   3.637  -5.209  0.00  0.00     0.002 A 
ENDROOT
BRANCH   1   7
ATOM      7  C2  UNL d   1       0.608   4.672  -5.930  0.00  0.00     0.056 C 
BRANCH   7   8
ATOM      8  C1  UNL d   1      -0.136   5.974  -5.616  0.00  0.00     0.007 C 
ATOM      9  C   UNL d   1      -0.768   5.986  -4.230  0.00  0.00     0.009 C 
ENDBRANCH   7   8
ENDBRANCH   1   7
TORSDOF 2
ENDMDL
