MODEL 1
REMARK minimizedAffinity 2.23083377
REMARK minimizedRMSD -1
REMARK  2 active torsions:
REMARK  status: ('A' for Active; 'I' for Inactive)
REMARK    1  A    between atoms: C1_2  and  C2_3 
REMARK    2  A    between atoms: C2_3  and  C3_4 
ROOT
ATOM      1  C3  UNL d   1       0.618  -0.413  -0.168  0.00  0.00    -0.075 A 
ATOM      2  C4  UNL d   1      -0.591  -0.832   0.407  0.00  0.00     0.002 A 
ATOM      3  C5  UNL d   1      -1.150  -0.126   1.473  0.00  0.00     0.002 A 
ATOM      4  C6  UNL d   1      -0.504   0.998   1.984  0.00  0.00    -0.004 A 
ATOM      5  C7  UNL d   1       0.706   1.413   1.431  0.00  0.00     0.002 A 
ATOM      6  C8  UNL d   1       1.265   0.711   0.361  0.00  0.00     0.002 A 
ENDROOT
BRANCH   1   7
ATOM      7  C2  UNL d   1       1.213  -1.155  -1.341  0.00  0.00     0.056 C 
BRANCH   7   8
ATOM      8  C1  UNL d   1       0.727  -0.657  -2.706  0.00  0.00     0.007 C 
ATOM      9  C   UNL d   1      -0.040  -1.712  -3.492  0.00  0.00     0.009 C 
ENDBRANCH   7   8
ENDBRANCH   1   7
TORSDOF 2
ENDMDL
