MODEL 1
REMARK minimizedAffinity 11.185276
REMARK minimizedRMSD -1
REMARK  2 active torsions:
REMARK  status: ('A' for Active; 'I' for Inactive)
REMARK    1  A    between atoms: C1_2  and  C2_3 
REMARK    2  A    between atoms: C2_3  and  C3_4 
ROOT
ATOM      1  C3  UNL d   1       0.711   0.926   0.271  0.00  0.00    -0.075 A 
ATOM      2  C4  UNL d   1       1.078   0.537  -1.026  0.00  0.00     0.002 A 
ATOM      3  C5  UNL d   1       1.706   1.440  -1.885  0.00  0.00     0.002 A 
ATOM      4  C6  UNL d   1       1.964   2.743  -1.463  0.00  0.00    -0.004 A 
ATOM      5  C7  UNL d   1       1.588   3.144  -0.183  0.00  0.00     0.002 A 
ATOM      6  C8  UNL d   1       0.964   2.242   0.680  0.00  0.00     0.002 A 
ENDROOT
BRANCH   1   7
ATOM      7  C2  UNL d   1       0.058  -0.055   1.215  0.00  0.00     0.056 C 
BRANCH   7   8
ATOM      8  C1  UNL d   1      -0.181  -1.442   0.607  0.00  0.00     0.007 C 
ATOM      9  C   UNL d   1      -0.998  -2.359   1.507  0.00  0.00     0.009 C 
ENDBRANCH   7   8
ENDBRANCH   1   7
TORSDOF 2
ENDMDL
