MODEL 1
REMARK minimizedAffinity 1.7418803
REMARK minimizedRMSD -1
REMARK  2 active torsions:
REMARK  status: ('A' for Active; 'I' for Inactive)
REMARK    1  A    between atoms: C1_2  and  C2_3 
REMARK    2  A    between atoms: C2_3  and  C3_4 
ROOT
ATOM      1  C3  UNL d   1      -1.369   5.591  -1.049  0.00  0.00    -0.075 A 
ATOM      2  C4  UNL d   1      -2.510   5.747  -0.248  0.00  0.00     0.002 A 
ATOM      3  C5  UNL d   1      -3.762   5.945  -0.830  0.00  0.00     0.002 A 
ATOM      4  C6  UNL d   1      -3.888   6.000  -2.217  0.00  0.00    -0.004 A 
ATOM      5  C7  UNL d   1      -2.759   5.863  -3.021  0.00  0.00     0.002 A 
ATOM      6  C8  UNL d   1      -1.505   5.660  -2.442  0.00  0.00     0.002 A 
ENDROOT
BRANCH   1   7
ATOM      7  C2  UNL d   1      -0.015   5.347  -0.426  0.00  0.00     0.056 C 
BRANCH   7   8
ATOM      8  C1  UNL d   1       0.711   4.115  -0.975  0.00  0.00     0.007 C 
ATOM      9  C   UNL d   1       1.529   3.380   0.080  0.00  0.00     0.009 C 
ENDBRANCH   7   8
ENDBRANCH   1   7
TORSDOF 2
ENDMDL
