MODEL 1
REMARK minimizedAffinity 2.25281596
REMARK minimizedRMSD -1
REMARK  2 active torsions:
REMARK  status: ('A' for Active; 'I' for Inactive)
REMARK    1  A    between atoms: C1_2  and  C2_3 
REMARK    2  A    between atoms: C2_3  and  C3_4 
ROOT
ATOM      1  C3  UNL d   1       0.985   1.042   1.343  0.00  0.00    -0.075 A 
ATOM      2  C4  UNL d   1       0.436  -0.066   0.682  0.00  0.00     0.002 A 
ATOM      3  C5  UNL d   1      -0.654  -0.747   1.226  0.00  0.00     0.002 A 
ATOM      4  C6  UNL d   1      -1.200  -0.337   2.440  0.00  0.00    -0.004 A 
ATOM      5  C7  UNL d   1      -0.652   0.752   3.114  0.00  0.00     0.002 A 
ATOM      6  C8  UNL d   1       0.435   1.439   2.569  0.00  0.00     0.002 A 
ENDROOT
BRANCH   1   7
ATOM      7  C2  UNL d   1       2.145   1.802   0.745  0.00  0.00     0.056 C 
BRANCH   7   8
ATOM      8  C1  UNL d   1       1.896   3.307   0.600  0.00  0.00     0.007 C 
ATOM      9  C   UNL d   1       0.758   3.639  -0.356  0.00  0.00     0.009 C 
ENDBRANCH   7   8
ENDBRANCH   1   7
TORSDOF 2
ENDMDL
