MODEL 1
REMARK minimizedAffinity -2.40790272
REMARK minimizedRMSD -1
REMARK  2 active torsions:
REMARK  status: ('A' for Active; 'I' for Inactive)
REMARK    1  A    between atoms: C1_2  and  C2_3 
REMARK    2  A    between atoms: C2_3  and  C3_4 
ROOT
ATOM      1  C3  UNL d   1      -0.873   5.980  -3.004  0.00  0.00    -0.075 A 
ATOM      2  C4  UNL d   1      -1.832   5.991  -4.027  0.00  0.00     0.002 A 
ATOM      3  C5  UNL d   1      -3.194   6.000  -3.722  0.00  0.00     0.002 A 
ATOM      4  C6  UNL d   1      -3.613   5.987  -2.394  0.00  0.00    -0.004 A 
ATOM      5  C7  UNL d   1      -2.669   5.959  -1.369  0.00  0.00     0.002 A 
ATOM      6  C8  UNL d   1      -1.307   5.955  -1.671  0.00  0.00     0.002 A 
ENDROOT
BRANCH   1   7
ATOM      7  C2  UNL d   1       0.602   5.999  -3.327  0.00  0.00     0.056 C 
BRANCH   7   8
ATOM      8  C1  UNL d   1       0.912   5.943  -4.826  0.00  0.00     0.007 C 
ATOM      9  C   UNL d   1       1.163   4.530  -5.335  0.00  0.00     0.009 C 
ENDBRANCH   7   8
ENDBRANCH   1   7
TORSDOF 2
ENDMDL
