MODEL 1
REMARK minimizedAffinity -1.51786613
REMARK minimizedRMSD -1
REMARK  2 active torsions:
REMARK  status: ('A' for Active; 'I' for Inactive)
REMARK    1  A    between atoms: C1_2  and  C2_3 
REMARK    2  A    between atoms: C2_3  and  C3_4 
ROOT
ATOM      1  C3  UNL d   1      -0.558   5.946  -4.738  0.00  0.00    -0.075 A 
ATOM      2  C4  UNL d   1      -0.071   5.931  -3.423  0.00  0.00     0.002 A 
ATOM      3  C5  UNL d   1      -0.953   5.935  -2.342  0.00  0.00     0.002 A 
ATOM      4  C6  UNL d   1      -2.328   5.964  -2.560  0.00  0.00    -0.004 A 
ATOM      5  C7  UNL d   1      -2.823   5.996  -3.862  0.00  0.00     0.002 A 
ATOM      6  C8  UNL d   1      -1.943   5.988  -4.946  0.00  0.00     0.002 A 
ENDROOT
BRANCH   1   7
ATOM      7  C2  UNL d   1       0.390   5.912  -5.913  0.00  0.00     0.056 C 
BRANCH   7   8
ATOM      8  C1  UNL d   1       1.672   5.114  -5.657  0.00  0.00     0.007 C 
ATOM      9  C   UNL d   1       2.912   5.991  -5.544  0.00  0.00     0.009 C 
ENDBRANCH   7   8
ENDBRANCH   1   7
TORSDOF 2
ENDMDL
