MODEL 1
REMARK minimizedAffinity 2.4386704
REMARK minimizedRMSD -1
REMARK  2 active torsions:
REMARK  status: ('A' for Active; 'I' for Inactive)
REMARK    1  A    between atoms: C1_2  and  C2_3 
REMARK    2  A    between atoms: C2_3  and  C3_4 
ROOT
ATOM      1  C3  UNL d   1       0.389   0.774   1.108  0.00  0.00    -0.075 A 
ATOM      2  C4  UNL d   1       1.038  -0.230   0.375  0.00  0.00     0.002 A 
ATOM      3  C5  UNL d   1       0.319  -1.313  -0.132  0.00  0.00     0.002 A 
ATOM      4  C6  UNL d   1      -1.052  -1.411   0.095  0.00  0.00    -0.004 A 
ATOM      5  C7  UNL d   1      -1.703  -0.427   0.836  0.00  0.00     0.002 A 
ATOM      6  C8  UNL d   1      -0.988   0.660   1.341  0.00  0.00     0.002 A 
ENDROOT
BRANCH   1   7
ATOM      7  C2  UNL d   1       1.156   1.964   1.634  0.00  0.00     0.056 C 
BRANCH   7   8
ATOM      8  C1  UNL d   1       1.554   2.977   0.556  0.00  0.00     0.007 C 
ATOM      9  C   UNL d   1       0.359   3.652  -0.103  0.00  0.00     0.009 C 
ENDBRANCH   7   8
ENDBRANCH   1   7
TORSDOF 2
ENDMDL
