MODEL 1
REMARK minimizedAffinity 5.21998549
REMARK minimizedRMSD -1
REMARK  2 active torsions:
REMARK  status: ('A' for Active; 'I' for Inactive)
REMARK    1  A    between atoms: C1_2  and  C2_3 
REMARK    2  A    between atoms: C2_3  and  C3_4 
ROOT
ATOM      1  C3  UNL d   1       0.169   0.720   2.842  0.00  0.00    -0.075 A 
ATOM      2  C4  UNL d   1      -1.126   0.386   2.421  0.00  0.00     0.002 A 
ATOM      3  C5  UNL d   1      -1.343  -0.141   1.147  0.00  0.00     0.002 A 
ATOM      4  C6  UNL d   1      -0.272  -0.332   0.277  0.00  0.00    -0.004 A 
ATOM      5  C7  UNL d   1       1.017   0.012   0.679  0.00  0.00     0.002 A 
ATOM      6  C8  UNL d   1       1.237   0.536   1.955  0.00  0.00     0.002 A 
ENDROOT
BRANCH   1   7
ATOM      7  C2  UNL d   1       0.414   1.264   4.229  0.00  0.00     0.056 C 
BRANCH   7   8
ATOM      8  C1  UNL d   1       1.292   0.364   5.106  0.00  0.00     0.007 C 
ATOM      9  C   UNL d   1       2.247   1.144   6.000  0.00  0.00     0.009 C 
ENDBRANCH   7   8
ENDBRANCH   1   7
TORSDOF 2
ENDMDL
