MODEL 1
REMARK minimizedAffinity 3.87480497
REMARK minimizedRMSD -1
REMARK  2 active torsions:
REMARK  status: ('A' for Active; 'I' for Inactive)
REMARK    1  A    between atoms: C1_2  and  C2_3 
REMARK    2  A    between atoms: C2_3  and  C3_4 
ROOT
ATOM      1  C3  UNL d   1       1.118   4.721  -5.122  0.00  0.00    -0.075 A 
ATOM      2  C4  UNL d   1       0.434   3.543  -4.791  0.00  0.00     0.002 A 
ATOM      3  C5  UNL d   1      -0.763   3.595  -4.076  0.00  0.00     0.002 A 
ATOM      4  C6  UNL d   1      -1.285   4.823  -3.675  0.00  0.00    -0.004 A 
ATOM      5  C7  UNL d   1      -0.605   5.999  -3.983  0.00  0.00     0.002 A 
ATOM      6  C8  UNL d   1       0.591   5.950  -4.702  0.00  0.00     0.002 A 
ENDROOT
BRANCH   1   7
ATOM      7  C2  UNL d   1       2.399   4.673  -5.921  0.00  0.00     0.056 C 
BRANCH   7   8
ATOM      8  C1  UNL d   1       3.166   5.999  -5.951  0.00  0.00     0.007 C 
ATOM      9  C   UNL d   1       4.677   5.820  -5.890  0.00  0.00     0.009 C 
ENDBRANCH   7   8
ENDBRANCH   1   7
TORSDOF 2
ENDMDL
