MODEL 1
REMARK minimizedAffinity -1.85392904
REMARK minimizedRMSD -1
REMARK  2 active torsions:
REMARK  status: ('A' for Active; 'I' for Inactive)
REMARK    1  A    between atoms: C1_2  and  C2_3 
REMARK    2  A    between atoms: C2_3  and  C3_4 
ROOT
ATOM      1  C3  UNL d   1      -0.407   5.981  -3.931  0.00  0.00    -0.075 A 
ATOM      2  C4  UNL d   1      -0.031   5.997  -2.580  0.00  0.00     0.002 A 
ATOM      3  C5  UNL d   1      -1.000   6.000  -1.576  0.00  0.00     0.002 A 
ATOM      4  C6  UNL d   1      -2.353   5.997  -1.908  0.00  0.00    -0.004 A 
ATOM      5  C7  UNL d   1      -2.737   5.998  -3.247  0.00  0.00     0.002 A 
ATOM      6  C8  UNL d   1      -1.770   5.991  -4.254  0.00  0.00     0.002 A 
ENDROOT
BRANCH   1   7
ATOM      7  C2  UNL d   1       0.637   5.949  -5.022  0.00  0.00     0.056 C 
BRANCH   7   8
ATOM      8  C1  UNL d   1       2.079   5.965  -4.507  0.00  0.00     0.007 C 
ATOM      9  C   UNL d   1       3.044   5.191  -5.396  0.00  0.00     0.009 C 
ENDBRANCH   7   8
ENDBRANCH   1   7
TORSDOF 2
ENDMDL
