MODEL 1
REMARK minimizedAffinity 1.65535796
REMARK minimizedRMSD -1
REMARK  2 active torsions:
REMARK  status: ('A' for Active; 'I' for Inactive)
REMARK    1  A    between atoms: C1_2  and  C2_3 
REMARK    2  A    between atoms: C2_3  and  C3_4 
ROOT
ATOM      1  C3  UNL d   1       3.604   5.391  -5.337  0.00  0.00    -0.075 A 
ATOM      2  C4  UNL d   1       4.864   5.982  -5.514  0.00  0.00     0.002 A 
ATOM      3  C5  UNL d   1       5.997   5.425  -4.921  0.00  0.00     0.002 A 
ATOM      4  C6  UNL d   1       5.885   4.279  -4.137  0.00  0.00    -0.004 A 
ATOM      5  C7  UNL d   1       4.636   3.693  -3.940  0.00  0.00     0.002 A 
ATOM      6  C8  UNL d   1       3.501   4.246  -4.536  0.00  0.00     0.002 A 
ENDROOT
BRANCH   1   7
ATOM      7  C2  UNL d   1       2.378   5.973  -6.000  0.00  0.00     0.056 C 
BRANCH   7   8
ATOM      8  C1  UNL d   1       1.065   5.306  -5.576  0.00  0.00     0.007 C 
ATOM      9  C   UNL d   1       0.468   5.907  -4.311  0.00  0.00     0.009 C 
ENDBRANCH   7   8
ENDBRANCH   1   7
TORSDOF 2
ENDMDL
