MODEL 1
REMARK minimizedAffinity 1.60702026
REMARK minimizedRMSD -1
REMARK  2 active torsions:
REMARK  status: ('A' for Active; 'I' for Inactive)
REMARK    1  A    between atoms: C1_2  and  C2_3 
REMARK    2  A    between atoms: C2_3  and  C3_4 
ROOT
ATOM      1  C3  UNL d   1      -1.501   5.972  -3.175  0.00  0.00    -0.075 A 
ATOM      2  C4  UNL d   1      -0.212   5.988  -2.623  0.00  0.00     0.002 A 
ATOM      3  C5  UNL d   1       0.912   5.996  -3.449  0.00  0.00     0.002 A 
ATOM      4  C6  UNL d   1       0.763   5.977  -4.834  0.00  0.00    -0.004 A 
ATOM      5  C7  UNL d   1      -0.513   5.945  -5.393  0.00  0.00     0.002 A 
ATOM      6  C8  UNL d   1      -1.640   5.942  -4.569  0.00  0.00     0.002 A 
ENDROOT
BRANCH   1   7
ATOM      7  C2  UNL d   1      -2.722   5.994  -2.287  0.00  0.00     0.056 C 
BRANCH   7   8
ATOM      8  C1  UNL d   1      -4.049   5.927  -3.049  0.00  0.00     0.007 C 
ATOM      9  C   UNL d   1      -5.269   5.991  -2.139  0.00  0.00     0.009 C 
ENDBRANCH   7   8
ENDBRANCH   1   7
TORSDOF 2
ENDMDL
