MODEL 1
REMARK minimizedAffinity 0.847279191
REMARK minimizedRMSD -1
REMARK  2 active torsions:
REMARK  status: ('A' for Active; 'I' for Inactive)
REMARK    1  A    between atoms: C1_2  and  C2_3 
REMARK    2  A    between atoms: C2_3  and  C3_4 
ROOT
ATOM      1  C3  UNL d   1       0.908   0.267   0.184  0.00  0.00    -0.075 A 
ATOM      2  C4  UNL d   1       1.089   1.239   1.179  0.00  0.00     0.002 A 
ATOM      3  C5  UNL d   1       1.766   2.425   0.896  0.00  0.00     0.002 A 
ATOM      4  C6  UNL d   1       2.278   2.651  -0.380  0.00  0.00    -0.004 A 
ATOM      5  C7  UNL d   1       2.119   1.686  -1.372  0.00  0.00     0.002 A 
ATOM      6  C8  UNL d   1       1.438   0.500  -1.092  0.00  0.00     0.002 A 
ENDROOT
BRANCH   1   7
ATOM      7  C2  UNL d   1       0.151  -1.006   0.476  0.00  0.00     0.056 C 
BRANCH   7   8
ATOM      8  C1  UNL d   1      -1.178  -0.788   1.207  0.00  0.00     0.007 C 
ATOM      9  C   UNL d   1      -1.854  -2.087   1.626  0.00  0.00     0.009 C 
ENDBRANCH   7   8
ENDBRANCH   1   7
TORSDOF 2
ENDMDL
