MODEL 1
REMARK minimizedAffinity 3.46475053
REMARK minimizedRMSD -1
REMARK  0 active torsions:
REMARK  status: ('A' for Active; 'I' for Inactive)
ROOT
ATOM      1  C   UNL d   1       0.650   3.583   0.974  0.00  0.00     0.124 A 
ATOM      2  C1  UNL d   1       0.183   2.785  -0.061  0.00  0.00     0.062 A 
ATOM      3  C2  UNL d   1       0.093   1.406   0.105  0.00  0.00     0.162 A 
ATOM      4  C3  UNL d   1       0.470   0.816   1.311  0.00  0.00    -0.034 A 
ATOM      5  C4  UNL d   1       0.939   1.625   2.347  0.00  0.00     0.162 A 
ATOM      6  C5  UNL d   1       1.027   3.003   2.177  0.00  0.00     0.062 A 
ATOM      7  F   UNL d   1       1.479   3.772   3.178  0.00  0.00    -0.097 F 
ATOM      8  F1  UNL d   1       1.309   1.090   3.520  0.00  0.00    -0.096 F 
ATOM      9  I   UNL d   1       0.336  -1.246   1.562  0.00  0.00    -0.060 I 
ATOM     10  F2  UNL d   1      -0.361   0.659  -0.913  0.00  0.00    -0.096 F 
ATOM     11  F3  UNL d   1      -0.181   3.344  -1.224  0.00  0.00    -0.097 F 
ATOM     12  F4  UNL d   1       0.737   4.910   0.812  0.00  0.00    -0.092 F 
ENDROOT
TORSDOF 0
ENDMDL
