MODEL 1
REMARK minimizedAffinity 7.51519489
REMARK minimizedRMSD -1
REMARK  0 active torsions:
REMARK  status: ('A' for Active; 'I' for Inactive)
ROOT
ATOM      1  C   UNL d   1      -0.808   0.610  -0.482  0.00  0.00     0.124 A 
ATOM      2  C1  UNL d   1      -0.696   1.982  -0.662  0.00  0.00     0.062 A 
ATOM      3  C2  UNL d   1      -0.009   2.756   0.268  0.00  0.00     0.162 A 
ATOM      4  C3  UNL d   1       0.573   2.161   1.387  0.00  0.00    -0.034 A 
ATOM      5  C4  UNL d   1       0.456   0.781   1.562  0.00  0.00     0.162 A 
ATOM      6  C5  UNL d   1      -0.232   0.011   0.630  0.00  0.00     0.062 A 
ATOM      7  F   UNL d   1      -0.338  -1.314   0.806  0.00  0.00    -0.097 F 
ATOM      8  F1  UNL d   1       1.004   0.176   2.626  0.00  0.00    -0.096 F 
ATOM      9  I   UNL d   1       1.602   3.316   2.780  0.00  0.00    -0.060 I 
ATOM     10  F2  UNL d   1       0.083   4.080   0.068  0.00  0.00    -0.096 F 
ATOM     11  F3  UNL d   1      -1.253   2.563  -1.734  0.00  0.00    -0.097 F 
ATOM     12  F4  UNL d   1      -1.470  -0.133  -1.377  0.00  0.00    -0.092 F 
ENDROOT
TORSDOF 0
ENDMDL
