MODEL 1
REMARK minimizedAffinity 11.5642891
REMARK minimizedRMSD -1
REMARK  0 active torsions:
REMARK  status: ('A' for Active; 'I' for Inactive)
ROOT
ATOM      1  C   UNL d   1       1.027   1.833   2.400  0.00  0.00     0.124 A 
ATOM      2  C1  UNL d   1       0.518   2.716   1.458  0.00  0.00     0.062 A 
ATOM      3  C2  UNL d   1      -0.061   2.235   0.288  0.00  0.00     0.162 A 
ATOM      4  C3  UNL d   1      -0.135   0.862   0.053  0.00  0.00    -0.034 A 
ATOM      5  C4  UNL d   1       0.380  -0.020   1.004  0.00  0.00     0.162 A 
ATOM      6  C5  UNL d   1       0.957   0.466   2.172  0.00  0.00     0.062 A 
ATOM      7  F   UNL d   1       1.449  -0.389   3.081  0.00  0.00    -0.097 F 
ATOM      8  F1  UNL d   1       0.325  -1.346   0.810  0.00  0.00    -0.096 F 
ATOM      9  I   UNL d   1      -1.000   0.137  -1.696  0.00  0.00    -0.060 I 
ATOM     10  F2  UNL d   1      -0.545   3.111  -0.605  0.00  0.00    -0.096 F 
ATOM     11  F3  UNL d   1       0.584   4.038   1.675  0.00  0.00    -0.097 F 
ATOM     12  F4  UNL d   1       1.584   2.300   3.525  0.00  0.00    -0.092 F 
ENDROOT
TORSDOF 0
ENDMDL
