MODEL 1
REMARK minimizedAffinity 22.317955
REMARK minimizedRMSD -1
REMARK  0 active torsions:
REMARK  status: ('A' for Active; 'I' for Inactive)
ROOT
ATOM      1  C   UNL d   1      -0.054   4.410  -0.191  0.00  0.00     0.124 A 
ATOM      2  C1  UNL d   1      -0.125   3.360   0.714  0.00  0.00     0.062 A 
ATOM      3  C2  UNL d   1      -0.731   2.161   0.350  0.00  0.00     0.162 A 
ATOM      4  C3  UNL d   1      -1.270   2.004  -0.927  0.00  0.00    -0.034 A 
ATOM      5  C4  UNL d   1      -1.196   3.064  -1.832  0.00  0.00     0.162 A 
ATOM      6  C5  UNL d   1      -0.589   4.261  -1.463  0.00  0.00     0.062 A 
ATOM      7  F   UNL d   1      -0.521   5.274  -2.340  0.00  0.00    -0.097 F 
ATOM      8  F1  UNL d   1      -1.704   2.947  -3.068  0.00  0.00    -0.096 F 
ATOM      9  I   UNL d   1      -2.177   0.213  -1.475  0.00  0.00    -0.060 I 
ATOM     10  F2  UNL d   1      -0.786   1.164   1.246  0.00  0.00    -0.096 F 
ATOM     11  F3  UNL d   1       0.390   3.502   1.944  0.00  0.00    -0.097 F 
ATOM     12  F4  UNL d   1       0.528   5.563   0.162  0.00  0.00    -0.092 F 
ENDROOT
TORSDOF 0
ENDMDL
