MODEL 1
REMARK minimizedAffinity 7.15243053
REMARK minimizedRMSD -1
REMARK  0 active torsions:
REMARK  status: ('A' for Active; 'I' for Inactive)
ROOT
ATOM      1  C   UNL d   1      -1.217   1.847  -1.608  0.00  0.00     0.124 A 
ATOM      2  C1  UNL d   1      -2.410   1.206  -1.911  0.00  0.00     0.062 A 
ATOM      3  C2  UNL d   1      -3.457   1.914  -2.496  0.00  0.00     0.162 A 
ATOM      4  C3  UNL d   1      -3.314   3.272  -2.782  0.00  0.00    -0.034 A 
ATOM      5  C4  UNL d   1      -2.112   3.910  -2.474  0.00  0.00     0.162 A 
ATOM      6  C5  UNL d   1      -1.069   3.198  -1.890  0.00  0.00     0.062 A 
ATOM      7  F   UNL d   1       0.083   3.819  -1.598  0.00  0.00    -0.097 F 
ATOM      8  F1  UNL d   1      -1.941   5.214  -2.736  0.00  0.00    -0.096 F 
ATOM      9  I   UNL d   1      -4.876   4.333  -3.656  0.00  0.00    -0.060 I 
ATOM     10  F2  UNL d   1      -4.598   1.269  -2.778  0.00  0.00    -0.096 F 
ATOM     11  F3  UNL d   1      -2.556  -0.099  -1.639  0.00  0.00    -0.097 F 
ATOM     12  F4  UNL d   1      -0.213   1.164  -1.045  0.00  0.00    -0.092 F 
ENDROOT
TORSDOF 0
ENDMDL
