MODEL 1
REMARK minimizedAffinity 17.3962307
REMARK minimizedRMSD -1
REMARK  0 active torsions:
REMARK  status: ('A' for Active; 'I' for Inactive)
ROOT
ATOM      1  C   UNL d   1      -2.022   0.033  -1.895  0.00  0.00     0.124 A 
ATOM      2  C1  UNL d   1      -3.375   0.336  -1.950  0.00  0.00     0.062 A 
ATOM      3  C2  UNL d   1      -3.792   1.626  -2.263  0.00  0.00     0.162 A 
ATOM      4  C3  UNL d   1      -2.854   2.625  -2.525  0.00  0.00    -0.034 A 
ATOM      5  C4  UNL d   1      -1.494   2.313  -2.467  0.00  0.00     0.162 A 
ATOM      6  C5  UNL d   1      -1.083   1.022  -2.153  0.00  0.00     0.062 A 
ATOM      7  F   UNL d   1       0.226   0.732  -2.101  0.00  0.00    -0.097 F 
ATOM      8  F1  UNL d   1      -0.565   3.249  -2.713  0.00  0.00    -0.096 F 
ATOM      9  I   UNL d   1      -3.473   4.555  -2.995  0.00  0.00    -0.060 I 
ATOM     10  F2  UNL d   1      -5.106   1.890  -2.310  0.00  0.00    -0.096 F 
ATOM     11  F3  UNL d   1      -4.284  -0.618  -1.700  0.00  0.00    -0.097 F 
ATOM     12  F4  UNL d   1      -1.623  -1.209  -1.592  0.00  0.00    -0.092 F 
ENDROOT
TORSDOF 0
ENDMDL
