MODEL 1
REMARK minimizedAffinity 8.79947567
REMARK minimizedRMSD -1
REMARK  0 active torsions:
REMARK  status: ('A' for Active; 'I' for Inactive)
ROOT
ATOM      1  C   UNL d   1      -0.394   4.788  -1.497  0.00  0.00     0.124 A 
ATOM      2  C1  UNL d   1       0.096   3.688  -0.807  0.00  0.00     0.062 A 
ATOM      3  C2  UNL d   1      -0.455   2.427  -1.018  0.00  0.00     0.162 A 
ATOM      4  C3  UNL d   1      -1.501   2.259  -1.925  0.00  0.00    -0.034 A 
ATOM      5  C4  UNL d   1      -1.989   3.370  -2.615  0.00  0.00     0.162 A 
ATOM      6  C5  UNL d   1      -1.435   4.628  -2.400  0.00  0.00     0.062 A 
ATOM      7  F   UNL d   1      -1.910   5.690  -3.068  0.00  0.00    -0.097 F 
ATOM      8  F1  UNL d   1      -2.994   3.244  -3.494  0.00  0.00    -0.096 F 
ATOM      9  I   UNL d   1      -2.327   0.375  -2.243  0.00  0.00    -0.060 I 
ATOM     10  F2  UNL d   1       0.038   1.382  -0.337  0.00  0.00    -0.096 F 
ATOM     11  F3  UNL d   1       1.101   3.840   0.067  0.00  0.00    -0.097 F 
ATOM     12  F4  UNL d   1       0.137   6.000  -1.291  0.00  0.00    -0.092 F 
ENDROOT
TORSDOF 0
ENDMDL
