MODEL 1
REMARK minimizedAffinity 11.2775726
REMARK minimizedRMSD -1
REMARK  0 active torsions:
REMARK  status: ('A' for Active; 'I' for Inactive)
ROOT
ATOM      1  C   UNL d   1       2.334  -5.154  -3.565  0.00  0.00     0.124 A 
ATOM      2  C1  UNL d   1       1.745  -5.328  -2.321  0.00  0.00     0.062 A 
ATOM      3  C2  UNL d   1       2.534  -5.566  -1.199  0.00  0.00     0.162 A 
ATOM      4  C3  UNL d   1       3.922  -5.631  -1.317  0.00  0.00    -0.034 A 
ATOM      5  C4  UNL d   1       4.508  -5.456  -2.572  0.00  0.00     0.162 A 
ATOM      6  C5  UNL d   1       3.715  -5.218  -3.690  0.00  0.00     0.062 A 
ATOM      7  F   UNL d   1       4.287  -5.051  -4.891  0.00  0.00    -0.097 F 
ATOM      8  F1  UNL d   1       5.840  -5.512  -2.720  0.00  0.00    -0.096 F 
ATOM      9  I   UNL d   1       5.105  -5.986   0.358  0.00  0.00    -0.060 I 
ATOM     10  F2  UNL d   1       1.937  -5.730  -0.009  0.00  0.00    -0.096 F 
ATOM     11  F3  UNL d   1       0.411  -5.267  -2.199  0.00  0.00    -0.097 F 
ATOM     12  F4  UNL d   1       1.573  -4.926  -4.643  0.00  0.00    -0.092 F 
ENDROOT
TORSDOF 0
ENDMDL
