MODEL 1
REMARK minimizedAffinity -2.14635754
REMARK minimizedRMSD -1
REMARK  0 active torsions:
REMARK  status: ('A' for Active; 'I' for Inactive)
ROOT
ATOM      1  C   UNL d   1       1.339   3.533   2.075  0.00  0.00     0.124 A 
ATOM      2  C1  UNL d   1       1.247   4.138   0.830  0.00  0.00     0.062 A 
ATOM      3  C2  UNL d   1       0.613   3.484  -0.222  0.00  0.00     0.162 A 
ATOM      4  C3  UNL d   1       0.064   2.215  -0.033  0.00  0.00    -0.034 A 
ATOM      5  C4  UNL d   1       0.161   1.612   1.222  0.00  0.00     0.162 A 
ATOM      6  C5  UNL d   1       0.796   2.271   2.270  0.00  0.00     0.062 A 
ATOM      7  F   UNL d   1       0.883   1.684   3.473  0.00  0.00    -0.097 F 
ATOM      8  F1  UNL d   1      -0.356   0.394   1.439  0.00  0.00    -0.096 F 
ATOM      9  I   UNL d   1      -0.884   1.233  -1.604  0.00  0.00    -0.060 I 
ATOM     10  F2  UNL d   1       0.540   4.093  -1.415  0.00  0.00    -0.096 F 
ATOM     11  F3  UNL d   1       1.772   5.357   0.638  0.00  0.00    -0.097 F 
ATOM     12  F4  UNL d   1       1.950   4.165   3.085  0.00  0.00    -0.092 F 
ENDROOT
TORSDOF 0
ENDMDL
