MODEL 1
REMARK minimizedAffinity 13.4508543
REMARK minimizedRMSD -1
REMARK  0 active torsions:
REMARK  status: ('A' for Active; 'I' for Inactive)
ROOT
ATOM      1  C   UNL d   1       1.514  -0.387   2.640  0.00  0.00     0.124 A 
ATOM      2  C1  UNL d   1       0.580   0.628   2.793  0.00  0.00     0.062 A 
ATOM      3  C2  UNL d   1      -0.077   1.149   1.682  0.00  0.00     0.162 A 
ATOM      4  C3  UNL d   1       0.199   0.655   0.407  0.00  0.00    -0.034 A 
ATOM      5  C4  UNL d   1       1.141  -0.365   0.261  0.00  0.00     0.162 A 
ATOM      6  C5  UNL d   1       1.794  -0.882   1.375  0.00  0.00     0.062 A 
ATOM      7  F   UNL d   1       2.697  -1.862   1.225  0.00  0.00    -0.097 F 
ATOM      8  F1  UNL d   1       1.430  -0.862  -0.951  0.00  0.00    -0.096 F 
ATOM      9  I   UNL d   1      -0.780   1.431  -1.258  0.00  0.00    -0.060 I 
ATOM     10  F2  UNL d   1      -0.975   2.129   1.860  0.00  0.00    -0.096 F 
ATOM     11  F3  UNL d   1       0.308   1.108   4.015  0.00  0.00    -0.097 F 
ATOM     12  F4  UNL d   1       2.145  -0.885   3.711  0.00  0.00    -0.092 F 
ENDROOT
TORSDOF 0
ENDMDL
