MODEL 1
REMARK minimizedAffinity 5.31382227
REMARK minimizedRMSD -1
REMARK  0 active torsions:
REMARK  status: ('A' for Active; 'I' for Inactive)
ROOT
ATOM      1  C   UNL d   1       0.706   0.017   1.630  0.00  0.00     0.124 A 
ATOM      2  C1  UNL d   1       0.444   1.234   2.244  0.00  0.00     0.062 A 
ATOM      3  C2  UNL d   1       0.235   2.375   1.476  0.00  0.00     0.162 A 
ATOM      4  C3  UNL d   1       0.288   2.306   0.083  0.00  0.00    -0.034 A 
ATOM      5  C4  UNL d   1       0.553   1.079  -0.527  0.00  0.00     0.162 A 
ATOM      6  C5  UNL d   1       0.761  -0.059   0.245  0.00  0.00     0.062 A 
ATOM      7  F   UNL d   1       1.015  -1.234  -0.350  0.00  0.00    -0.097 F 
ATOM      8  F1  UNL d   1       0.611   0.976  -1.863  0.00  0.00    -0.096 F 
ATOM      9  I   UNL d   1      -0.024   4.010  -1.069  0.00  0.00    -0.060 I 
ATOM     10  F2  UNL d   1      -0.017   3.538   2.096  0.00  0.00    -0.096 F 
ATOM     11  F3  UNL d   1       0.391   1.310   3.582  0.00  0.00    -0.097 F 
ATOM     12  F4  UNL d   1       0.908  -1.080   2.372  0.00  0.00    -0.092 F 
ENDROOT
TORSDOF 0
ENDMDL
