MODEL 1
REMARK minimizedAffinity 20.4769001
REMARK minimizedRMSD -1
REMARK  0 active torsions:
REMARK  status: ('A' for Active; 'I' for Inactive)
ROOT
ATOM      1  C   UNL d   1       0.384  -1.383   2.630  0.00  0.00     0.124 A 
ATOM      2  C1  UNL d   1       0.802  -2.262   3.619  0.00  0.00     0.062 A 
ATOM      3  C2  UNL d   1       2.123  -2.702   3.652  0.00  0.00     0.162 A 
ATOM      4  C3  UNL d   1       3.035  -2.262   2.692  0.00  0.00    -0.034 A 
ATOM      5  C4  UNL d   1       2.606  -1.379   1.700  0.00  0.00     0.162 A 
ATOM      6  C5  UNL d   1       1.285  -0.943   1.671  0.00  0.00     0.062 A 
ATOM      7  F   UNL d   1       0.883  -0.094   0.715  0.00  0.00    -0.097 F 
ATOM      8  F1  UNL d   1       3.457  -0.937   0.762  0.00  0.00    -0.096 F 
ATOM      9  I   UNL d   1       5.010  -2.918   2.738  0.00  0.00    -0.060 I 
ATOM     10  F2  UNL d   1       2.499  -3.551   4.619  0.00  0.00    -0.096 F 
ATOM     11  F3  UNL d   1      -0.067  -2.690   4.546  0.00  0.00    -0.097 F 
ATOM     12  F4  UNL d   1      -0.887  -0.962   2.600  0.00  0.00    -0.092 F 
ENDROOT
TORSDOF 0
ENDMDL
