MODEL 1
REMARK minimizedAffinity 16.9714928
REMARK minimizedRMSD -1
REMARK  0 active torsions:
REMARK  status: ('A' for Active; 'I' for Inactive)
ROOT
ATOM      1  C   UNL d   1       0.990  -1.727   3.763  0.00  0.00     0.124 A 
ATOM      2  C1  UNL d   1       1.023  -1.972   2.397  0.00  0.00     0.062 A 
ATOM      3  C2  UNL d   1       1.384  -0.959   1.514  0.00  0.00     0.162 A 
ATOM      4  C3  UNL d   1       1.715   0.309   1.993  0.00  0.00    -0.034 A 
ATOM      5  C4  UNL d   1       1.678   0.547   3.368  0.00  0.00     0.162 A 
ATOM      6  C5  UNL d   1       1.317  -0.468   4.247  0.00  0.00     0.062 A 
ATOM      7  F   UNL d   1       1.285  -0.230   5.566  0.00  0.00    -0.097 F 
ATOM      8  F1  UNL d   1       1.991   1.754   3.863  0.00  0.00    -0.096 F 
ATOM      9  I   UNL d   1       2.255   1.826   0.675  0.00  0.00    -0.060 I 
ATOM     10  F2  UNL d   1       1.407  -1.223   0.199  0.00  0.00    -0.096 F 
ATOM     11  F3  UNL d   1       0.706  -3.187   1.927  0.00  0.00    -0.097 F 
ATOM     12  F4  UNL d   1       0.641  -2.703   4.611  0.00  0.00    -0.092 F 
ENDROOT
TORSDOF 0
ENDMDL
