MODEL 1
REMARK minimizedAffinity 15.7017775
REMARK minimizedRMSD -1
REMARK  0 active torsions:
REMARK  status: ('A' for Active; 'I' for Inactive)
ROOT
ATOM      1  C   UNL d   1       1.771  -1.495   1.587  0.00  0.00     0.124 A 
ATOM      2  C1  UNL d   1       1.200  -1.170   2.810  0.00  0.00     0.062 A 
ATOM      3  C2  UNL d   1       1.271   0.134   3.291  0.00  0.00     0.162 A 
ATOM      4  C3  UNL d   1       1.915   1.124   2.549  0.00  0.00    -0.034 A 
ATOM      5  C4  UNL d   1       2.487   0.789   1.320  0.00  0.00     0.162 A 
ATOM      6  C5  UNL d   1       2.413  -0.515   0.843  0.00  0.00     0.062 A 
ATOM      7  F   UNL d   1       2.965  -0.827  -0.338  0.00  0.00    -0.097 F 
ATOM      8  F1  UNL d   1       3.113   1.717   0.581  0.00  0.00    -0.096 F 
ATOM      9  I   UNL d   1       2.023   3.075   3.265  0.00  0.00    -0.060 I 
ATOM     10  F2  UNL d   1       0.711   0.419   4.476  0.00  0.00    -0.096 F 
ATOM     11  F3  UNL d   1       0.579  -2.115   3.530  0.00  0.00    -0.097 F 
ATOM     12  F4  UNL d   1       1.702  -2.751   1.127  0.00  0.00    -0.092 F 
ENDROOT
TORSDOF 0
ENDMDL
