MODEL 1
REMARK minimizedAffinity 27.7221603
REMARK minimizedRMSD -1
REMARK  0 active torsions:
REMARK  status: ('A' for Active; 'I' for Inactive)
ROOT
ATOM      1  C   UNL d   1      -4.296  -4.791  -4.811  0.00  0.00     0.124 A 
ATOM      2  C1  UNL d   1      -5.072  -3.651  -4.966  0.00  0.00     0.062 A 
ATOM      3  C2  UNL d   1      -4.966  -2.603  -4.056  0.00  0.00     0.162 A 
ATOM      4  C3  UNL d   1      -4.080  -2.690  -2.983  0.00  0.00    -0.034 A 
ATOM      5  C4  UNL d   1      -3.304  -3.841  -2.833  0.00  0.00     0.162 A 
ATOM      6  C5  UNL d   1      -3.413  -4.885  -3.745  0.00  0.00     0.062 A 
ATOM      7  F   UNL d   1      -2.663  -5.986  -3.593  0.00  0.00    -0.097 F 
ATOM      8  F1  UNL d   1      -2.442  -3.957  -1.812  0.00  0.00    -0.096 F 
ATOM      9  I   UNL d   1      -3.919  -1.125  -1.620  0.00  0.00    -0.060 I 
ATOM     10  F2  UNL d   1      -5.728  -1.513  -4.231  0.00  0.00    -0.096 F 
ATOM     11  F3  UNL d   1      -5.927  -3.558  -5.995  0.00  0.00    -0.097 F 
ATOM     12  F4  UNL d   1      -4.401  -5.798  -5.688  0.00  0.00    -0.092 F 
ENDROOT
TORSDOF 0
ENDMDL
