MODEL 1
REMARK minimizedAffinity 20.8464031
REMARK minimizedRMSD -1
REMARK  0 active torsions:
REMARK  status: ('A' for Active; 'I' for Inactive)
ROOT
ATOM      1  C   UNL d   1      -3.191   1.512  -1.571  0.00  0.00     0.124 A 
ATOM      2  C1  UNL d   1      -2.969   1.654  -0.209  0.00  0.00     0.062 A 
ATOM      3  C2  UNL d   1      -3.769   2.508   0.545  0.00  0.00     0.162 A 
ATOM      4  C3  UNL d   1      -4.801   3.224  -0.062  0.00  0.00    -0.034 A 
ATOM      5  C4  UNL d   1      -5.017   3.076  -1.433  0.00  0.00     0.162 A 
ATOM      6  C5  UNL d   1      -4.214   2.222  -2.182  0.00  0.00     0.062 A 
ATOM      7  F   UNL d   1      -4.430   2.086  -3.498  0.00  0.00    -0.097 F 
ATOM      8  F1  UNL d   1      -6.000   3.750  -2.048  0.00  0.00    -0.096 F 
ATOM      9  I   UNL d   1      -6.000   4.501   1.062  0.00  0.00    -0.060 I 
ATOM     10  F2  UNL d   1      -3.532   2.626   1.860  0.00  0.00    -0.096 F 
ATOM     11  F3  UNL d   1      -1.980   0.969   0.384  0.00  0.00    -0.097 F 
ATOM     12  F4  UNL d   1      -2.418   0.691  -2.295  0.00  0.00    -0.092 F 
ENDROOT
TORSDOF 0
ENDMDL
