MODEL 1
REMARK minimizedAffinity 15.890008
REMARK minimizedRMSD -1
REMARK  0 active torsions:
REMARK  status: ('A' for Active; 'I' for Inactive)
ROOT
ATOM      1  C   UNL d   1      -3.375   1.489  -2.933  0.00  0.00     0.124 A 
ATOM      2  C1  UNL d   1      -4.332   2.112  -3.723  0.00  0.00     0.062 A 
ATOM      3  C2  UNL d   1      -5.082   3.167  -3.213  0.00  0.00     0.162 A 
ATOM      4  C3  UNL d   1      -4.879   3.607  -1.905  0.00  0.00    -0.034 A 
ATOM      5  C4  UNL d   1      -3.916   2.975  -1.116  0.00  0.00     0.162 A 
ATOM      6  C5  UNL d   1      -3.169   1.921  -1.631  0.00  0.00     0.062 A 
ATOM      7  F   UNL d   1      -2.245   1.321  -0.866  0.00  0.00    -0.097 F 
ATOM      8  F1  UNL d   1      -3.695   3.373   0.146  0.00  0.00    -0.096 F 
ATOM      9  I   UNL d   1      -6.000   5.184  -1.137  0.00  0.00    -0.060 I 
ATOM     10  F2  UNL d   1      -6.000   3.750  -3.999  0.00  0.00    -0.096 F 
ATOM     11  F3  UNL d   1      -4.534   1.696  -4.982  0.00  0.00    -0.097 F 
ATOM     12  F4  UNL d   1      -2.655   0.474  -3.427  0.00  0.00    -0.092 F 
ENDROOT
TORSDOF 0
ENDMDL
