MODEL 1
REMARK minimizedAffinity 23.6143227
REMARK minimizedRMSD -1
REMARK  0 active torsions:
REMARK  status: ('A' for Active; 'I' for Inactive)
ROOT
ATOM      1  C   UNL d   1       1.332   0.957   3.399  0.00  0.00     0.124 A 
ATOM      2  C1  UNL d   1       1.281  -0.323   2.864  0.00  0.00     0.062 A 
ATOM      3  C2  UNL d   1       1.842  -0.583   1.617  0.00  0.00     0.162 A 
ATOM      4  C3  UNL d   1       2.460   0.439   0.897  0.00  0.00    -0.034 A 
ATOM      5  C4  UNL d   1       2.507   1.724   1.441  0.00  0.00     0.162 A 
ATOM      6  C5  UNL d   1       1.945   1.979   2.688  0.00  0.00     0.062 A 
ATOM      7  F   UNL d   1       1.996   3.216   3.203  0.00  0.00    -0.097 F 
ATOM      8  F1  UNL d   1       3.094   2.729   0.775  0.00  0.00    -0.096 F 
ATOM      9  I   UNL d   1       3.300   0.054  -0.968  0.00  0.00    -0.060 I 
ATOM     10  F2  UNL d   1       1.778  -1.829   1.124  0.00  0.00    -0.096 F 
ATOM     11  F3  UNL d   1       0.689  -1.311   3.549  0.00  0.00    -0.097 F 
ATOM     12  F4  UNL d   1       0.791   1.205   4.599  0.00  0.00    -0.092 F 
ENDROOT
TORSDOF 0
ENDMDL
