MODEL 1
REMARK minimizedAffinity 19.9843674
REMARK minimizedRMSD -1
REMARK  0 active torsions:
REMARK  status: ('A' for Active; 'I' for Inactive)
ROOT
ATOM      1  C   UNL d   1      -3.375   1.181  -2.320  0.00  0.00     0.124 A 
ATOM      2  C1  UNL d   1      -4.337   1.346  -3.308  0.00  0.00     0.062 A 
ATOM      3  C2  UNL d   1      -5.077   0.254  -3.753  0.00  0.00     0.162 A 
ATOM      4  C3  UNL d   1      -4.859  -1.012  -3.210  0.00  0.00    -0.034 A 
ATOM      5  C4  UNL d   1      -3.890  -1.170  -2.218  0.00  0.00     0.162 A 
ATOM      6  C5  UNL d   1      -3.153  -0.076  -1.776  0.00  0.00     0.062 A 
ATOM      7  F   UNL d   1      -2.224  -0.237  -0.822  0.00  0.00    -0.097 F 
ATOM      8  F1  UNL d   1      -3.655  -2.374  -1.674  0.00  0.00    -0.096 F 
ATOM      9  I   UNL d   1      -5.963  -2.647  -3.873  0.00  0.00    -0.060 I 
ATOM     10  F2  UNL d   1      -5.999   0.442  -4.708  0.00  0.00    -0.096 F 
ATOM     11  F3  UNL d   1      -4.553   2.559  -3.835  0.00  0.00    -0.097 F 
ATOM     12  F4  UNL d   1      -2.664   2.233  -1.894  0.00  0.00    -0.092 F 
ENDROOT
TORSDOF 0
ENDMDL
