MODEL 1
REMARK minimizedAffinity 32.6331596
REMARK minimizedRMSD -1
REMARK  0 active torsions:
REMARK  status: ('A' for Active; 'I' for Inactive)
ROOT
ATOM      1  C   UNL d   1      -2.268   1.281  -0.873  0.00  0.00     0.124 A 
ATOM      2  C1  UNL d   1      -3.023   2.372  -0.467  0.00  0.00     0.062 A 
ATOM      3  C2  UNL d   1      -4.047   2.855  -1.276  0.00  0.00     0.162 A 
ATOM      4  C3  UNL d   1      -4.323   2.247  -2.501  0.00  0.00    -0.034 A 
ATOM      5  C4  UNL d   1      -3.558   1.150  -2.903  0.00  0.00     0.162 A 
ATOM      6  C5  UNL d   1      -2.536   0.671  -2.091  0.00  0.00     0.062 A 
ATOM      7  F   UNL d   1      -1.807  -0.383  -2.485  0.00  0.00    -0.097 F 
ATOM      8  F1  UNL d   1      -3.796   0.542  -4.075  0.00  0.00    -0.096 F 
ATOM      9  I   UNL d   1      -5.853   2.967  -3.714  0.00  0.00    -0.060 I 
ATOM     10  F2  UNL d   1      -4.760   3.912  -0.858  0.00  0.00    -0.096 F 
ATOM     11  F3  UNL d   1      -2.765   2.964   0.709  0.00  0.00    -0.097 F 
ATOM     12  F4  UNL d   1      -1.283   0.818  -0.093  0.00  0.00    -0.092 F 
ENDROOT
TORSDOF 0
ENDMDL
