MODEL 1
REMARK minimizedAffinity -4.83925009
REMARK minimizedRMSD -1
REMARK  1 active torsions:
REMARK  status: ('A' for Active; 'I' for Inactive)
REMARK    1  A    between atoms: C1_2  and  C2_3 
ROOT
ATOM      1  C2  UNL d   1      -0.633   0.232   0.760  0.00  0.00    -0.076 A 
ATOM      2  C3  UNL d   1      -2.009   0.121   1.027  0.00  0.00     0.004 A 
ATOM      3  C4  UNL d   1      -2.572  -1.098   1.401  0.00  0.00    -0.003 A 
ATOM      4  C5  UNL d   1      -1.767  -2.227   1.513  0.00  0.00     0.000 A 
ATOM      5  C6  UNL d   1      -0.398  -2.132   1.269  0.00  0.00     0.000 A 
ATOM      6  C7  UNL d   1       0.188  -0.906   0.907  0.00  0.00    -0.073 A 
ATOM      7  C8  UNL d   1       1.669  -0.862   0.650  0.00  0.00     0.078 C 
ENDROOT
BRANCH   1   8
ATOM      8  C1  UNL d   1      -0.084   1.574   0.333  0.00  0.00     0.053 C 
ATOM      9  C   UNL d   1       0.558   1.529  -1.045  0.00  0.00     0.018 C 
ENDBRANCH   1   8
TORSDOF 1
ENDMDL
