MODEL 1
REMARK minimizedAffinity -5.97179174
REMARK minimizedRMSD -1
REMARK  1 active torsions:
REMARK  status: ('A' for Active; 'I' for Inactive)
REMARK    1  A    between atoms: C1_2  and  C2_3 
ROOT
ATOM      1  C2  UNL d   1      -0.695   0.235   0.201  0.00  0.00    -0.076 A 
ATOM      2  C3  UNL d   1      -2.077   0.330   0.438  0.00  0.00     0.004 A 
ATOM      3  C4  UNL d   1      -2.807  -0.773   0.878  0.00  0.00    -0.003 A 
ATOM      4  C5  UNL d   1      -2.166  -1.989   1.087  0.00  0.00     0.000 A 
ATOM      5  C6  UNL d   1      -0.793  -2.097   0.874  0.00  0.00     0.000 A 
ATOM      6  C7  UNL d   1      -0.039  -0.991   0.446  0.00  0.00    -0.073 A 
ATOM      7  C8  UNL d   1       1.439  -1.165   0.226  0.00  0.00     0.078 C 
ENDROOT
BRANCH   1   8
ATOM      8  C1  UNL d   1       0.040   1.457  -0.301  0.00  0.00     0.053 C 
ATOM      9  C   UNL d   1       0.180   1.472  -1.816  0.00  0.00     0.018 C 
ENDBRANCH   1   8
TORSDOF 1
ENDMDL
