MODEL 1
REMARK minimizedAffinity -2.88997793
REMARK minimizedRMSD -1
REMARK  1 active torsions:
REMARK  status: ('A' for Active; 'I' for Inactive)
REMARK    1  A    between atoms: C1_2  and  C2_3 
ROOT
ATOM      1  C2  UNL d   1       0.007   0.146   0.414  0.00  0.00    -0.076 A 
ATOM      2  C3  UNL d   1      -1.092   0.866   0.913  0.00  0.00     0.004 A 
ATOM      3  C4  UNL d   1      -2.032   0.256   1.743  0.00  0.00    -0.003 A 
ATOM      4  C5  UNL d   1      -1.886  -1.083   2.087  0.00  0.00     0.000 A 
ATOM      5  C6  UNL d   1      -0.792  -1.808   1.615  0.00  0.00     0.000 A 
ATOM      6  C7  UNL d   1       0.173  -1.204   0.791  0.00  0.00    -0.073 A 
ATOM      7  C8  UNL d   1       1.329  -2.034   0.306  0.00  0.00     0.078 C 
ENDROOT
BRANCH   1   8
ATOM      8  C1  UNL d   1       0.979   0.853  -0.504  0.00  0.00     0.053 C 
ATOM      9  C   UNL d   1       0.474   0.934  -1.936  0.00  0.00     0.018 C 
ENDBRANCH   1   8
TORSDOF 1
ENDMDL
