MODEL 1
REMARK minimizedAffinity -4.06668568
REMARK minimizedRMSD -1
REMARK  1 active torsions:
REMARK  status: ('A' for Active; 'I' for Inactive)
REMARK    1  A    between atoms: C1_2  and  C2_3 
ROOT
ATOM      1  C2  UNL d   1      -0.590  -0.018   0.560  0.00  0.00    -0.076 A 
ATOM      2  C3  UNL d   1      -1.806   0.139   1.247  0.00  0.00     0.004 A 
ATOM      3  C4  UNL d   1      -2.421  -0.943   1.874  0.00  0.00    -0.003 A 
ATOM      4  C5  UNL d   1      -1.829  -2.201   1.825  0.00  0.00     0.000 A 
ATOM      5  C6  UNL d   1      -0.613  -2.371   1.163  0.00  0.00     0.000 A 
ATOM      6  C7  UNL d   1       0.028  -1.287   0.539  0.00  0.00    -0.073 A 
ATOM      7  C8  UNL d   1       1.334  -1.529  -0.165  0.00  0.00     0.078 C 
ENDROOT
BRANCH   1   8
ATOM      8  C1  UNL d   1       0.016   1.187  -0.124  0.00  0.00     0.053 C 
ATOM      9  C   UNL d   1      -0.265   2.483   0.621  0.00  0.00     0.018 C 
ENDBRANCH   1   8
TORSDOF 1
ENDMDL
