MODEL 1
REMARK minimizedAffinity -3.64703345
REMARK minimizedRMSD -1
REMARK  1 active torsions:
REMARK  status: ('A' for Active; 'I' for Inactive)
REMARK    1  A    between atoms: C1_2  and  C2_3 
ROOT
ATOM      1  C2  UNL d   1       0.309   0.426  -0.712  0.00  0.00    -0.076 A 
ATOM      2  C3  UNL d   1       0.973  -0.751  -1.097  0.00  0.00     0.004 A 
ATOM      3  C4  UNL d   1       1.029  -1.855  -0.246  0.00  0.00    -0.003 A 
ATOM      4  C5  UNL d   1       0.421  -1.799   1.003  0.00  0.00     0.000 A 
ATOM      5  C6  UNL d   1      -0.258  -0.645   1.394  0.00  0.00     0.000 A 
ATOM      6  C7  UNL d   1      -0.338   0.470   0.542  0.00  0.00    -0.073 A 
ATOM      7  C8  UNL d   1      -1.078   1.690   1.018  0.00  0.00     0.078 C 
ENDROOT
BRANCH   1   8
ATOM      8  C1  UNL d   1       0.304   1.600  -1.665  0.00  0.00     0.053 C 
ATOM      9  C   UNL d   1       1.602   1.720  -2.448  0.00  0.00     0.018 C 
ENDBRANCH   1   8
TORSDOF 1
ENDMDL
