MODEL 1
REMARK minimizedAffinity -2.21254182
REMARK minimizedRMSD -1
REMARK  1 active torsions:
REMARK  status: ('A' for Active; 'I' for Inactive)
REMARK    1  A    between atoms: C1_2  and  C2_3 
ROOT
ATOM      1  C2  UNL d   1       0.917  -0.997   0.241  0.00  0.00    -0.076 A 
ATOM      2  C3  UNL d   1      -0.157  -0.370  -0.415  0.00  0.00     0.004 A 
ATOM      3  C4  UNL d   1      -0.028   0.918  -0.933  0.00  0.00    -0.003 A 
ATOM      4  C5  UNL d   1       1.177   1.599  -0.803  0.00  0.00     0.000 A 
ATOM      5  C6  UNL d   1       2.258   0.986  -0.170  0.00  0.00     0.000 A 
ATOM      6  C7  UNL d   1       2.150  -0.318   0.343  0.00  0.00    -0.073 A 
ATOM      7  C8  UNL d   1       3.346  -0.928   1.020  0.00  0.00     0.078 C 
ENDROOT
BRANCH   1   8
ATOM      8  C1  UNL d   1       0.710  -2.384   0.806  0.00  0.00     0.053 C 
ATOM      9  C   UNL d   1      -0.220  -2.391   2.009  0.00  0.00     0.018 C 
ENDBRANCH   1   8
TORSDOF 1
ENDMDL
