MODEL 1
REMARK minimizedAffinity -3.91695952
REMARK minimizedRMSD -1
REMARK  1 active torsions:
REMARK  status: ('A' for Active; 'I' for Inactive)
REMARK    1  A    between atoms: C1_2  and  C2_3 
ROOT
ATOM      1  C2  UNL d   1       0.302   1.041  -0.702  0.00  0.00    -0.076 A 
ATOM      2  C3  UNL d   1       0.963  -0.168  -0.981  0.00  0.00     0.004 A 
ATOM      3  C4  UNL d   1       0.709  -1.315  -0.231  0.00  0.00    -0.003 A 
ATOM      4  C5  UNL d   1      -0.211  -1.272   0.810  0.00  0.00     0.000 A 
ATOM      5  C6  UNL d   1      -0.889  -0.086   1.090  0.00  0.00     0.000 A 
ATOM      6  C7  UNL d   1      -0.656   1.075   0.333  0.00  0.00    -0.073 A 
ATOM      7  C8  UNL d   1      -1.411   2.328   0.683  0.00  0.00     0.078 C 
ENDROOT
BRANCH   1   8
ATOM      8  C1  UNL d   1       0.639   2.259  -1.532  0.00  0.00     0.053 C 
ATOM      9  C   UNL d   1       2.107   2.307  -1.927  0.00  0.00     0.018 C 
ENDBRANCH   1   8
TORSDOF 1
ENDMDL
