MODEL 1
REMARK minimizedAffinity 0.125929147
REMARK minimizedRMSD -1
REMARK  1 active torsions:
REMARK  status: ('A' for Active; 'I' for Inactive)
REMARK    1  A    between atoms: C1_2  and  C2_3 
ROOT
ATOM      1  C2  UNL d   1      -1.034  -0.160   0.825  0.00  0.00    -0.076 A 
ATOM      2  C3  UNL d   1      -1.410  -1.411   1.343  0.00  0.00     0.004 A 
ATOM      3  C4  UNL d   1      -0.708  -2.567   1.008  0.00  0.00    -0.003 A 
ATOM      4  C5  UNL d   1       0.382  -2.491   0.149  0.00  0.00     0.000 A 
ATOM      5  C6  UNL d   1       0.781  -1.256  -0.361  0.00  0.00     0.000 A 
ATOM      6  C7  UNL d   1       0.094  -0.078  -0.019  0.00  0.00    -0.073 A 
ATOM      7  C8  UNL d   1       0.564   1.226  -0.603  0.00  0.00     0.078 C 
ENDROOT
BRANCH   1   8
ATOM      8  C1  UNL d   1      -1.849   1.056   1.203  0.00  0.00     0.053 C 
ATOM      9  C   UNL d   1      -3.081   0.700   2.021  0.00  0.00     0.018 C 
ENDBRANCH   1   8
TORSDOF 1
ENDMDL
