MODEL 1
REMARK minimizedAffinity 0.100302346
REMARK minimizedRMSD -1
REMARK  1 active torsions:
REMARK  status: ('A' for Active; 'I' for Inactive)
REMARK    1  A    between atoms: C1_2  and  C2_3 
ROOT
ATOM      1  C2  UNL d   1       0.491   0.463  -0.118  0.00  0.00    -0.076 A 
ATOM      2  C3  UNL d   1       1.452  -0.510  -0.444  0.00  0.00     0.004 A 
ATOM      3  C4  UNL d   1       1.417  -1.776   0.137  0.00  0.00    -0.003 A 
ATOM      4  C5  UNL d   1       0.419  -2.091   1.053  0.00  0.00     0.000 A 
ATOM      5  C6  UNL d   1      -0.553  -1.145   1.375  0.00  0.00     0.000 A 
ATOM      6  C7  UNL d   1      -0.541   0.131   0.786  0.00  0.00    -0.073 A 
ATOM      7  C8  UNL d   1      -1.610   1.115   1.174  0.00  0.00     0.078 C 
ENDROOT
BRANCH   1   8
ATOM      8  C1  UNL d   1       0.596   1.828  -0.759  0.00  0.00     0.053 C 
ATOM      9  C   UNL d   1       1.573   1.852  -1.924  0.00  0.00     0.018 C 
ENDBRANCH   1   8
TORSDOF 1
ENDMDL
