MODEL 1
REMARK minimizedAffinity -5.19321346
REMARK minimizedRMSD -1
REMARK  1 active torsions:
REMARK  status: ('A' for Active; 'I' for Inactive)
REMARK    1  A    between atoms: C1_2  and  C2_3 
ROOT
ATOM      1  C2  UNL d   1       0.059  -0.948   0.826  0.00  0.00    -0.076 A 
ATOM      2  C3  UNL d   1      -0.158  -2.325   1.012  0.00  0.00     0.004 A 
ATOM      3  C4  UNL d   1      -1.446  -2.832   1.173  0.00  0.00    -0.003 A 
ATOM      4  C5  UNL d   1      -2.538  -1.972   1.151  0.00  0.00     0.000 A 
ATOM      5  C6  UNL d   1      -2.343  -0.606   0.950  0.00  0.00     0.000 A 
ATOM      6  C7  UNL d   1      -1.052  -0.080   0.769  0.00  0.00    -0.073 A 
ATOM      7  C8  UNL d   1      -0.899   1.402   0.563  0.00  0.00     0.078 C 
ENDROOT
BRANCH   1   8
ATOM      8  C1  UNL d   1       1.480  -0.452   0.684  0.00  0.00     0.053 C 
ATOM      9  C   UNL d   1       2.489  -1.587   0.612  0.00  0.00     0.018 C 
ENDBRANCH   1   8
TORSDOF 1
ENDMDL
