MODEL 1
REMARK minimizedAffinity -4.33555079
REMARK minimizedRMSD -1
REMARK  1 active torsions:
REMARK  status: ('A' for Active; 'I' for Inactive)
REMARK    1  A    between atoms: C1_2  and  C2_3 
ROOT
ATOM      1  C2  UNL d   1      -0.313  -0.788   0.595  0.00  0.00    -0.076 A 
ATOM      2  C3  UNL d   1       0.020   0.578   0.605  0.00  0.00     0.004 A 
ATOM      3  C4  UNL d   1      -0.914   1.542   0.982  0.00  0.00    -0.003 A 
ATOM      4  C5  UNL d   1      -2.196   1.155   1.356  0.00  0.00     0.000 A 
ATOM      5  C6  UNL d   1      -2.539  -0.197   1.369  0.00  0.00     0.000 A 
ATOM      6  C7  UNL d   1      -1.604  -1.182   1.007  0.00  0.00    -0.073 A 
ATOM      7  C8  UNL d   1      -2.029  -2.625   1.033  0.00  0.00     0.078 C 
ENDROOT
BRANCH   1   8
ATOM      8  C1  UNL d   1       0.733  -1.785   0.151  0.00  0.00     0.053 C 
ATOM      9  C   UNL d   1       2.150  -1.259   0.323  0.00  0.00     0.018 C 
ENDBRANCH   1   8
TORSDOF 1
ENDMDL
