MODEL 1
REMARK minimizedAffinity -3.58723521
REMARK minimizedRMSD -1
REMARK  1 active torsions:
REMARK  status: ('A' for Active; 'I' for Inactive)
REMARK    1  A    between atoms: C1_2  and  C2_3 
ROOT
ATOM      1  C2  UNL d   1      -0.066   0.437   0.412  0.00  0.00    -0.076 A 
ATOM      2  C3  UNL d   1      -1.188   0.965   1.075  0.00  0.00     0.004 A 
ATOM      3  C4  UNL d   1      -1.968   0.169   1.912  0.00  0.00    -0.003 A 
ATOM      4  C5  UNL d   1      -1.640  -1.169   2.100  0.00  0.00     0.000 A 
ATOM      5  C6  UNL d   1      -0.521  -1.706   1.464  0.00  0.00     0.000 A 
ATOM      6  C7  UNL d   1       0.286  -0.912   0.630  0.00  0.00    -0.073 A 
ATOM      7  C8  UNL d   1       1.478  -1.545  -0.035  0.00  0.00     0.078 C 
ENDROOT
BRANCH   1   8
ATOM      8  C1  UNL d   1       0.727   1.341  -0.504  0.00  0.00     0.053 C 
ATOM      9  C   UNL d   1       0.192   1.342  -1.928  0.00  0.00     0.018 C 
ENDBRANCH   1   8
TORSDOF 1
ENDMDL
