MODEL 1
REMARK minimizedAffinity -4.85457182
REMARK minimizedRMSD -1
REMARK  1 active torsions:
REMARK  status: ('A' for Active; 'I' for Inactive)
REMARK    1  A    between atoms: C1_2  and  C2_3 
ROOT
ATOM      1  C2  UNL d   1      -0.546  -0.937   0.959  0.00  0.00    -0.076 A 
ATOM      2  C3  UNL d   1       0.796  -0.953   0.542  0.00  0.00     0.004 A 
ATOM      3  C4  UNL d   1       1.394   0.186   0.004  0.00  0.00    -0.003 A 
ATOM      4  C5  UNL d   1       0.659   1.359  -0.126  0.00  0.00     0.000 A 
ATOM      5  C6  UNL d   1      -0.669   1.398   0.299  0.00  0.00     0.000 A 
ATOM      6  C7  UNL d   1      -1.281   0.264   0.859  0.00  0.00    -0.073 A 
ATOM      7  C8  UNL d   1      -2.718   0.361   1.295  0.00  0.00     0.078 C 
ENDROOT
BRANCH   1   8
ATOM      8  C1  UNL d   1      -1.148  -2.209   1.511  0.00  0.00     0.053 C 
ATOM      9  C   UNL d   1      -1.018  -2.308   3.023  0.00  0.00     0.018 C 
ENDBRANCH   1   8
TORSDOF 1
ENDMDL
