MODEL 1
REMARK minimizedAffinity 4.83651161
REMARK minimizedRMSD -1
REMARK  1 active torsions:
REMARK  status: ('A' for Active; 'I' for Inactive)
REMARK    1  A    between atoms: C1_2  and  C2_3 
ROOT
ATOM      1  C2  UNL d   1       3.539  -0.690   4.962  0.00  0.00    -0.073 A 
ATOM      2  C3  UNL d   1       4.475  -0.767   5.999  0.00  0.00    -0.002 A 
ATOM      3  C4  UNL d   1       5.700  -0.106   5.893  0.00  0.00     0.004 A 
ATOM      4  C5  UNL d   1       5.998   0.642   4.754  0.00  0.00    -0.004 A 
ATOM      5  C6  UNL d   1       5.070   0.740   3.712  0.00  0.00    -0.075 A 
ATOM      6  C7  UNL d   1       5.376   1.539   2.479  0.00  0.00     0.076 C 
ATOM      7  C8  UNL d   1       3.843   0.072   3.825  0.00  0.00     0.001 A 
ENDROOT
BRANCH   1   8
ATOM      8  C1  UNL d   1       2.212  -1.396   5.075  0.00  0.00     0.053 C 
ATOM      9  C   UNL d   1       1.660  -1.793   3.715  0.00  0.00     0.018 C 
ENDBRANCH   1   8
TORSDOF 1
ENDMDL
