MODEL 1
REMARK minimizedAffinity 5.32412243
REMARK minimizedRMSD -1
REMARK  1 active torsions:
REMARK  status: ('A' for Active; 'I' for Inactive)
REMARK    1  A    between atoms: C1_2  and  C2_3 
ROOT
ATOM      1  C2  UNL d   1       1.615   3.597  -2.778  0.00  0.00    -0.073 A 
ATOM      2  C3  UNL d   1       0.912   2.453  -3.174  0.00  0.00    -0.002 A 
ATOM      3  C4  UNL d   1       0.051   1.811  -2.283  0.00  0.00     0.004 A 
ATOM      4  C5  UNL d   1      -0.121   2.309  -0.991  0.00  0.00    -0.004 A 
ATOM      5  C6  UNL d   1       0.563   3.458  -0.581  0.00  0.00    -0.075 A 
ATOM      6  C7  UNL d   1       0.390   4.005   0.806  0.00  0.00     0.076 C 
ATOM      7  C8  UNL d   1       1.428   4.095  -1.481  0.00  0.00     0.001 A 
ENDROOT
BRANCH   1   8
ATOM      8  C1  UNL d   1       2.541   4.297  -3.739  0.00  0.00     0.053 C 
ATOM      9  C   UNL d   1       3.510   5.224  -3.023  0.00  0.00     0.018 C 
ENDBRANCH   1   8
TORSDOF 1
ENDMDL
