MODEL 1
REMARK minimizedAffinity 7.46583414
REMARK minimizedRMSD -1
REMARK  1 active torsions:
REMARK  status: ('A' for Active; 'I' for Inactive)
REMARK    1  A    between atoms: C1_2  and  C2_3 
ROOT
ATOM      1  C2  UNL d   1      -3.189  -0.001   1.685  0.00  0.00    -0.073 A 
ATOM      2  C3  UNL d   1      -3.365  -0.462   0.375  0.00  0.00    -0.002 A 
ATOM      3  C4  UNL d   1      -3.344   0.432  -0.696  0.00  0.00     0.004 A 
ATOM      4  C5  UNL d   1      -3.140   1.794  -0.469  0.00  0.00    -0.004 A 
ATOM      5  C6  UNL d   1      -2.951   2.272   0.831  0.00  0.00    -0.075 A 
ATOM      6  C7  UNL d   1      -2.733   3.734   1.091  0.00  0.00     0.076 C 
ATOM      7  C8  UNL d   1      -2.976   1.368   1.902  0.00  0.00     0.001 A 
ENDROOT
BRANCH   1   8
ATOM      8  C1  UNL d   1      -3.204  -0.964   2.844  0.00  0.00     0.053 C 
ATOM      9  C   UNL d   1      -2.643  -0.339   4.111  0.00  0.00     0.018 C 
ENDBRANCH   1   8
TORSDOF 1
ENDMDL
