MODEL 1
REMARK minimizedAffinity 0.0953839421
REMARK minimizedRMSD -1
REMARK  1 active torsions:
REMARK  status: ('A' for Active; 'I' for Inactive)
REMARK    1  A    between atoms: C1_2  and  C2_3 
ROOT
ATOM      1  C2  UNL d   1      -2.632   1.764   0.556  0.00  0.00    -0.073 A 
ATOM      2  C3  UNL d   1      -2.613   1.708   1.954  0.00  0.00    -0.002 A 
ATOM      3  C4  UNL d   1      -2.688   0.480   2.612  0.00  0.00     0.004 A 
ATOM      4  C5  UNL d   1      -2.777  -0.704   1.880  0.00  0.00    -0.004 A 
ATOM      5  C6  UNL d   1      -2.785  -0.670   0.482  0.00  0.00    -0.075 A 
ATOM      6  C7  UNL d   1      -2.882  -1.934  -0.321  0.00  0.00     0.076 C 
ATOM      7  C8  UNL d   1      -2.711   0.568  -0.171  0.00  0.00     0.001 A 
ENDROOT
BRANCH   1   8
ATOM      8  C1  UNL d   1      -2.544   3.088  -0.158  0.00  0.00     0.053 C 
ATOM      9  C   UNL d   1      -3.394   4.155   0.512  0.00  0.00     0.018 C 
ENDBRANCH   1   8
TORSDOF 1
ENDMDL
