MODEL 1
REMARK minimizedAffinity -0.26751703
REMARK minimizedRMSD -1
REMARK  1 active torsions:
REMARK  status: ('A' for Active; 'I' for Inactive)
REMARK    1  A    between atoms: C1_2  and  C2_3 
ROOT
ATOM      1  C2  UNL d   1       3.491  -0.510   3.254  0.00  0.00    -0.073 A 
ATOM      2  C3  UNL d   1       3.352   0.591   2.401  0.00  0.00    -0.002 A 
ATOM      3  C4  UNL d   1       4.054   1.770   2.652  0.00  0.00     0.004 A 
ATOM      4  C5  UNL d   1       4.907   1.859   3.752  0.00  0.00    -0.004 A 
ATOM      5  C6  UNL d   1       5.069   0.765   4.609  0.00  0.00    -0.075 A 
ATOM      6  C7  UNL d   1       5.981   0.845   5.798  0.00  0.00     0.076 C 
ATOM      7  C8  UNL d   1       4.358  -0.415   4.352  0.00  0.00     0.001 A 
ENDROOT
BRANCH   1   8
ATOM      8  C1  UNL d   1       2.740  -1.788   2.983  0.00  0.00     0.053 C 
ATOM      9  C   UNL d   1       2.401  -1.949   1.510  0.00  0.00     0.018 C 
ENDBRANCH   1   8
TORSDOF 1
ENDMDL
