MODEL 1
REMARK minimizedAffinity -2.96604776
REMARK minimizedRMSD -1
REMARK  1 active torsions:
REMARK  status: ('A' for Active; 'I' for Inactive)
REMARK    1  A    between atoms: C1_2  and  C2_3 
ROOT
ATOM      1  C2  UNL d   1       3.759  -0.416   3.072  0.00  0.00    -0.073 A 
ATOM      2  C3  UNL d   1       3.524   0.790   2.401  0.00  0.00    -0.002 A 
ATOM      3  C4  UNL d   1       4.079   1.980   2.874  0.00  0.00     0.004 A 
ATOM      4  C5  UNL d   1       4.879   1.976   4.017  0.00  0.00    -0.004 A 
ATOM      5  C6  UNL d   1       5.134   0.779   4.694  0.00  0.00    -0.075 A 
ATOM      6  C7  UNL d   1       5.991   0.758   5.926  0.00  0.00     0.076 C 
ATOM      7  C8  UNL d   1       4.571  -0.411   4.215  0.00  0.00     0.001 A 
ENDROOT
BRANCH   1   8
ATOM      8  C1  UNL d   1       3.167  -1.704   2.561  0.00  0.00     0.053 C 
ATOM      9  C   UNL d   1       2.767  -1.607   1.098  0.00  0.00     0.018 C 
ENDBRANCH   1   8
TORSDOF 1
ENDMDL
