MODEL 1
REMARK minimizedAffinity -0.250897735
REMARK minimizedRMSD -1
REMARK  1 active torsions:
REMARK  status: ('A' for Active; 'I' for Inactive)
REMARK    1  A    between atoms: C1_2  and  C2_3 
ROOT
ATOM      1  C2  UNL d   1       3.348  -0.405   2.915  0.00  0.00    -0.073 A 
ATOM      2  C3  UNL d   1       3.294   0.761   2.142  0.00  0.00    -0.002 A 
ATOM      3  C4  UNL d   1       4.107   1.851   2.454  0.00  0.00     0.004 A 
ATOM      4  C5  UNL d   1       4.985   1.786   3.535  0.00  0.00    -0.004 A 
ATOM      5  C6  UNL d   1       5.062   0.626   4.313  0.00  0.00    -0.075 A 
ATOM      6  C7  UNL d   1       5.999   0.540   5.481  0.00  0.00     0.076 C 
ATOM      7  C8  UNL d   1       4.240  -0.464   3.995  0.00  0.00     0.001 A 
ENDROOT
BRANCH   1   8
ATOM      8  C1  UNL d   1       2.477  -1.588   2.578  0.00  0.00     0.053 C 
ATOM      9  C   UNL d   1       2.380  -1.815   1.078  0.00  0.00     0.018 C 
ENDBRANCH   1   8
TORSDOF 1
ENDMDL
