MODEL 1
REMARK minimizedAffinity -3.1427176
REMARK minimizedRMSD -1
REMARK  1 active torsions:
REMARK  status: ('A' for Active; 'I' for Inactive)
REMARK    1  A    between atoms: C1_2  and  C2_3 
ROOT
ATOM      1  C2  UNL d   1       2.297  -1.792   1.488  0.00  0.00    -0.073 A 
ATOM      2  C3  UNL d   1       1.399  -0.978   0.788  0.00  0.00    -0.002 A 
ATOM      3  C4  UNL d   1       0.300  -1.540   0.136  0.00  0.00     0.004 A 
ATOM      4  C5  UNL d   1       0.083  -2.917   0.184  0.00  0.00    -0.004 A 
ATOM      5  C6  UNL d   1       0.963  -3.745   0.889  0.00  0.00    -0.075 A 
ATOM      6  C7  UNL d   1       0.746  -5.228   0.948  0.00  0.00     0.076 C 
ATOM      7  C8  UNL d   1       2.066  -3.174   1.538  0.00  0.00     0.001 A 
ENDROOT
BRANCH   1   8
ATOM      8  C1  UNL d   1       3.481  -1.189   2.198  0.00  0.00     0.053 C 
ATOM      9  C   UNL d   1       3.123   0.109   2.904  0.00  0.00     0.018 C 
ENDBRANCH   1   8
TORSDOF 1
ENDMDL
