MODEL 1
REMARK minimizedAffinity 4.45519733
REMARK minimizedRMSD -1
REMARK  1 active torsions:
REMARK  status: ('A' for Active; 'I' for Inactive)
REMARK    1  A    between atoms: C1_2  and  C2_3 
ROOT
ATOM      1  C2  UNL d   1       3.772  -0.460   2.979  0.00  0.00    -0.073 A 
ATOM      2  C3  UNL d   1       3.527   0.696   2.230  0.00  0.00    -0.002 A 
ATOM      3  C4  UNL d   1       4.074   1.919   2.622  0.00  0.00     0.004 A 
ATOM      4  C5  UNL d   1       4.876   1.996   3.761  0.00  0.00    -0.004 A 
ATOM      5  C6  UNL d   1       5.141   0.849   4.516  0.00  0.00    -0.075 A 
ATOM      6  C7  UNL d   1       6.000   0.916   5.745  0.00  0.00     0.076 C 
ATOM      7  C8  UNL d   1       4.586  -0.374   4.117  0.00  0.00     0.001 A 
ENDROOT
BRANCH   1   8
ATOM      8  C1  UNL d   1       3.189  -1.784   2.555  0.00  0.00     0.053 C 
ATOM      9  C   UNL d   1       2.994  -1.865   1.050  0.00  0.00     0.018 C 
ENDBRANCH   1   8
TORSDOF 1
ENDMDL
