MODEL 1
REMARK minimizedAffinity -4.16784286
REMARK minimizedRMSD -1
REMARK  1 active torsions:
REMARK  status: ('A' for Active; 'I' for Inactive)
REMARK    1  A    between atoms: C1_2  and  C2_3 
ROOT
ATOM      1  C2  UNL d   1      -2.510  -0.328   1.025  0.00  0.00    -0.073 A 
ATOM      2  C3  UNL d   1      -1.743  -0.017   2.154  0.00  0.00    -0.002 A 
ATOM      3  C4  UNL d   1      -1.786   1.264   2.704  0.00  0.00     0.004 A 
ATOM      4  C5  UNL d   1      -2.600   2.245   2.138  0.00  0.00    -0.004 A 
ATOM      5  C6  UNL d   1      -3.383   1.950   1.017  0.00  0.00    -0.075 A 
ATOM      6  C7  UNL d   1      -4.263   2.994   0.394  0.00  0.00     0.076 C 
ATOM      7  C8  UNL d   1      -3.332   0.662   0.468  0.00  0.00     0.001 A 
ENDROOT
BRANCH   1   8
ATOM      8  C1  UNL d   1      -2.471  -1.712   0.431  0.00  0.00     0.053 C 
ATOM      9  C   UNL d   1      -1.048  -2.202   0.219  0.00  0.00     0.018 C 
ENDBRANCH   1   8
TORSDOF 1
ENDMDL
