MODEL 1
REMARK minimizedAffinity 0.951447964
REMARK minimizedRMSD -1
REMARK  1 active torsions:
REMARK  status: ('A' for Active; 'I' for Inactive)
REMARK    1  A    between atoms: C1_2  and  C2_3 
ROOT
ATOM      1  C2  UNL d   1      -3.214   1.448   0.756  0.00  0.00    -0.073 A 
ATOM      2  C3  UNL d   1      -3.711   0.225   0.291  0.00  0.00    -0.002 A 
ATOM      3  C4  UNL d   1      -3.837  -0.860   1.159  0.00  0.00     0.004 A 
ATOM      4  C5  UNL d   1      -3.473  -0.733   2.499  0.00  0.00    -0.004 A 
ATOM      5  C6  UNL d   1      -2.986   0.484   2.985  0.00  0.00    -0.075 A 
ATOM      6  C7  UNL d   1      -2.589   0.637   4.424  0.00  0.00     0.076 C 
ATOM      7  C8  UNL d   1      -2.860   1.569   2.107  0.00  0.00     0.001 A 
ENDROOT
BRANCH   1   8
ATOM      8  C1  UNL d   1      -3.083   2.625  -0.176  0.00  0.00     0.053 C 
ATOM      9  C   UNL d   1      -3.199   3.951   0.560  0.00  0.00     0.018 C 
ENDBRANCH   1   8
TORSDOF 1
ENDMDL
