MODEL 1
REMARK minimizedAffinity 3.07782626
REMARK minimizedRMSD -1
REMARK  1 active torsions:
REMARK  status: ('A' for Active; 'I' for Inactive)
REMARK    1  A    between atoms: C1_2  and  C2_3 
ROOT
ATOM      1  C2  UNL d   1      -4.838  -0.955   3.172  0.00  0.00    -0.073 A 
ATOM      2  C3  UNL d   1      -4.296  -0.297   4.282  0.00  0.00    -0.002 A 
ATOM      3  C4  UNL d   1      -3.228   0.587   4.125  0.00  0.00     0.004 A 
ATOM      4  C5  UNL d   1      -2.695   0.827   2.859  0.00  0.00    -0.004 A 
ATOM      5  C6  UNL d   1      -3.230   0.188   1.736  0.00  0.00    -0.075 A 
ATOM      6  C7  UNL d   1      -2.667   0.433   0.367  0.00  0.00     0.076 C 
ATOM      7  C8  UNL d   1      -4.302  -0.701   1.901  0.00  0.00     0.001 A 
ENDROOT
BRANCH   1   8
ATOM      8  C1  UNL d   1      -5.996  -1.905   3.335  0.00  0.00     0.053 C 
ATOM      9  C   UNL d   1      -5.602  -3.342   3.031  0.00  0.00     0.018 C 
ENDBRANCH   1   8
TORSDOF 1
ENDMDL
