MODEL 1
REMARK minimizedAffinity 7.48232317
REMARK minimizedRMSD -1
REMARK  1 active torsions:
REMARK  status: ('A' for Active; 'I' for Inactive)
REMARK    1  A    between atoms: C1_2  and  C2_3 
ROOT
ATOM      1  C2  UNL d   1      -3.183   0.861   1.779  0.00  0.00    -0.073 A 
ATOM      2  C3  UNL d   1      -3.077   0.746   0.388  0.00  0.00    -0.002 A 
ATOM      3  C4  UNL d   1      -3.072   1.887  -0.415  0.00  0.00     0.004 A 
ATOM      4  C5  UNL d   1      -3.164   3.153   0.163  0.00  0.00    -0.004 A 
ATOM      5  C6  UNL d   1      -3.258   3.289   1.552  0.00  0.00    -0.075 A 
ATOM      6  C7  UNL d   1      -3.360   4.644   2.189  0.00  0.00     0.076 C 
ATOM      7  C8  UNL d   1      -3.266   2.139   2.351  0.00  0.00     0.001 A 
ENDROOT
BRANCH   1   8
ATOM      8  C1  UNL d   1      -3.183  -0.368   2.651  0.00  0.00     0.053 C 
ATOM      9  C   UNL d   1      -2.683  -0.070   4.056  0.00  0.00     0.018 C 
ENDBRANCH   1   8
TORSDOF 1
ENDMDL
