MODEL 1
REMARK minimizedAffinity -0.508662164
REMARK minimizedRMSD -1
REMARK  0 active torsions:
REMARK  status: ('A' for Active; 'I' for Inactive)
ROOT
ATOM      1  C   UNL d   1      -2.576  -0.517   2.613  0.00  0.00     0.077 C 
ATOM      2  C1  UNL d   1      -1.097  -0.289   2.520  0.00  0.00    -0.074 A 
ATOM      3  C2  UNL d   1      -0.194  -1.186   3.101  0.00  0.00    -0.005 A 
ATOM      4  C3  UNL d   1       1.180  -0.966   2.998  0.00  0.00     0.006 A 
ATOM      5  C4  UNL d   1       1.664   0.150   2.315  0.00  0.00    -0.005 A 
ATOM      6  C5  UNL d   1       0.776   1.057   1.727  0.00  0.00    -0.074 A 
ATOM      7  C6  UNL d   1       1.280   2.257   0.981  0.00  0.00     0.077 C 
ATOM      8  C7  UNL d   1      -0.603   0.826   1.829  0.00  0.00    -0.001 A 
ENDROOT
TORSDOF 0
ENDMDL
