MODEL 1
REMARK minimizedAffinity 5.31586981
REMARK minimizedRMSD -1
REMARK  0 active torsions:
REMARK  status: ('A' for Active; 'I' for Inactive)
ROOT
ATOM      1  C   UNL d   1      -2.798   0.366  -0.544  0.00  0.00     0.077 C 
ATOM      2  C1  UNL d   1      -1.928  -0.838  -0.748  0.00  0.00    -0.074 A 
ATOM      3  C2  UNL d   1      -1.644  -1.311  -2.033  0.00  0.00    -0.005 A 
ATOM      4  C3  UNL d   1      -0.826  -2.427  -2.208  0.00  0.00     0.006 A 
ATOM      5  C4  UNL d   1      -0.283  -3.080  -1.101  0.00  0.00    -0.005 A 
ATOM      6  C5  UNL d   1      -0.554  -2.621   0.192  0.00  0.00    -0.074 A 
ATOM      7  C6  UNL d   1       0.029  -3.306   1.392  0.00  0.00     0.077 C 
ATOM      8  C7  UNL d   1      -1.372  -1.495   0.359  0.00  0.00    -0.001 A 
ENDROOT
TORSDOF 0
ENDMDL
