MODEL 1
REMARK minimizedAffinity -0.149244606
REMARK minimizedRMSD -1
REMARK  0 active torsions:
REMARK  status: ('A' for Active; 'I' for Inactive)
ROOT
ATOM      1  C   UNL d   1       1.121   0.005   2.631  0.00  0.00     0.077 C 
ATOM      2  C1  UNL d   1      -0.287   0.219   2.159  0.00  0.00    -0.074 A 
ATOM      3  C2  UNL d   1      -0.573   0.377   0.799  0.00  0.00    -0.005 A 
ATOM      4  C3  UNL d   1      -1.888   0.566   0.375  0.00  0.00     0.006 A 
ATOM      5  C4  UNL d   1      -2.929   0.598   1.304  0.00  0.00    -0.005 A 
ATOM      6  C5  UNL d   1      -2.662   0.440   2.668  0.00  0.00    -0.074 A 
ATOM      7  C6  UNL d   1      -3.769   0.462   3.679  0.00  0.00     0.077 C 
ATOM      8  C7  UNL d   1      -1.338   0.244   3.086  0.00  0.00    -0.001 A 
ENDROOT
TORSDOF 0
ENDMDL
