MODEL 1
REMARK minimizedAffinity 7.61078167
REMARK minimizedRMSD -1
REMARK  0 active torsions:
REMARK  status: ('A' for Active; 'I' for Inactive)
ROOT
ATOM      1  C   UNL d   1       0.050  -0.877   3.330  0.00  0.00     0.077 C 
ATOM      2  C1  UNL d   1      -1.136  -0.418   2.535  0.00  0.00    -0.074 A 
ATOM      3  C2  UNL d   1      -2.399  -0.309   3.125  0.00  0.00    -0.005 A 
ATOM      4  C3  UNL d   1      -3.490   0.129   2.375  0.00  0.00     0.006 A 
ATOM      5  C4  UNL d   1      -3.330   0.462   1.030  0.00  0.00    -0.005 A 
ATOM      6  C5  UNL d   1      -2.075   0.360   0.423  0.00  0.00    -0.074 A 
ATOM      7  C6  UNL d   1      -1.883   0.724  -1.020  0.00  0.00     0.077 C 
ATOM      8  C7  UNL d   1      -0.981  -0.074   1.185  0.00  0.00    -0.001 A 
ENDROOT
TORSDOF 0
ENDMDL
