MODEL 1
REMARK minimizedAffinity -4.70251274
REMARK minimizedRMSD -1
REMARK  0 active torsions:
REMARK  status: ('A' for Active; 'I' for Inactive)
ROOT
ATOM      1  C   UNL d   1      -2.428  -1.273   5.893  0.00  0.00     0.077 C 
ATOM      2  C1  UNL d   1      -2.034  -0.909   4.492  0.00  0.00    -0.074 A 
ATOM      3  C2  UNL d   1      -3.002  -0.698   3.505  0.00  0.00    -0.005 A 
ATOM      4  C3  UNL d   1      -2.620  -0.351   2.209  0.00  0.00     0.006 A 
ATOM      5  C4  UNL d   1      -1.270  -0.212   1.887  0.00  0.00    -0.005 A 
ATOM      6  C5  UNL d   1      -0.288  -0.418   2.862  0.00  0.00    -0.074 A 
ATOM      7  C6  UNL d   1       1.168  -0.263   2.535  0.00  0.00     0.077 C 
ATOM      8  C7  UNL d   1      -0.679  -0.760   4.163  0.00  0.00    -0.001 A 
ENDROOT
TORSDOF 0
ENDMDL
