MODEL 1
REMARK minimizedAffinity -2.87113023
REMARK minimizedRMSD -1
REMARK  0 active torsions:
REMARK  status: ('A' for Active; 'I' for Inactive)
ROOT
ATOM      1  C   UNL d   1       0.006  -0.686   3.596  0.00  0.00     0.077 C 
ATOM      2  C1  UNL d   1      -1.357  -0.547   2.985  0.00  0.00    -0.074 A 
ATOM      3  C2  UNL d   1      -2.503  -0.936   3.686  0.00  0.00    -0.005 A 
ATOM      4  C3  UNL d   1      -3.764  -0.792   3.108  0.00  0.00     0.006 A 
ATOM      5  C4  UNL d   1      -3.892  -0.257   1.825  0.00  0.00    -0.005 A 
ATOM      6  C5  UNL d   1      -2.758   0.139   1.109  0.00  0.00    -0.074 A 
ATOM      7  C6  UNL d   1      -2.878   0.725  -0.266  0.00  0.00     0.077 C 
ATOM      8  C7  UNL d   1      -1.494  -0.003   1.700  0.00  0.00    -0.001 A 
ENDROOT
TORSDOF 0
ENDMDL
