MODEL 1
REMARK minimizedAffinity 0.705237389
REMARK minimizedRMSD -1
REMARK  0 active torsions:
REMARK  status: ('A' for Active; 'I' for Inactive)
ROOT
ATOM      1  C   UNL d   1       0.378  -0.414   3.374  0.00  0.00     0.077 C 
ATOM      2  C1  UNL d   1      -0.851  -0.068   2.587  0.00  0.00    -0.074 A 
ATOM      3  C2  UNL d   1      -2.054   0.241   3.230  0.00  0.00    -0.005 A 
ATOM      4  C3  UNL d   1      -3.186   0.570   2.485  0.00  0.00     0.006 A 
ATOM      5  C4  UNL d   1      -3.127   0.594   1.091  0.00  0.00    -0.005 A 
ATOM      6  C5  UNL d   1      -1.933   0.289   0.430  0.00  0.00    -0.074 A 
ATOM      7  C6  UNL d   1      -1.850   0.320  -1.067  0.00  0.00     0.077 C 
ATOM      8  C7  UNL d   1      -0.798  -0.034   1.186  0.00  0.00    -0.001 A 
ENDROOT
TORSDOF 0
ENDMDL
