MODEL 1
REMARK minimizedAffinity 4.80692244
REMARK minimizedRMSD -1
REMARK  0 active torsions:
REMARK  status: ('A' for Active; 'I' for Inactive)
ROOT
ATOM      1  C   UNL d   1       0.019   0.252   3.438  0.00  0.00     0.077 C 
ATOM      2  C1  UNL d   1      -1.088   0.328   2.428  0.00  0.00    -0.074 A 
ATOM      3  C2  UNL d   1      -2.380   0.707   2.806  0.00  0.00    -0.005 A 
ATOM      4  C3  UNL d   1      -3.397   0.783   1.854  0.00  0.00     0.006 A 
ATOM      5  C4  UNL d   1      -3.132   0.479   0.518  0.00  0.00    -0.005 A 
ATOM      6  C5  UNL d   1      -1.846   0.098   0.122  0.00  0.00    -0.074 A 
ATOM      7  C6  UNL d   1      -1.543  -0.221  -1.312  0.00  0.00     0.077 C 
ATOM      8  C7  UNL d   1      -0.828   0.032   1.083  0.00  0.00    -0.001 A 
ENDROOT
TORSDOF 0
ENDMDL
