MODEL 1
REMARK minimizedAffinity 5.34062099
REMARK minimizedRMSD -1
REMARK  0 active torsions:
REMARK  status: ('A' for Active; 'I' for Inactive)
ROOT
ATOM      1  C   UNL d   1       0.752  -0.004   3.220  0.00  0.00     0.077 C 
ATOM      2  C1  UNL d   1      -0.546   0.714   3.000  0.00  0.00    -0.074 A 
ATOM      3  C2  UNL d   1      -0.775   1.974   3.562  0.00  0.00    -0.005 A 
ATOM      4  C3  UNL d   1      -1.984   2.634   3.341  0.00  0.00     0.006 A 
ATOM      5  C4  UNL d   1      -2.974   2.042   2.556  0.00  0.00    -0.005 A 
ATOM      6  C5  UNL d   1      -2.763   0.783   1.985  0.00  0.00    -0.074 A 
ATOM      7  C6  UNL d   1      -3.813   0.137   1.131  0.00  0.00     0.077 C 
ATOM      8  C7  UNL d   1      -1.543   0.129   2.206  0.00  0.00    -0.001 A 
ENDROOT
TORSDOF 0
ENDMDL
