MODEL 1
REMARK minimizedAffinity 7.33427095
REMARK minimizedRMSD -1
REMARK  0 active torsions:
REMARK  status: ('A' for Active; 'I' for Inactive)
ROOT
ATOM      1  C   UNL d   1       1.883   5.047  -4.181  0.00  0.00     0.077 C 
ATOM      2  C1  UNL d   1       3.026   4.089  -4.026  0.00  0.00    -0.074 A 
ATOM      3  C2  UNL d   1       4.319   4.442  -4.424  0.00  0.00    -0.005 A 
ATOM      4  C3  UNL d   1       5.374   3.544  -4.265  0.00  0.00     0.006 A 
ATOM      5  C4  UNL d   1       5.147   2.285  -3.708  0.00  0.00    -0.005 A 
ATOM      6  C5  UNL d   1       3.861   1.914  -3.303  0.00  0.00    -0.074 A 
ATOM      7  C6  UNL d   1       3.601   0.568  -2.694  0.00  0.00     0.077 C 
ATOM      8  C7  UNL d   1       2.807   2.825  -3.460  0.00  0.00    -0.001 A 
ENDROOT
TORSDOF 0
ENDMDL
