MODEL 1
REMARK minimizedAffinity 5.51023912
REMARK minimizedRMSD -1
REMARK  0 active torsions:
REMARK  status: ('A' for Active; 'I' for Inactive)
ROOT
ATOM      1  C   UNL d   1      -0.507  -2.632  -1.190  0.00  0.00     0.077 C 
ATOM      2  C1  UNL d   1      -1.303  -1.560  -0.506  0.00  0.00    -0.074 A 
ATOM      3  C2  UNL d   1      -2.424  -0.994  -1.121  0.00  0.00    -0.005 A 
ATOM      4  C3  UNL d   1      -3.160  -0.006  -0.468  0.00  0.00     0.006 A 
ATOM      5  C4  UNL d   1      -2.783   0.427   0.804  0.00  0.00    -0.005 A 
ATOM      6  C5  UNL d   1      -1.665  -0.128   1.435  0.00  0.00    -0.074 A 
ATOM      7  C6  UNL d   1      -1.252   0.318   2.806  0.00  0.00     0.077 C 
ATOM      8  C7  UNL d   1      -0.935  -1.126   0.775  0.00  0.00    -0.001 A 
ENDROOT
TORSDOF 0
ENDMDL
