MODEL 1
REMARK minimizedAffinity 15.5798769
REMARK minimizedRMSD -1
REMARK  0 active torsions:
REMARK  status: ('A' for Active; 'I' for Inactive)
ROOT
ATOM      1  C   UNL d   1       1.544   2.815   0.007  0.00  0.00     0.077 C 
ATOM      2  C1  UNL d   1       0.543   1.807   0.489  0.00  0.00    -0.074 A 
ATOM      3  C2  UNL d   1      -0.156   1.000  -0.414  0.00  0.00    -0.005 A 
ATOM      4  C3  UNL d   1      -1.077   0.061   0.050  0.00  0.00     0.006 A 
ATOM      5  C4  UNL d   1      -1.307  -0.081   1.419  0.00  0.00    -0.005 A 
ATOM      6  C5  UNL d   1      -0.616   0.717   2.337  0.00  0.00    -0.074 A 
ATOM      7  C6  UNL d   1      -0.844   0.570   3.812  0.00  0.00     0.077 C 
ATOM      8  C7  UNL d   1       0.313   1.654   1.863  0.00  0.00    -0.001 A 
ENDROOT
TORSDOF 0
ENDMDL
