MODEL 1
REMARK minimizedAffinity 0.938123286
REMARK minimizedRMSD -1
REMARK  0 active torsions:
REMARK  status: ('A' for Active; 'I' for Inactive)
ROOT
ATOM      1  C   UNL d   1      -1.466  -1.485  -1.898  0.00  0.00     0.077 C 
ATOM      2  C1  UNL d   1      -2.170  -0.636  -0.881  0.00  0.00    -0.074 A 
ATOM      3  C2  UNL d   1      -3.497  -0.237  -1.072  0.00  0.00    -0.005 A 
ATOM      4  C3  UNL d   1      -4.141   0.544  -0.113  0.00  0.00     0.006 A 
ATOM      5  C4  UNL d   1      -3.466   0.936   1.044  0.00  0.00    -0.005 A 
ATOM      6  C5  UNL d   1      -2.139   0.547   1.252  0.00  0.00    -0.074 A 
ATOM      7  C6  UNL d   1      -1.402   0.950   2.494  0.00  0.00     0.077 C 
ATOM      8  C7  UNL d   1      -1.501  -0.245   0.287  0.00  0.00    -0.001 A 
ENDROOT
TORSDOF 0
ENDMDL
