MODEL 1
REMARK minimizedAffinity 7.33079815
REMARK minimizedRMSD -1
REMARK  0 active torsions:
REMARK  status: ('A' for Active; 'I' for Inactive)
ROOT
ATOM      1  C   UNL d   1      -0.499  -3.096   0.661  0.00  0.00     0.077 C 
ATOM      2  C1  UNL d   1      -1.226  -2.404  -0.453  0.00  0.00    -0.074 A 
ATOM      3  C2  UNL d   1      -0.897  -2.653  -1.790  0.00  0.00    -0.005 A 
ATOM      4  C3  UNL d   1      -1.588  -2.009  -2.816  0.00  0.00     0.006 A 
ATOM      5  C4  UNL d   1      -2.614  -1.111  -2.517  0.00  0.00    -0.005 A 
ATOM      6  C5  UNL d   1      -2.957  -0.850  -1.186  0.00  0.00    -0.074 A 
ATOM      7  C6  UNL d   1      -4.063   0.104  -0.847  0.00  0.00     0.077 C 
ATOM      8  C7  UNL d   1      -2.262  -1.507  -0.161  0.00  0.00    -0.001 A 
ENDROOT
TORSDOF 0
ENDMDL
