MODEL 1
REMARK minimizedAffinity 8.54026604
REMARK minimizedRMSD -1
REMARK  0 active torsions:
REMARK  status: ('A' for Active; 'I' for Inactive)
ROOT
ATOM      1  C   UNL d   1      -3.595  -0.302   0.627  0.00  0.00     0.077 C 
ATOM      2  C1  UNL d   1      -2.678  -1.234  -0.109  0.00  0.00    -0.074 A 
ATOM      3  C2  UNL d   1      -2.573  -2.579   0.259  0.00  0.00    -0.005 A 
ATOM      4  C3  UNL d   1      -1.724  -3.435  -0.441  0.00  0.00     0.006 A 
ATOM      5  C4  UNL d   1      -0.972  -2.956  -1.515  0.00  0.00    -0.005 A 
ATOM      6  C5  UNL d   1      -1.065  -1.614  -1.898  0.00  0.00    -0.074 A 
ATOM      7  C6  UNL d   1      -0.271  -1.086  -3.056  0.00  0.00     0.077 C 
ATOM      8  C7  UNL d   1      -1.926  -0.762  -1.194  0.00  0.00    -0.001 A 
ENDROOT
TORSDOF 0
ENDMDL
