MODEL 1
REMARK minimizedAffinity 1.67745185
REMARK minimizedRMSD -1
REMARK  0 active torsions:
REMARK  status: ('A' for Active; 'I' for Inactive)
ROOT
ATOM      1  C   UNL d   1      -0.304  -0.420   3.257  0.00  0.00     0.077 C 
ATOM      2  C1  UNL d   1      -1.500  -0.009   2.451  0.00  0.00    -0.074 A 
ATOM      3  C2  UNL d   1      -1.700  -0.504   1.158  0.00  0.00    -0.005 A 
ATOM      4  C3  UNL d   1      -2.821  -0.120   0.423  0.00  0.00     0.006 A 
ATOM      5  C4  UNL d   1      -3.753   0.761   0.973  0.00  0.00    -0.005 A 
ATOM      6  C5  UNL d   1      -3.571   1.266   2.264  0.00  0.00    -0.074 A 
ATOM      7  C6  UNL d   1      -4.568   2.206   2.873  0.00  0.00     0.077 C 
ATOM      8  C7  UNL d   1      -2.445   0.870   2.999  0.00  0.00    -0.001 A 
ENDROOT
TORSDOF 0
ENDMDL
