MODEL 1
REMARK minimizedAffinity 0.367928505
REMARK minimizedRMSD -1
REMARK  0 active torsions:
REMARK  status: ('A' for Active; 'I' for Inactive)
ROOT
ATOM      1  C   UNL d   1       2.706   4.482  -2.403  0.00  0.00     0.124 A 
ATOM      2  C1  UNL d   1       3.902   5.172  -2.264  0.00  0.00     0.062 A 
ATOM      3  C2  UNL d   1       4.844   5.154  -3.289  0.00  0.00     0.162 A 
ATOM      4  C3  UNL d   1       4.593   4.443  -4.463  0.00  0.00    -0.034 A 
ATOM      5  C4  UNL d   1       3.388   3.751  -4.595  0.00  0.00     0.162 A 
ATOM      6  C5  UNL d   1       2.450   3.772  -3.568  0.00  0.00     0.062 A 
ATOM      7  F   UNL d   1       1.295   3.105  -3.704  0.00  0.00    -0.097 F 
ATOM      8  F1  UNL d   1       3.114   3.058  -5.710  0.00  0.00    -0.096 F 
ATOM      9  I   UNL d   1       5.998   4.414  -5.998  0.00  0.00    -0.060 I 
ATOM     10  F2  UNL d   1       5.991   5.829  -3.128  0.00  0.00    -0.096 F 
ATOM     11  F3  UNL d   1       4.153   5.857  -1.139  0.00  0.00    -0.097 F 
ATOM     12  F4  UNL d   1       1.802   4.500  -1.415  0.00  0.00    -0.092 F 
ENDROOT
TORSDOF 0
ENDMDL
