MODEL 1
REMARK minimizedAffinity 15.5485067
REMARK minimizedRMSD -1
REMARK  0 active torsions:
REMARK  status: ('A' for Active; 'I' for Inactive)
ROOT
ATOM      1  C   UNL d   1       2.825   4.444  -2.042  0.00  0.00     0.124 A 
ATOM      2  C1  UNL d   1       3.980   5.209  -1.963  0.00  0.00     0.062 A 
ATOM      3  C2  UNL d   1       4.877   5.234  -3.027  0.00  0.00     0.162 A 
ATOM      4  C3  UNL d   1       4.622   4.492  -4.181  0.00  0.00    -0.034 A 
ATOM      5  C4  UNL d   1       3.458   3.724  -4.252  0.00  0.00     0.162 A 
ATOM      6  C5  UNL d   1       2.565   3.703  -3.186  0.00  0.00     0.062 A 
ATOM      7  F   UNL d   1       1.449   2.963  -3.264  0.00  0.00    -0.097 F 
ATOM      8  F1  UNL d   1       3.182   2.999  -5.346  0.00  0.00    -0.096 F 
ATOM      9  I   UNL d   1       5.960   4.527  -5.774  0.00  0.00    -0.060 I 
ATOM     10  F2  UNL d   1       5.985   5.982  -2.924  0.00  0.00    -0.096 F 
ATOM     11  F3  UNL d   1       4.234   5.926  -0.859  0.00  0.00    -0.097 F 
ATOM     12  F4  UNL d   1       1.964   4.421  -1.017  0.00  0.00    -0.092 F 
ENDROOT
TORSDOF 0
ENDMDL
