MODEL 1
REMARK minimizedAffinity 18.8668461
REMARK minimizedRMSD -1
REMARK  0 active torsions:
REMARK  status: ('A' for Active; 'I' for Inactive)
ROOT
ATOM      1  C   UNL d   1      -1.179  -2.817  -3.057  0.00  0.00     0.124 A 
ATOM      2  C1  UNL d   1       0.049  -2.362  -2.599  0.00  0.00     0.062 A 
ATOM      3  C2  UNL d   1       1.216  -2.685  -3.286  0.00  0.00     0.162 A 
ATOM      4  C3  UNL d   1       1.159  -3.467  -4.439  0.00  0.00    -0.034 A 
ATOM      5  C4  UNL d   1      -0.080  -3.922  -4.893  0.00  0.00     0.162 A 
ATOM      6  C5  UNL d   1      -1.243  -3.596  -4.203  0.00  0.00     0.062 A 
ATOM      7  F   UNL d   1      -2.429  -4.037  -4.647  0.00  0.00    -0.097 F 
ATOM      8  F1  UNL d   1      -0.170  -4.676  -5.999  0.00  0.00    -0.096 F 
ATOM      9  I   UNL d   1       2.902  -3.953  -5.469  0.00  0.00    -0.060 I 
ATOM     10  F2  UNL d   1       2.389  -2.232  -2.820  0.00  0.00    -0.096 F 
ATOM     11  F3  UNL d   1       0.113  -1.609  -1.491  0.00  0.00    -0.097 F 
ATOM     12  F4  UNL d   1      -2.300  -2.505  -2.393  0.00  0.00    -0.092 F 
ENDROOT
TORSDOF 0
ENDMDL
