MODEL 1
REMARK minimizedAffinity 18.951046
REMARK minimizedRMSD -1
REMARK  0 active torsions:
REMARK  status: ('A' for Active; 'I' for Inactive)
ROOT
ATOM      1  C   UNL d   1       2.416   2.665  -3.759  0.00  0.00     0.124 A 
ATOM      2  C1  UNL d   1       2.132   3.947  -3.310  0.00  0.00     0.062 A 
ATOM      3  C2  UNL d   1       3.154   4.763  -2.833  0.00  0.00     0.162 A 
ATOM      4  C3  UNL d   1       4.469   4.300  -2.804  0.00  0.00    -0.034 A 
ATOM      5  C4  UNL d   1       4.746   3.009  -3.257  0.00  0.00     0.162 A 
ATOM      6  C5  UNL d   1       3.722   2.197  -3.732  0.00  0.00     0.062 A 
ATOM      7  F   UNL d   1       3.997   0.958  -4.165  0.00  0.00    -0.097 F 
ATOM      8  F1  UNL d   1       6.000   2.532  -3.243  0.00  0.00    -0.096 F 
ATOM      9  I   UNL d   1       6.000   5.518  -2.093  0.00  0.00    -0.060 I 
ATOM     10  F2  UNL d   1       2.851   5.998  -2.406  0.00  0.00    -0.096 F 
ATOM     11  F3  UNL d   1       0.871   4.401  -3.334  0.00  0.00    -0.097 F 
ATOM     12  F4  UNL d   1       1.431   1.881  -4.216  0.00  0.00    -0.092 F 
ENDROOT
TORSDOF 0
ENDMDL
