MODEL 1
REMARK minimizedAffinity 10.8966208
REMARK minimizedRMSD -1
REMARK  0 active torsions:
REMARK  status: ('A' for Active; 'I' for Inactive)
ROOT
ATOM      1  C   UNL d   1       4.738   4.486  -4.447  0.00  0.00     0.124 A 
ATOM      2  C1  UNL d   1       3.617   3.683  -4.599  0.00  0.00     0.062 A 
ATOM      3  C2  UNL d   1       2.663   3.614  -3.588  0.00  0.00     0.162 A 
ATOM      4  C3  UNL d   1       2.825   4.351  -2.416  0.00  0.00    -0.034 A 
ATOM      5  C4  UNL d   1       3.956   5.156  -2.269  0.00  0.00     0.162 A 
ATOM      6  C5  UNL d   1       4.907   5.222  -3.283  0.00  0.00     0.062 A 
ATOM      7  F   UNL d   1       5.990   5.999  -3.134  0.00  0.00    -0.097 F 
ATOM      8  F1  UNL d   1       4.144   5.879  -1.155  0.00  0.00    -0.096 F 
ATOM      9  I   UNL d   1       1.401   4.251  -0.902  0.00  0.00    -0.060 I 
ATOM     10  F2  UNL d   1       1.589   2.829  -3.763  0.00  0.00    -0.096 F 
ATOM     11  F3  UNL d   1       3.452   2.970  -5.723  0.00  0.00    -0.097 F 
ATOM     12  F4  UNL d   1       5.655   4.550  -5.421  0.00  0.00    -0.092 F 
ENDROOT
TORSDOF 0
ENDMDL
