MODEL 1
REMARK minimizedAffinity 10.3033743
REMARK minimizedRMSD -1
REMARK  0 active torsions:
REMARK  status: ('A' for Active; 'I' for Inactive)
ROOT
ATOM      1  C   UNL d   1       3.730  -2.355  -4.134  0.00  0.00     0.124 A 
ATOM      2  C1  UNL d   1       3.573  -3.695  -3.811  0.00  0.00     0.062 A 
ATOM      3  C2  UNL d   1       4.220  -4.228  -2.700  0.00  0.00     0.162 A 
ATOM      4  C3  UNL d   1       5.030  -3.420  -1.903  0.00  0.00    -0.034 A 
ATOM      5  C4  UNL d   1       5.185  -2.073  -2.234  0.00  0.00     0.162 A 
ATOM      6  C5  UNL d   1       4.536  -1.545  -3.346  0.00  0.00     0.062 A 
ATOM      7  F   UNL d   1       4.689  -0.249  -3.656  0.00  0.00    -0.097 F 
ATOM      8  F1  UNL d   1       5.956  -1.268  -1.490  0.00  0.00    -0.096 F 
ATOM      9  I   UNL d   1       6.000  -4.213  -0.241  0.00  0.00    -0.060 I 
ATOM     10  F2  UNL d   1       4.050  -5.527  -2.411  0.00  0.00    -0.096 F 
ATOM     11  F3  UNL d   1       2.796  -4.480  -4.571  0.00  0.00    -0.097 F 
ATOM     12  F4  UNL d   1       3.107  -1.845  -5.204  0.00  0.00    -0.092 F 
ENDROOT
TORSDOF 0
ENDMDL
