MODEL 1
REMARK minimizedAffinity 14.534029
REMARK minimizedRMSD -1
REMARK  0 active torsions:
REMARK  status: ('A' for Active; 'I' for Inactive)
ROOT
ATOM      1  C   UNL d   1       4.674  -3.027  -2.949  0.00  0.00     0.124 A 
ATOM      2  C1  UNL d   1       3.892  -2.530  -1.916  0.00  0.00     0.062 A 
ATOM      3  C2  UNL d   1       2.514  -2.411  -2.076  0.00  0.00     0.162 A 
ATOM      4  C3  UNL d   1       1.909  -2.791  -3.274  0.00  0.00    -0.034 A 
ATOM      5  C4  UNL d   1       2.703  -3.288  -4.309  0.00  0.00     0.162 A 
ATOM      6  C5  UNL d   1       4.079  -3.405  -4.145  0.00  0.00     0.062 A 
ATOM      7  F   UNL d   1       4.833  -3.885  -5.144  0.00  0.00    -0.097 F 
ATOM      8  F1  UNL d   1       2.154  -3.662  -5.474  0.00  0.00    -0.096 F 
ATOM      9  I   UNL d   1      -0.150  -2.614  -3.517  0.00  0.00    -0.060 I 
ATOM     10  F2  UNL d   1       1.783  -1.928  -1.060  0.00  0.00    -0.096 F 
ATOM     11  F3  UNL d   1       4.464  -2.163  -0.760  0.00  0.00    -0.097 F 
ATOM     12  F4  UNL d   1       5.999  -3.140  -2.793  0.00  0.00    -0.092 F 
ENDROOT
TORSDOF 0
ENDMDL
