MODEL 1
REMARK minimizedAffinity 11.1528034
REMARK minimizedRMSD -1
REMARK  0 active torsions:
REMARK  status: ('A' for Active; 'I' for Inactive)
ROOT
ATOM      1  C   UNL d   1      -2.854  -2.700  -0.987  0.00  0.00     0.124 A 
ATOM      2  C1  UNL d   1      -1.725  -2.378  -0.247  0.00  0.00     0.062 A 
ATOM      3  C2  UNL d   1      -0.501  -2.193  -0.882  0.00  0.00     0.162 A 
ATOM      4  C3  UNL d   1      -0.399  -2.328  -2.267  0.00  0.00    -0.034 A 
ATOM      5  C4  UNL d   1      -1.538  -2.652  -3.005  0.00  0.00     0.162 A 
ATOM      6  C5  UNL d   1      -2.760  -2.836  -2.365  0.00  0.00     0.062 A 
ATOM      7  F   UNL d   1      -3.850  -3.147  -3.082  0.00  0.00    -0.097 F 
ATOM      8  F1  UNL d   1      -1.476  -2.789  -4.338  0.00  0.00    -0.096 F 
ATOM      9  I   UNL d   1       1.430  -2.052  -3.221  0.00  0.00    -0.060 I 
ATOM     10  F2  UNL d   1       0.574  -1.883  -0.142  0.00  0.00    -0.096 F 
ATOM     11  F3  UNL d   1      -1.813  -2.247   1.084  0.00  0.00    -0.097 F 
ATOM     12  F4  UNL d   1      -4.031  -2.878  -0.373  0.00  0.00    -0.092 F 
ENDROOT
TORSDOF 0
ENDMDL
