MODEL 1
REMARK minimizedAffinity 16.6676064
REMARK minimizedRMSD -1
REMARK  0 active torsions:
REMARK  status: ('A' for Active; 'I' for Inactive)
ROOT
ATOM      1  C   UNL d   1       1.243  -3.876  -4.936  0.00  0.00     0.124 A 
ATOM      2  C1  UNL d   1       2.070  -3.378  -3.938  0.00  0.00     0.062 A 
ATOM      3  C2  UNL d   1       1.523  -2.735  -2.831  0.00  0.00     0.162 A 
ATOM      4  C3  UNL d   1       0.141  -2.587  -2.716  0.00  0.00    -0.034 A 
ATOM      5  C4  UNL d   1      -0.685  -3.089  -3.723  0.00  0.00     0.162 A 
ATOM      6  C5  UNL d   1      -0.133  -3.731  -4.827  0.00  0.00     0.062 A 
ATOM      7  F   UNL d   1      -0.934  -4.211  -5.790  0.00  0.00    -0.097 F 
ATOM      8  F1  UNL d   1      -2.018  -2.963  -3.644  0.00  0.00    -0.096 F 
ATOM      9  I   UNL d   1      -0.681  -1.626  -1.062  0.00  0.00    -0.060 I 
ATOM     10  F2  UNL d   1       2.346  -2.264  -1.883  0.00  0.00    -0.096 F 
ATOM     11  F3  UNL d   1       3.399  -3.516  -4.041  0.00  0.00    -0.097 F 
ATOM     12  F4  UNL d   1       1.772  -4.493  -6.000  0.00  0.00    -0.092 F 
ENDROOT
TORSDOF 0
ENDMDL
