MODEL 1
REMARK minimizedAffinity 6.46786547
REMARK minimizedRMSD -1
REMARK  0 active torsions:
REMARK  status: ('A' for Active; 'I' for Inactive)
ROOT
ATOM      1  C   UNL d   1      -0.556  -3.585  -3.111  0.00  0.00     0.124 A 
ATOM      2  C1  UNL d   1       0.767  -3.566  -3.530  0.00  0.00     0.062 A 
ATOM      3  C2  UNL d   1       1.664  -2.657  -2.976  0.00  0.00     0.162 A 
ATOM      4  C3  UNL d   1       1.241  -1.760  -1.996  0.00  0.00    -0.034 A 
ATOM      5  C4  UNL d   1      -0.092  -1.783  -1.580  0.00  0.00     0.162 A 
ATOM      6  C5  UNL d   1      -0.984  -2.694  -2.137  0.00  0.00     0.062 A 
ATOM      7  F   UNL d   1      -2.262  -2.710  -1.731  0.00  0.00    -0.097 F 
ATOM      8  F1  UNL d   1      -0.532  -0.934  -0.640  0.00  0.00    -0.096 F 
ATOM      9  I   UNL d   1       2.579  -0.399  -1.165  0.00  0.00    -0.060 I 
ATOM     10  F2  UNL d   1       2.937  -2.662  -3.399  0.00  0.00    -0.096 F 
ATOM     11  F3  UNL d   1       1.183  -4.426  -4.471  0.00  0.00    -0.097 F 
ATOM     12  F4  UNL d   1      -1.417  -4.460  -3.646  0.00  0.00    -0.092 F 
ENDROOT
TORSDOF 0
ENDMDL
