MODEL 1
REMARK minimizedAffinity 28.8638077
REMARK minimizedRMSD -1
REMARK  0 active torsions:
REMARK  status: ('A' for Active; 'I' for Inactive)
ROOT
ATOM      1  C   UNL d   1      -1.335  -2.131   1.389  0.00  0.00     0.124 A 
ATOM      2  C1  UNL d   1      -2.378  -1.239   1.183  0.00  0.00     0.062 A 
ATOM      3  C2  UNL d   1      -2.838  -0.446   2.231  0.00  0.00     0.162 A 
ATOM      4  C3  UNL d   1      -2.254  -0.542   3.495  0.00  0.00    -0.034 A 
ATOM      5  C4  UNL d   1      -1.206  -1.442   3.694  0.00  0.00     0.162 A 
ATOM      6  C5  UNL d   1      -0.750  -2.232   2.643  0.00  0.00     0.062 A 
ATOM      7  F   UNL d   1       0.258  -3.094   2.843  0.00  0.00    -0.097 F 
ATOM      8  F1  UNL d   1      -0.622  -1.560   4.896  0.00  0.00    -0.096 F 
ATOM      9  I   UNL d   1      -2.939   0.641   5.064  0.00  0.00    -0.060 I 
ATOM     10  F2  UNL d   1      -3.847   0.407   2.004  0.00  0.00    -0.096 F 
ATOM     11  F3  UNL d   1      -2.945  -1.140  -0.027  0.00  0.00    -0.097 F 
ATOM     12  F4  UNL d   1      -0.895  -2.893   0.379  0.00  0.00    -0.092 F 
ENDROOT
TORSDOF 0
ENDMDL
