MODEL 1
REMARK minimizedAffinity 18.2054977
REMARK minimizedRMSD -1
REMARK  0 active torsions:
REMARK  status: ('A' for Active; 'I' for Inactive)
ROOT
ATOM      1  C   UNL d   1      -0.131  -1.901  -1.862  0.00  0.00     0.124 A 
ATOM      2  C1  UNL d   1      -0.720  -2.459  -0.736  0.00  0.00     0.062 A 
ATOM      3  C2  UNL d   1      -1.674  -1.745  -0.018  0.00  0.00     0.162 A 
ATOM      4  C3  UNL d   1      -2.046  -0.463  -0.424  0.00  0.00    -0.034 A 
ATOM      5  C4  UNL d   1      -1.449   0.092  -1.557  0.00  0.00     0.162 A 
ATOM      6  C5  UNL d   1      -0.496  -0.627  -2.272  0.00  0.00     0.062 A 
ATOM      7  F   UNL d   1       0.072  -0.086  -3.360  0.00  0.00    -0.097 F 
ATOM      8  F1  UNL d   1      -1.783   1.322  -1.976  0.00  0.00    -0.096 F 
ATOM      9  I   UNL d   1      -3.472   0.609   0.647  0.00  0.00    -0.060 I 
ATOM     10  F2  UNL d   1      -2.226  -2.309   1.066  0.00  0.00    -0.096 F 
ATOM     11  F3  UNL d   1      -0.368  -3.691  -0.338  0.00  0.00    -0.097 F 
ATOM     12  F4  UNL d   1       0.787  -2.591  -2.551  0.00  0.00    -0.092 F 
ENDROOT
TORSDOF 0
ENDMDL
