MODEL 1
REMARK minimizedAffinity 18.0829639
REMARK minimizedRMSD -1
REMARK  0 active torsions:
REMARK  status: ('A' for Active; 'I' for Inactive)
ROOT
ATOM      1  C   UNL d   1      -1.439   0.099  -0.655  0.00  0.00     0.124 A 
ATOM      2  C1  UNL d   1      -2.587   0.446   0.044  0.00  0.00     0.062 A 
ATOM      3  C2  UNL d   1      -3.390  -0.543   0.605  0.00  0.00     0.162 A 
ATOM      4  C3  UNL d   1      -3.048  -1.889   0.470  0.00  0.00    -0.034 A 
ATOM      5  C4  UNL d   1      -1.893  -2.229  -0.236  0.00  0.00     0.162 A 
ATOM      6  C5  UNL d   1      -1.093  -1.238  -0.794  0.00  0.00     0.062 A 
ATOM      7  F   UNL d   1       0.015  -1.574  -1.470  0.00  0.00    -0.097 F 
ATOM      8  F1  UNL d   1      -1.534  -3.513  -0.385  0.00  0.00    -0.096 F 
ATOM      9  I   UNL d   1      -4.246  -3.370   1.307  0.00  0.00    -0.060 I 
ATOM     10  F2  UNL d   1      -4.493  -0.179   1.276  0.00  0.00    -0.096 F 
ATOM     11  F3  UNL d   1      -2.924   1.736   0.180  0.00  0.00    -0.097 F 
ATOM     12  F4  UNL d   1      -0.669   1.052  -1.195  0.00  0.00    -0.092 F 
ENDROOT
TORSDOF 0
ENDMDL
