MODEL 1
REMARK minimizedAffinity 18.1725883
REMARK minimizedRMSD -1
REMARK  0 active torsions:
REMARK  status: ('A' for Active; 'I' for Inactive)
ROOT
ATOM      1  C   UNL d   1       3.662   4.559  -1.263  0.00  0.00     0.124 A 
ATOM      2  C1  UNL d   1       2.487   4.489  -2.000  0.00  0.00     0.062 A 
ATOM      3  C2  UNL d   1       2.489   4.818  -3.352  0.00  0.00     0.162 A 
ATOM      4  C3  UNL d   1       3.669   5.220  -3.978  0.00  0.00    -0.034 A 
ATOM      5  C4  UNL d   1       4.846   5.289  -3.230  0.00  0.00     0.162 A 
ATOM      6  C5  UNL d   1       4.839   4.958  -1.879  0.00  0.00     0.062 A 
ATOM      7  F   UNL d   1       5.975   5.026  -1.169  0.00  0.00    -0.097 F 
ATOM      8  F1  UNL d   1       5.998   5.671  -3.800  0.00  0.00    -0.096 F 
ATOM      9  I   UNL d   1       3.675   5.713  -5.999  0.00  0.00    -0.060 I 
ATOM     10  F2  UNL d   1       1.339   4.742  -4.039  0.00  0.00    -0.096 F 
ATOM     11  F3  UNL d   1       1.348   4.104  -1.407  0.00  0.00    -0.097 F 
ATOM     12  F4  UNL d   1       3.657   4.242   0.038  0.00  0.00    -0.092 F 
ENDROOT
TORSDOF 0
ENDMDL
