MODEL 1
REMARK minimizedAffinity 28.6574593
REMARK minimizedRMSD -1
REMARK  0 active torsions:
REMARK  status: ('A' for Active; 'I' for Inactive)
ROOT
ATOM      1  C   UNL d   1      -1.747  -1.747  -0.117  0.00  0.00     0.124 A 
ATOM      2  C1  UNL d   1      -0.859  -0.687  -0.232  0.00  0.00     0.062 A 
ATOM      3  C2  UNL d   1      -1.322   0.624  -0.164  0.00  0.00     0.162 A 
ATOM      4  C3  UNL d   1      -2.680   0.882   0.020  0.00  0.00    -0.034 A 
ATOM      5  C4  UNL d   1      -3.567  -0.190   0.133  0.00  0.00     0.162 A 
ATOM      6  C5  UNL d   1      -3.100  -1.498   0.065  0.00  0.00     0.062 A 
ATOM      7  F   UNL d   1      -3.959  -2.521   0.175  0.00  0.00    -0.097 F 
ATOM      8  F1  UNL d   1      -4.880   0.023   0.310  0.00  0.00    -0.096 F 
ATOM      9  I   UNL d   1      -3.376   2.841   0.121  0.00  0.00    -0.060 I 
ATOM     10  F2  UNL d   1      -0.441   1.630  -0.278  0.00  0.00    -0.096 F 
ATOM     11  F3  UNL d   1       0.449  -0.925  -0.409  0.00  0.00    -0.097 F 
ATOM     12  F4  UNL d   1      -1.299  -3.008  -0.184  0.00  0.00    -0.092 F 
ENDROOT
TORSDOF 0
ENDMDL
