MODEL 1
REMARK minimizedAffinity 10.6438904
REMARK minimizedRMSD -1
REMARK  0 active torsions:
REMARK  status: ('A' for Active; 'I' for Inactive)
ROOT
ATOM      1  C   UNL d   1       3.657   4.811  -1.885  0.00  0.00     0.124 A 
ATOM      2  C1  UNL d   1       4.843   4.506  -2.537  0.00  0.00     0.062 A 
ATOM      3  C2  UNL d   1       4.837   3.660  -3.643  0.00  0.00     0.162 A 
ATOM      4  C3  UNL d   1       3.640   3.114  -4.105  0.00  0.00    -0.034 A 
ATOM      5  C4  UNL d   1       2.450   3.425  -3.443  0.00  0.00     0.162 A 
ATOM      6  C5  UNL d   1       2.462   4.271  -2.338  0.00  0.00     0.062 A 
ATOM      7  F   UNL d   1       1.314   4.564  -1.710  0.00  0.00    -0.097 F 
ATOM      8  F1  UNL d   1       1.281   2.918  -3.860  0.00  0.00    -0.096 F 
ATOM      9  I   UNL d   1       3.626   1.850  -5.758  0.00  0.00    -0.060 I 
ATOM     10  F2  UNL d   1       5.999   3.383  -4.253  0.00  0.00    -0.096 F 
ATOM     11  F3  UNL d   1       6.000   5.026  -2.100  0.00  0.00    -0.097 F 
ATOM     12  F4  UNL d   1       3.666   5.624  -0.821  0.00  0.00    -0.092 F 
ENDROOT
TORSDOF 0
ENDMDL
