MODEL 1
REMARK minimizedAffinity 20.0606747
REMARK minimizedRMSD -1
REMARK  0 active torsions:
REMARK  status: ('A' for Active; 'I' for Inactive)
ROOT
ATOM      1  C   UNL d   1       4.064   5.214  -2.860  0.00  0.00     0.124 A 
ATOM      2  C1  UNL d   1       4.509   4.896  -1.584  0.00  0.00     0.062 A 
ATOM      3  C2  UNL d   1       3.594   4.670  -0.560  0.00  0.00     0.162 A 
ATOM      4  C3  UNL d   1       2.224   4.759  -0.807  0.00  0.00    -0.034 A 
ATOM      5  C4  UNL d   1       1.784   5.080  -2.093  0.00  0.00     0.162 A 
ATOM      6  C5  UNL d   1       2.703   5.305  -3.113  0.00  0.00     0.062 A 
ATOM      7  F   UNL d   1       2.271   5.612  -4.345  0.00  0.00    -0.097 F 
ATOM      8  F1  UNL d   1       0.474   5.174  -2.365  0.00  0.00    -0.096 F 
ATOM      9  I   UNL d   1       0.853   4.421   0.722  0.00  0.00    -0.060 I 
ATOM     10  F2  UNL d   1       4.053   4.365   0.663  0.00  0.00    -0.096 F 
ATOM     11  F3  UNL d   1       5.824   4.808  -1.337  0.00  0.00    -0.097 F 
ATOM     12  F4  UNL d   1       4.946   5.432  -3.843  0.00  0.00    -0.092 F 
ENDROOT
TORSDOF 0
ENDMDL
