MODEL 1
REMARK minimizedAffinity -2.28073239
REMARK minimizedRMSD -1
REMARK  0 active torsions:
REMARK  status: ('A' for Active; 'I' for Inactive)
ROOT
ATOM      1  C4' PXY d   1      -4.300   4.060  -2.630  0.00  0.00     0.077 C 
ATOM      2  C1' PXY d   1      -2.453  -1.417  -2.671  0.00  0.00     0.077 C 
ATOM      3  C1  PXY d   1      -2.932   0.021  -2.672  0.00  0.00    -0.082 A 
ATOM      4  C2  PXY d   1      -3.163   0.635  -1.523  0.00  0.00     0.003 A 
ATOM      5  C3  PXY d   1      -3.628   1.925  -1.506  0.00  0.00     0.003 A 
ATOM      6  C4  PXY d   1      -3.806   2.612  -2.677  0.00  0.00    -0.082 A 
ATOM      7  C5  PXY d   1      -3.563   1.996  -3.853  0.00  0.00     0.003 A 
ATOM      8  C6  PXY d   1      -3.131   0.673  -3.850  0.00  0.00     0.003 A 
ENDROOT
TORSDOF 0
ENDMDL
