MODEL 1
REMARK minimizedAffinity -4.61170816
REMARK minimizedRMSD -1
REMARK  0 active torsions:
REMARK  status: ('A' for Active; 'I' for Inactive)
ROOT
ATOM      1  C4' PXY d   1       3.380  -0.366   0.799  0.00  0.00     0.077 C 
ATOM      2  C1' PXY d   1      -2.112   0.306  -0.877  0.00  0.00     0.077 C 
ATOM      3  C1  PXY d   1      -0.674   0.118  -0.433  0.00  0.00    -0.082 A 
ATOM      4  C2  PXY d   1       0.078   1.178  -0.186  0.00  0.00     0.003 A 
ATOM      5  C3  PXY d   1       1.389   1.026   0.186  0.00  0.00     0.003 A 
ATOM      6  C4  PXY d   1       1.921  -0.224   0.357  0.00  0.00    -0.082 A 
ATOM      7  C5  PXY d   1       1.157  -1.310   0.118  0.00  0.00     0.003 A 
ATOM      8  C6  PXY d   1      -0.160  -1.135  -0.298  0.00  0.00     0.003 A 
ENDROOT
TORSDOF 0
ENDMDL
