MODEL 1
REMARK minimizedAffinity -4.59894562
REMARK minimizedRMSD -1
REMARK  0 active torsions:
REMARK  status: ('A' for Active; 'I' for Inactive)
ROOT
ATOM      1  C4' PXY d   1       1.423   2.944  -0.346  0.00  0.00     0.077 C 
ATOM      2  C1' PXY d   1       0.903  -2.174   2.290  0.00  0.00     0.077 C 
ATOM      3  C1  PXY d   1       1.030  -0.835   1.590  0.00  0.00    -0.082 A 
ATOM      4  C2  PXY d   1       2.159  -0.151   1.687  0.00  0.00     0.003 A 
ATOM      5  C3  PXY d   1       2.279   1.076   1.087  0.00  0.00     0.003 A 
ATOM      6  C4  PXY d   1       1.253   1.584   0.336  0.00  0.00    -0.082 A 
ATOM      7  C5  PXY d   1       0.103   0.887   0.223  0.00  0.00     0.003 A 
ATOM      8  C6  PXY d   1      -0.014  -0.338   0.874  0.00  0.00     0.003 A 
ENDROOT
TORSDOF 0
ENDMDL
