MODEL 1
REMARK minimizedAffinity -3.27327776
REMARK minimizedRMSD -1
REMARK  0 active torsions:
REMARK  status: ('A' for Active; 'I' for Inactive)
ROOT
ATOM      1  C4' PXY d   1      -2.345   0.671  -1.143  0.00  0.00     0.077 C 
ATOM      2  C1' PXY d   1       2.914   0.111   1.190  0.00  0.00     0.077 C 
ATOM      3  C1  PXY d   1       1.535   0.245   0.575  0.00  0.00    -0.082 A 
ATOM      4  C2  PXY d   1       1.124   1.426   0.143  0.00  0.00     0.003 A 
ATOM      5  C3  PXY d   1      -0.133   1.572  -0.387  0.00  0.00     0.003 A 
ATOM      6  C4  PXY d   1      -0.957   0.487  -0.524  0.00  0.00    -0.082 A 
ATOM      7  C5  PXY d   1      -0.540  -0.723  -0.095  0.00  0.00     0.003 A 
ATOM      8  C6  PXY d   1       0.723  -0.842   0.477  0.00  0.00     0.003 A 
ENDROOT
TORSDOF 0
ENDMDL
