MODEL 1
REMARK minimizedAffinity -3.70679235
REMARK minimizedRMSD -1
REMARK  0 active torsions:
REMARK  status: ('A' for Active; 'I' for Inactive)
ROOT
ATOM      1  C4' PXY d   1       2.979   0.167   0.937  0.00  0.00     0.077 C 
ATOM      2  C1' PXY d   1      -2.461   0.340  -1.009  0.00  0.00     0.077 C 
ATOM      3  C1  PXY d   1      -1.031   0.304  -0.507  0.00  0.00    -0.082 A 
ATOM      4  C2  PXY d   1      -0.550  -0.810   0.019  0.00  0.00     0.003 A 
ATOM      5  C3  PXY d   1       0.730  -0.851   0.508  0.00  0.00     0.003 A 
ATOM      6  C4  PXY d   1       1.544   0.246   0.408  0.00  0.00    -0.082 A 
ATOM      7  C5  PXY d   1       1.064   1.384  -0.137  0.00  0.00     0.003 A 
ATOM      8  C6  PXY d   1      -0.251   1.416  -0.590  0.00  0.00     0.003 A 
ENDROOT
TORSDOF 0
ENDMDL
