MODEL 1
REMARK minimizedAffinity -5.251688
REMARK minimizedRMSD -1
REMARK  0 active torsions:
REMARK  status: ('A' for Active; 'I' for Inactive)
ROOT
ATOM      1  C4' PXY d   1      -1.858   0.462  -0.432  0.00  0.00     0.077 C 
ATOM      2  C1' PXY d   1       3.557  -0.662   1.250  0.00  0.00     0.077 C 
ATOM      3  C1  PXY d   1       2.139  -0.354   0.810  0.00  0.00    -0.082 A 
ATOM      4  C2  PXY d   1       1.195  -1.268   0.961  0.00  0.00     0.003 A 
ATOM      5  C3  PXY d   1      -0.086  -1.019   0.540  0.00  0.00     0.003 A 
ATOM      6  C4  PXY d   1      -0.415   0.198   0.006  0.00  0.00    -0.082 A 
ATOM      7  C5  PXY d   1       0.541   1.140  -0.141  0.00  0.00     0.003 A 
ATOM      8  C6  PXY d   1       1.844   0.852   0.255  0.00  0.00     0.003 A 
ENDROOT
TORSDOF 0
ENDMDL
