MODEL 1
REMARK minimizedAffinity -3.10199761
REMARK minimizedRMSD -1
REMARK  0 active torsions:
REMARK  status: ('A' for Active; 'I' for Inactive)
ROOT
ATOM      1  C4' PXY d   1       3.596  -0.407   0.826  0.00  0.00     0.077 C 
ATOM      2  C1' PXY d   1      -1.974   0.662  -0.290  0.00  0.00     0.077 C 
ATOM      3  C1  PXY d   1      -0.510   0.392  -0.004  0.00  0.00    -0.082 A 
ATOM      4  C2  PXY d   1      -0.118  -0.835   0.300  0.00  0.00     0.003 A 
ATOM      5  C3  PXY d   1       1.197  -1.090   0.593  0.00  0.00     0.003 A 
ATOM      6  C4  PXY d   1       2.129  -0.090   0.521  0.00  0.00    -0.082 A 
ATOM      7  C5  PXY d   1       1.739   1.162   0.201  0.00  0.00     0.003 A 
ATOM      8  C6  PXY d   1       0.393   1.409  -0.052  0.00  0.00     0.003 A 
ENDROOT
TORSDOF 0
ENDMDL
