MODEL 1
REMARK minimizedAffinity -5.31479025
REMARK minimizedRMSD -1
REMARK  0 active torsions:
REMARK  status: ('A' for Active; 'I' for Inactive)
ROOT
ATOM      1  C4' PXY d   1      -1.882   0.459  -0.628  0.00  0.00     0.077 C 
ATOM      2  C1' PXY d   1       2.586  -1.495   2.477  0.00  0.00     0.077 C 
ATOM      3  C1  PXY d   1       1.419  -0.971   1.662  0.00  0.00    -0.082 A 
ATOM      4  C2  PXY d   1       0.238  -1.558   1.758  0.00  0.00     0.003 A 
ATOM      5  C3  PXY d   1      -0.819  -1.117   1.005  0.00  0.00     0.003 A 
ATOM      6  C4  PXY d   1      -0.679  -0.031   0.183  0.00  0.00    -0.082 A 
ATOM      7  C5  PXY d   1       0.520   0.581   0.087  0.00  0.00     0.003 A 
ATOM      8  C6  PXY d   1       1.592   0.092   0.830  0.00  0.00     0.003 A 
ENDROOT
TORSDOF 0
ENDMDL
