MODEL 1
REMARK minimizedAffinity -5.36939526
REMARK minimizedRMSD -1
REMARK  0 active torsions:
REMARK  status: ('A' for Active; 'I' for Inactive)
ROOT
ATOM      1  C4' PXY d   1      -2.150   0.737  -0.372  0.00  0.00     0.077 C 
ATOM      2  C1' PXY d   1       3.318  -0.520   1.019  0.00  0.00     0.077 C 
ATOM      3  C1  PXY d   1       1.882  -0.203   0.653  0.00  0.00    -0.082 A 
ATOM      4  C2  PXY d   1       1.581   0.983   0.150  0.00  0.00     0.003 A 
ATOM      5  C3  PXY d   1       0.283   1.298  -0.157  0.00  0.00     0.003 A 
ATOM      6  C4  PXY d   1      -0.711   0.370   0.004  0.00  0.00    -0.082 A 
ATOM      7  C5  PXY d   1      -0.411  -0.846   0.507  0.00  0.00     0.003 A 
ATOM      8  C6  PXY d   1       0.907  -1.131   0.850  0.00  0.00     0.003 A 
ENDROOT
TORSDOF 0
ENDMDL
