MODEL 1
REMARK minimizedAffinity -4.87932253
REMARK minimizedRMSD -1
REMARK  0 active torsions:
REMARK  status: ('A' for Active; 'I' for Inactive)
ROOT
ATOM      1  C4' PXY d   1       2.250   0.412   1.276  0.00  0.00     0.077 C 
ATOM      2  C1' PXY d   1      -2.600   0.120  -1.855  0.00  0.00     0.077 C 
ATOM      3  C1  PXY d   1      -1.332   0.208  -1.029  0.00  0.00    -0.082 A 
ATOM      4  C2  PXY d   1      -0.248  -0.440  -1.423  0.00  0.00     0.003 A 
ATOM      5  C3  PXY d   1       0.898  -0.398  -0.671  0.00  0.00     0.003 A 
ATOM      6  C4  PXY d   1       0.951   0.359   0.468  0.00  0.00    -0.082 A 
ATOM      7  C5  PXY d   1      -0.148   1.032   0.872  0.00  0.00     0.003 A 
ATOM      8  C6  PXY d   1      -1.314   0.942   0.116  0.00  0.00     0.003 A 
ENDROOT
TORSDOF 0
ENDMDL
