MODEL 1
REMARK minimizedAffinity -5.29965639
REMARK minimizedRMSD -1
REMARK  0 active torsions:
REMARK  status: ('A' for Active; 'I' for Inactive)
ROOT
ATOM      1  C4' PXY d   1       3.515  -1.137   1.663  0.00  0.00     0.077 C 
ATOM      2  C1' PXY d   1      -1.581   0.235  -0.696  0.00  0.00     0.077 C 
ATOM      3  C1  PXY d   1      -0.251  -0.133  -0.069  0.00  0.00    -0.082 A 
ATOM      4  C2  PXY d   1       0.765   0.712  -0.146  0.00  0.00     0.003 A 
ATOM      5  C3  PXY d   1       1.984   0.381   0.387  0.00  0.00     0.003 A 
ATOM      6  C4  PXY d   1       2.151  -0.803   1.053  0.00  0.00    -0.082 A 
ATOM      7  C5  PXY d   1       1.117  -1.666   1.146  0.00  0.00     0.003 A 
ATOM      8  C6  PXY d   1      -0.101  -1.329   0.562  0.00  0.00     0.003 A 
ENDROOT
TORSDOF 0
ENDMDL
