MODEL 1
REMARK minimizedAffinity -1.48057199
REMARK minimizedRMSD -1
REMARK  0 active torsions:
REMARK  status: ('A' for Active; 'I' for Inactive)
ROOT
ATOM      1  C   UNL d   1      -0.709   1.227   2.732  0.00  0.00    -0.002 A 
ATOM      2  C1  UNL d   1      -1.824   0.558   2.248  0.00  0.00     0.010 A 
ATOM      3  C2  UNL d   1      -1.821   0.009   0.964  0.00  0.00     0.041 A 
ATOM      4  C3  UNL d   1      -0.667   0.143   0.168  0.00  0.00    -0.075 A 
ATOM      5  S   UNL d   1      -0.435  -0.449  -1.435  0.00  0.00     0.015 SA
ATOM      6  C4  UNL d   1       1.151   0.172  -1.515  0.00  0.00     0.022 A 
ATOM      7  C5  UNL d   1       1.510   0.818  -0.356  0.00  0.00     0.026 A 
ATOM      8  C6  UNL d   1       0.469   0.812   0.633  0.00  0.00    -0.082 A 
ATOM      9  C7  UNL d   1       0.434   1.359   1.939  0.00  0.00     0.045 A 
ENDROOT
TORSDOF 0
ENDMDL
