MODEL 1
REMARK minimizedAffinity -3.11482072
REMARK minimizedRMSD -1
REMARK  0 active torsions:
REMARK  status: ('A' for Active; 'I' for Inactive)
ROOT
ATOM      1  C   UNL d   1      -1.748   1.091   1.868  0.00  0.00    -0.002 A 
ATOM      2  C1  UNL d   1      -0.543   1.191   2.548  0.00  0.00     0.010 A 
ATOM      3  C2  UNL d   1       0.635   0.699   1.981  0.00  0.00     0.041 A 
ATOM      4  C3  UNL d   1       0.580   0.102   0.707  0.00  0.00    -0.075 A 
ATOM      5  S   UNL d   1       1.896  -0.569  -0.184  0.00  0.00     0.015 SA
ATOM      6  C4  UNL d   1       0.888  -1.003  -1.488  0.00  0.00     0.022 A 
ATOM      7  C5  UNL d   1      -0.422  -0.653  -1.267  0.00  0.00     0.026 A 
ATOM      8  C6  UNL d   1      -0.621  -0.009   0.002  0.00  0.00    -0.082 A 
ATOM      9  C7  UNL d   1      -1.798   0.498   0.603  0.00  0.00     0.045 A 
ENDROOT
TORSDOF 0
ENDMDL
