MODEL 1
REMARK minimizedAffinity -1.86543345
REMARK minimizedRMSD -1
REMARK  0 active torsions:
REMARK  status: ('A' for Active; 'I' for Inactive)
ROOT
ATOM      1  C   UNL d   1      -1.040   1.428   2.255  0.00  0.00    -0.002 A 
ATOM      2  C1  UNL d   1       0.318   1.481   2.534  0.00  0.00     0.010 A 
ATOM      3  C2  UNL d   1       1.241   0.844   1.701  0.00  0.00     0.041 A 
ATOM      4  C3  UNL d   1       0.770   0.147   0.571  0.00  0.00    -0.075 A 
ATOM      5  S   UNL d   1       1.715  -0.708  -0.591  0.00  0.00     0.015 SA
ATOM      6  C4  UNL d   1       0.338  -1.163  -1.486  0.00  0.00     0.022 A 
ATOM      7  C5  UNL d   1      -0.823  -0.684  -0.926  0.00  0.00     0.026 A 
ATOM      8  C6  UNL d   1      -0.593   0.080   0.268  0.00  0.00    -0.082 A 
ATOM      9  C7  UNL d   1      -1.503   0.735   1.132  0.00  0.00     0.045 A 
ENDROOT
TORSDOF 0
ENDMDL
