MODEL 1
REMARK minimizedAffinity -5.02418518
REMARK minimizedRMSD -1
REMARK  0 active torsions:
REMARK  status: ('A' for Active; 'I' for Inactive)
ROOT
ATOM      1  C   UNL d   1       0.310   1.074   3.694  0.00  0.00    -0.002 A 
ATOM      2  C1  UNL d   1       1.513   0.525   3.274  0.00  0.00     0.010 A 
ATOM      3  C2  UNL d   1       1.656   0.040   1.972  0.00  0.00     0.041 A 
ATOM      4  C3  UNL d   1       0.560   0.119   1.091  0.00  0.00    -0.075 A 
ATOM      5  S   UNL d   1       0.504  -0.410  -0.549  0.00  0.00     0.015 SA
ATOM      6  C4  UNL d   1      -1.118   0.082  -0.730  0.00  0.00     0.022 A 
ATOM      7  C5  UNL d   1      -1.620   0.638   0.422  0.00  0.00     0.026 A 
ATOM      8  C6  UNL d   1      -0.662   0.669   1.491  0.00  0.00    -0.082 A 
ATOM      9  C7  UNL d   1      -0.775   1.151   2.817  0.00  0.00     0.045 A 
ENDROOT
TORSDOF 0
ENDMDL
