MODEL 1
REMARK minimizedAffinity -2.68775272
REMARK minimizedRMSD -1
REMARK  0 active torsions:
REMARK  status: ('A' for Active; 'I' for Inactive)
ROOT
ATOM      1  C   UNL d   1      -0.769   0.494   3.350  0.00  0.00    -0.002 A 
ATOM      2  C1  UNL d   1       0.489  -0.023   3.627  0.00  0.00     0.010 A 
ATOM      3  C2  UNL d   1       1.285  -0.541   2.603  0.00  0.00     0.041 A 
ATOM      4  C3  UNL d   1       0.791  -0.528   1.283  0.00  0.00    -0.075 A 
ATOM      5  S   UNL d   1       1.590  -1.107  -0.131  0.00  0.00     0.015 SA
ATOM      6  C4  UNL d   1       0.280  -0.681  -1.135  0.00  0.00     0.022 A 
ATOM      7  C5  UNL d   1      -0.749  -0.110  -0.426  0.00  0.00     0.026 A 
ATOM      8  C6  UNL d   1      -0.472  -0.012   0.980  0.00  0.00    -0.082 A 
ATOM      9  C7  UNL d   1      -1.255   0.505   2.040  0.00  0.00     0.045 A 
ENDROOT
TORSDOF 0
ENDMDL
