MODEL 1
REMARK minimizedAffinity -2.14945984
REMARK minimizedRMSD -1
REMARK  0 active torsions:
REMARK  status: ('A' for Active; 'I' for Inactive)
ROOT
ATOM      1  C   UNL d   1      -1.114   1.168   2.326  0.00  0.00    -0.002 A 
ATOM      2  C1  UNL d   1       0.243   1.384   2.132  0.00  0.00     0.010 A 
ATOM      3  C2  UNL d   1       0.919   0.759   1.082  0.00  0.00     0.041 A 
ATOM      4  C3  UNL d   1       0.200  -0.093   0.221  0.00  0.00    -0.075 A 
ATOM      5  S   UNL d   1       0.818  -0.964  -1.133  0.00  0.00     0.015 SA
ATOM      6  C4  UNL d   1      -0.705  -1.643  -1.486  0.00  0.00     0.022 A 
ATOM      7  C5  UNL d   1      -1.672  -1.226  -0.603  0.00  0.00     0.026 A 
ATOM      8  C6  UNL d   1      -1.167  -0.325   0.395  0.00  0.00    -0.082 A 
ATOM      9  C7  UNL d   1      -1.823   0.322   1.469  0.00  0.00     0.045 A 
ENDROOT
TORSDOF 0
ENDMDL
