MODEL 1
REMARK minimizedAffinity -2.10343337
REMARK minimizedRMSD -1
REMARK  0 active torsions:
REMARK  status: ('A' for Active; 'I' for Inactive)
ROOT
ATOM      1  C   UNL d   1       0.965  -0.726   0.984  0.00  0.00    -0.002 A 
ATOM      2  C1  UNL d   1       0.287   0.480   0.880  0.00  0.00     0.010 A 
ATOM      3  C2  UNL d   1       0.214   1.150  -0.343  0.00  0.00     0.041 A 
ATOM      4  C3  UNL d   1       0.837   0.580  -1.471  0.00  0.00    -0.075 A 
ATOM      5  S   UNL d   1       0.876   1.220  -3.071  0.00  0.00     0.015 SA
ATOM      6  C4  UNL d   1       1.793  -0.093  -3.654  0.00  0.00     0.022 A 
ATOM      7  C5  UNL d   1       2.071  -1.007  -2.666  0.00  0.00     0.026 A 
ATOM      8  C6  UNL d   1       1.524  -0.635  -1.391  0.00  0.00    -0.082 A 
ATOM      9  C7  UNL d   1       1.582  -1.288  -0.137  0.00  0.00     0.045 A 
ENDROOT
TORSDOF 0
ENDMDL
