MODEL 1
REMARK minimizedAffinity 1.31491411
REMARK minimizedRMSD -1
REMARK  0 active torsions:
REMARK  status: ('A' for Active; 'I' for Inactive)
ROOT
ATOM      1  C   UNL d   1      -3.348   1.246  -5.908  0.00  0.00     0.078 C 
ATOM      2  C1  UNL d   1      -3.877   0.337  -4.838  0.00  0.00    -0.077 A 
ATOM      3  C2  UNL d   1      -3.034  -0.172  -3.843  0.00  0.00    -0.001 A 
ATOM      4  C3  UNL d   1      -3.538  -1.024  -2.859  0.00  0.00     0.003 A 
ATOM      5  C4  UNL d   1      -4.887  -1.375  -2.862  0.00  0.00    -0.005 A 
ATOM      6  C5  UNL d   1      -5.732  -0.876  -3.850  0.00  0.00     0.003 A 
ATOM      7  C6  UNL d   1      -5.230  -0.024  -4.835  0.00  0.00    -0.001 A 
ENDROOT
TORSDOF 0
ENDMDL
