MODEL 1
REMARK minimizedAffinity -0.772494018
REMARK minimizedRMSD -1
REMARK  0 active torsions:
REMARK  status: ('A' for Active; 'I' for Inactive)
ROOT
ATOM      1  C   UNL d   1      -3.518   0.008  -1.745  0.00  0.00     0.078 C 
ATOM      2  C1  UNL d   1      -3.828  -0.426  -3.146  0.00  0.00    -0.077 A 
ATOM      3  C2  UNL d   1      -4.441  -1.659  -3.399  0.00  0.00    -0.001 A 
ATOM      4  C3  UNL d   1      -4.716  -2.055  -4.709  0.00  0.00     0.003 A 
ATOM      5  C4  UNL d   1      -4.379  -1.224  -5.776  0.00  0.00    -0.005 A 
ATOM      6  C5  UNL d   1      -3.767   0.004  -5.534  0.00  0.00     0.003 A 
ATOM      7  C6  UNL d   1      -3.492   0.401  -4.225  0.00  0.00    -0.001 A 
ENDROOT
TORSDOF 0
ENDMDL
