MODEL 1
REMARK minimizedAffinity -1.64474881
REMARK minimizedRMSD -1
REMARK  0 active torsions:
REMARK  status: ('A' for Active; 'I' for Inactive)
ROOT
ATOM      1  C   UNL d   1       4.857  -4.452   4.249  0.00  0.00     0.078 C 
ATOM      2  C1  UNL d   1       4.577  -4.433   2.776  0.00  0.00    -0.077 A 
ATOM      3  C2  UNL d   1       5.444  -5.054   1.868  0.00  0.00    -0.001 A 
ATOM      4  C3  UNL d   1       5.175  -5.020   0.499  0.00  0.00     0.003 A 
ATOM      5  C4  UNL d   1       4.041  -4.365   0.025  0.00  0.00    -0.005 A 
ATOM      6  C5  UNL d   1       3.173  -3.742   0.920  0.00  0.00     0.003 A 
ATOM      7  C6  UNL d   1       3.440  -3.775   2.289  0.00  0.00    -0.001 A 
ENDROOT
TORSDOF 0
ENDMDL
