MODEL 1
REMARK minimizedAffinity 2.75840974
REMARK minimizedRMSD -1
REMARK  0 active torsions:
REMARK  status: ('A' for Active; 'I' for Inactive)
ROOT
ATOM      1  C   UNL d   1      -2.558  -1.219  -4.882  0.00  0.00     0.078 C 
ATOM      2  C1  UNL d   1      -3.423  -0.006  -5.055  0.00  0.00    -0.077 A 
ATOM      3  C2  UNL d   1      -3.098   1.206  -4.435  0.00  0.00    -0.001 A 
ATOM      4  C3  UNL d   1      -3.917   2.324  -4.596  0.00  0.00     0.003 A 
ATOM      5  C4  UNL d   1      -5.069   2.241  -5.376  0.00  0.00    -0.005 A 
ATOM      6  C5  UNL d   1      -5.402   1.038  -5.996  0.00  0.00     0.003 A 
ATOM      7  C6  UNL d   1      -4.584  -0.081  -5.835  0.00  0.00    -0.001 A 
ENDROOT
TORSDOF 0
ENDMDL
