MODEL 1
REMARK minimizedAffinity -1.21288002
REMARK minimizedRMSD -1
REMARK  0 active torsions:
REMARK  status: ('A' for Active; 'I' for Inactive)
ROOT
ATOM      1  C   UNL d   1      -0.805   3.904  -6.000  0.00  0.00     0.078 C 
ATOM      2  C1  UNL d   1      -2.252   4.116  -5.669  0.00  0.00    -0.077 A 
ATOM      3  C2  UNL d   1      -2.900   5.313  -6.000  0.00  0.00    -0.001 A 
ATOM      4  C3  UNL d   1      -4.245   5.500  -5.677  0.00  0.00     0.003 A 
ATOM      5  C4  UNL d   1      -4.953   4.495  -5.021  0.00  0.00    -0.005 A 
ATOM      6  C5  UNL d   1      -4.317   3.301  -4.686  0.00  0.00     0.003 A 
ATOM      7  C6  UNL d   1      -2.972   3.113  -5.008  0.00  0.00    -0.001 A 
ENDROOT
TORSDOF 0
ENDMDL
