MODEL 1
REMARK minimizedAffinity -3.87322688
REMARK minimizedRMSD -1
REMARK  0 active torsions:
REMARK  status: ('A' for Active; 'I' for Inactive)
ROOT
ATOM      1  C   UNL d   1      -1.916  -1.555  -5.240  0.00  0.00     0.078 C 
ATOM      2  C1  UNL d   1      -3.222  -0.980  -4.779  0.00  0.00    -0.077 A 
ATOM      3  C2  UNL d   1      -3.688  -1.200  -3.477  0.00  0.00    -0.001 A 
ATOM      4  C3  UNL d   1      -4.909  -0.667  -3.064  0.00  0.00     0.003 A 
ATOM      5  C4  UNL d   1      -5.676   0.090  -3.948  0.00  0.00    -0.005 A 
ATOM      6  C5  UNL d   1      -5.222   0.313  -5.246  0.00  0.00     0.003 A 
ATOM      7  C6  UNL d   1      -4.001  -0.220  -5.660  0.00  0.00    -0.001 A 
ENDROOT
TORSDOF 0
ENDMDL
