MODEL 1
REMARK minimizedAffinity -0.618626893
REMARK minimizedRMSD -1
REMARK  0 active torsions:
REMARK  status: ('A' for Active; 'I' for Inactive)
ROOT
ATOM      1  C   UNL d   1      -2.979  -0.756  -2.450  0.00  0.00     0.078 C 
ATOM      2  C1  UNL d   1      -3.696  -0.254  -3.667  0.00  0.00    -0.077 A 
ATOM      3  C2  UNL d   1      -2.992   0.095  -4.826  0.00  0.00    -0.001 A 
ATOM      4  C3  UNL d   1      -3.672   0.570  -5.949  0.00  0.00     0.003 A 
ATOM      5  C4  UNL d   1      -5.059   0.702  -5.923  0.00  0.00    -0.005 A 
ATOM      6  C5  UNL d   1      -5.768   0.359  -4.774  0.00  0.00     0.003 A 
ATOM      7  C6  UNL d   1      -5.090  -0.116  -3.650  0.00  0.00    -0.001 A 
ENDROOT
TORSDOF 0
ENDMDL
