MODEL 1
REMARK minimizedAffinity 5.74539948
REMARK minimizedRMSD -1
REMARK  0 active torsions:
REMARK  status: ('A' for Active; 'I' for Inactive)
ROOT
ATOM      1  C   UNL d   1      -2.722  -1.171  -5.324  0.00  0.00     0.078 C 
ATOM      2  C1  UNL d   1      -3.680  -0.018  -5.275  0.00  0.00    -0.077 A 
ATOM      3  C2  UNL d   1      -3.288   1.263  -5.682  0.00  0.00    -0.001 A 
ATOM      4  C3  UNL d   1      -4.186   2.329  -5.622  0.00  0.00     0.003 A 
ATOM      5  C4  UNL d   1      -5.483   2.125  -5.154  0.00  0.00    -0.005 A 
ATOM      6  C5  UNL d   1      -5.882   0.854  -4.745  0.00  0.00     0.003 A 
ATOM      7  C6  UNL d   1      -4.984  -0.213  -4.804  0.00  0.00    -0.001 A 
ENDROOT
TORSDOF 0
ENDMDL
