MODEL 1
REMARK minimizedAffinity -4.74666691
REMARK minimizedRMSD -1
REMARK  0 active torsions:
REMARK  status: ('A' for Active; 'I' for Inactive)
ROOT
ATOM      1  C   UNL d   1       1.727  -1.737   2.228  0.00  0.00     0.023 A 
ATOM      2  C1  UNL d   1       2.239  -1.835   0.935  0.00  0.00     0.003 A 
ATOM      3  C2  UNL d   1       1.697  -1.060  -0.093  0.00  0.00     0.048 A 
ATOM      4  C3  UNL d   1       0.644  -0.188   0.181  0.00  0.00     0.023 A 
ATOM      5  C4  UNL d   1       0.129  -0.086   1.474  0.00  0.00     0.048 A 
ATOM      6  C5  UNL d   1       0.673  -0.863   2.498  0.00  0.00     0.003 A 
ATOM      7  I   UNL d   1      -0.164   0.967  -1.347  0.00  0.00    -0.146 I 
ENDROOT
TORSDOF 0
ENDMDL
