MODEL 1
REMARK minimizedAffinity -4.86829472
REMARK minimizedRMSD -1
REMARK  0 active torsions:
REMARK  status: ('A' for Active; 'I' for Inactive)
ROOT
ATOM      1  C   UNL d   1       0.777  -0.935   2.959  0.00  0.00     0.023 A 
ATOM      2  C1  UNL d   1      -0.475  -1.214   2.410  0.00  0.00     0.003 A 
ATOM      3  C2  UNL d   1      -0.790  -0.766   1.125  0.00  0.00     0.048 A 
ATOM      4  C3  UNL d   1       0.152  -0.042   0.395  0.00  0.00     0.023 A 
ATOM      5  C4  UNL d   1       1.406   0.238   0.940  0.00  0.00     0.048 A 
ATOM      6  C5  UNL d   1       1.716  -0.210   2.225  0.00  0.00     0.003 A 
ATOM      7  I   UNL d   1      -0.315   0.624  -1.518  0.00  0.00    -0.146 I 
ENDROOT
TORSDOF 0
ENDMDL
