MODEL 1
REMARK minimizedAffinity -4.12633705
REMARK minimizedRMSD -1
REMARK  0 active torsions:
REMARK  status: ('A' for Active; 'I' for Inactive)
ROOT
ATOM      1  C   UNL d   1       0.326  -1.003   3.296  0.00  0.00     0.023 A 
ATOM      2  C1  UNL d   1       1.465  -0.769   2.526  0.00  0.00     0.003 A 
ATOM      3  C2  UNL d   1       1.340  -0.388   1.189  0.00  0.00     0.048 A 
ATOM      4  C3  UNL d   1       0.072  -0.240   0.628  0.00  0.00     0.023 A 
ATOM      5  C4  UNL d   1      -1.071  -0.471   1.394  0.00  0.00     0.048 A 
ATOM      6  C5  UNL d   1      -0.941  -0.854   2.731  0.00  0.00     0.003 A 
ATOM      7  I   UNL d   1      -0.117   0.329  -1.363  0.00  0.00    -0.146 I 
ENDROOT
TORSDOF 0
ENDMDL
