MODEL 1
REMARK minimizedAffinity -2.08046198
REMARK minimizedRMSD -1
REMARK  0 active torsions:
REMARK  status: ('A' for Active; 'I' for Inactive)
ROOT
ATOM      1  C   UNL d   1       0.989  -0.744   3.013  0.00  0.00     0.023 A 
ATOM      2  C1  UNL d   1       1.801  -0.330   1.958  0.00  0.00     0.003 A 
ATOM      3  C2  UNL d   1       1.252  -0.130   0.689  0.00  0.00     0.048 A 
ATOM      4  C3  UNL d   1      -0.110  -0.345   0.484  0.00  0.00     0.023 A 
ATOM      5  C4  UNL d   1      -0.927  -0.759   1.538  0.00  0.00     0.048 A 
ATOM      6  C5  UNL d   1      -0.374  -0.958   2.804  0.00  0.00     0.003 A 
ATOM      7  I   UNL d   1      -0.930  -0.049  -1.403  0.00  0.00    -0.146 I 
ENDROOT
TORSDOF 0
ENDMDL
