MODEL 1
REMARK minimizedAffinity -2.91545892
REMARK minimizedRMSD -1
REMARK  0 active torsions:
REMARK  status: ('A' for Active; 'I' for Inactive)
ROOT
ATOM      1  C   UNL d   1      -1.683   2.955  -3.222  0.00  0.00     0.023 A 
ATOM      2  C1  UNL d   1      -0.320   3.083  -2.954  0.00  0.00     0.003 A 
ATOM      3  C2  UNL d   1       0.319   2.162  -2.122  0.00  0.00     0.048 A 
ATOM      4  C3  UNL d   1      -0.410   1.113  -1.563  0.00  0.00     0.023 A 
ATOM      5  C4  UNL d   1      -1.774   0.980  -1.829  0.00  0.00     0.048 A 
ATOM      6  C5  UNL d   1      -2.409   1.905  -2.660  0.00  0.00     0.003 A 
ATOM      7  I   UNL d   1       0.539  -0.260  -0.325  0.00  0.00    -0.146 I 
ENDROOT
TORSDOF 0
ENDMDL
