MODEL 1
REMARK minimizedAffinity -2.94761801
REMARK minimizedRMSD -1
REMARK  0 active torsions:
REMARK  status: ('A' for Active; 'I' for Inactive)
ROOT
ATOM      1  C   UNL d   1      -0.765  -0.890   2.844  0.00  0.00     0.023 A 
ATOM      2  C1  UNL d   1      -1.883  -0.650   2.045  0.00  0.00     0.003 A 
ATOM      3  C2  UNL d   1      -1.723  -0.152   0.750  0.00  0.00     0.048 A 
ATOM      4  C3  UNL d   1      -0.442   0.102   0.261  0.00  0.00     0.023 A 
ATOM      5  C4  UNL d   1       0.679  -0.138   1.057  0.00  0.00     0.048 A 
ATOM      6  C5  UNL d   1       0.514  -0.635   2.351  0.00  0.00     0.003 A 
ATOM      7  I   UNL d   1      -0.201   0.843  -1.666  0.00  0.00    -0.146 I 
ENDROOT
TORSDOF 0
ENDMDL
