MODEL 1
REMARK minimizedAffinity -4.56858921
REMARK minimizedRMSD -1
REMARK  0 active torsions:
REMARK  status: ('A' for Active; 'I' for Inactive)
ROOT
ATOM      1  C   UNL d   1       1.230  -0.681   3.349  0.00  0.00     0.023 A 
ATOM      2  C1  UNL d   1      -0.047  -1.107   2.985  0.00  0.00     0.003 A 
ATOM      3  C2  UNL d   1      -0.443  -1.067   1.647  0.00  0.00     0.048 A 
ATOM      4  C3  UNL d   1       0.444  -0.602   0.677  0.00  0.00     0.023 A 
ATOM      5  C4  UNL d   1       1.724  -0.176   1.036  0.00  0.00     0.048 A 
ATOM      6  C5  UNL d   1       2.115  -0.216   2.375  0.00  0.00     0.003 A 
ATOM      7  I   UNL d   1      -0.143  -0.542  -1.316  0.00  0.00    -0.146 I 
ENDROOT
TORSDOF 0
ENDMDL
