MODEL 1
REMARK minimizedAffinity -4.52503586
REMARK minimizedRMSD -1
REMARK  0 active torsions:
REMARK  status: ('A' for Active; 'I' for Inactive)
ROOT
ATOM      1  C   UNL d   1       1.234  -1.807   2.803  0.00  0.00     0.023 A 
ATOM      2  C1  UNL d   1       1.987  -1.375   1.711  0.00  0.00     0.003 A 
ATOM      3  C2  UNL d   1       1.360  -0.736   0.639  0.00  0.00     0.048 A 
ATOM      4  C3  UNL d   1      -0.019  -0.532   0.665  0.00  0.00     0.023 A 
ATOM      5  C4  UNL d   1      -0.776  -0.962   1.756  0.00  0.00     0.048 A 
ATOM      6  C5  UNL d   1      -0.145  -1.601   2.826  0.00  0.00     0.003 A 
ATOM      7  I   UNL d   1      -0.953   0.419  -0.929  0.00  0.00    -0.146 I 
ENDROOT
TORSDOF 0
ENDMDL
