MODEL 1
REMARK minimizedAffinity -4.10312176
REMARK minimizedRMSD -1
REMARK  3 active torsions:
REMARK  status: ('A' for Active; 'I' for Inactive)
REMARK    1  A    between atoms: C3'_2  and  C2'_3 
REMARK    2  A    between atoms: C2'_3  and  C1'_4 
REMARK    3  A    between atoms: C1'_4  and  C1_5 
ROOT
ATOM      1  C1  N4B d   1       0.169   0.750  -0.454  0.00  0.00    -0.075 A 
ATOM      2  C2  N4B d   1      -0.542   0.406   0.717  0.00  0.00     0.002 A 
ATOM      3  C3  N4B d   1      -0.561  -0.897   1.150  0.00  0.00     0.002 A 
ATOM      4  C4  N4B d   1       0.104  -1.872   0.422  0.00  0.00    -0.004 A 
ATOM      5  C5  N4B d   1       0.809  -1.527  -0.694  0.00  0.00     0.002 A 
ATOM      6  C6  N4B d   1       0.841  -0.220  -1.139  0.00  0.00     0.002 A 
ENDROOT
BRANCH   1   7
ATOM      7  C1' N4B d   1       0.148   2.146  -1.014  0.00  0.00     0.057 C 
BRANCH   7   8
ATOM      8  C2' N4B d   1       0.503   3.135   0.092  0.00  0.00     0.009 C 
BRANCH   8   9
ATOM      9  C3' N4B d   1       2.005   3.314   0.234  0.00  0.00     0.004 C 
ATOM     10  C4' N4B d   1       2.445   3.421   1.664  0.00  0.00     0.003 C 
ENDBRANCH   8   9
ENDBRANCH   7   8
ENDBRANCH   1   7
TORSDOF 3
ENDMDL
