MODEL 1
REMARK minimizedAffinity -2.69459414
REMARK minimizedRMSD -1
REMARK  3 active torsions:
REMARK  status: ('A' for Active; 'I' for Inactive)
REMARK    1  A    between atoms: C3'_2  and  C2'_3 
REMARK    2  A    between atoms: C2'_3  and  C1'_4 
REMARK    3  A    between atoms: C1'_4  and  C1_5 
ROOT
ATOM      1  C1  N4B d   1      -0.237   1.439  -0.065  0.00  0.00    -0.075 A 
ATOM      2  C2  N4B d   1       0.268   0.679  -1.143  0.00  0.00     0.002 A 
ATOM      3  C3  N4B d   1       0.242  -0.693  -1.087  0.00  0.00     0.002 A 
ATOM      4  C4  N4B d   1      -0.264  -1.324   0.039  0.00  0.00    -0.004 A 
ATOM      5  C5  N4B d   1      -0.773  -0.583   1.065  0.00  0.00     0.002 A 
ATOM      6  C6  N4B d   1      -0.757   0.797   1.021  0.00  0.00     0.002 A 
ENDROOT
BRANCH   1   7
ATOM      7  C1' N4B d   1      -0.151   2.941  -0.044  0.00  0.00     0.057 C 
BRANCH   7   8
ATOM      8  C2' N4B d   1       1.029   3.363   0.825  0.00  0.00     0.009 C 
BRANCH   8   9
ATOM      9  C3' N4B d   1       2.128   4.023   0.011  0.00  0.00     0.004 C 
ATOM     10  C4' N4B d   1       3.031   3.030  -0.659  0.00  0.00     0.003 C 
ENDBRANCH   8   9
ENDBRANCH   7   8
ENDBRANCH   1   7
TORSDOF 3
ENDMDL
