MODEL 1
REMARK minimizedAffinity -3.51544261
REMARK minimizedRMSD -1
REMARK  3 active torsions:
REMARK  status: ('A' for Active; 'I' for Inactive)
REMARK    1  A    between atoms: C3'_2  and  C2'_3 
REMARK    2  A    between atoms: C2'_3  and  C1'_4 
REMARK    3  A    between atoms: C1'_4  and  C1_5 
ROOT
ATOM      1  C1  N4B d   1       0.193   0.724  -0.104  0.00  0.00    -0.075 A 
ATOM      2  C2  N4B d   1       0.921  -0.087  -1.001  0.00  0.00     0.002 A 
ATOM      3  C3  N4B d   1       0.890  -1.454  -0.871  0.00  0.00     0.002 A 
ATOM      4  C4  N4B d   1       0.155  -2.029   0.156  0.00  0.00    -0.004 A 
ATOM      5  C5  N4B d   1      -0.566  -1.239   1.003  0.00  0.00     0.002 A 
ATOM      6  C6  N4B d   1      -0.547   0.136   0.881  0.00  0.00     0.002 A 
ENDROOT
BRANCH   1   7
ATOM      7  C1' N4B d   1       0.265   2.226  -0.153  0.00  0.00     0.057 C 
BRANCH   7   8
ATOM      8  C2' N4B d   1       1.237   2.716   0.916  0.00  0.00     0.009 C 
BRANCH   8   9
ATOM      9  C3' N4B d   1       2.378   3.523   0.320  0.00  0.00     0.004 C 
ATOM     10  C4' N4B d   1       3.188   2.740  -0.669  0.00  0.00     0.003 C 
ENDBRANCH   8   9
ENDBRANCH   7   8
ENDBRANCH   1   7
TORSDOF 3
ENDMDL
