MODEL 1
REMARK minimizedAffinity -3.73937273
REMARK minimizedRMSD -1
REMARK  3 active torsions:
REMARK  status: ('A' for Active; 'I' for Inactive)
REMARK    1  A    between atoms: C3'_2  and  C2'_3 
REMARK    2  A    between atoms: C2'_3  and  C1'_4 
REMARK    3  A    between atoms: C1'_4  and  C1_5 
ROOT
ATOM      1  C1  N4B d   1      -0.132   0.104  -0.562  0.00  0.00    -0.075 A 
ATOM      2  C2  N4B d   1       0.675  -0.910  -1.122  0.00  0.00     0.002 A 
ATOM      3  C3  N4B d   1       0.625  -2.185  -0.614  0.00  0.00     0.002 A 
ATOM      4  C4  N4B d   1      -0.206  -2.463   0.461  0.00  0.00    -0.004 A 
ATOM      5  C5  N4B d   1      -1.002  -1.484   0.979  0.00  0.00     0.002 A 
ATOM      6  C6  N4B d   1      -0.965  -0.199   0.476  0.00  0.00     0.002 A 
ENDROOT
BRANCH   1   7
ATOM      7  C1' N4B d   1      -0.049   1.532  -1.028  0.00  0.00     0.057 C 
BRANCH   7   8
ATOM      8  C2' N4B d   1       0.553   2.387   0.083  0.00  0.00     0.009 C 
BRANCH   8   9
ATOM      9  C3' N4B d   1       2.045   2.599  -0.107  0.00  0.00     0.004 C 
ATOM     10  C4' N4B d   1       2.615   3.608   0.845  0.00  0.00     0.003 C 
ENDBRANCH   8   9
ENDBRANCH   7   8
ENDBRANCH   1   7
TORSDOF 3
ENDMDL
