MODEL 1
REMARK minimizedAffinity -5.99636602
REMARK minimizedRMSD -1
REMARK  3 active torsions:
REMARK  status: ('A' for Active; 'I' for Inactive)
REMARK    1  A    between atoms: C3'_2  and  C2'_3 
REMARK    2  A    between atoms: C2'_3  and  C1'_4 
REMARK    3  A    between atoms: C1'_4  and  C1_5 
ROOT
ATOM      1  C1  N4B d   1      -0.361  -0.404   0.039  0.00  0.00    -0.075 A 
ATOM      2  C2  N4B d   1      -0.793  -1.241   1.090  0.00  0.00     0.002 A 
ATOM      3  C3  N4B d   1      -0.569  -2.595   1.026  0.00  0.00     0.002 A 
ATOM      4  C4  N4B d   1       0.065  -3.133  -0.084  0.00  0.00    -0.004 A 
ATOM      5  C5  N4B d   1       0.501  -2.314  -1.084  0.00  0.00     0.002 A 
ATOM      6  C6  N4B d   1       0.287  -0.952  -1.030  0.00  0.00     0.002 A 
ENDROOT
BRANCH   1   7
ATOM      7  C1' N4B d   1      -0.659   1.071   0.024  0.00  0.00     0.057 C 
BRANCH   7   8
ATOM      8  C2' N4B d   1       0.570   1.825  -0.475  0.00  0.00     0.009 C 
BRANCH   8   9
ATOM      9  C3' N4B d   1       0.846   3.070   0.351  0.00  0.00     0.004 C 
ATOM     10  C4' N4B d   1       2.269   3.533   0.246  0.00  0.00     0.003 C 
ENDBRANCH   8   9
ENDBRANCH   7   8
ENDBRANCH   1   7
TORSDOF 3
ENDMDL
