MODEL 1
REMARK minimizedAffinity -5.66247988
REMARK minimizedRMSD -1
REMARK  3 active torsions:
REMARK  status: ('A' for Active; 'I' for Inactive)
REMARK    1  A    between atoms: C3'_2  and  C2'_3 
REMARK    2  A    between atoms: C2'_3  and  C1'_4 
REMARK    3  A    between atoms: C1'_4  and  C1_5 
ROOT
ATOM      1  C1  N4B d   1       0.068   0.007   0.369  0.00  0.00    -0.075 A 
ATOM      2  C2  N4B d   1      -1.194  -0.625   0.318  0.00  0.00     0.002 A 
ATOM      3  C3  N4B d   1      -1.279  -1.995   0.379  0.00  0.00     0.002 A 
ATOM      4  C4  N4B d   1      -0.119  -2.750   0.471  0.00  0.00    -0.004 A 
ATOM      5  C5  N4B d   1       1.094  -2.131   0.545  0.00  0.00     0.002 A 
ATOM      6  C6  N4B d   1       1.194  -0.755   0.490  0.00  0.00     0.002 A 
ENDROOT
BRANCH   1   7
ATOM      7  C1' N4B d   1       0.217   1.496   0.220  0.00  0.00     0.057 C 
BRANCH   7   8
ATOM      8  C2' N4B d   1       1.680   1.877   0.428  0.00  0.00     0.009 C 
BRANCH   8   9
ATOM      9  C3' N4B d   1       1.841   3.348   0.769  0.00  0.00     0.004 C 
ATOM     10  C4' N4B d   1       2.135   3.578   2.222  0.00  0.00     0.003 C 
ENDBRANCH   8   9
ENDBRANCH   7   8
ENDBRANCH   1   7
TORSDOF 3
ENDMDL
