MODEL 1
REMARK minimizedAffinity -4.83711338
REMARK minimizedRMSD -1
REMARK  3 active torsions:
REMARK  status: ('A' for Active; 'I' for Inactive)
REMARK    1  A    between atoms: C3'_2  and  C2'_3 
REMARK    2  A    between atoms: C2'_3  and  C1'_4 
REMARK    3  A    between atoms: C1'_4  and  C1_5 
ROOT
ATOM      1  C1  N4B d   1       0.426   1.805   0.061  0.00  0.00    -0.075 A 
ATOM      2  C2  N4B d   1       0.053   2.967   0.771  0.00  0.00     0.002 A 
ATOM      3  C3  N4B d   1       1.012   3.864   1.174  0.00  0.00     0.002 A 
ATOM      4  C4  N4B d   1       2.347   3.611   0.895  0.00  0.00    -0.004 A 
ATOM      5  C5  N4B d   1       2.697   2.500   0.186  0.00  0.00     0.002 A 
ATOM      6  C6  N4B d   1       1.743   1.592  -0.228  0.00  0.00     0.002 A 
ENDROOT
BRANCH   1   7
ATOM      7  C1' N4B d   1      -0.578   0.754  -0.325  0.00  0.00     0.057 C 
BRANCH   7   8
ATOM      8  C2' N4B d   1       0.074  -0.622  -0.221  0.00  0.00     0.009 C 
BRANCH   8   9
ATOM      9  C3' N4B d   1      -0.427  -1.398   0.985  0.00  0.00     0.004 C 
ATOM     10  C4' N4B d   1      -0.176  -2.872   0.873  0.00  0.00     0.003 C 
ENDBRANCH   8   9
ENDBRANCH   7   8
ENDBRANCH   1   7
TORSDOF 3
ENDMDL
