MODEL 1
REMARK minimizedAffinity 9.01580715
REMARK minimizedRMSD -1
REMARK  0 active torsions:
REMARK  status: ('A' for Active; 'I' for Inactive)
ROOT
ATOM      1  N1  IND d   1       2.316  -2.896  -0.385  0.00  0.00    -0.196 N 
ATOM      2  C2  IND d   1       1.506  -3.896  -0.846  0.00  0.00     0.054 A 
ATOM      3  C3  IND d   1       0.210  -3.606  -0.592  0.00  0.00    -0.031 A 
ATOM      4  C4  IND d   1      -0.815  -1.501   0.478  0.00  0.00     0.051 A 
ATOM      5  C5  IND d   1      -0.473  -0.329   1.093  0.00  0.00    -0.031 A 
ATOM      6  C6  IND d   1       0.843   0.056   1.247  0.00  0.00     0.015 A 
ATOM      7  C7  IND d   1       1.870  -0.715   0.780  0.00  0.00    -0.016 A 
ATOM      8  C8  IND d   1       1.526  -1.909   0.162  0.00  0.00    -0.047 A 
ATOM      9  C9  IND d   1       0.194  -2.325   0.040  0.00  0.00    -0.096 A 
ATOM     10  HN1 IND d   1       3.175  -2.886  -0.428  0.00  0.00     0.298 HD
ENDROOT
TORSDOF 0
ENDMDL
