MODEL 1
REMARK minimizedAffinity 14.6672306
REMARK minimizedRMSD -1
REMARK  0 active torsions:
REMARK  status: ('A' for Active; 'I' for Inactive)
ROOT
ATOM      1  N1  IND d   1       0.109  -2.896  -0.534  0.00  0.00    -0.196 N 
ATOM      2  C2  IND d   1       1.411  -3.301  -0.645  0.00  0.00     0.054 A 
ATOM      3  C3  IND d   1       2.222  -2.471   0.050  0.00  0.00    -0.031 A 
ATOM      4  C4  IND d   1       1.618  -0.449   1.524  0.00  0.00     0.051 A 
ATOM      5  C5  IND d   1       0.561   0.329   1.905  0.00  0.00    -0.031 A 
ATOM      6  C6  IND d   1      -0.727   0.064   1.486  0.00  0.00     0.015 A 
ATOM      7  C7  IND d   1      -1.009  -0.999   0.676  0.00  0.00    -0.016 A 
ATOM      8  C8  IND d   1       0.063  -1.787   0.282  0.00  0.00    -0.047 A 
ATOM      9  C9  IND d   1       1.378  -1.499   0.669  0.00  0.00    -0.096 A 
ATOM     10  HN1 IND d   1      -0.566  -3.272  -0.910  0.00  0.00     0.298 HD
ENDROOT
TORSDOF 0
ENDMDL
