MODEL 1
REMARK minimizedAffinity 4.03511095
REMARK minimizedRMSD -1
REMARK  0 active torsions:
REMARK  status: ('A' for Active; 'I' for Inactive)
ROOT
ATOM      1  N1  IND d   1       3.677  -1.694   0.373  0.00  0.00    -0.196 N 
ATOM      2  C2  IND d   1       3.998  -0.718   1.274  0.00  0.00     0.054 A 
ATOM      3  C3  IND d   1       2.883  -0.255   1.882  0.00  0.00    -0.031 A 
ATOM      4  C4  IND d   1       0.440  -1.025   1.626  0.00  0.00     0.051 A 
ATOM      5  C5  IND d   1      -0.354  -1.863   0.895  0.00  0.00    -0.031 A 
ATOM      6  C6  IND d   1       0.165  -2.707  -0.065  0.00  0.00     0.015 A 
ATOM      7  C7  IND d   1       1.506  -2.752  -0.323  0.00  0.00    -0.016 A 
ATOM      8  C8  IND d   1       2.315  -1.897   0.413  0.00  0.00    -0.047 A 
ATOM      9  C9  IND d   1       1.788  -1.008   1.358  0.00  0.00    -0.096 A 
ATOM     10  HN1 IND d   1       4.232  -2.111  -0.134  0.00  0.00     0.298 HD
ENDROOT
TORSDOF 0
ENDMDL
