MODEL 1
REMARK minimizedAffinity 3.4033978
REMARK minimizedRMSD -1
REMARK  0 active torsions:
REMARK  status: ('A' for Active; 'I' for Inactive)
ROOT
ATOM      1  N1  IND d   1      -1.542  -1.833   0.790  0.00  0.00    -0.196 N 
ATOM      2  C2  IND d   1      -1.091  -0.965   1.745  0.00  0.00     0.054 A 
ATOM      3  C3  IND d   1       0.258  -1.004   1.816  0.00  0.00    -0.031 A 
ATOM      4  C4  IND d   1       1.934  -2.341   0.391  0.00  0.00     0.051 A 
ATOM      5  C5  IND d   1       1.998  -3.297  -0.583  0.00  0.00    -0.031 A 
ATOM      6  C6  IND d   1       0.861  -3.823  -1.163  0.00  0.00     0.015 A 
ATOM      7  C7  IND d   1      -0.386  -3.402  -0.797  0.00  0.00    -0.016 A 
ATOM      8  C8  IND d   1      -0.454  -2.436   0.197  0.00  0.00    -0.047 A 
ATOM      9  C9  IND d   1       0.694  -1.929   0.819  0.00  0.00    -0.096 A 
ATOM     10  HN1 IND d   1      -2.366  -1.978   0.592  0.00  0.00     0.298 HD
ENDROOT
TORSDOF 0
ENDMDL
