MODEL 1
REMARK minimizedAffinity 2.56706929
REMARK minimizedRMSD -1
REMARK  0 active torsions:
REMARK  status: ('A' for Active; 'I' for Inactive)
ROOT
ATOM      1  N1  IND d   1      -0.772  -1.964   2.591  0.00  0.00    -0.196 N 
ATOM      2  C2  IND d   1      -0.862  -2.147   1.239  0.00  0.00     0.054 A 
ATOM      3  C3  IND d   1      -1.368  -1.042   0.647  0.00  0.00    -0.031 A 
ATOM      4  C4  IND d   1      -2.022   1.218   1.691  0.00  0.00     0.051 A 
ATOM      5  C5  IND d   1      -2.152   1.851   2.895  0.00  0.00    -0.031 A 
ATOM      6  C6  IND d   1      -1.819   1.234   4.083  0.00  0.00     0.015 A 
ATOM      7  C7  IND d   1      -1.331  -0.042   4.110  0.00  0.00    -0.016 A 
ATOM      8  C8  IND d   1      -1.205  -0.691   2.890  0.00  0.00    -0.047 A 
ATOM      9  C9  IND d   1      -1.581  -0.084   1.685  0.00  0.00    -0.096 A 
ATOM     10  HN1 IND d   1      -0.493  -2.546   3.159  0.00  0.00     0.298 HD
ENDROOT
TORSDOF 0
ENDMDL
