MODEL 1
REMARK minimizedAffinity 0.562559426
REMARK minimizedRMSD -1
REMARK  0 active torsions:
REMARK  status: ('A' for Active; 'I' for Inactive)
ROOT
ATOM      1  N1  IND d   1       2.161  -3.190  -0.864  0.00  0.00    -0.196 N 
ATOM      2  C2  IND d   1       1.231  -4.176  -1.039  0.00  0.00     0.054 A 
ATOM      3  C3  IND d   1       0.069  -3.839  -0.435  0.00  0.00    -0.031 A 
ATOM      4  C4  IND d   1      -0.560  -1.674   0.808  0.00  0.00     0.051 A 
ATOM      5  C5  IND d   1      -0.030  -0.497   1.256  0.00  0.00    -0.031 A 
ATOM      6  C6  IND d   1       1.283  -0.148   1.014  0.00  0.00     0.015 A 
ATOM      7  C7  IND d   1       2.115  -0.964   0.300  0.00  0.00    -0.016 A 
ATOM      8  C8  IND d   1       1.583  -2.163  -0.150  0.00  0.00    -0.047 A 
ATOM      9  C9  IND d   1       0.263  -2.541   0.129  0.00  0.00    -0.096 A 
ATOM     10  HN1 IND d   1       2.971  -3.208  -1.152  0.00  0.00     0.298 HD
ENDROOT
TORSDOF 0
ENDMDL
