MODEL 1
REMARK minimizedAffinity 6.7075901
REMARK minimizedRMSD -1
REMARK  0 active torsions:
REMARK  status: ('A' for Active; 'I' for Inactive)
ROOT
ATOM      1  N1  IND d   1       0.057  -4.098  -0.152  0.00  0.00    -0.196 N 
ATOM      2  C2  IND d   1      -0.736  -3.057   0.245  0.00  0.00     0.054 A 
ATOM      3  C3  IND d   1       0.016  -1.965   0.505  0.00  0.00    -0.031 A 
ATOM      4  C4  IND d   1       2.556  -1.630   0.250  0.00  0.00     0.051 A 
ATOM      5  C5  IND d   1       3.707  -2.304  -0.046  0.00  0.00    -0.031 A 
ATOM      6  C6  IND d   1       3.700  -3.637  -0.403  0.00  0.00     0.015 A 
ATOM      7  C7  IND d   1       2.535  -4.345  -0.488  0.00  0.00    -0.016 A 
ATOM      8  C8  IND d   1       1.365  -3.666  -0.180  0.00  0.00    -0.047 A 
ATOM      9  C9  IND d   1       1.370  -2.324   0.223  0.00  0.00    -0.096 A 
ATOM     10  HN1 IND d   1      -0.215  -4.889  -0.350  0.00  0.00     0.298 HD
ENDROOT
TORSDOF 0
ENDMDL
