MODEL 1
REMARK minimizedAffinity -3.66123605
REMARK minimizedRMSD -1
REMARK  0 active torsions:
REMARK  status: ('A' for Active; 'I' for Inactive)
ROOT
ATOM      1  N1  IND d   1       1.785  -3.066  -0.033  0.00  0.00    -0.196 N 
ATOM      2  C2  IND d   1       2.869  -2.319   0.337  0.00  0.00     0.054 A 
ATOM      3  C3  IND d   1       2.477  -1.096   0.759  0.00  0.00    -0.031 A 
ATOM      4  C4  IND d   1       0.100  -0.142   1.021  0.00  0.00     0.051 A 
ATOM      5  C5  IND d   1      -1.212  -0.437   0.777  0.00  0.00    -0.031 A 
ATOM      6  C6  IND d   1      -1.600  -1.648   0.241  0.00  0.00     0.015 A 
ATOM      7  C7  IND d   1      -0.687  -2.619  -0.060  0.00  0.00    -0.016 A 
ATOM      8  C8  IND d   1       0.647  -2.321   0.180  0.00  0.00    -0.047 A 
ATOM      9  C9  IND d   1       1.050  -1.077   0.684  0.00  0.00    -0.096 A 
ATOM     10  HN1 IND d   1       1.811  -3.866  -0.347  0.00  0.00     0.298 HD
ENDROOT
TORSDOF 0
ENDMDL
