MODEL 1
REMARK minimizedAffinity 0.525537193
REMARK minimizedRMSD -1
REMARK  0 active torsions:
REMARK  status: ('A' for Active; 'I' for Inactive)
ROOT
ATOM      1  N1  IND d   1      -5.731  -4.440   1.459  0.00  0.00    -0.196 N 
ATOM      2  C2  IND d   1      -5.242  -3.173   1.304  0.00  0.00     0.054 A 
ATOM      3  C3  IND d   1      -4.840  -2.674   2.495  0.00  0.00    -0.031 A 
ATOM      4  C4  IND d   1      -4.798  -3.801   4.809  0.00  0.00     0.051 A 
ATOM      5  C5  IND d   1      -5.177  -4.942   5.459  0.00  0.00    -0.031 A 
ATOM      6  C6  IND d   1      -5.770  -5.997   4.794  0.00  0.00     0.015 A 
ATOM      7  C7  IND d   1      -5.996  -5.953   3.448  0.00  0.00    -0.016 A 
ATOM      8  C8  IND d   1      -5.619  -4.793   2.786  0.00  0.00    -0.047 A 
ATOM      9  C9  IND d   1      -5.056  -3.703   3.462  0.00  0.00    -0.096 A 
ATOM     10  HN1 IND d   1      -6.055  -4.933   0.834  0.00  0.00     0.298 HD
ENDROOT
TORSDOF 0
ENDMDL
