MODEL 1
REMARK minimizedAffinity 7.13958549
REMARK minimizedRMSD -1
REMARK  0 active torsions:
REMARK  status: ('A' for Active; 'I' for Inactive)
ROOT
ATOM      1  N1  IND d   1       1.130  -3.840  -0.922  0.00  0.00    -0.196 N 
ATOM      2  C2  IND d   1       2.408  -3.888  -0.439  0.00  0.00     0.054 A 
ATOM      3  C3  IND d   1       2.595  -2.924   0.490  0.00  0.00    -0.031 A 
ATOM      4  C4  IND d   1       0.915  -1.224   1.446  0.00  0.00     0.051 A 
ATOM      5  C5  IND d   1      -0.365  -0.770   1.290  0.00  0.00    -0.031 A 
ATOM      6  C6  IND d   1      -1.230  -1.330   0.372  0.00  0.00     0.015 A 
ATOM      7  C7  IND d   1      -0.850  -2.376  -0.420  0.00  0.00    -0.016 A 
ATOM      8  C8  IND d   1       0.451  -2.835  -0.269  0.00  0.00    -0.047 A 
ATOM      9  C9  IND d   1       1.347  -2.243   0.631  0.00  0.00    -0.096 A 
ATOM     10  HN1 IND d   1       0.804  -4.352  -1.532  0.00  0.00     0.298 HD
ENDROOT
TORSDOF 0
ENDMDL
