MODEL 1
REMARK minimizedAffinity 4.15395737
REMARK minimizedRMSD -1
REMARK  0 active torsions:
REMARK  status: ('A' for Active; 'I' for Inactive)
ROOT
ATOM      1  N1  IND d   1       2.068  -0.097   2.033  0.00  0.00    -0.196 N 
ATOM      2  C2  IND d   1       3.236  -0.483   1.435  0.00  0.00     0.054 A 
ATOM      3  C3  IND d   1       2.978  -1.194   0.314  0.00  0.00    -0.031 A 
ATOM      4  C4  IND d   1       0.718  -1.756  -0.782  0.00  0.00     0.051 A 
ATOM      5  C5  IND d   1      -0.631  -1.650  -0.586  0.00  0.00    -0.031 A 
ATOM      6  C6  IND d   1      -1.159  -1.006   0.514  0.00  0.00     0.015 A 
ATOM      7  C7  IND d   1      -0.355  -0.431   1.457  0.00  0.00    -0.016 A 
ATOM      8  C8  IND d   1       1.015  -0.543   1.265  0.00  0.00    -0.047 A 
ATOM      9  C9  IND d   1       1.557  -1.232   0.173  0.00  0.00    -0.096 A 
ATOM     10  HN1 IND d   1       2.003   0.349   2.765  0.00  0.00     0.298 HD
ENDROOT
TORSDOF 0
ENDMDL
