MODEL 1
REMARK minimizedAffinity 3.60121417
REMARK minimizedRMSD -1
REMARK  0 active torsions:
REMARK  status: ('A' for Active; 'I' for Inactive)
ROOT
ATOM      1  N1  IND d   1       2.333  -2.461   0.044  0.00  0.00    -0.196 N 
ATOM      2  C2  IND d   1       1.708  -3.595  -0.395  0.00  0.00     0.054 A 
ATOM      3  C3  IND d   1       0.368  -3.477  -0.259  0.00  0.00    -0.031 A 
ATOM      4  C4  IND d   1      -1.021  -1.472   0.564  0.00  0.00     0.051 A 
ATOM      5  C5  IND d   1      -0.895  -0.223   1.106  0.00  0.00    -0.031 A 
ATOM      6  C6  IND d   1       0.339   0.356   1.323  0.00  0.00     0.015 A 
ATOM      7  C7  IND d   1       1.497  -0.291   0.995  0.00  0.00    -0.016 A 
ATOM      8  C8  IND d   1       1.373  -1.561   0.451  0.00  0.00    -0.047 A 
ATOM      9  C9  IND d   1       0.125  -2.171   0.267  0.00  0.00    -0.096 A 
ATOM     10  HN1 IND d   1       3.183  -2.331   0.062  0.00  0.00     0.298 HD
ENDROOT
TORSDOF 0
ENDMDL
