MODEL 1
REMARK minimizedAffinity 11.7831078
REMARK minimizedRMSD -1
REMARK  0 active torsions:
REMARK  status: ('A' for Active; 'I' for Inactive)
ROOT
ATOM      1  N1  IND d   1       2.605   4.692  -1.528  0.00  0.00    -0.196 N 
ATOM      2  C2  IND d   1       3.613   4.887  -0.625  0.00  0.00     0.054 A 
ATOM      3  C3  IND d   1       4.437   3.815  -0.601  0.00  0.00    -0.031 A 
ATOM      4  C4  IND d   1       4.380   1.676  -2.032  0.00  0.00     0.051 A 
ATOM      5  C5  IND d   1       3.626   1.026  -2.969  0.00  0.00    -0.031 A 
ATOM      6  C6  IND d   1       2.472   1.578  -3.486  0.00  0.00     0.015 A 
ATOM      7  C7  IND d   1       2.032   2.810  -3.091  0.00  0.00    -0.016 A 
ATOM      8  C8  IND d   1       2.791   3.469  -2.135  0.00  0.00    -0.047 A 
ATOM      9  C9  IND d   1       3.940   2.896  -1.575  0.00  0.00    -0.096 A 
ATOM     10  HN1 IND d   1       1.963   5.240  -1.689  0.00  0.00     0.298 HD
ENDROOT
TORSDOF 0
ENDMDL
