MODEL 1
REMARK minimizedAffinity -2.98988676
REMARK minimizedRMSD -1
REMARK  0 active torsions:
REMARK  status: ('A' for Active; 'I' for Inactive)
ROOT
ATOM      1  N1  IND d   1      -1.209  -0.003   2.277  0.00  0.00    -0.196 N 
ATOM      2  C2  IND d   1      -2.490   0.271   1.886  0.00  0.00     0.054 A 
ATOM      3  C3  IND d   1      -2.866  -0.562   0.890  0.00  0.00    -0.031 A 
ATOM      4  C4  IND d   1      -1.577  -2.516  -0.182  0.00  0.00     0.051 A 
ATOM      5  C5  IND d   1      -0.356  -3.130  -0.182  0.00  0.00    -0.031 A 
ATOM      6  C6  IND d   1       0.663  -2.727   0.656  0.00  0.00     0.015 A 
ATOM      7  C7  IND d   1       0.494  -1.697   1.538  0.00  0.00    -0.016 A 
ATOM      8  C8  IND d   1      -0.742  -1.067   1.536  0.00  0.00    -0.047 A 
ATOM      9  C9  IND d   1      -1.766  -1.444   0.658  0.00  0.00    -0.096 A 
ATOM     10  HN1 IND d   1      -0.768   0.418   2.884  0.00  0.00     0.298 HD
ENDROOT
TORSDOF 0
ENDMDL
