MODEL 1
REMARK minimizedAffinity 7.64794302
REMARK minimizedRMSD -1
REMARK  0 active torsions:
REMARK  status: ('A' for Active; 'I' for Inactive)
ROOT
ATOM      1  N1  IND d   1       3.074  -1.655   0.721  0.00  0.00    -0.196 N 
ATOM      2  C2  IND d   1       3.092  -0.594   1.583  0.00  0.00     0.054 A 
ATOM      3  C3  IND d   1       1.835  -0.278   1.966  0.00  0.00    -0.031 A 
ATOM      4  C4  IND d   1      -0.391  -1.431   1.381  0.00  0.00     0.051 A 
ATOM      5  C5  IND d   1      -0.920  -2.420   0.599  0.00  0.00    -0.031 A 
ATOM      6  C6  IND d   1      -0.127  -3.223  -0.196  0.00  0.00     0.015 A 
ATOM      7  C7  IND d   1       1.231  -3.072  -0.230  0.00  0.00    -0.016 A 
ATOM      8  C8  IND d   1       1.770  -2.065   0.557  0.00  0.00    -0.047 A 
ATOM      9  C9  IND d   1       0.966  -1.220   1.333  0.00  0.00    -0.096 A 
ATOM     10  HN1 IND d   1       3.763  -2.007   0.344  0.00  0.00     0.298 HD
ENDROOT
TORSDOF 0
ENDMDL
