MODEL 1
REMARK minimizedAffinity 0.137568817
REMARK minimizedRMSD -1
REMARK  3 active torsions:
REMARK  status: ('A' for Active; 'I' for Inactive)
REMARK    1  A    between atoms: C3'_2  and  C2'_3 
REMARK    2  A    between atoms: C2'_3  and  C1'_4 
REMARK    3  A    between atoms: C1'_4  and  C1_5 
ROOT
ATOM      1  C1  N4B d   1       3.449   3.600   5.873  0.00  0.00    -0.075 A 
ATOM      2  C2  N4B d   1       4.128   4.825   5.697  0.00  0.00     0.002 A 
ATOM      3  C3  N4B d   1       3.418   5.999   5.623  0.00  0.00     0.002 A 
ATOM      4  C4  N4B d   1       2.034   5.969   5.704  0.00  0.00    -0.004 A 
ATOM      5  C5  N4B d   1       1.388   4.784   5.900  0.00  0.00     0.002 A 
ATOM      6  C6  N4B d   1       2.089   3.597   5.980  0.00  0.00     0.002 A 
ENDROOT
BRANCH   1   7
ATOM      7  C1' N4B d   1       4.176   2.282   5.873  0.00  0.00     0.057 C 
BRANCH   7   8
ATOM      8  C2' N4B d   1       5.205   2.278   4.747  0.00  0.00     0.009 C 
BRANCH   8   9
ATOM      9  C3' N4B d   1       4.728   3.064   3.538  0.00  0.00     0.004 C 
ATOM     10  C4' N4B d   1       5.305   2.556   2.250  0.00  0.00     0.003 C 
ENDBRANCH   8   9
ENDBRANCH   7   8
ENDBRANCH   1   7
TORSDOF 3
ENDMDL
