MODEL 1
REMARK minimizedAffinity 5.20044041
REMARK minimizedRMSD -1
REMARK  3 active torsions:
REMARK  status: ('A' for Active; 'I' for Inactive)
REMARK    1  A    between atoms: C3'_2  and  C2'_3 
REMARK    2  A    between atoms: C2'_3  and  C1'_4 
REMARK    3  A    between atoms: C1'_4  and  C1_5 
ROOT
ATOM      1  C1  N4B d   1      -3.738   3.423   0.901  0.00  0.00    -0.075 A 
ATOM      2  C2  N4B d   1      -4.809   3.659   0.011  0.00  0.00     0.002 A 
ATOM      3  C3  N4B d   1      -5.852   2.769  -0.060  0.00  0.00     0.002 A 
ATOM      4  C4  N4B d   1      -5.837   1.630   0.731  0.00  0.00    -0.004 A 
ATOM      5  C5  N4B d   1      -4.812   1.423   1.607  0.00  0.00     0.002 A 
ATOM      6  C6  N4B d   1      -3.759   2.311   1.693  0.00  0.00     0.002 A 
ENDROOT
BRANCH   1   7
ATOM      7  C1' N4B d   1      -2.535   4.324   0.953  0.00  0.00     0.057 C 
BRANCH   7   8
ATOM      8  C2' N4B d   1      -2.346   4.826   2.381  0.00  0.00     0.009 C 
BRANCH   8   9
ATOM      9  C3' N4B d   1      -1.375   5.992   2.450  0.00  0.00     0.004 C 
ATOM     10  C4' N4B d   1      -0.183   5.706   3.314  0.00  0.00     0.003 C 
ENDBRANCH   8   9
ENDBRANCH   7   8
ENDBRANCH   1   7
TORSDOF 3
ENDMDL
