MODEL 1
REMARK minimizedAffinity 7.27100706
REMARK minimizedRMSD -1
REMARK  3 active torsions:
REMARK  status: ('A' for Active; 'I' for Inactive)
REMARK    1  A    between atoms: C3'_2  and  C2'_3 
REMARK    2  A    between atoms: C2'_3  and  C1'_4 
REMARK    3  A    between atoms: C1'_4  and  C1_5 
ROOT
ATOM      1  C1  N4B d   1       4.882   2.756   3.387  0.00  0.00    -0.075 A 
ATOM      2  C2  N4B d   1       4.456   3.981   3.946  0.00  0.00     0.002 A 
ATOM      3  C3  N4B d   1       4.019   4.027   5.247  0.00  0.00     0.002 A 
ATOM      4  C4  N4B d   1       3.979   2.863   5.999  0.00  0.00    -0.004 A 
ATOM      5  C5  N4B d   1       4.416   1.688   5.460  0.00  0.00     0.002 A 
ATOM      6  C6  N4B d   1       4.862   1.628   4.155  0.00  0.00     0.002 A 
ENDROOT
BRANCH   1   7
ATOM      7  C1' N4B d   1       5.287   2.640   1.943  0.00  0.00     0.057 C 
BRANCH   7   8
ATOM      8  C2' N4B d   1       4.035   2.581   1.074  0.00  0.00     0.009 C 
BRANCH   8   9
ATOM      9  C3' N4B d   1       4.289   1.865  -0.241  0.00  0.00     0.004 C 
ATOM     10  C4' N4B d   1       3.550   0.564  -0.347  0.00  0.00     0.003 C 
ENDBRANCH   8   9
ENDBRANCH   7   8
ENDBRANCH   1   7
TORSDOF 3
ENDMDL
