MODEL 1
REMARK minimizedAffinity -0.493363261
REMARK minimizedRMSD -1
REMARK  3 active torsions:
REMARK  status: ('A' for Active; 'I' for Inactive)
REMARK    1  A    between atoms: C3'_2  and  C2'_3 
REMARK    2  A    between atoms: C2'_3  and  C1'_4 
REMARK    3  A    between atoms: C1'_4  and  C1_5 
ROOT
ATOM      1  C1  N4B d   1       4.251   3.750   5.564  0.00  0.00    -0.075 A 
ATOM      2  C2  N4B d   1       4.411   5.153   5.579  0.00  0.00     0.002 A 
ATOM      3  C3  N4B d   1       3.326   5.965   5.800  0.00  0.00     0.002 A 
ATOM      4  C4  N4B d   1       2.073   5.400   5.989  0.00  0.00    -0.004 A 
ATOM      5  C5  N4B d   1       1.932   4.043   5.999  0.00  0.00     0.002 A 
ATOM      6  C6  N4B d   1       3.015   3.215   5.782  0.00  0.00     0.002 A 
ENDROOT
BRANCH   1   7
ATOM      7  C1' N4B d   1       5.392   2.824   5.242  0.00  0.00     0.057 C 
BRANCH   7   8
ATOM      8  C2' N4B d   1       4.836   1.444   4.900  0.00  0.00     0.009 C 
BRANCH   8   9
ATOM      9  C3' N4B d   1       3.938   0.905   6.000  0.00  0.00     0.004 C 
ATOM     10  C4' N4B d   1       2.833   0.039   5.474  0.00  0.00     0.003 C 
ENDBRANCH   8   9
ENDBRANCH   7   8
ENDBRANCH   1   7
TORSDOF 3
ENDMDL
