MODEL 1
REMARK minimizedAffinity 7.01722002
REMARK minimizedRMSD -1
REMARK  3 active torsions:
REMARK  status: ('A' for Active; 'I' for Inactive)
REMARK    1  A    between atoms: C3'_2  and  C2'_3 
REMARK    2  A    between atoms: C2'_3  and  C1'_4 
REMARK    3  A    between atoms: C1'_4  and  C1_5 
ROOT
ATOM      1  C1  N4B d   1      -3.102   0.364  -0.051  0.00  0.00    -0.075 A 
ATOM      2  C2  N4B d   1      -2.988   1.269   1.028  0.00  0.00     0.002 A 
ATOM      3  C3  N4B d   1      -4.119   1.785   1.613  0.00  0.00     0.002 A 
ATOM      4  C4  N4B d   1      -5.367   1.428   1.126  0.00  0.00    -0.004 A 
ATOM      5  C5  N4B d   1      -5.469   0.534   0.101  0.00  0.00     0.002 A 
ATOM      6  C6  N4B d   1      -4.341   0.004  -0.494  0.00  0.00     0.002 A 
ENDROOT
BRANCH   1   7
ATOM      7  C1' N4B d   1      -1.894  -0.160  -0.778  0.00  0.00     0.057 C 
BRANCH   7   8
ATOM      8  C2' N4B d   1      -2.316  -0.654  -2.159  0.00  0.00     0.009 C 
BRANCH   8   9
ATOM      9  C3' N4B d   1      -2.315   0.464  -3.187  0.00  0.00     0.004 C 
ATOM     10  C4' N4B d   1      -3.467   0.374  -4.143  0.00  0.00     0.003 C 
ENDBRANCH   8   9
ENDBRANCH   7   8
ENDBRANCH   1   7
TORSDOF 3
ENDMDL
