MODEL 1
REMARK minimizedAffinity 9.2758131
REMARK minimizedRMSD -1
REMARK  3 active torsions:
REMARK  status: ('A' for Active; 'I' for Inactive)
REMARK    1  A    between atoms: C3'_2  and  C2'_3 
REMARK    2  A    between atoms: C2'_3  and  C1'_4 
REMARK    3  A    between atoms: C1'_4  and  C1_5 
ROOT
ATOM      1  C1  N4B d   1       3.790   3.864   4.917  0.00  0.00    -0.075 A 
ATOM      2  C2  N4B d   1       4.846   4.757   4.634  0.00  0.00     0.002 A 
ATOM      3  C3  N4B d   1       5.791   4.427   3.693  0.00  0.00     0.002 A 
ATOM      4  C4  N4B d   1       5.711   3.206   3.040  0.00  0.00    -0.004 A 
ATOM      5  C5  N4B d   1       4.674   2.360   3.302  0.00  0.00     0.002 A 
ATOM      6  C6  N4B d   1       3.715   2.680   4.242  0.00  0.00     0.002 A 
ENDROOT
BRANCH   1   7
ATOM      7  C1' N4B d   1       2.782   4.143   5.999  0.00  0.00     0.057 C 
BRANCH   7   8
ATOM      8  C2' N4B d   1       2.311   5.590   5.882  0.00  0.00     0.009 C 
BRANCH   8   9
ATOM      9  C3' N4B d   1       0.801   5.706   5.997  0.00  0.00     0.004 C 
ATOM     10  C4' N4B d   1       0.138   5.989   4.682  0.00  0.00     0.003 C 
ENDBRANCH   8   9
ENDBRANCH   7   8
ENDBRANCH   1   7
TORSDOF 3
ENDMDL
