MODEL 1
REMARK minimizedAffinity 4.83204412
REMARK minimizedRMSD -1
REMARK  3 active torsions:
REMARK  status: ('A' for Active; 'I' for Inactive)
REMARK    1  A    between atoms: C3'_2  and  C2'_3 
REMARK    2  A    between atoms: C2'_3  and  C1'_4 
REMARK    3  A    between atoms: C1'_4  and  C1_5 
ROOT
ATOM      1  C1  N4B d   1       4.279   2.743   3.890  0.00  0.00    -0.075 A 
ATOM      2  C2  N4B d   1       5.447   3.532   3.793  0.00  0.00     0.002 A 
ATOM      3  C3  N4B d   1       5.984   3.815   2.561  0.00  0.00     0.002 A 
ATOM      4  C4  N4B d   1       5.384   3.307   1.418  0.00  0.00    -0.004 A 
ATOM      5  C5  N4B d   1       4.242   2.568   1.519  0.00  0.00     0.002 A 
ATOM      6  C6  N4B d   1       3.689   2.279   2.750  0.00  0.00     0.002 A 
ENDROOT
BRANCH   1   7
ATOM      7  C1' N4B d   1       3.704   2.336   5.218  0.00  0.00     0.057 C 
BRANCH   7   8
ATOM      8  C2' N4B d   1       3.250   3.583   5.971  0.00  0.00     0.009 C 
BRANCH   8   9
ATOM      9  C3' N4B d   1       1.737   3.719   5.987  0.00  0.00     0.004 C 
ATOM     10  C4' N4B d   1       1.282   5.147   5.998  0.00  0.00     0.003 C 
ENDBRANCH   8   9
ENDBRANCH   7   8
ENDBRANCH   1   7
TORSDOF 3
ENDMDL
