MODEL 1
REMARK minimizedAffinity -1.110021
REMARK minimizedRMSD -1
REMARK  0 active torsions:
REMARK  status: ('A' for Active; 'I' for Inactive)
ROOT
ATOM      1  C   UNL d   1       1.500  -1.900   3.351  0.00  0.00     0.020 A 
ATOM      2  C1  UNL d   1       2.635  -2.188   2.594  0.00  0.00     0.020 A 
ATOM      3  C2  UNL d   1       2.744  -1.705   1.288  0.00  0.00     0.034 A 
ATOM      4  C3  UNL d   1       1.718  -0.932   0.735  0.00  0.00     0.017 A 
ATOM      5  C4  UNL d   1       0.579  -0.643   1.496  0.00  0.00     0.017 A 
ATOM      6  C5  UNL d   1       0.474  -1.129   2.803  0.00  0.00     0.034 A 
ATOM      7 Cl   UNL d   1      -0.729   0.306   0.882  0.00  0.00    -0.070 Cl
ATOM      8 Cl1  UNL d   1       1.920  -0.367  -0.885  0.00  0.00    -0.070 Cl
ENDROOT
TORSDOF 0
ENDMDL
