MODEL 1
REMARK minimizedAffinity -0.801096916
REMARK minimizedRMSD -1
REMARK  0 active torsions:
REMARK  status: ('A' for Active; 'I' for Inactive)
ROOT
ATOM      1  C   UNL d   1       4.482  -0.832   2.298  0.00  0.00     0.020 A 
ATOM      2  C1  UNL d   1       4.353  -0.737   3.683  0.00  0.00     0.020 A 
ATOM      3  C2  UNL d   1       3.104  -0.917   4.282  0.00  0.00     0.034 A 
ATOM      4  C3  UNL d   1       1.980  -1.194   3.496  0.00  0.00     0.017 A 
ATOM      5  C4  UNL d   1       2.110  -1.290   2.106  0.00  0.00     0.017 A 
ATOM      6  C5  UNL d   1       3.363  -1.108   1.511  0.00  0.00     0.034 A 
ATOM      7 Cl   UNL d   1       0.769  -1.629   1.070  0.00  0.00    -0.070 Cl
ATOM      8 Cl1  UNL d   1       0.467  -1.406   4.304  0.00  0.00    -0.070 Cl
ENDROOT
TORSDOF 0
ENDMDL
