MODEL 1
REMARK minimizedAffinity -1.24903703
REMARK minimizedRMSD -1
REMARK  0 active torsions:
REMARK  status: ('A' for Active; 'I' for Inactive)
ROOT
ATOM      1  C   UNL d   1      -1.933   1.766  -3.275  0.00  0.00     0.020 A 
ATOM      2  C1  UNL d   1      -1.826   2.405  -4.510  0.00  0.00     0.020 A 
ATOM      3  C2  UNL d   1      -0.800   3.325  -4.733  0.00  0.00     0.034 A 
ATOM      4  C3  UNL d   1       0.124   3.610  -3.721  0.00  0.00     0.017 A 
ATOM      5  C4  UNL d   1       0.016   2.968  -2.482  0.00  0.00     0.017 A 
ATOM      6  C5  UNL d   1      -1.013   2.047  -2.263  0.00  0.00     0.034 A 
ATOM      7 Cl   UNL d   1       1.118   3.267  -1.185  0.00  0.00    -0.070 Cl
ATOM      8 Cl1  UNL d   1       1.367   4.758  -4.068  0.00  0.00    -0.070 Cl
ENDROOT
TORSDOF 0
ENDMDL
