MODEL 1
REMARK minimizedAffinity 3.93042207
REMARK minimizedRMSD -1
REMARK  0 active torsions:
REMARK  status: ('A' for Active; 'I' for Inactive)
ROOT
ATOM      1  C   UNL d   1      -3.005  -5.495  -4.877  0.00  0.00     0.020 A 
ATOM      2  C1  UNL d   1      -2.308  -5.999  -5.974  0.00  0.00     0.020 A 
ATOM      3  C2  UNL d   1      -0.913  -5.945  -6.000  0.00  0.00     0.034 A 
ATOM      4  C3  UNL d   1      -0.211  -5.385  -4.927  0.00  0.00     0.017 A 
ATOM      5  C4  UNL d   1      -0.912  -4.879  -3.826  0.00  0.00     0.017 A 
ATOM      6  C5  UNL d   1      -2.309  -4.936  -3.805  0.00  0.00     0.034 A 
ATOM      7 Cl   UNL d   1      -0.115  -4.173  -2.464  0.00  0.00    -0.070 Cl
ATOM      8 Cl1  UNL d   1       1.514  -5.350  -5.025  0.00  0.00    -0.070 Cl
ENDROOT
TORSDOF 0
ENDMDL
