MODEL 1
REMARK minimizedAffinity 4.25217867
REMARK minimizedRMSD -1
REMARK  0 active torsions:
REMARK  status: ('A' for Active; 'I' for Inactive)
ROOT
ATOM      1  C   UNL d   1       1.865  -5.281  -4.912  0.00  0.00     0.020 A 
ATOM      2  C1  UNL d   1       1.218  -5.868  -6.000  0.00  0.00     0.020 A 
ATOM      3  C2  UNL d   1      -0.172  -5.999  -5.998  0.00  0.00     0.034 A 
ATOM      4  C3  UNL d   1      -0.920  -5.542  -4.907  0.00  0.00     0.017 A 
ATOM      5  C4  UNL d   1      -0.271  -4.954  -3.816  0.00  0.00     0.017 A 
ATOM      6  C5  UNL d   1       1.122  -4.825  -3.823  0.00  0.00     0.034 A 
ATOM      7 Cl   UNL d   1      -1.127  -4.366  -2.434  0.00  0.00    -0.070 Cl
ATOM      8 Cl1  UNL d   1      -2.636  -5.736  -4.972  0.00  0.00    -0.070 Cl
ENDROOT
TORSDOF 0
ENDMDL
