MODEL 1
REMARK minimizedAffinity -0.213051006
REMARK minimizedRMSD -1
REMARK  0 active torsions:
REMARK  status: ('A' for Active; 'I' for Inactive)
ROOT
ATOM      1  C   UNL d   1       3.634  -0.575   0.601  0.00  0.00     0.020 A 
ATOM      2  C1  UNL d   1       3.604  -1.809   1.249  0.00  0.00     0.020 A 
ATOM      3  C2  UNL d   1       2.391  -2.482   1.412  0.00  0.00     0.034 A 
ATOM      4  C3  UNL d   1       1.204  -1.923   0.926  0.00  0.00     0.017 A 
ATOM      5  C4  UNL d   1       1.235  -0.684   0.276  0.00  0.00     0.017 A 
ATOM      6  C5  UNL d   1       2.452  -0.013   0.115  0.00  0.00     0.034 A 
ATOM      7 Cl   UNL d   1      -0.188   0.070  -0.351  0.00  0.00    -0.070 Cl
ATOM      8 Cl1  UNL d   1      -0.259  -2.811   1.162  0.00  0.00    -0.070 Cl
ENDROOT
TORSDOF 0
ENDMDL
