MODEL 1
REMARK minimizedAffinity 4.08744764
REMARK minimizedRMSD -1
REMARK  0 active torsions:
REMARK  status: ('A' for Active; 'I' for Inactive)
ROOT
ATOM      1  C   UNL d   1       1.333  -0.953   0.417  0.00  0.00     0.020 A 
ATOM      2  C1  UNL d   1       0.615   0.199   0.098  0.00  0.00     0.020 A 
ATOM      3  C2  UNL d   1      -0.764   0.125  -0.114  0.00  0.00     0.034 A 
ATOM      4  C3  UNL d   1      -1.428  -1.102  -0.006  0.00  0.00     0.017 A 
ATOM      5  C4  UNL d   1      -0.706  -2.257   0.314  0.00  0.00     0.017 A 
ATOM      6  C5  UNL d   1       0.674  -2.178   0.524  0.00  0.00     0.034 A 
ATOM      7 Cl   UNL d   1      -1.456  -3.807   0.464  0.00  0.00    -0.070 Cl
ATOM      8 Cl1  UNL d   1      -3.134  -1.119  -0.281  0.00  0.00    -0.070 Cl
ENDROOT
TORSDOF 0
ENDMDL
