MODEL 1
REMARK minimizedAffinity 6.18951845
REMARK minimizedRMSD -1
REMARK  0 active torsions:
REMARK  status: ('A' for Active; 'I' for Inactive)
ROOT
ATOM      1  C   UNL d   1       0.426  -0.067   0.534  0.00  0.00     0.020 A 
ATOM      2  C1  UNL d   1       0.978  -1.345   0.463  0.00  0.00     0.020 A 
ATOM      3  C2  UNL d   1       0.146  -2.461   0.356  0.00  0.00     0.034 A 
ATOM      4  C3  UNL d   1      -1.244  -2.301   0.321  0.00  0.00     0.017 A 
ATOM      5  C4  UNL d   1      -1.798  -1.018   0.393  0.00  0.00     0.017 A 
ATOM      6  C5  UNL d   1      -0.960   0.096   0.499  0.00  0.00     0.034 A 
ATOM      7 Cl   UNL d   1      -3.504  -0.741   0.355  0.00  0.00    -0.070 Cl
ATOM      8 Cl1  UNL d   1      -2.214  -3.725   0.188  0.00  0.00    -0.070 Cl
ENDROOT
TORSDOF 0
ENDMDL
