MODEL 1
REMARK minimizedAffinity 6.55540037
REMARK minimizedRMSD -1
REMARK  0 active torsions:
REMARK  status: ('A' for Active; 'I' for Inactive)
ROOT
ATOM      1  C   UNL d   1      -5.002  -0.205   0.537  0.00  0.00     0.020 A 
ATOM      2  C1  UNL d   1      -4.291   0.982   0.368  0.00  0.00     0.020 A 
ATOM      3  C2  UNL d   1      -3.876   1.372  -0.908  0.00  0.00     0.034 A 
ATOM      4  C3  UNL d   1      -4.171   0.573  -2.019  0.00  0.00     0.017 A 
ATOM      5  C4  UNL d   1      -4.885  -0.618  -1.848  0.00  0.00     0.017 A 
ATOM      6  C5  UNL d   1      -5.299  -1.004  -0.569  0.00  0.00     0.034 A 
ATOM      7 Cl   UNL d   1      -5.287  -1.656  -3.171  0.00  0.00    -0.070 Cl
ATOM      8 Cl1  UNL d   1      -3.627   1.116  -3.566  0.00  0.00    -0.070 Cl
ENDROOT
TORSDOF 0
ENDMDL
