MODEL 1
REMARK minimizedAffinity 9.47694302
REMARK minimizedRMSD -1
REMARK  0 active torsions:
REMARK  status: ('A' for Active; 'I' for Inactive)
ROOT
ATOM      1  C   UNL d   1       0.231   4.391  -4.357  0.00  0.00     0.020 A 
ATOM      2  C1  UNL d   1      -1.095   4.745  -4.604  0.00  0.00     0.020 A 
ATOM      3  C2  UNL d   1      -2.133   3.959  -4.100  0.00  0.00     0.034 A 
ATOM      4  C3  UNL d   1      -1.847   2.815  -3.346  0.00  0.00     0.017 A 
ATOM      5  C4  UNL d   1      -0.516   2.460  -3.099  0.00  0.00     0.017 A 
ATOM      6  C5  UNL d   1       0.520   3.251  -3.607  0.00  0.00     0.034 A 
ATOM      7 Cl   UNL d   1      -0.084   1.062  -2.179  0.00  0.00    -0.070 Cl
ATOM      8 Cl1  UNL d   1      -3.180   1.889  -2.754  0.00  0.00    -0.070 Cl
ENDROOT
TORSDOF 0
ENDMDL
