MODEL 1
REMARK minimizedAffinity 4.81306505
REMARK minimizedRMSD -1
REMARK  0 active torsions:
REMARK  status: ('A' for Active; 'I' for Inactive)
ROOT
ATOM      1  C   UNL d   1       0.148  -0.919  -0.194  0.00  0.00     0.020 A 
ATOM      2  C1  UNL d   1       0.459  -2.060   0.544  0.00  0.00     0.020 A 
ATOM      3  C2  UNL d   1       1.690  -2.156   1.196  0.00  0.00     0.034 A 
ATOM      4  C3  UNL d   1       2.615  -1.109   1.111  0.00  0.00     0.017 A 
ATOM      5  C4  UNL d   1       2.302   0.036   0.369  0.00  0.00     0.017 A 
ATOM      6  C5  UNL d   1       1.067   0.127  -0.282  0.00  0.00     0.034 A 
ATOM      7 Cl   UNL d   1       3.391   1.369   0.218  0.00  0.00    -0.070 Cl
ATOM      8 Cl1  UNL d   1       4.118  -1.295   1.942  0.00  0.00    -0.070 Cl
ENDROOT
TORSDOF 0
ENDMDL
