MODEL 1
REMARK minimizedAffinity 6.69086885
REMARK minimizedRMSD -1
REMARK  0 active torsions:
REMARK  status: ('A' for Active; 'I' for Inactive)
ROOT
ATOM      1  C   UNL d   1      -3.747  -0.481  -0.960  0.00  0.00     0.020 A 
ATOM      2  C1  UNL d   1      -4.975  -0.370  -1.611  0.00  0.00     0.020 A 
ATOM      3  C2  UNL d   1      -5.081   0.394  -2.775  0.00  0.00     0.034 A 
ATOM      4  C3  UNL d   1      -3.958   1.050  -3.292  0.00  0.00     0.017 A 
ATOM      5  C4  UNL d   1      -2.726   0.937  -2.637  0.00  0.00     0.017 A 
ATOM      6  C5  UNL d   1      -2.625   0.171  -1.472  0.00  0.00     0.034 A 
ATOM      7 Cl   UNL d   1      -1.295   1.717  -3.215  0.00  0.00    -0.070 Cl
ATOM      8 Cl1  UNL d   1      -4.162   1.977  -4.735  0.00  0.00    -0.070 Cl
ENDROOT
TORSDOF 0
ENDMDL
