MODEL 1
REMARK minimizedAffinity 9.06206894
REMARK minimizedRMSD -1
REMARK  0 active torsions:
REMARK  status: ('A' for Active; 'I' for Inactive)
ROOT
ATOM      1  C   UNL d   1      -1.457  -4.835  -5.337  0.00  0.00     0.020 A 
ATOM      2  C1  UNL d   1      -0.635  -5.757  -5.983  0.00  0.00     0.020 A 
ATOM      3  C2  UNL d   1       0.654  -6.000  -5.503  0.00  0.00     0.034 A 
ATOM      4  C3  UNL d   1       1.124  -5.319  -4.374  0.00  0.00     0.017 A 
ATOM      5  C4  UNL d   1       0.298  -4.393  -3.726  0.00  0.00     0.017 A 
ATOM      6  C5  UNL d   1      -0.991  -4.154  -4.211  0.00  0.00     0.034 A 
ATOM      7 Cl   UNL d   1       0.809  -3.515  -2.328  0.00  0.00    -0.070 Cl
ATOM      8 Cl1  UNL d   1       2.729  -5.669  -3.836  0.00  0.00    -0.070 Cl
ENDROOT
TORSDOF 0
ENDMDL
