MODEL 1
REMARK minimizedAffinity 3.73344421
REMARK minimizedRMSD -1
REMARK  0 active torsions:
REMARK  status: ('A' for Active; 'I' for Inactive)
ROOT
ATOM      1  C   UNL d   1      -0.497  -6.000  -6.000  0.00  0.00     0.020 A 
ATOM      2  C1  UNL d   1       0.691  -5.552  -5.424  0.00  0.00     0.020 A 
ATOM      3  C2  UNL d   1       0.664  -4.878  -4.201  0.00  0.00     0.034 A 
ATOM      4  C3  UNL d   1      -0.554  -4.650  -3.550  0.00  0.00     0.017 A 
ATOM      5  C4  UNL d   1      -1.746  -5.101  -4.129  0.00  0.00     0.017 A 
ATOM      6  C5  UNL d   1      -1.713  -5.775  -5.353  0.00  0.00     0.034 A 
ATOM      7 Cl   UNL d   1      -3.287  -4.857  -3.385  0.00  0.00    -0.070 Cl
ATOM      8 Cl1  UNL d   1      -0.513  -3.811  -2.040  0.00  0.00    -0.070 Cl
ENDROOT
TORSDOF 0
ENDMDL
