MODEL 1
REMARK minimizedAffinity 4.35268879
REMARK minimizedRMSD -1
REMARK  0 active torsions:
REMARK  status: ('A' for Active; 'I' for Inactive)
ROOT
ATOM      1  C   UNL d   1       0.272  -0.318   0.566  0.00  0.00     0.020 A 
ATOM      2  C1  UNL d   1       0.790  -1.609   0.473  0.00  0.00     0.020 A 
ATOM      3  C2  UNL d   1      -0.069  -2.695   0.299  0.00  0.00     0.034 A 
ATOM      4  C3  UNL d   1      -1.452  -2.493   0.217  0.00  0.00     0.017 A 
ATOM      5  C4  UNL d   1      -1.971  -1.197   0.311  0.00  0.00     0.017 A 
ATOM      6  C5  UNL d   1      -1.106  -0.112   0.485  0.00  0.00     0.034 A 
ATOM      7 Cl   UNL d   1      -3.666  -0.868   0.218  0.00  0.00    -0.070 Cl
ATOM      8 Cl1  UNL d   1      -2.456  -3.883   0.001  0.00  0.00    -0.070 Cl
ENDROOT
TORSDOF 0
ENDMDL
