MODEL 1
REMARK minimizedAffinity 5.27190781
REMARK minimizedRMSD -1
REMARK  0 active torsions:
REMARK  status: ('A' for Active; 'I' for Inactive)
ROOT
ATOM      1  C   UNL d   1      -5.999   0.377  -2.613  0.00  0.00     0.020 A 
ATOM      2  C1  UNL d   1      -5.999  -0.128  -1.314  0.00  0.00     0.020 A 
ATOM      3  C2  UNL d   1      -4.868   0.019  -0.508  0.00  0.00     0.034 A 
ATOM      4  C3  UNL d   1      -3.732   0.671  -1.002  0.00  0.00     0.017 A 
ATOM      5  C4  UNL d   1      -3.733   1.177  -2.307  0.00  0.00     0.017 A 
ATOM      6  C5  UNL d   1      -4.869   1.028  -3.109  0.00  0.00     0.034 A 
ATOM      7 Cl   UNL d   1      -2.370   1.993  -2.985  0.00  0.00    -0.070 Cl
ATOM      8 Cl1  UNL d   1      -2.368   0.816   0.050  0.00  0.00    -0.070 Cl
ENDROOT
TORSDOF 0
ENDMDL
