MODEL 1
REMARK minimizedAffinity 6.19880152
REMARK minimizedRMSD -1
REMARK  0 active torsions:
REMARK  status: ('A' for Active; 'I' for Inactive)
ROOT
ATOM      1  C   UNL d   1       4.880  -0.496   1.682  0.00  0.00     0.020 A 
ATOM      2  C1  UNL d   1       4.726  -0.918   3.002  0.00  0.00     0.020 A 
ATOM      3  C2  UNL d   1       3.461  -1.266   3.481  0.00  0.00     0.034 A 
ATOM      4  C3  UNL d   1       2.345  -1.191   2.639  0.00  0.00     0.017 A 
ATOM      5  C4  UNL d   1       2.501  -0.767   1.315  0.00  0.00     0.017 A 
ATOM      6  C5  UNL d   1       3.770  -0.420   0.841  0.00  0.00     0.034 A 
ATOM      7 Cl   UNL d   1       1.171  -0.650   0.217  0.00  0.00    -0.070 Cl
ATOM      8 Cl1  UNL d   1       0.811  -1.637   3.298  0.00  0.00    -0.070 Cl
ENDROOT
TORSDOF 0
ENDMDL
