MODEL 1
REMARK minimizedAffinity 3.59166503
REMARK minimizedRMSD -1
REMARK  0 active torsions:
REMARK  status: ('A' for Active; 'I' for Inactive)
ROOT
ATOM      1  C   UNL d   1       0.418  -5.176  -4.755  0.00  0.00     0.020 A 
ATOM      2  C1  UNL d   1      -0.520  -5.513  -5.730  0.00  0.00     0.020 A 
ATOM      3  C2  UNL d   1      -1.875  -5.584  -5.401  0.00  0.00     0.034 A 
ATOM      4  C3  UNL d   1      -2.296  -5.317  -4.093  0.00  0.00     0.017 A 
ATOM      5  C4  UNL d   1      -1.354  -4.978  -3.115  0.00  0.00     0.017 A 
ATOM      6  C5  UNL d   1       0.002  -4.908  -3.451  0.00  0.00     0.034 A 
ATOM      7 Cl   UNL d   1      -1.798  -4.635  -1.480  0.00  0.00    -0.070 Cl
ATOM      8 Cl1  UNL d   1      -3.988  -5.423  -3.756  0.00  0.00    -0.070 Cl
ENDROOT
TORSDOF 0
ENDMDL
