MODEL 1
REMARK minimizedAffinity 6.56441832
REMARK minimizedRMSD -1
REMARK  0 active torsions:
REMARK  status: ('A' for Active; 'I' for Inactive)
ROOT
ATOM      1  C   UNL d   1      -4.110  -0.799  -0.864  0.00  0.00     0.020 A 
ATOM      2  C1  UNL d   1      -5.269  -0.392  -1.525  0.00  0.00     0.020 A 
ATOM      3  C2  UNL d   1      -5.187   0.517  -2.582  0.00  0.00     0.034 A 
ATOM      4  C3  UNL d   1      -3.945   1.023  -2.981  0.00  0.00     0.017 A 
ATOM      5  C4  UNL d   1      -2.783   0.615  -2.317  0.00  0.00     0.017 A 
ATOM      6  C5  UNL d   1      -2.870  -0.296  -1.259  0.00  0.00     0.034 A 
ATOM      7 Cl   UNL d   1      -1.214   1.195  -2.752  0.00  0.00    -0.070 Cl
ATOM      8 Cl1  UNL d   1      -3.918   2.144  -4.295  0.00  0.00    -0.070 Cl
ENDROOT
TORSDOF 0
ENDMDL
