MODEL 1
REMARK minimizedAffinity -3.92363024
REMARK minimizedRMSD -1
REMARK  0 active torsions:
REMARK  status: ('A' for Active; 'I' for Inactive)
ROOT
ATOM      1  C2' OXE d   1      -0.735   0.646  -1.597  0.00  0.00     0.078 C 
ATOM      2  C1' OXE d   1      -2.580  -1.276  -0.712  0.00  0.00     0.078 C 
ATOM      3  C1  OXE d   1      -1.211  -1.271  -0.079  0.00  0.00    -0.078 A 
ATOM      4  C2  OXE d   1      -0.300  -0.357  -0.551  0.00  0.00    -0.078 A 
ATOM      5  C3  OXE d   1       0.960  -0.274   0.036  0.00  0.00     0.003 A 
ATOM      6  C4  OXE d   1       1.358  -1.212   0.996  0.00  0.00    -0.002 A 
ATOM      7  C5  OXE d   1       0.458  -2.176   1.462  0.00  0.00    -0.002 A 
ATOM      8  C6  OXE d   1      -0.841  -2.192   0.967  0.00  0.00     0.003 A 
ENDROOT
TORSDOF 0
ENDMDL
