MODEL 1
REMARK minimizedAffinity -3.22172618
REMARK minimizedRMSD -1
REMARK  0 active torsions:
REMARK  status: ('A' for Active; 'I' for Inactive)
ROOT
ATOM      1  C2' OXE d   1      -0.232   0.788  -2.691  0.00  0.00     0.078 C 
ATOM      2  C1' OXE d   1       1.265   0.657  -0.320  0.00  0.00     0.078 C 
ATOM      3  C1  OXE d   1      -0.151   0.138  -0.287  0.00  0.00    -0.078 A 
ATOM      4  C2  OXE d   1      -0.892   0.249  -1.440  0.00  0.00    -0.078 A 
ATOM      5  C3  OXE d   1      -2.185  -0.264  -1.480  0.00  0.00     0.003 A 
ATOM      6  C4  OXE d   1      -2.791  -0.752  -0.316  0.00  0.00    -0.002 A 
ATOM      7  C5  OXE d   1      -2.067  -0.837   0.879  0.00  0.00    -0.002 A 
ATOM      8  C6  OXE d   1      -0.736  -0.436   0.899  0.00  0.00     0.003 A 
ENDROOT
TORSDOF 0
ENDMDL
