MODEL 1
REMARK minimizedAffinity -4.23559666
REMARK minimizedRMSD -1
REMARK  0 active torsions:
REMARK  status: ('A' for Active; 'I' for Inactive)
ROOT
ATOM      1  C2' OXE d   1      -3.039  -0.859  -0.372  0.00  0.00     0.078 C 
ATOM      2  C1' OXE d   1      -1.403  -1.677   1.756  0.00  0.00     0.078 C 
ATOM      3  C1  OXE d   1      -0.775  -0.847   0.665  0.00  0.00    -0.078 A 
ATOM      4  C2  OXE d   1      -1.572  -0.490  -0.396  0.00  0.00    -0.078 A 
ATOM      5  C3  OXE d   1      -1.057   0.323  -1.402  0.00  0.00     0.003 A 
ATOM      6  C4  OXE d   1       0.304   0.651  -1.421  0.00  0.00    -0.002 A 
ATOM      7  C5  OXE d   1       1.143   0.264  -0.370  0.00  0.00    -0.002 A 
ATOM      8  C6  OXE d   1       0.611  -0.447   0.699  0.00  0.00     0.003 A 
ENDROOT
TORSDOF 0
ENDMDL
