MODEL 1
REMARK minimizedAffinity -5.02975607
REMARK minimizedRMSD -1
REMARK  0 active torsions:
REMARK  status: ('A' for Active; 'I' for Inactive)
ROOT
ATOM      1  C2' OXE d   1      -0.138  -1.832   2.084  0.00  0.00     0.078 C 
ATOM      2  C1' OXE d   1       1.578  -0.275   0.499  0.00  0.00     0.078 C 
ATOM      3  C1  OXE d   1       0.126  -0.351   0.098  0.00  0.00    -0.078 A 
ATOM      4  C2  OXE d   1      -0.697  -1.153   0.852  0.00  0.00    -0.078 A 
ATOM      5  C3  OXE d   1      -2.056  -1.215   0.559  0.00  0.00     0.003 A 
ATOM      6  C4  OXE d   1      -2.563  -0.592  -0.588  0.00  0.00    -0.002 A 
ATOM      7  C5  OXE d   1      -1.734   0.197  -1.392  0.00  0.00    -0.002 A 
ATOM      8  C6  OXE d   1      -0.399   0.362  -1.040  0.00  0.00     0.003 A 
ENDROOT
TORSDOF 0
ENDMDL
