MODEL 1
REMARK minimizedAffinity -4.53270721
REMARK minimizedRMSD -1
REMARK  0 active torsions:
REMARK  status: ('A' for Active; 'I' for Inactive)
ROOT
ATOM      1  C2' OXE d   1      -0.194   0.774  -2.371  0.00  0.00     0.078 C 
ATOM      2  C1' OXE d   1       0.933   0.376   0.169  0.00  0.00     0.078 C 
ATOM      3  C1  OXE d   1      -0.528   0.046  -0.012  0.00  0.00    -0.078 A 
ATOM      4  C2  OXE d   1      -1.082   0.288  -1.246  0.00  0.00    -0.078 A 
ATOM      5  C3  OXE d   1      -2.412  -0.049  -1.482  0.00  0.00     0.003 A 
ATOM      6  C4  OXE d   1      -3.229  -0.488  -0.433  0.00  0.00    -0.002 A 
ATOM      7  C5  OXE d   1      -2.694  -0.704   0.841  0.00  0.00    -0.002 A 
ATOM      8  C6  OXE d   1      -1.338  -0.482   1.057  0.00  0.00     0.003 A 
ENDROOT
TORSDOF 0
ENDMDL
