MODEL 1
REMARK minimizedAffinity -4.05565834
REMARK minimizedRMSD -1
REMARK  0 active torsions:
REMARK  status: ('A' for Active; 'I' for Inactive)
ROOT
ATOM      1  C2' OXE d   1       1.665  -0.726   0.775  0.00  0.00     0.078 C 
ATOM      2  C1' OXE d   1      -0.762  -2.037   1.297  0.00  0.00     0.078 C 
ATOM      3  C1  OXE d   1      -0.729  -1.043   0.163  0.00  0.00    -0.078 A 
ATOM      4  C2  OXE d   1       0.450  -0.372  -0.055  0.00  0.00    -0.078 A 
ATOM      5  C3  OXE d   1       0.550   0.516  -1.123  0.00  0.00     0.003 A 
ATOM      6  C4  OXE d   1      -0.581   0.846  -1.879  0.00  0.00    -0.002 A 
ATOM      7  C5  OXE d   1      -1.802   0.203  -1.648  0.00  0.00    -0.002 A 
ATOM      8  C6  OXE d   1      -1.882  -0.773  -0.660  0.00  0.00     0.003 A 
ENDROOT
TORSDOF 0
ENDMDL
