MODEL 1
REMARK minimizedAffinity -5.08743191
REMARK minimizedRMSD -1
REMARK  0 active torsions:
REMARK  status: ('A' for Active; 'I' for Inactive)
ROOT
ATOM      1  C2' OXE d   1       0.581  -0.218   0.585  0.00  0.00     0.078 C 
ATOM      2  C1' OXE d   1      -0.377  -2.484   1.936  0.00  0.00     0.078 C 
ATOM      3  C1  OXE d   1      -1.321  -1.772   1.001  0.00  0.00    -0.078 A 
ATOM      4  C2  OXE d   1      -0.859  -0.636   0.380  0.00  0.00    -0.078 A 
ATOM      5  C3  OXE d   1      -1.671   0.028  -0.535  0.00  0.00     0.003 A 
ATOM      6  C4  OXE d   1      -3.005  -0.360  -0.712  0.00  0.00    -0.002 A 
ATOM      7  C5  OXE d   1      -3.508  -1.490  -0.059  0.00  0.00    -0.002 A 
ATOM      8  C6  OXE d   1      -2.668  -2.230   0.766  0.00  0.00     0.003 A 
ENDROOT
TORSDOF 0
ENDMDL
