MODEL 1
REMARK minimizedAffinity -1.43472981
REMARK minimizedRMSD -1
REMARK  0 active torsions:
REMARK  status: ('A' for Active; 'I' for Inactive)
ROOT
ATOM      1  C2' OXE d   1       3.116   3.703  -0.996  0.00  0.00     0.078 C 
ATOM      2  C1' OXE d   1       2.849   4.079   1.772  0.00  0.00     0.078 C 
ATOM      3  C1  OXE d   1       2.485   2.729   1.208  0.00  0.00    -0.078 A 
ATOM      4  C2  OXE d   1       2.574   2.568  -0.154  0.00  0.00    -0.078 A 
ATOM      5  C3  OXE d   1       2.303   1.326  -0.721  0.00  0.00     0.003 A 
ATOM      6  C4  OXE d   1       1.793   0.285   0.065  0.00  0.00    -0.002 A 
ATOM      7  C5  OXE d   1       1.656   0.440   1.448  0.00  0.00    -0.002 A 
ATOM      8  C6  OXE d   1       2.038   1.640   2.040  0.00  0.00     0.003 A 
ENDROOT
TORSDOF 0
ENDMDL
