MODEL 1
REMARK minimizedAffinity -2.00111389
REMARK minimizedRMSD -1
REMARK  0 active torsions:
REMARK  status: ('A' for Active; 'I' for Inactive)
ROOT
ATOM      1  C2' OXE d   1      -0.618   0.778  -1.770  0.00  0.00     0.078 C 
ATOM      2  C1' OXE d   1       1.087   0.150   0.371  0.00  0.00     0.078 C 
ATOM      3  C1  OXE d   1      -0.186  -0.647   0.227  0.00  0.00    -0.078 A 
ATOM      4  C2  OXE d   1      -1.036  -0.302  -0.795  0.00  0.00    -0.078 A 
ATOM      5  C3  OXE d   1      -2.197  -1.040  -1.005  0.00  0.00     0.003 A 
ATOM      6  C4  OXE d   1      -2.582  -2.031  -0.093  0.00  0.00    -0.002 A 
ATOM      7  C5  OXE d   1      -1.750  -2.371   0.978  0.00  0.00    -0.002 A 
ATOM      8  C6  OXE d   1      -0.530  -1.719   1.128  0.00  0.00     0.003 A 
ENDROOT
TORSDOF 0
ENDMDL
