MODEL 1
REMARK minimizedAffinity -2.90507698
REMARK minimizedRMSD -1
REMARK  0 active torsions:
REMARK  status: ('A' for Active; 'I' for Inactive)
ROOT
ATOM      1  C2' OXE d   1      -0.231   0.485  -2.161  0.00  0.00     0.078 C 
ATOM      2  C1' OXE d   1       1.397   0.146   0.101  0.00  0.00     0.078 C 
ATOM      3  C1  OXE d   1      -0.054  -0.253   0.212  0.00  0.00    -0.078 A 
ATOM      4  C2  OXE d   1      -0.853  -0.040  -0.885  0.00  0.00    -0.078 A 
ATOM      5  C3  OXE d   1      -2.186  -0.441  -0.855  0.00  0.00     0.003 A 
ATOM      6  C4  OXE d   1      -2.756  -0.917   0.332  0.00  0.00    -0.002 A 
ATOM      7  C5  OXE d   1      -1.969  -1.104   1.473  0.00  0.00    -0.002 A 
ATOM      8  C6  OXE d   1      -0.609  -0.818   1.417  0.00  0.00     0.003 A 
ENDROOT
TORSDOF 0
ENDMDL
