MODEL 1
REMARK minimizedAffinity -5.75393581
REMARK minimizedRMSD -1
REMARK  0 active torsions:
REMARK  status: ('A' for Active; 'I' for Inactive)
ROOT
ATOM      1  C2' OXE d   1      -0.123   0.132  -2.537  0.00  0.00     0.078 C 
ATOM      2  C1' OXE d   1       0.906   0.411   0.061  0.00  0.00     0.078 C 
ATOM      3  C1  OXE d   1      -0.491  -0.140  -0.088  0.00  0.00    -0.078 A 
ATOM      4  C2  OXE d   1      -1.003  -0.230  -1.360  0.00  0.00    -0.078 A 
ATOM      5  C3  OXE d   1      -2.265  -0.782  -1.557  0.00  0.00     0.003 A 
ATOM      6  C4  OXE d   1      -3.077  -1.104  -0.463  0.00  0.00    -0.002 A 
ATOM      7  C5  OXE d   1      -2.589  -0.983   0.843  0.00  0.00    -0.002 A 
ATOM      8  C6  OXE d   1      -1.286  -0.544   1.045  0.00  0.00     0.003 A 
ENDROOT
TORSDOF 0
ENDMDL
