MODEL 1
REMARK minimizedAffinity -4.07665491
REMARK minimizedRMSD -1
REMARK  0 active torsions:
REMARK  status: ('A' for Active; 'I' for Inactive)
ROOT
ATOM      1  C2' OXE d   1      -2.891  -1.584  -0.435  0.00  0.00     0.078 C 
ATOM      2  C1' OXE d   1      -1.232  -2.698   1.537  0.00  0.00     0.078 C 
ATOM      3  C1  OXE d   1      -0.707  -1.515   0.762  0.00  0.00    -0.078 A 
ATOM      4  C2  OXE d   1      -1.507  -1.006  -0.232  0.00  0.00    -0.078 A 
ATOM      5  C3  OXE d   1      -1.094   0.119  -0.940  0.00  0.00     0.003 A 
ATOM      6  C4  OXE d   1       0.191   0.642  -0.754  0.00  0.00    -0.002 A 
ATOM      7  C5  OXE d   1       1.037   0.113   0.227  0.00  0.00    -0.002 A 
ATOM      8  C6  OXE d   1       0.588  -0.936   1.021  0.00  0.00     0.003 A 
ENDROOT
TORSDOF 0
ENDMDL
