MODEL 1
REMARK minimizedAffinity -4.61711073
REMARK minimizedRMSD -1
REMARK  0 active torsions:
REMARK  status: ('A' for Active; 'I' for Inactive)
ROOT
ATOM      1  C2' OXE d   1       0.038   0.283  -2.502  0.00  0.00     0.078 C 
ATOM      2  C1' OXE d   1       1.364   0.433  -0.032  0.00  0.00     0.078 C 
ATOM      3  C1  OXE d   1      -0.083   0.007  -0.029  0.00  0.00    -0.078 A 
ATOM      4  C2  OXE d   1      -0.737  -0.018  -1.237  0.00  0.00    -0.078 A 
ATOM      5  C3  OXE d   1      -2.057  -0.457  -1.298  0.00  0.00     0.003 A 
ATOM      6  C4  OXE d   1      -2.769  -0.724  -0.123  0.00  0.00    -0.002 A 
ATOM      7  C5  OXE d   1      -2.133  -0.666   1.122  0.00  0.00    -0.002 A 
ATOM      8  C6  OXE d   1      -0.782  -0.344   1.182  0.00  0.00     0.003 A 
ENDROOT
TORSDOF 0
ENDMDL
