MODEL 1
REMARK minimizedAffinity 0.782035708
REMARK minimizedRMSD -1
REMARK  0 active torsions:
REMARK  status: ('A' for Active; 'I' for Inactive)
ROOT
ATOM      1  C2' OXE d   1      -2.677  -0.868  -0.898  0.00  0.00     0.078 C 
ATOM      2  C1' OXE d   1      -0.977   0.778  -2.408  0.00  0.00     0.078 C 
ATOM      3  C1  OXE d   1      -0.469   0.270  -1.082  0.00  0.00    -0.078 A 
ATOM      4  C2  OXE d   1      -1.325  -0.497  -0.328  0.00  0.00    -0.078 A 
ATOM      5  C3  OXE d   1      -0.887  -1.036   0.878  0.00  0.00     0.003 A 
ATOM      6  C4  OXE d   1       0.361  -0.679   1.402  0.00  0.00    -0.002 A 
ATOM      7  C5  OXE d   1       1.233   0.133   0.669  0.00  0.00    -0.002 A 
ATOM      8  C6  OXE d   1       0.851   0.580  -0.591  0.00  0.00     0.003 A 
ENDROOT
TORSDOF 0
ENDMDL
