MODEL 1
REMARK minimizedAffinity -4.22863054
REMARK minimizedRMSD -1
REMARK  0 active torsions:
REMARK  status: ('A' for Active; 'I' for Inactive)
ROOT
ATOM      1  C2' OXE d   1      -3.342  -0.428  -0.011  0.00  0.00     0.078 C 
ATOM      2  C1' OXE d   1      -2.024   0.816  -2.156  0.00  0.00     0.078 C 
ATOM      3  C1  OXE d   1      -1.176   0.196  -1.073  0.00  0.00    -0.078 A 
ATOM      4  C2  OXE d   1      -1.829  -0.369  -0.004  0.00  0.00    -0.078 A 
ATOM      5  C3  OXE d   1      -1.096  -1.003   0.995  0.00  0.00     0.003 A 
ATOM      6  C4  OXE d   1       0.302  -0.935   0.999  0.00  0.00    -0.002 A 
ATOM      7  C5  OXE d   1       0.987  -0.329  -0.060  0.00  0.00    -0.002 A 
ATOM      8  C6  OXE d   1       0.265   0.203  -1.123  0.00  0.00     0.003 A 
ENDROOT
TORSDOF 0
ENDMDL
