MODEL 1
REMARK minimizedAffinity -5.02396107
REMARK minimizedRMSD -1
REMARK  0 active torsions:
REMARK  status: ('A' for Active; 'I' for Inactive)
ROOT
ATOM      1  C2' OXE d   1       0.033  -0.032  -2.313  0.00  0.00     0.078 C 
ATOM      2  C1' OXE d   1       0.876  -0.262   0.355  0.00  0.00     0.078 C 
ATOM      3  C1  OXE d   1      -0.603  -0.350   0.074  0.00  0.00    -0.078 A 
ATOM      4  C2  OXE d   1      -1.011  -0.190  -1.228  0.00  0.00    -0.078 A 
ATOM      5  C3  OXE d   1      -2.359  -0.318  -1.549  0.00  0.00     0.003 A 
ATOM      6  C4  OXE d   1      -3.319  -0.454  -0.539  0.00  0.00    -0.002 A 
ATOM      7  C5  OXE d   1      -2.928  -0.579   0.799  0.00  0.00    -0.002 A 
ATOM      8  C6  OXE d   1      -1.575  -0.572   1.117  0.00  0.00     0.003 A 
ENDROOT
TORSDOF 0
ENDMDL
