MODEL 1
REMARK minimizedAffinity -1.90686214
REMARK minimizedRMSD -1
REMARK  0 active torsions:
REMARK  status: ('A' for Active; 'I' for Inactive)
ROOT
ATOM      1  C2' OXE d   1       1.239   0.676  -0.263  0.00  0.00     0.078 C 
ATOM      2  C1' OXE d   1      -0.517   1.701  -2.198  0.00  0.00     0.078 C 
ATOM      3  C1  OXE d   1      -1.050   0.659  -1.247  0.00  0.00    -0.078 A 
ATOM      4  C2  OXE d   1      -0.171   0.129  -0.333  0.00  0.00    -0.078 A 
ATOM      5  C3  OXE d   1      -0.625  -0.795   0.604  0.00  0.00     0.003 A 
ATOM      6  C4  OXE d   1      -1.927  -1.303   0.525  0.00  0.00    -0.002 A 
ATOM      7  C5  OXE d   1      -2.827  -0.806  -0.423  0.00  0.00    -0.002 A 
ATOM      8  C6  OXE d   1      -2.418   0.204  -1.287  0.00  0.00     0.003 A 
ENDROOT
TORSDOF 0
ENDMDL
