MODEL 1
REMARK minimizedAffinity -6.20480537
REMARK minimizedRMSD -1
REMARK  0 active torsions:
REMARK  status: ('A' for Active; 'I' for Inactive)
ROOT
ATOM      1  C1  DEN d   1      -0.720  -0.886   0.302  0.00  0.00     0.130 A 
ATOM      2  C2  DEN d   1      -0.745   0.410  -0.370  0.00  0.00    -0.031 A 
ATOM      3  C3  DEN d   1       0.583   1.035  -0.207  0.00  0.00     0.027 A 
ATOM      4  C4  DEN d   1       2.667   0.124   1.009  0.00  0.00     0.027 A 
ATOM      5  C5  DEN d   1       3.167  -0.929   1.743  0.00  0.00    -0.003 A 
ATOM      6  C6  DEN d   1       2.404  -2.017   2.074  0.00  0.00     0.001 A 
ATOM      7  C7  DEN d   1       1.110  -2.098   1.632  0.00  0.00     0.017 A 
ATOM      8  C8  DEN d   1       0.596  -1.037   0.898  0.00  0.00    -0.094 A 
ATOM      9  C9  DEN d   1       1.387   0.049   0.563  0.00  0.00    -0.072 A 
ENDROOT
TORSDOF 0
ENDMDL
