MODEL 1
REMARK minimizedAffinity 3.831388
REMARK minimizedRMSD -1
REMARK  2 active torsions:
REMARK  status: ('A' for Active; 'I' for Inactive)
REMARK    1  A    between atoms: C1_2  and  C2_3 
REMARK    2  A    between atoms: C2_3  and  C3_4 
ROOT
ATOM      1  C3  UNL d   1       3.112  -0.466  -4.341  0.00  0.00    -0.075 A 
ATOM      2  C4  UNL d   1       4.049   0.531  -4.653  0.00  0.00     0.002 A 
ATOM      3  C5  UNL d   1       3.647   1.858  -4.804  0.00  0.00     0.002 A 
ATOM      4  C6  UNL d   1       2.305   2.204  -4.656  0.00  0.00    -0.004 A 
ATOM      5  C7  UNL d   1       1.364   1.220  -4.362  0.00  0.00     0.002 A 
ATOM      6  C8  UNL d   1       1.764  -0.109  -4.206  0.00  0.00     0.002 A 
ENDROOT
BRANCH   1   7
ATOM      7  C2  UNL d   1       3.546  -1.899  -4.147  0.00  0.00     0.056 C 
BRANCH   7   8
ATOM      8  C1  UNL d   1       3.445  -2.758  -5.412  0.00  0.00     0.007 C 
ATOM      9  C   UNL d   1       2.061  -3.357  -5.623  0.00  0.00     0.009 C 
ENDBRANCH   7   8
ENDBRANCH   1   7
TORSDOF 2
ENDMDL
