MODEL 1
REMARK minimizedAffinity 5.63570929
REMARK minimizedRMSD -1
REMARK  2 active torsions:
REMARK  status: ('A' for Active; 'I' for Inactive)
REMARK    1  A    between atoms: C1_2  and  C2_3 
REMARK    2  A    between atoms: C2_3  and  C3_4 
ROOT
ATOM      1  C3  UNL d   1      -0.159  -0.818   3.530  0.00  0.00    -0.075 A 
ATOM      2  C4  UNL d   1       0.152  -0.907   4.895  0.00  0.00     0.002 A 
ATOM      3  C5  UNL d   1      -0.728  -1.526   5.783  0.00  0.00     0.002 A 
ATOM      4  C6  UNL d   1      -1.932  -2.054   5.322  0.00  0.00    -0.004 A 
ATOM      5  C7  UNL d   1      -2.259  -1.956   3.971  0.00  0.00     0.002 A 
ATOM      6  C8  UNL d   1      -1.378  -1.341   3.079  0.00  0.00     0.002 A 
ENDROOT
BRANCH   1   7
ATOM      7  C2  UNL d   1       0.802  -0.175   2.559  0.00  0.00     0.056 C 
BRANCH   7   8
ATOM      8  C1  UNL d   1       0.824   1.356   2.624  0.00  0.00     0.007 C 
ATOM      9  C   UNL d   1       2.231   1.937   2.620  0.00  0.00     0.009 C 
ENDBRANCH   7   8
ENDBRANCH   1   7
TORSDOF 2
ENDMDL
