MODEL 1
REMARK minimizedAffinity 0.135486215
REMARK minimizedRMSD -1
REMARK  2 active torsions:
REMARK  status: ('A' for Active; 'I' for Inactive)
REMARK    1  A    between atoms: C1_2  and  C2_3 
REMARK    2  A    between atoms: C2_3  and  C3_4 
ROOT
ATOM      1  C3  UNL d   1       2.299  -0.550  -0.317  0.00  0.00    -0.075 A 
ATOM      2  C4  UNL d   1       0.942  -0.808  -0.561  0.00  0.00     0.002 A 
ATOM      3  C5  UNL d   1      -0.047  -0.131   0.153  0.00  0.00     0.002 A 
ATOM      4  C6  UNL d   1       0.306   0.802   1.124  0.00  0.00    -0.004 A 
ATOM      5  C7  UNL d   1       1.650   1.055   1.387  0.00  0.00     0.002 A 
ATOM      6  C8  UNL d   1       2.643   0.382   0.672  0.00  0.00     0.002 A 
ENDROOT
BRANCH   1   7
ATOM      7  C2  UNL d   1       3.374  -1.257  -1.106  0.00  0.00     0.056 C 
BRANCH   7   8
ATOM      8  C1  UNL d   1       3.519  -0.760  -2.548  0.00  0.00     0.007 C 
ATOM      9  C   UNL d   1       4.741  -1.327  -3.259  0.00  0.00     0.009 C 
ENDBRANCH   7   8
ENDBRANCH   1   7
TORSDOF 2
ENDMDL
