MODEL 1
REMARK minimizedAffinity 9.35685062
REMARK minimizedRMSD -1
REMARK  2 active torsions:
REMARK  status: ('A' for Active; 'I' for Inactive)
REMARK    1  A    between atoms: C1_2  and  C2_3 
REMARK    2  A    between atoms: C2_3  and  C3_4 
ROOT
ATOM      1  C3  UNL d   1      -1.060  -4.499  -4.632  0.00  0.00    -0.075 A 
ATOM      2  C4  UNL d   1      -0.543  -5.603  -3.938  0.00  0.00     0.002 A 
ATOM      3  C5  UNL d   1       0.824  -5.881  -3.966  0.00  0.00     0.002 A 
ATOM      4  C6  UNL d   1       1.688  -5.066  -4.695  0.00  0.00    -0.004 A 
ATOM      5  C7  UNL d   1       1.183  -3.977  -5.401  0.00  0.00     0.002 A 
ATOM      6  C8  UNL d   1      -0.184  -3.694  -5.371  0.00  0.00     0.002 A 
ENDROOT
BRANCH   1   7
ATOM      7  C2  UNL d   1      -2.534  -4.176  -4.581  0.00  0.00     0.056 C 
BRANCH   7   8
ATOM      8  C1  UNL d   1      -3.185  -4.012  -5.959  0.00  0.00     0.007 C 
ATOM      9  C   UNL d   1      -4.657  -4.401  -5.978  0.00  0.00     0.009 C 
ENDBRANCH   7   8
ENDBRANCH   1   7
TORSDOF 2
ENDMDL
