MODEL 1
REMARK minimizedAffinity 17.4801731
REMARK minimizedRMSD -1
REMARK  2 active torsions:
REMARK  status: ('A' for Active; 'I' for Inactive)
REMARK    1  A    between atoms: C2'_3  and  C1'_4 
REMARK    2  A    between atoms: C1'_4  and  C1_5 
ROOT
ATOM      1  C1  I4B d   1       1.968  -2.194   0.565  0.00  0.00    -0.075 A 
ATOM      2  C2  I4B d   1       3.112  -1.630   1.072  0.00  0.00     0.003 A 
ATOM      3  C3  I4B d   1       3.609  -2.038   2.334  0.00  0.00     0.002 A 
ATOM      4  C4  I4B d   1       2.908  -2.970   3.071  0.00  0.00    -0.004 A 
ATOM      5  C5  I4B d   1       1.761  -3.558   2.545  0.00  0.00     0.002 A 
ATOM      6  C6  I4B d   1       1.295  -3.177   1.278  0.00  0.00     0.003 A 
ENDROOT
BRANCH   1   7
ATOM      7  C1' I4B d   1       1.453  -1.716  -0.756  0.00  0.00     0.060 C 
BRANCH   7   8
ATOM      8  C2' I4B d   1       0.091  -2.341  -0.980  0.00  0.00    -0.013 C 
ATOM      9  C4' I4B d   1      -0.960  -1.287  -1.211  0.00  0.00     0.013 C 
ATOM     10  C3' I4B d   1       0.194  -3.269  -2.153  0.00  0.00     0.013 C 
ENDBRANCH   7   8
ENDBRANCH   1   7
TORSDOF 2
ENDMDL
