MODEL 1
REMARK minimizedAffinity 14.0955944
REMARK minimizedRMSD -1
REMARK  2 active torsions:
REMARK  status: ('A' for Active; 'I' for Inactive)
REMARK    1  A    between atoms: C2'_3  and  C1'_4 
REMARK    2  A    between atoms: C1'_4  and  C1_5 
ROOT
ATOM      1  C1  I4B d   1      -1.478  -2.863  -4.042  0.00  0.00    -0.075 A 
ATOM      2  C2  I4B d   1      -0.534  -3.179  -4.987  0.00  0.00     0.003 A 
ATOM      3  C3  I4B d   1      -0.828  -4.125  -5.999  0.00  0.00     0.002 A 
ATOM      4  C4  I4B d   1      -2.051  -4.763  -5.999  0.00  0.00    -0.004 A 
ATOM      5  C5  I4B d   1      -3.015  -4.425  -5.054  0.00  0.00     0.002 A 
ATOM      6  C6  I4B d   1      -2.732  -3.460  -4.076  0.00  0.00     0.003 A 
ENDROOT
BRANCH   1   7
ATOM      7  C1' I4B d   1      -1.123  -1.885  -2.968  0.00  0.00     0.060 C 
BRANCH   7   8
ATOM      8  C2' I4B d   1      -1.121  -2.624  -1.645  0.00  0.00    -0.013 C 
ATOM      9  C4' I4B d   1       0.281  -2.969  -1.217  0.00  0.00     0.013 C 
ATOM     10  C3' I4B d   1      -1.800  -1.756  -0.628  0.00  0.00     0.013 C 
ENDBRANCH   7   8
ENDBRANCH   1   7
TORSDOF 2
ENDMDL
