MODEL 1
REMARK minimizedAffinity 15.3383732
REMARK minimizedRMSD -1
REMARK  2 active torsions:
REMARK  status: ('A' for Active; 'I' for Inactive)
REMARK    1  A    between atoms: C2'_3  and  C1'_4 
REMARK    2  A    between atoms: C1'_4  and  C1_5 
ROOT
ATOM      1  C1  I4B d   1       1.779  -3.044  -3.175  0.00  0.00    -0.075 A 
ATOM      2  C2  I4B d   1       2.525  -1.907  -3.358  0.00  0.00     0.003 A 
ATOM      3  C3  I4B d   1       3.525  -1.864  -4.359  0.00  0.00     0.002 A 
ATOM      4  C4  I4B d   1       3.779  -2.990  -5.115  0.00  0.00    -0.004 A 
ATOM      5  C5  I4B d   1       3.006  -4.135  -4.944  0.00  0.00     0.002 A 
ATOM      6  C6  I4B d   1       1.991  -4.158  -3.976  0.00  0.00     0.003 A 
ENDROOT
BRANCH   1   7
ATOM      7  C1' I4B d   1       0.753  -3.066  -2.086  0.00  0.00     0.060 C 
BRANCH   7   8
ATOM      8  C2' I4B d   1      -0.230  -1.943  -2.349  0.00  0.00    -0.013 C 
ATOM      9  C4' I4B d   1      -1.333  -2.389  -3.272  0.00  0.00     0.013 C 
ATOM     10  C3' I4B d   1      -0.778  -1.489  -1.029  0.00  0.00     0.013 C 
ENDBRANCH   7   8
ENDBRANCH   1   7
TORSDOF 2
ENDMDL
