MODEL 1
REMARK minimizedAffinity 18.0938377
REMARK minimizedRMSD -1
REMARK  2 active torsions:
REMARK  status: ('A' for Active; 'I' for Inactive)
REMARK    1  A    between atoms: C2'_3  and  C1'_4 
REMARK    2  A    between atoms: C1'_4  and  C1_5 
ROOT
ATOM      1  C1  I4B d   1      -1.611  -1.490   0.355  0.00  0.00    -0.075 A 
ATOM      2  C2  I4B d   1      -1.323  -0.149   0.372  0.00  0.00     0.003 A 
ATOM      3  C3  I4B d   1      -2.301   0.785   0.791  0.00  0.00     0.002 A 
ATOM      4  C4  I4B d   1      -3.562   0.342   1.134  0.00  0.00    -0.004 A 
ATOM      5  C5  I4B d   1      -3.845  -1.021   1.138  0.00  0.00     0.002 A 
ATOM      6  C6  I4B d   1      -2.860  -1.944   0.758  0.00  0.00     0.003 A 
ENDROOT
BRANCH   1   7
ATOM      7  C1' I4B d   1      -0.565  -2.446  -0.124  0.00  0.00     0.060 C 
BRANCH   7   8
ATOM      8  C2' I4B d   1      -1.072  -3.093  -1.397  0.00  0.00    -0.013 C 
ATOM      9  C4' I4B d   1      -0.721  -2.265  -2.606  0.00  0.00     0.013 C 
ATOM     10  C3' I4B d   1      -0.475  -4.465  -1.489  0.00  0.00     0.013 C 
ENDBRANCH   7   8
ENDBRANCH   1   7
TORSDOF 2
ENDMDL
