MODEL 1
REMARK minimizedAffinity 10.711318
REMARK minimizedRMSD -1
REMARK  2 active torsions:
REMARK  status: ('A' for Active; 'I' for Inactive)
REMARK    1  A    between atoms: C2'_3  and  C1'_4 
REMARK    2  A    between atoms: C1'_4  and  C1_5 
ROOT
ATOM      1  C1  I4B d   1       0.244  -2.293  -1.761  0.00  0.00    -0.075 A 
ATOM      2  C2  I4B d   1      -0.857  -1.494  -1.581  0.00  0.00     0.003 A 
ATOM      3  C3  I4B d   1      -1.545  -1.497  -0.344  0.00  0.00     0.002 A 
ATOM      4  C4  I4B d   1      -1.131  -2.346   0.662  0.00  0.00    -0.004 A 
ATOM      5  C5  I4B d   1      -0.001  -3.139   0.485  0.00  0.00     0.002 A 
ATOM      6  C6  I4B d   1       0.698  -3.104  -0.730  0.00  0.00     0.003 A 
ENDROOT
BRANCH   1   7
ATOM      7  C1' I4B d   1       0.927  -2.290  -3.092  0.00  0.00     0.060 C 
BRANCH   7   8
ATOM      8  C2' I4B d   1       2.322  -2.851  -2.903  0.00  0.00    -0.013 C 
ATOM      9  C4' I4B d   1       2.705  -3.756  -4.044  0.00  0.00     0.013 C 
ATOM     10  C3' I4B d   1       3.272  -1.697  -2.783  0.00  0.00     0.013 C 
ENDBRANCH   7   8
ENDBRANCH   1   7
TORSDOF 2
ENDMDL
