MODEL 1
REMARK minimizedAffinity 19.0844345
REMARK minimizedRMSD -1
REMARK  2 active torsions:
REMARK  status: ('A' for Active; 'I' for Inactive)
REMARK    1  A    between atoms: C2'_3  and  C1'_4 
REMARK    2  A    between atoms: C1'_4  and  C1_5 
ROOT
ATOM      1  C1  I4B d   1      -2.478  -0.244   0.265  0.00  0.00    -0.075 A 
ATOM      2  C2  I4B d   1      -1.481   0.558  -0.230  0.00  0.00     0.003 A 
ATOM      3  C3  I4B d   1      -1.604   1.967  -0.173  0.00  0.00     0.002 A 
ATOM      4  C4  I4B d   1      -2.756   2.528   0.339  0.00  0.00    -0.004 A 
ATOM      5  C5  I4B d   1      -3.757   1.714   0.862  0.00  0.00     0.002 A 
ATOM      6  C6  I4B d   1      -3.612   0.319   0.837  0.00  0.00     0.003 A 
ENDROOT
BRANCH   1   7
ATOM      7  C1' I4B d   1      -2.329  -1.729   0.159  0.00  0.00     0.060 C 
BRANCH   7   8
ATOM      8  C2' I4B d   1      -1.034  -2.017  -0.572  0.00  0.00    -0.013 C 
ATOM      9  C4' I4B d   1      -0.325  -3.205   0.024  0.00  0.00     0.013 C 
ATOM     10  C3' I4B d   1      -1.359  -2.249  -2.017  0.00  0.00     0.013 C 
ENDBRANCH   7   8
ENDBRANCH   1   7
TORSDOF 2
ENDMDL
