MODEL 1
REMARK minimizedAffinity 18.486208
REMARK minimizedRMSD -1
REMARK  2 active torsions:
REMARK  status: ('A' for Active; 'I' for Inactive)
REMARK    1  A    between atoms: C2'_3  and  C1'_4 
REMARK    2  A    between atoms: C1'_4  and  C1_5 
ROOT
ATOM      1  C1  I4B d   1       2.885   5.221   0.459  0.00  0.00    -0.075 A 
ATOM      2  C2  I4B d   1       1.677   5.862   0.578  0.00  0.00     0.003 A 
ATOM      3  C3  I4B d   1       0.558   5.180   1.113  0.00  0.00     0.002 A 
ATOM      4  C4  I4B d   1       0.676   3.851   1.465  0.00  0.00    -0.004 A 
ATOM      5  C5  I4B d   1       1.907   3.209   1.365  0.00  0.00     0.002 A 
ATOM      6  C6  I4B d   1       3.022   3.902   0.870  0.00  0.00     0.003 A 
ENDROOT
BRANCH   1   7
ATOM      7  C1' I4B d   1       4.038   5.962  -0.140  0.00  0.00     0.060 C 
BRANCH   7   8
ATOM      8  C2' I4B d   1       5.141   4.962  -0.420  0.00  0.00    -0.013 C 
ATOM      9  C4' I4B d   1       5.954   5.368  -1.621  0.00  0.00     0.013 C 
ATOM     10  C3' I4B d   1       5.998   4.863   0.806  0.00  0.00     0.013 C 
ENDBRANCH   7   8
ENDBRANCH   1   7
TORSDOF 2
ENDMDL
