MODEL 1
REMARK minimizedAffinity 12.6857843
REMARK minimizedRMSD -1
REMARK  2 active torsions:
REMARK  status: ('A' for Active; 'I' for Inactive)
REMARK    1  A    between atoms: C2'_3  and  C1'_4 
REMARK    2  A    between atoms: C1'_4  and  C1_5 
ROOT
ATOM      1  C1  I4B d   1      -1.737  -1.915   2.281  0.00  0.00    -0.075 A 
ATOM      2  C2  I4B d   1      -2.122  -2.061   0.971  0.00  0.00     0.003 A 
ATOM      3  C3  I4B d   1      -1.269  -2.711   0.046  0.00  0.00     0.002 A 
ATOM      4  C4  I4B d   1      -0.028  -3.152   0.459  0.00  0.00    -0.004 A 
ATOM      5  C5  I4B d   1       0.350  -3.023   1.792  0.00  0.00     0.002 A 
ATOM      6  C6  I4B d   1      -0.514  -2.411   2.712  0.00  0.00     0.003 A 
ENDROOT
BRANCH   1   7
ATOM      7  C1' I4B d   1      -2.648  -1.193   3.223  0.00  0.00     0.060 C 
BRANCH   7   8
ATOM      8  C2' I4B d   1      -1.799  -0.592   4.324  0.00  0.00    -0.013 C 
ATOM      9  C4' I4B d   1      -2.281   0.785   4.695  0.00  0.00     0.013 C 
ATOM     10  C3' I4B d   1      -1.846  -1.518   5.503  0.00  0.00     0.013 C 
ENDBRANCH   7   8
ENDBRANCH   1   7
TORSDOF 2
ENDMDL
