MODEL 1
REMARK minimizedAffinity 10.9959106
REMARK minimizedRMSD -1
REMARK  2 active torsions:
REMARK  status: ('A' for Active; 'I' for Inactive)
REMARK    1  A    between atoms: C2'_3  and  C1'_4 
REMARK    2  A    between atoms: C1'_4  and  C1_5 
ROOT
ATOM      1  C1  I4B d   1       2.974   4.485  -1.501  0.00  0.00    -0.075 A 
ATOM      2  C2  I4B d   1       2.171   4.535  -2.613  0.00  0.00     0.003 A 
ATOM      3  C3  I4B d   1       2.570   5.281  -3.748  0.00  0.00     0.002 A 
ATOM      4  C4  I4B d   1       3.748   5.998  -3.710  0.00  0.00    -0.004 A 
ATOM      5  C5  I4B d   1       4.573   5.928  -2.591  0.00  0.00     0.002 A 
ATOM      6  C6  I4B d   1       4.190   5.156  -1.484  0.00  0.00     0.003 A 
ENDROOT
BRANCH   1   7
ATOM      7  C1' I4B d   1       2.507   3.714  -0.308  0.00  0.00     0.060 C 
BRANCH   7   8
ATOM      8  C2' I4B d   1       0.996   3.813  -0.251  0.00  0.00    -0.013 C 
ATOM      9  C4' I4B d   1       0.357   2.451  -0.324  0.00  0.00     0.013 C 
ATOM     10  C3' I4B d   1       0.626   4.517   1.020  0.00  0.00     0.013 C 
ENDBRANCH   7   8
ENDBRANCH   1   7
TORSDOF 2
ENDMDL
