MODEL 1
REMARK minimizedAffinity 15.6753092
REMARK minimizedRMSD -1
REMARK  2 active torsions:
REMARK  status: ('A' for Active; 'I' for Inactive)
REMARK    1  A    between atoms: C2'_3  and  C1'_4 
REMARK    2  A    between atoms: C1'_4  and  C1_5 
ROOT
ATOM      1  C1  I4B d   1       2.772   4.566  -1.541  0.00  0.00    -0.075 A 
ATOM      2  C2  I4B d   1       3.118   3.709  -0.526  0.00  0.00     0.003 A 
ATOM      3  C3  I4B d   1       2.130   3.218   0.361  0.00  0.00     0.002 A 
ATOM      4  C4  I4B d   1       0.825   3.647   0.229  0.00  0.00    -0.004 A 
ATOM      5  C5  I4B d   1       0.472   4.499  -0.814  0.00  0.00     0.002 A 
ATOM      6  C6  I4B d   1       1.449   4.952  -1.713  0.00  0.00     0.003 A 
ENDROOT
BRANCH   1   7
ATOM      7  C1' I4B d   1       3.847   5.091  -2.439  0.00  0.00     0.060 C 
BRANCH   7   8
ATOM      8  C2' I4B d   1       5.185   4.726  -1.829  0.00  0.00    -0.013 C 
ATOM      9  C4' I4B d   1       5.989   3.857  -2.759  0.00  0.00     0.013 C 
ATOM     10  C3' I4B d   1       5.912   5.999  -1.512  0.00  0.00     0.013 C 
ENDBRANCH   7   8
ENDBRANCH   1   7
TORSDOF 2
ENDMDL
