MODEL 1
REMARK minimizedAffinity 15.5128088
REMARK minimizedRMSD -1
REMARK  2 active torsions:
REMARK  status: ('A' for Active; 'I' for Inactive)
REMARK    1  A    between atoms: C2'_3  and  C1'_4 
REMARK    2  A    between atoms: C1'_4  and  C1_5 
ROOT
ATOM      1  C1  I4B d   1      -1.019  -2.472  -2.319  0.00  0.00    -0.075 A 
ATOM      2  C2  I4B d   1      -0.098  -3.469  -2.113  0.00  0.00     0.003 A 
ATOM      3  C3  I4B d   1       0.293  -3.818  -0.798  0.00  0.00     0.002 A 
ATOM      4  C4  I4B d   1      -0.220  -3.115   0.273  0.00  0.00    -0.004 A 
ATOM      5  C5  I4B d   1      -1.171  -2.120   0.064  0.00  0.00     0.002 A 
ATOM      6  C6  I4B d   1      -1.583  -1.804  -1.239  0.00  0.00     0.003 A 
ENDROOT
BRANCH   1   7
ATOM      7  C1' I4B d   1      -1.385  -2.107  -3.723  0.00  0.00     0.060 C 
BRANCH   7   8
ATOM      8  C2' I4B d   1      -2.300  -3.187  -4.263  0.00  0.00    -0.013 C 
ATOM      9  C4' I4B d   1      -3.703  -3.024  -3.742  0.00  0.00     0.013 C 
ATOM     10  C3' I4B d   1      -2.267  -3.116  -5.760  0.00  0.00     0.013 C 
ENDBRANCH   7   8
ENDBRANCH   1   7
TORSDOF 2
ENDMDL
