MODEL 1
REMARK minimizedAffinity -4.99225998
REMARK minimizedRMSD -1
REMARK  1 active torsions:
REMARK  status: ('A' for Active; 'I' for Inactive)
REMARK    1  A    between atoms: C1_2  and  C2_3 
ROOT
ATOM      1  C2  UNL d   1      -0.073   0.850  -0.019  0.00  0.00    -0.081 A 
ATOM      2  C3  UNL d   1       0.235  -0.329   0.671  0.00  0.00     0.006 A 
ATOM      3  C4  UNL d   1       0.200  -1.563   0.017  0.00  0.00     0.002 A 
ATOM      4  C5  UNL d   1      -0.136  -1.638  -1.339  0.00  0.00    -0.080 A 
ATOM      5  C6  UNL d   1      -0.148  -2.953  -2.060  0.00  0.00     0.076 C 
ATOM      6  C7  UNL d   1      -0.460  -0.463  -2.025  0.00  0.00     0.002 A 
ATOM      7  C8  UNL d   1      -0.426   0.771  -1.371  0.00  0.00     0.006 A 
ENDROOT
BRANCH   1   8
ATOM      8  C1  UNL d   1       0.027   2.188   0.667  0.00  0.00     0.054 C 
ATOM      9  C   UNL d   1       0.785   3.193  -0.189  0.00  0.00     0.018 C 
ENDBRANCH   1   8
TORSDOF 1
ENDMDL
