MODEL 1
REMARK minimizedAffinity 0.667494357
REMARK minimizedRMSD -1
REMARK  1 active torsions:
REMARK  status: ('A' for Active; 'I' for Inactive)
REMARK    1  A    between atoms: C1_2  and  C2_3 
ROOT
ATOM      1  C2  UNL d   1       0.922   1.666   0.758  0.00  0.00    -0.081 A 
ATOM      2  C3  UNL d   1      -0.434   1.361   0.588  0.00  0.00     0.006 A 
ATOM      3  C4  UNL d   1      -0.827   0.083   0.185  0.00  0.00     0.002 A 
ATOM      4  C5  UNL d   1       0.127  -0.913  -0.047  0.00  0.00    -0.080 A 
ATOM      5  C6  UNL d   1      -0.283  -2.298  -0.451  0.00  0.00     0.076 C 
ATOM      6  C7  UNL d   1       1.483  -0.603   0.105  0.00  0.00     0.002 A 
ATOM      7  C8  UNL d   1       1.877   0.675   0.508  0.00  0.00     0.006 A 
ENDROOT
BRANCH   1   8
ATOM      8  C1  UNL d   1       1.345   3.025   1.255  0.00  0.00     0.054 C 
ATOM      9  C   UNL d   1       2.752   2.989   1.833  0.00  0.00     0.018 C 
ENDBRANCH   1   8
TORSDOF 1
ENDMDL
