MODEL 1
REMARK minimizedAffinity -1.44402695
REMARK minimizedRMSD -1
REMARK  1 active torsions:
REMARK  status: ('A' for Active; 'I' for Inactive)
REMARK    1  A    between atoms: C1_2  and  C2_3 
ROOT
ATOM      1  C2  UNL d   1       0.222  -0.265   0.150  0.00  0.00    -0.081 A 
ATOM      2  C3  UNL d   1       1.616  -0.327   0.268  0.00  0.00     0.006 A 
ATOM      3  C4  UNL d   1       2.341   0.788   0.695  0.00  0.00     0.002 A 
ATOM      4  C5  UNL d   1       1.684   1.980   1.019  0.00  0.00    -0.080 A 
ATOM      5  C6  UNL d   1       2.447   3.175   1.507  0.00  0.00     0.076 C 
ATOM      6  C7  UNL d   1       0.293   2.048   0.884  0.00  0.00     0.002 A 
ATOM      7  C8  UNL d   1      -0.432   0.933   0.457  0.00  0.00     0.006 A 
ENDROOT
BRANCH   1   8
ATOM      8  C1  UNL d   1      -0.569  -1.485  -0.248  0.00  0.00     0.054 C 
ATOM      9  C   UNL d   1       0.125  -2.255  -1.363  0.00  0.00     0.018 C 
ENDBRANCH   1   8
TORSDOF 1
ENDMDL
