MODEL 1
REMARK minimizedAffinity -4.76687908
REMARK minimizedRMSD -1
REMARK  1 active torsions:
REMARK  status: ('A' for Active; 'I' for Inactive)
REMARK    1  A    between atoms: C1_2  and  C2_3 
ROOT
ATOM      1  C2  UNL d   1      -0.156  -1.318  -0.465  0.00  0.00    -0.081 A 
ATOM      2  C3  UNL d   1       0.990  -0.698   0.049  0.00  0.00     0.006 A 
ATOM      3  C4  UNL d   1       1.013   0.683   0.262  0.00  0.00     0.002 A 
ATOM      4  C5  UNL d   1      -0.110   1.464  -0.027  0.00  0.00    -0.080 A 
ATOM      5  C6  UNL d   1      -0.108   2.943   0.225  0.00  0.00     0.076 C 
ATOM      6  C7  UNL d   1      -1.249   0.848  -0.557  0.00  0.00     0.002 A 
ATOM      7  C8  UNL d   1      -1.272  -0.532  -0.771  0.00  0.00     0.006 A 
ENDROOT
BRANCH   1   8
ATOM      8  C1  UNL d   1      -0.207  -2.814  -0.635  0.00  0.00     0.054 C 
ATOM      9  C   UNL d   1      -0.286  -3.202  -2.104  0.00  0.00     0.018 C 
ENDBRANCH   1   8
TORSDOF 1
ENDMDL
