MODEL 1
REMARK minimizedAffinity -5.03574133
REMARK minimizedRMSD -1
REMARK  1 active torsions:
REMARK  status: ('A' for Active; 'I' for Inactive)
REMARK    1  A    between atoms: C1_2  and  C2_3 
ROOT
ATOM      1  C2  UNL d   1      -0.307  -1.494  -1.160  0.00  0.00    -0.081 A 
ATOM      2  C3  UNL d   1      -0.848  -0.422  -1.880  0.00  0.00     0.006 A 
ATOM      3  C4  UNL d   1      -0.922   0.850  -1.307  0.00  0.00     0.002 A 
ATOM      4  C5  UNL d   1      -0.450   1.073  -0.009  0.00  0.00    -0.080 A 
ATOM      5  C6  UNL d   1      -0.496   2.440   0.606  0.00  0.00     0.076 C 
ATOM      6  C7  UNL d   1       0.074  -0.002   0.717  0.00  0.00     0.002 A 
ATOM      7  C8  UNL d   1       0.148  -1.274   0.145  0.00  0.00     0.006 A 
ENDROOT
BRANCH   1   8
ATOM      8  C1  UNL d   1      -0.166  -2.852  -1.798  0.00  0.00     0.054 C 
ATOM      9  C   UNL d   1      -0.207  -3.960  -0.755  0.00  0.00     0.018 C 
ENDBRANCH   1   8
TORSDOF 1
ENDMDL
