MODEL 1
REMARK minimizedAffinity -2.89501476
REMARK minimizedRMSD -1
REMARK  1 active torsions:
REMARK  status: ('A' for Active; 'I' for Inactive)
REMARK    1  A    between atoms: C1_2  and  C2_3 
ROOT
ATOM      1  C2  UNL d   1      -0.184  -1.742  -0.806  0.00  0.00    -0.081 A 
ATOM      2  C3  UNL d   1       0.503  -1.267   0.318  0.00  0.00     0.006 A 
ATOM      3  C4  UNL d   1       0.178  -0.028   0.875  0.00  0.00     0.002 A 
ATOM      4  C5  UNL d   1      -0.844   0.752   0.324  0.00  0.00    -0.080 A 
ATOM      5  C6  UNL d   1      -1.224   2.070   0.931  0.00  0.00     0.076 C 
ATOM      6  C7  UNL d   1      -1.519   0.285  -0.809  0.00  0.00     0.002 A 
ATOM      7  C8  UNL d   1      -1.194  -0.953  -1.368  0.00  0.00     0.006 A 
ENDROOT
BRANCH   1   8
ATOM      8  C1  UNL d   1       0.121  -3.106  -1.371  0.00  0.00     0.054 C 
ATOM      9  C   UNL d   1      -0.985  -3.578  -2.304  0.00  0.00     0.018 C 
ENDBRANCH   1   8
TORSDOF 1
ENDMDL
