MODEL 1
REMARK minimizedAffinity -2.90116143
REMARK minimizedRMSD -1
REMARK  1 active torsions:
REMARK  status: ('A' for Active; 'I' for Inactive)
REMARK    1  A    between atoms: C1_2  and  C2_3 
ROOT
ATOM      1  C2  UNL d   1       0.159  -1.967  -0.275  0.00  0.00    -0.081 A 
ATOM      2  C3  UNL d   1      -0.233  -0.635  -0.456  0.00  0.00     0.006 A 
ATOM      3  C4  UNL d   1       0.639   0.409  -0.138  0.00  0.00     0.002 A 
ATOM      4  C5  UNL d   1       1.919   0.139   0.359  0.00  0.00    -0.080 A 
ATOM      5  C6  UNL d   1       2.876   1.249   0.676  0.00  0.00     0.076 C 
ATOM      6  C7  UNL d   1       2.303  -1.192   0.557  0.00  0.00     0.002 A 
ATOM      7  C8  UNL d   1       1.432  -2.236   0.240  0.00  0.00     0.006 A 
ENDROOT
BRANCH   1   8
ATOM      8  C1  UNL d   1      -0.755  -3.096  -0.678  0.00  0.00     0.054 C 
ATOM      9  C   UNL d   1      -0.487  -3.541  -2.108  0.00  0.00     0.018 C 
ENDBRANCH   1   8
TORSDOF 1
ENDMDL
