MODEL 1
REMARK minimizedAffinity -4.15499592
REMARK minimizedRMSD -1
REMARK  1 active torsions:
REMARK  status: ('A' for Active; 'I' for Inactive)
REMARK    1  A    between atoms: C1_2  and  C2_3 
ROOT
ATOM      1  C2  UNL d   1      -0.432  -1.407  -0.552  0.00  0.00    -0.081 A 
ATOM      2  C3  UNL d   1      -0.411  -0.398  -1.522  0.00  0.00     0.006 A 
ATOM      3  C4  UNL d   1      -0.703   0.923  -1.176  0.00  0.00     0.002 A 
ATOM      4  C5  UNL d   1      -1.012   1.259   0.147  0.00  0.00    -0.080 A 
ATOM      5  C6  UNL d   1      -1.297   2.678   0.538  0.00  0.00     0.076 C 
ATOM      6  C7  UNL d   1      -1.050   0.248   1.113  0.00  0.00     0.002 A 
ATOM      7  C8  UNL d   1      -0.759  -1.074   0.767  0.00  0.00     0.006 A 
ENDROOT
BRANCH   1   8
ATOM      8  C1  UNL d   1      -0.054  -2.822  -0.910  0.00  0.00     0.054 C 
ATOM      9  C   UNL d   1      -0.616  -3.218  -2.268  0.00  0.00     0.018 C 
ENDBRANCH   1   8
TORSDOF 1
ENDMDL
