MODEL 1
REMARK minimizedAffinity -2.80661941
REMARK minimizedRMSD -1
REMARK  1 active torsions:
REMARK  status: ('A' for Active; 'I' for Inactive)
REMARK    1  A    between atoms: C1_2  and  C2_3 
ROOT
ATOM      1  C2  UNL d   1      -0.217  -1.873  -0.915  0.00  0.00    -0.081 A 
ATOM      2  C3  UNL d   1      -0.088  -1.726   0.472  0.00  0.00     0.006 A 
ATOM      3  C4  UNL d   1      -0.066  -0.455   1.051  0.00  0.00     0.002 A 
ATOM      4  C5  UNL d   1      -0.181   0.689   0.255  0.00  0.00    -0.080 A 
ATOM      5  C6  UNL d   1      -0.189   2.059   0.867  0.00  0.00     0.076 C 
ATOM      6  C7  UNL d   1      -0.292   0.544  -1.132  0.00  0.00     0.002 A 
ATOM      7  C8  UNL d   1      -0.313  -0.727  -1.712  0.00  0.00     0.006 A 
ENDROOT
BRANCH   1   8
ATOM      8  C1  UNL d   1      -0.305  -3.243  -1.536  0.00  0.00     0.054 C 
ATOM      9  C   UNL d   1      -1.619  -3.428  -2.282  0.00  0.00     0.018 C 
ENDBRANCH   1   8
TORSDOF 1
ENDMDL
