MODEL 1
REMARK minimizedAffinity -2.28919625
REMARK minimizedRMSD -1
REMARK  1 active torsions:
REMARK  status: ('A' for Active; 'I' for Inactive)
REMARK    1  A    between atoms: C1_2  and  C2_3 
ROOT
ATOM      1  C2  UNL d   1      -0.506  -1.074  -0.362  0.00  0.00    -0.081 A 
ATOM      2  C3  UNL d   1       0.621  -0.717   0.389  0.00  0.00     0.006 A 
ATOM      3  C4  UNL d   1       0.662   0.502   1.068  0.00  0.00     0.002 A 
ATOM      4  C5  UNL d   1      -0.425   1.381   1.015  0.00  0.00    -0.080 A 
ATOM      5  C6  UNL d   1      -0.406   2.680   1.765  0.00  0.00     0.076 C 
ATOM      6  C7  UNL d   1      -1.544   1.033   0.251  0.00  0.00     0.002 A 
ATOM      7  C8  UNL d   1      -1.585  -0.186  -0.429  0.00  0.00     0.006 A 
ENDROOT
BRANCH   1   8
ATOM      8  C1  UNL d   1      -0.579  -2.417  -1.043  0.00  0.00     0.054 C 
ATOM      9  C   UNL d   1      -1.504  -3.367  -0.296  0.00  0.00     0.018 C 
ENDBRANCH   1   8
TORSDOF 1
ENDMDL
