MODEL 1
REMARK minimizedAffinity -2.6482904
REMARK minimizedRMSD -1
REMARK  1 active torsions:
REMARK  status: ('A' for Active; 'I' for Inactive)
REMARK    1  A    between atoms: C1_2  and  C2_3 
ROOT
ATOM      1  C2  UNL d   1      -0.549  -1.949  -1.855  0.00  0.00    -0.081 A 
ATOM      2  C3  UNL d   1      -0.817  -0.610  -2.167  0.00  0.00     0.006 A 
ATOM      3  C4  UNL d   1      -0.713   0.380  -1.188  0.00  0.00     0.002 A 
ATOM      4  C5  UNL d   1      -0.331   0.050   0.117  0.00  0.00    -0.080 A 
ATOM      5  C6  UNL d   1      -0.186   1.108   1.171  0.00  0.00     0.076 C 
ATOM      6  C7  UNL d   1      -0.080  -1.289   0.434  0.00  0.00     0.002 A 
ATOM      7  C8  UNL d   1      -0.185  -2.280  -0.545  0.00  0.00     0.006 A 
ENDROOT
BRANCH   1   8
ATOM      8  C1  UNL d   1      -0.598  -3.010  -2.925  0.00  0.00     0.054 C 
ATOM      9  C   UNL d   1      -0.960  -4.368  -2.340  0.00  0.00     0.018 C 
ENDBRANCH   1   8
TORSDOF 1
ENDMDL
