MODEL 1
REMARK minimizedAffinity -1.60737157
REMARK minimizedRMSD -1
REMARK  1 active torsions:
REMARK  status: ('A' for Active; 'I' for Inactive)
REMARK    1  A    between atoms: C1_2  and  C2_3 
ROOT
ATOM      1  C2  UNL d   1       1.793   2.152   0.898  0.00  0.00    -0.081 A 
ATOM      2  C3  UNL d   1       1.544   0.911   0.300  0.00  0.00     0.006 A 
ATOM      3  C4  UNL d   1       0.257   0.575  -0.126  0.00  0.00     0.002 A 
ATOM      4  C5  UNL d   1      -0.800   1.477   0.032  0.00  0.00    -0.080 A 
ATOM      5  C6  UNL d   1      -2.181   1.141  -0.449  0.00  0.00     0.076 C 
ATOM      6  C7  UNL d   1      -0.556   2.711   0.645  0.00  0.00     0.002 A 
ATOM      7  C8  UNL d   1       0.731   3.047   1.071  0.00  0.00     0.006 A 
ENDROOT
BRANCH   1   8
ATOM      8  C1  UNL d   1       3.193   2.543   1.299  0.00  0.00     0.054 C 
ATOM      9  C   UNL d   1       3.308   2.714   2.807  0.00  0.00     0.018 C 
ENDBRANCH   1   8
TORSDOF 1
ENDMDL
