MODEL 1
REMARK minimizedAffinity -5.19868565
REMARK minimizedRMSD -1
REMARK  1 active torsions:
REMARK  status: ('A' for Active; 'I' for Inactive)
REMARK    1  A    between atoms: C1_2  and  C2_3 
ROOT
ATOM      1  C2  UNL d   1      -0.963  -1.649  -0.612  0.00  0.00    -0.081 A 
ATOM      2  C3  UNL d   1       0.220  -1.245   0.018  0.00  0.00     0.006 A 
ATOM      3  C4  UNL d   1       0.326   0.031   0.575  0.00  0.00     0.002 A 
ATOM      4  C5  UNL d   1      -0.751   0.921   0.520  0.00  0.00    -0.080 A 
ATOM      5  C6  UNL d   1      -0.661   2.284   1.141  0.00  0.00     0.076 C 
ATOM      6  C7  UNL d   1      -1.928   0.525  -0.125  0.00  0.00     0.002 A 
ATOM      7  C8  UNL d   1      -2.034  -0.751  -0.683  0.00  0.00     0.006 A 
ENDROOT
BRANCH   1   8
ATOM      8  C1  UNL d   1      -1.103  -3.047  -1.157  0.00  0.00     0.054 C 
ATOM      9  C   UNL d   1      -0.084  -3.318  -2.255  0.00  0.00     0.018 C 
ENDBRANCH   1   8
TORSDOF 1
ENDMDL
