MODEL 1
REMARK minimizedAffinity -0.38850224
REMARK minimizedRMSD -1
REMARK  1 active torsions:
REMARK  status: ('A' for Active; 'I' for Inactive)
REMARK    1  A    between atoms: C1_2  and  C2_3 
ROOT
ATOM      1  C2  UNL d   1      -0.749   0.427   0.496  0.00  0.00    -0.081 A 
ATOM      2  C3  UNL d   1      -0.621  -0.696   1.323  0.00  0.00     0.006 A 
ATOM      3  C4  UNL d   1      -0.202  -1.920   0.795  0.00  0.00     0.002 A 
ATOM      4  C5  UNL d   1       0.103  -2.039  -0.565  0.00  0.00    -0.080 A 
ATOM      5  C6  UNL d   1       0.583  -3.340  -1.138  0.00  0.00     0.076 C 
ATOM      6  C7  UNL d   1      -0.041  -0.922  -1.394  0.00  0.00     0.002 A 
ATOM      7  C8  UNL d   1      -0.461   0.302  -0.867  0.00  0.00     0.006 A 
ENDROOT
BRANCH   1   8
ATOM      8  C1  UNL d   1      -1.138   1.764   1.074  0.00  0.00     0.054 C 
ATOM      9  C   UNL d   1       0.055   2.707   1.138  0.00  0.00     0.018 C 
ENDBRANCH   1   8
TORSDOF 1
ENDMDL
