MODEL 1
REMARK minimizedAffinity -2.05003929
REMARK minimizedRMSD -1
REMARK  2 active torsions:
REMARK  status: ('A' for Active; 'I' for Inactive)
REMARK    1  A    between atoms: C1_2  and  C2_3 
REMARK    2  A    between atoms: C2_3  and  C3_4 
ROOT
ATOM      1  C3  UNL d   1       2.333  -0.370   0.552  0.00  0.00    -0.075 A 
ATOM      2  C4  UNL d   1       2.906  -0.716  -0.681  0.00  0.00     0.002 A 
ATOM      3  C5  UNL d   1       2.650  -1.960  -1.257  0.00  0.00     0.002 A 
ATOM      4  C6  UNL d   1       1.827  -2.876  -0.606  0.00  0.00    -0.004 A 
ATOM      5  C7  UNL d   1       1.265  -2.550   0.627  0.00  0.00     0.002 A 
ATOM      6  C8  UNL d   1       1.517  -1.304   1.204  0.00  0.00     0.002 A 
ENDROOT
BRANCH   1   7
ATOM      7  C2  UNL d   1       2.584   0.986   1.167  0.00  0.00     0.056 C 
BRANCH   7   8
ATOM      8  C1  UNL d   1       2.256   2.162   0.240  0.00  0.00     0.007 C 
ATOM      9  C   UNL d   1       0.788   2.216  -0.164  0.00  0.00     0.009 C 
ENDBRANCH   7   8
ENDBRANCH   1   7
TORSDOF 2
ENDMDL
