MODEL 1
REMARK minimizedAffinity 2.40379357
REMARK minimizedRMSD -1
REMARK  2 active torsions:
REMARK  status: ('A' for Active; 'I' for Inactive)
REMARK    1  A    between atoms: C1_2  and  C2_3 
REMARK    2  A    between atoms: C2_3  and  C3_4 
ROOT
ATOM      1  C3  UNL d   1      -4.338   1.659  -2.611  0.00  0.00    -0.075 A 
ATOM      2  C4  UNL d   1      -4.680   1.018  -3.811  0.00  0.00     0.002 A 
ATOM      3  C5  UNL d   1      -3.688   0.511  -4.651  0.00  0.00     0.002 A 
ATOM      4  C6  UNL d   1      -2.344   0.647  -4.308  0.00  0.00    -0.004 A 
ATOM      5  C7  UNL d   1      -1.993   1.297  -3.127  0.00  0.00     0.002 A 
ATOM      6  C8  UNL d   1      -2.983   1.801  -2.283  0.00  0.00     0.002 A 
ENDROOT
BRANCH   1   7
ATOM      7  C2  UNL d   1      -5.408   2.185  -1.684  0.00  0.00     0.056 C 
BRANCH   7   8
ATOM      8  C1  UNL d   1      -5.999   1.124  -0.750  0.00  0.00     0.007 C 
ATOM      9  C   UNL d   1      -4.952   0.436   0.116  0.00  0.00     0.009 C 
ENDBRANCH   7   8
ENDBRANCH   1   7
TORSDOF 2
ENDMDL
