MODEL 1
REMARK minimizedAffinity -1.32114744
REMARK minimizedRMSD -1
REMARK  2 active torsions:
REMARK  status: ('A' for Active; 'I' for Inactive)
REMARK    1  A    between atoms: C1_2  and  C2_3 
REMARK    2  A    between atoms: C2_3  and  C3_4 
ROOT
ATOM      1  C3  UNL d   1       1.622  -1.846  -0.296  0.00  0.00    -0.075 A 
ATOM      2  C4  UNL d   1       2.604  -1.316   0.553  0.00  0.00     0.002 A 
ATOM      3  C5  UNL d   1       2.706   0.062   0.744  0.00  0.00     0.002 A 
ATOM      4  C6  UNL d   1       1.837   0.927   0.083  0.00  0.00    -0.004 A 
ATOM      5  C7  UNL d   1       0.868   0.412  -0.776  0.00  0.00     0.002 A 
ATOM      6  C8  UNL d   1       0.760  -0.966  -0.966  0.00  0.00     0.002 A 
ENDROOT
BRANCH   1   7
ATOM      7  C2  UNL d   1       1.487  -3.338  -0.485  0.00  0.00     0.056 C 
BRANCH   7   8
ATOM      8  C1  UNL d   1       0.096  -3.886  -0.148  0.00  0.00     0.007 C 
ATOM      9  C   UNL d   1      -0.234  -5.179  -0.882  0.00  0.00     0.009 C 
ENDBRANCH   7   8
ENDBRANCH   1   7
TORSDOF 2
ENDMDL
