MODEL 1
REMARK minimizedAffinity -0.836671233
REMARK minimizedRMSD -1
REMARK  2 active torsions:
REMARK  status: ('A' for Active; 'I' for Inactive)
REMARK    1  A    between atoms: C1_2  and  C2_3 
REMARK    2  A    between atoms: C2_3  and  C3_4 
ROOT
ATOM      1  C3  UNL d   1       0.790   0.547  -0.708  0.00  0.00    -0.075 A 
ATOM      2  C4  UNL d   1       1.672   1.275   0.104  0.00  0.00     0.002 A 
ATOM      3  C5  UNL d   1       2.740   0.639   0.738  0.00  0.00     0.002 A 
ATOM      4  C6  UNL d   1       2.933  -0.732   0.578  0.00  0.00    -0.004 A 
ATOM      5  C7  UNL d   1       2.053  -1.468  -0.213  0.00  0.00     0.002 A 
ATOM      6  C8  UNL d   1       0.987  -0.833  -0.853  0.00  0.00     0.002 A 
ENDROOT
BRANCH   1   7
ATOM      7  C2  UNL d   1      -0.349   1.234  -1.421  0.00  0.00     0.056 C 
BRANCH   7   8
ATOM      8  C1  UNL d   1      -0.946   0.420  -2.574  0.00  0.00     0.007 C 
ATOM      9  C   UNL d   1      -1.860   1.237  -3.477  0.00  0.00     0.009 C 
ENDBRANCH   7   8
ENDBRANCH   1   7
TORSDOF 2
ENDMDL
