MODEL 1
REMARK minimizedAffinity 5.20664358
REMARK minimizedRMSD -1
REMARK  2 active torsions:
REMARK  status: ('A' for Active; 'I' for Inactive)
REMARK    1  A    between atoms: C1_2  and  C2_3 
REMARK    2  A    between atoms: C2_3  and  C3_4 
ROOT
ATOM      1  C3  UNL d   1       2.318   0.200   0.663  0.00  0.00    -0.075 A 
ATOM      2  C4  UNL d   1       1.885  -0.569  -0.427  0.00  0.00     0.002 A 
ATOM      3  C5  UNL d   1       2.108  -1.945  -0.457  0.00  0.00     0.002 A 
ATOM      4  C6  UNL d   1       2.774  -2.569   0.596  0.00  0.00    -0.004 A 
ATOM      5  C7  UNL d   1       3.223  -1.813   1.676  0.00  0.00     0.002 A 
ATOM      6  C8  UNL d   1       2.998  -0.436   1.710  0.00  0.00     0.002 A 
ENDROOT
BRANCH   1   7
ATOM      7  C2  UNL d   1       2.054   1.686   0.714  0.00  0.00     0.056 C 
BRANCH   7   8
ATOM      8  C1  UNL d   1       0.661   2.089   0.220  0.00  0.00     0.007 C 
ATOM      9  C   UNL d   1      -0.310   2.403   1.350  0.00  0.00     0.009 C 
ENDBRANCH   7   8
ENDBRANCH   1   7
TORSDOF 2
ENDMDL
