MODEL 1
REMARK minimizedAffinity 4.35172844
REMARK minimizedRMSD -1
REMARK  2 active torsions:
REMARK  status: ('A' for Active; 'I' for Inactive)
REMARK    1  A    between atoms: C1_2  and  C2_3 
REMARK    2  A    between atoms: C2_3  and  C3_4 
ROOT
ATOM      1  C3  UNL d   1       2.592  -0.505   2.012  0.00  0.00    -0.075 A 
ATOM      2  C4  UNL d   1       3.636  -1.163   1.345  0.00  0.00     0.002 A 
ATOM      3  C5  UNL d   1       4.235  -0.586   0.225  0.00  0.00     0.002 A 
ATOM      4  C6  UNL d   1       3.793   0.647  -0.248  0.00  0.00    -0.004 A 
ATOM      5  C7  UNL d   1       2.746   1.302   0.397  0.00  0.00     0.002 A 
ATOM      6  C8  UNL d   1       2.147   0.729   1.521  0.00  0.00     0.002 A 
ENDROOT
BRANCH   1   7
ATOM      7  C2  UNL d   1       1.959  -1.110   3.243  0.00  0.00     0.056 C 
BRANCH   7   8
ATOM      8  C1  UNL d   1       1.127  -0.121   4.066  0.00  0.00     0.007 C 
ATOM      9  C   UNL d   1       1.705   0.144   5.449  0.00  0.00     0.009 C 
ENDBRANCH   7   8
ENDBRANCH   1   7
TORSDOF 2
ENDMDL
