MODEL 1
REMARK minimizedAffinity -1.57025599
REMARK minimizedRMSD -1
REMARK  2 active torsions:
REMARK  status: ('A' for Active; 'I' for Inactive)
REMARK    1  A    between atoms: C1_2  and  C2_3 
REMARK    2  A    between atoms: C2_3  and  C3_4 
ROOT
ATOM      1  C3  UNL d   1       1.471  -0.580  -1.273  0.00  0.00    -0.075 A 
ATOM      2  C4  UNL d   1       1.712   0.800  -1.338  0.00  0.00     0.002 A 
ATOM      3  C5  UNL d   1       2.971   1.315  -1.025  0.00  0.00     0.002 A 
ATOM      4  C6  UNL d   1       3.999   0.460  -0.635  0.00  0.00    -0.004 A 
ATOM      5  C7  UNL d   1       3.766  -0.911  -0.551  0.00  0.00     0.002 A 
ATOM      6  C8  UNL d   1       2.509  -1.429  -0.867  0.00  0.00     0.002 A 
ENDROOT
BRANCH   1   7
ATOM      7  C2  UNL d   1       0.120  -1.146  -1.638  0.00  0.00     0.056 C 
BRANCH   7   8
ATOM      8  C1  UNL d   1      -0.965  -0.085  -1.849  0.00  0.00     0.007 C 
ATOM      9  C   UNL d   1      -2.213  -0.327  -1.010  0.00  0.00     0.009 C 
ENDBRANCH   7   8
ENDBRANCH   1   7
TORSDOF 2
ENDMDL
