MODEL 1
REMARK minimizedAffinity -3.40199089
REMARK minimizedRMSD -1
REMARK  0 active torsions:
REMARK  status: ('A' for Active; 'I' for Inactive)
ROOT
ATOM      1  C   UNL d   1       2.473   0.190  -2.886  0.00  0.00    -0.002 A 
ATOM      2  C1  UNL d   1       1.690   1.329  -3.015  0.00  0.00     0.010 A 
ATOM      3  C2  UNL d   1       0.584   1.528  -2.185  0.00  0.00     0.041 A 
ATOM      4  C3  UNL d   1       0.277   0.555  -1.214  0.00  0.00    -0.075 A 
ATOM      5  S   UNL d   1      -1.028   0.587  -0.087  0.00  0.00     0.015 SA
ATOM      6  C4  UNL d   1      -0.576  -0.910   0.592  0.00  0.00     0.022 A 
ATOM      7  C5  UNL d   1       0.540  -1.435  -0.014  0.00  0.00     0.026 A 
ATOM      8  C6  UNL d   1       1.051  -0.599  -1.064  0.00  0.00    -0.082 A 
ATOM      9  C7  UNL d   1       2.165  -0.773  -1.921  0.00  0.00     0.045 A 
ENDROOT
TORSDOF 0
ENDMDL
