MODEL 1
REMARK minimizedAffinity -1.98375726
REMARK minimizedRMSD -1
REMARK  0 active torsions:
REMARK  status: ('A' for Active; 'I' for Inactive)
ROOT
ATOM      1  C   UNL d   1      -1.804   0.918   1.747  0.00  0.00    -0.002 A 
ATOM      2  C1  UNL d   1      -1.382   1.095   3.057  0.00  0.00     0.010 A 
ATOM      3  C2  UNL d   1      -2.000   0.405   4.102  0.00  0.00     0.041 A 
ATOM      4  C3  UNL d   1      -3.058  -0.476   3.805  0.00  0.00    -0.075 A 
ATOM      5  S   UNL d   1      -3.962  -1.429   4.922  0.00  0.00     0.015 SA
ATOM      6  C4  UNL d   1      -4.929  -2.094   3.687  0.00  0.00     0.022 A 
ATOM      7  C5  UNL d   1      -4.585  -1.612   2.446  0.00  0.00     0.026 A 
ATOM      8  C6  UNL d   1      -3.500  -0.672   2.494  0.00  0.00    -0.082 A 
ATOM      9  C7  UNL d   1      -2.854   0.043   1.456  0.00  0.00     0.045 A 
ENDROOT
TORSDOF 0
ENDMDL
