MODEL 1
REMARK minimizedAffinity 0.328605324
REMARK minimizedRMSD -1
REMARK  0 active torsions:
REMARK  status: ('A' for Active; 'I' for Inactive)
ROOT
ATOM      1  C   UNL d   1      -0.235  -1.359  -0.322  0.00  0.00    -0.002 A 
ATOM      2  C1  UNL d   1       0.739  -0.386  -0.147  0.00  0.00     0.010 A 
ATOM      3  C2  UNL d   1       0.547   0.657   0.760  0.00  0.00     0.041 A 
ATOM      4  C3  UNL d   1      -0.653   0.707   1.498  0.00  0.00    -0.075 A 
ATOM      5  S   UNL d   1      -1.106   1.891   2.666  0.00  0.00     0.015 SA
ATOM      6  C4  UNL d   1      -2.604   1.133   2.962  0.00  0.00     0.022 A 
ATOM      7  C5  UNL d   1      -2.770   0.003   2.196  0.00  0.00     0.026 A 
ATOM      8  C6  UNL d   1      -1.648  -0.262   1.340  0.00  0.00    -0.082 A 
ATOM      9  C7  UNL d   1      -1.424  -1.307   0.412  0.00  0.00     0.045 A 
ENDROOT
TORSDOF 0
ENDMDL
