MODEL 1
REMARK minimizedAffinity -0.595358849
REMARK minimizedRMSD -1
REMARK  0 active torsions:
REMARK  status: ('A' for Active; 'I' for Inactive)
ROOT
ATOM      1  C   UNL d   1       1.958   0.505  -3.160  0.00  0.00    -0.002 A 
ATOM      2  C1  UNL d   1       1.133   1.587  -2.884  0.00  0.00     0.010 A 
ATOM      3  C2  UNL d   1       0.235   1.540  -1.816  0.00  0.00     0.041 A 
ATOM      4  C3  UNL d   1       0.179   0.377  -1.022  0.00  0.00    -0.075 A 
ATOM      5  S   UNL d   1      -0.843   0.094   0.337  0.00  0.00     0.015 SA
ATOM      6  C4  UNL d   1      -0.208  -1.468   0.583  0.00  0.00     0.022 A 
ATOM      7  C5  UNL d   1       0.760  -1.783  -0.340  0.00  0.00     0.026 A 
ATOM      8  C6  UNL d   1       1.000  -0.724  -1.281  0.00  0.00    -0.082 A 
ATOM      9  C7  UNL d   1       1.900  -0.646  -2.371  0.00  0.00     0.045 A 
ENDROOT
TORSDOF 0
ENDMDL
