MODEL 1
REMARK minimizedAffinity -4.96944332
REMARK minimizedRMSD -1
REMARK  0 active torsions:
REMARK  status: ('A' for Active; 'I' for Inactive)
ROOT
ATOM      1  C   UNL d   1       3.266  -0.020  -2.151  0.00  0.00    -0.002 A 
ATOM      2  C1  UNL d   1       2.832   1.216  -2.610  0.00  0.00     0.010 A 
ATOM      3  C2  UNL d   1       1.600   1.732  -2.203  0.00  0.00     0.041 A 
ATOM      4  C3  UNL d   1       0.805   0.978  -1.317  0.00  0.00    -0.075 A 
ATOM      5  S   UNL d   1      -0.739   1.409  -0.682  0.00  0.00     0.015 SA
ATOM      6  C4  UNL d   1      -0.858  -0.036   0.213  0.00  0.00     0.022 A 
ATOM      7  C5  UNL d   1       0.244  -0.840   0.044  0.00  0.00     0.026 A 
ATOM      8  C6  UNL d   1       1.221  -0.268  -0.840  0.00  0.00    -0.082 A 
ATOM      9  C7  UNL d   1       2.475  -0.764  -1.272  0.00  0.00     0.045 A 
ENDROOT
TORSDOF 0
ENDMDL
