MODEL 1
REMARK minimizedAffinity -5.41407681
REMARK minimizedRMSD -1
REMARK  0 active torsions:
REMARK  status: ('A' for Active; 'I' for Inactive)
ROOT
ATOM      1  C   UNL d   1       3.301  -0.477  -0.884  0.00  0.00    -0.002 A 
ATOM      2  C1  UNL d   1       2.575  -1.521  -0.327  0.00  0.00     0.010 A 
ATOM      3  C2  UNL d   1       1.225  -1.358  -0.011  0.00  0.00     0.041 A 
ATOM      4  C3  UNL d   1       0.610  -0.116  -0.268  0.00  0.00    -0.075 A 
ATOM      5  S   UNL d   1      -1.032   0.313   0.037  0.00  0.00     0.015 SA
ATOM      6  C4  UNL d   1      -0.809   1.891  -0.566  0.00  0.00     0.022 A 
ATOM      7  C5  UNL d   1       0.481   2.103  -0.993  0.00  0.00     0.026 A 
ATOM      8  C6  UNL d   1       1.320   0.949  -0.828  0.00  0.00    -0.082 A 
ATOM      9  C7  UNL d   1       2.687   0.753  -1.137  0.00  0.00     0.045 A 
ENDROOT
TORSDOF 0
ENDMDL
