MODEL 1
REMARK minimizedAffinity -1.57214093
REMARK minimizedRMSD -1
REMARK  0 active torsions:
REMARK  status: ('A' for Active; 'I' for Inactive)
ROOT
ATOM      1  C   UNL d   1       2.416   0.117  -2.587  0.00  0.00    -0.002 A 
ATOM      2  C1  UNL d   1       1.740   1.327  -2.534  0.00  0.00     0.010 A 
ATOM      3  C2  UNL d   1       0.579   1.459  -1.770  0.00  0.00     0.041 A 
ATOM      4  C3  UNL d   1       0.105   0.343  -1.052  0.00  0.00    -0.075 A 
ATOM      5  S   UNL d   1      -1.296   0.271  -0.049  0.00  0.00     0.015 SA
ATOM      6  C4  UNL d   1      -1.029  -1.368   0.333  0.00  0.00     0.022 A 
ATOM      7  C5  UNL d   1       0.096  -1.864  -0.282  0.00  0.00     0.026 A 
ATOM      8  C6  UNL d   1       0.769  -0.886  -1.089  0.00  0.00    -0.082 A 
ATOM      9  C7  UNL d   1       1.943  -0.988  -1.874  0.00  0.00     0.045 A 
ENDROOT
TORSDOF 0
ENDMDL
