MODEL 1
REMARK minimizedAffinity -4.51420403
REMARK minimizedRMSD -1
REMARK  0 active torsions:
REMARK  status: ('A' for Active; 'I' for Inactive)
ROOT
ATOM      1  C   UNL d   1       2.894   0.058  -1.825  0.00  0.00    -0.002 A 
ATOM      2  C1  UNL d   1       2.250   1.257  -2.093  0.00  0.00     0.010 A 
ATOM      3  C2  UNL d   1       0.983   1.517  -1.567  0.00  0.00     0.041 A 
ATOM      4  C3  UNL d   1       0.370   0.542  -0.755  0.00  0.00    -0.075 A 
ATOM      5  S   UNL d   1      -1.177   0.641  -0.001  0.00  0.00     0.015 SA
ATOM      6  C4  UNL d   1      -1.019  -0.906   0.697  0.00  0.00     0.022 A 
ATOM      7  C5  UNL d   1       0.179  -1.498   0.372  0.00  0.00     0.026 A 
ATOM      8  C6  UNL d   1       0.999  -0.673  -0.470  0.00  0.00    -0.082 A 
ATOM      9  C7  UNL d   1       2.283  -0.907  -1.020  0.00  0.00     0.045 A 
ENDROOT
TORSDOF 0
ENDMDL
