MODEL 1
REMARK minimizedAffinity -3.36341596
REMARK minimizedRMSD -1
REMARK  0 active torsions:
REMARK  status: ('A' for Active; 'I' for Inactive)
ROOT
ATOM      1  C   UNL d   1       2.796   0.741  -1.538  0.00  0.00    -0.002 A 
ATOM      2  C1  UNL d   1       2.746  -0.640  -1.663  0.00  0.00     0.010 A 
ATOM      3  C2  UNL d   1       1.590  -1.343  -1.319  0.00  0.00     0.041 A 
ATOM      4  C3  UNL d   1       0.473  -0.627  -0.844  0.00  0.00    -0.075 A 
ATOM      5  S   UNL d   1      -1.050  -1.277  -0.363  0.00  0.00     0.015 SA
ATOM      6  C4  UNL d   1      -1.671   0.264   0.018  0.00  0.00     0.022 A 
ATOM      7  C5  UNL d   1      -0.752   1.261  -0.210  0.00  0.00     0.026 A 
ATOM      8  C6  UNL d   1       0.498   0.764  -0.711  0.00  0.00    -0.082 A 
ATOM      9  C7  UNL d   1       1.686   1.448  -1.067  0.00  0.00     0.045 A 
ENDROOT
TORSDOF 0
ENDMDL
