MODEL 1
REMARK minimizedAffinity -4.21247387
REMARK minimizedRMSD -1
REMARK  0 active torsions:
REMARK  status: ('A' for Active; 'I' for Inactive)
ROOT
ATOM      1  C   UNL d   1       0.723  -0.899  -0.802  0.00  0.00    -0.002 A 
ATOM      2  C1  UNL d   1       1.221   0.396  -0.832  0.00  0.00     0.010 A 
ATOM      3  C2  UNL d   1       0.664   1.390  -0.025  0.00  0.00     0.041 A 
ATOM      4  C3  UNL d   1      -0.411   1.057   0.822  0.00  0.00    -0.075 A 
ATOM      5  S   UNL d   1      -1.250   2.109   1.900  0.00  0.00     0.015 SA
ATOM      6  C4  UNL d   1      -2.289   0.865   2.426  0.00  0.00     0.022 A 
ATOM      7  C5  UNL d   1      -2.016  -0.331   1.805  0.00  0.00     0.026 A 
ATOM      8  C6  UNL d   1      -0.929  -0.240   0.871  0.00  0.00    -0.082 A 
ATOM      9  C7  UNL d   1      -0.343  -1.226   0.040  0.00  0.00     0.045 A 
ENDROOT
TORSDOF 0
ENDMDL
