MODEL 1
REMARK minimizedAffinity -5.34503078
REMARK minimizedRMSD -1
REMARK  0 active torsions:
REMARK  status: ('A' for Active; 'I' for Inactive)
ROOT
ATOM      1  C   UNL d   1       2.911   0.786  -2.707  0.00  0.00    -0.002 A 
ATOM      2  C1  UNL d   1       1.854   1.683  -2.644  0.00  0.00     0.010 A 
ATOM      3  C2  UNL d   1       0.747   1.421  -1.835  0.00  0.00     0.041 A 
ATOM      4  C3  UNL d   1       0.721   0.231  -1.081  0.00  0.00    -0.075 A 
ATOM      5  S   UNL d   1      -0.530  -0.300  -0.020  0.00  0.00     0.015 SA
ATOM      6  C4  UNL d   1       0.309  -1.729   0.376  0.00  0.00     0.022 A 
ATOM      7  C5  UNL d   1       1.516  -1.816  -0.277  0.00  0.00     0.026 A 
ATOM      8  C6  UNL d   1       1.774  -0.687  -1.127  0.00  0.00    -0.082 A 
ATOM      9  C7  UNL d   1       2.882  -0.393  -1.957  0.00  0.00     0.045 A 
ENDROOT
TORSDOF 0
ENDMDL
