MODEL 1
REMARK minimizedAffinity -3.85983324
REMARK minimizedRMSD -1
REMARK  0 active torsions:
REMARK  status: ('A' for Active; 'I' for Inactive)
ROOT
ATOM      1  C   UNL d   1       2.841  -0.719  -2.126  0.00  0.00    -0.002 A 
ATOM      2  C1  UNL d   1       2.745   0.664  -2.169  0.00  0.00     0.010 A 
ATOM      3  C2  UNL d   1       1.754   1.331  -1.444  0.00  0.00     0.041 A 
ATOM      4  C3  UNL d   1       0.854   0.575  -0.667  0.00  0.00    -0.075 A 
ATOM      5  S   UNL d   1      -0.438   1.175   0.303  0.00  0.00     0.015 SA
ATOM      6  C4  UNL d   1      -0.893  -0.391   0.798  0.00  0.00     0.022 A 
ATOM      7  C5  UNL d   1      -0.090  -1.360   0.246  0.00  0.00     0.026 A 
ATOM      8  C6  UNL d   1       0.931  -0.819  -0.607  0.00  0.00    -0.082 A 
ATOM      9  C7  UNL d   1       1.946  -1.465  -1.354  0.00  0.00     0.045 A 
ENDROOT
TORSDOF 0
ENDMDL
