MODEL 1
REMARK minimizedAffinity -5.7557373
REMARK minimizedRMSD -1
REMARK  0 active torsions:
REMARK  status: ('A' for Active; 'I' for Inactive)
ROOT
ATOM      1  C   UNL d   1       2.650   0.475  -2.151  0.00  0.00    -0.002 A 
ATOM      2  C1  UNL d   1       1.912   1.643  -2.276  0.00  0.00     0.010 A 
ATOM      3  C2  UNL d   1       0.676   1.773  -1.640  0.00  0.00     0.041 A 
ATOM      4  C3  UNL d   1       0.190   0.700  -0.867  0.00  0.00    -0.075 A 
ATOM      5  S   UNL d   1      -1.297   0.634   0.003  0.00  0.00     0.015 SA
ATOM      6  C4  UNL d   1      -0.987  -0.946   0.561  0.00  0.00     0.022 A 
ATOM      7  C5  UNL d   1       0.217  -1.427   0.104  0.00  0.00     0.026 A 
ATOM      8  C6  UNL d   1       0.916  -0.486  -0.726  0.00  0.00    -0.082 A 
ATOM      9  C7  UNL d   1       2.165  -0.588  -1.384  0.00  0.00     0.045 A 
ENDROOT
TORSDOF 0
ENDMDL
