MODEL 1
REMARK minimizedAffinity -2.44207811
REMARK minimizedRMSD -1
REMARK  0 active torsions:
REMARK  status: ('A' for Active; 'I' for Inactive)
ROOT
ATOM      1  C   UNL d   1       0.154  -2.325   0.030  0.00  0.00    -0.002 A 
ATOM      2  C1  UNL d   1       1.463  -2.019  -0.318  0.00  0.00     0.010 A 
ATOM      3  C2  UNL d   1       1.797  -0.742  -0.772  0.00  0.00     0.041 A 
ATOM      4  C3  UNL d   1       0.786   0.234  -0.868  0.00  0.00    -0.075 A 
ATOM      5  S   UNL d   1       0.962   1.865  -1.397  0.00  0.00     0.015 SA
ATOM      6  C4  UNL d   1      -0.695   2.196  -1.172  0.00  0.00     0.022 A 
ATOM      7  C5  UNL d   1      -1.381   1.100  -0.705  0.00  0.00     0.026 A 
ATOM      8  C6  UNL d   1      -0.539  -0.049  -0.522  0.00  0.00    -0.082 A 
ATOM      9  C7  UNL d   1      -0.846  -1.354  -0.066  0.00  0.00     0.045 A 
ENDROOT
TORSDOF 0
ENDMDL
