MODEL 1
REMARK minimizedAffinity -2.91870499
REMARK minimizedRMSD -1
REMARK  0 active torsions:
REMARK  status: ('A' for Active; 'I' for Inactive)
ROOT
ATOM      1  N1  IND d   1       0.005   1.416   0.403  0.00  0.00    -0.196 N 
ATOM      2  C2  IND d   1      -1.136   1.082   1.077  0.00  0.00     0.054 A 
ATOM      3  C3  IND d   1      -1.399  -0.236   0.932  0.00  0.00    -0.031 A 
ATOM      4  C4  IND d   1      -0.037  -2.052  -0.283  0.00  0.00     0.051 A 
ATOM      5  C5  IND d   1       1.062  -2.223  -1.077  0.00  0.00    -0.031 A 
ATOM      6  C6  IND d   1       1.882  -1.170  -1.424  0.00  0.00     0.015 A 
ATOM      7  C7  IND d   1       1.640   0.099  -0.978  0.00  0.00    -0.016 A 
ATOM      8  C8  IND d   1       0.522   0.278  -0.176  0.00  0.00    -0.047 A 
ATOM      9  C9  IND d   1      -0.339  -0.780   0.144  0.00  0.00    -0.096 A 
ATOM     10  HN1 IND d   1       0.344   2.205   0.349  0.00  0.00     0.298 HD
ENDROOT
TORSDOF 0
ENDMDL
