MODEL 1
REMARK minimizedAffinity -0.205344275
REMARK minimizedRMSD -1
REMARK  0 active torsions:
REMARK  status: ('A' for Active; 'I' for Inactive)
ROOT
ATOM      1  N1  IND d   1       2.392  -2.524  -1.106  0.00  0.00    -0.196 N 
ATOM      2  C2  IND d   1       3.373  -1.674  -1.535  0.00  0.00     0.054 A 
ATOM      3  C3  IND d   1       3.021  -0.390  -1.297  0.00  0.00    -0.031 A 
ATOM      4  C4  IND d   1       0.927   0.540  -0.123  0.00  0.00     0.051 A 
ATOM      5  C5  IND d   1      -0.271   0.153   0.410  0.00  0.00    -0.031 A 
ATOM      6  C6  IND d   1      -0.649  -1.173   0.468  0.00  0.00     0.015 A 
ATOM      7  C7  IND d   1       0.166  -2.167   0.004  0.00  0.00    -0.016 A 
ATOM      8  C8  IND d   1       1.380  -1.777  -0.544  0.00  0.00    -0.047 A 
ATOM      9  C9  IND d   1       1.750  -0.430  -0.645  0.00  0.00    -0.096 A 
ATOM     10  HN1 IND d   1       2.405  -3.381  -1.176  0.00  0.00     0.298 HD
ENDROOT
TORSDOF 0
ENDMDL
