MODEL 1
REMARK minimizedAffinity -2.33120799
REMARK minimizedRMSD -1
REMARK  0 active torsions:
REMARK  status: ('A' for Active; 'I' for Inactive)
ROOT
ATOM      1  N1  IND d   1      -0.684   1.374   0.005  0.00  0.00    -0.196 N 
ATOM      2  C2  IND d   1      -1.544   0.428   0.491  0.00  0.00     0.054 A 
ATOM      3  C3  IND d   1      -1.040  -0.811   0.293  0.00  0.00    -0.031 A 
ATOM      4  C4  IND d   1       1.221  -1.516  -0.716  0.00  0.00     0.051 A 
ATOM      5  C5  IND d   1       2.330  -1.009  -1.333  0.00  0.00    -0.031 A 
ATOM      6  C6  IND d   1       2.496   0.346  -1.537  0.00  0.00     0.015 A 
ATOM      7  C7  IND d   1       1.559   1.249  -1.120  0.00  0.00    -0.016 A 
ATOM      8  C8  IND d   1       0.429   0.737  -0.499  0.00  0.00    -0.047 A 
ATOM      9  C9  IND d   1       0.235  -0.640  -0.327  0.00  0.00    -0.096 A 
ATOM     10  HN1 IND d   1      -0.816   2.223   0.013  0.00  0.00     0.298 HD
ENDROOT
TORSDOF 0
ENDMDL
