MODEL 1
REMARK minimizedAffinity -3.70328188
REMARK minimizedRMSD -1
REMARK  0 active torsions:
REMARK  status: ('A' for Active; 'I' for Inactive)
ROOT
ATOM      1  N1  IND d   1      -0.223   1.484  -0.018  0.00  0.00    -0.196 N 
ATOM      2  C2  IND d   1      -1.395   0.885   0.351  0.00  0.00     0.054 A 
ATOM      3  C3  IND d   1      -1.299  -0.457   0.221  0.00  0.00    -0.031 A 
ATOM      4  C4  IND d   1       0.720  -1.892  -0.482  0.00  0.00     0.051 A 
ATOM      5  C5  IND d   1       2.001  -1.794  -0.948  0.00  0.00    -0.031 A 
ATOM      6  C6  IND d   1       2.619  -0.574  -1.130  0.00  0.00     0.015 A 
ATOM      7  C7  IND d   1       1.981   0.599  -0.839  0.00  0.00    -0.016 A 
ATOM      8  C8  IND d   1       0.678   0.503  -0.372  0.00  0.00    -0.047 A 
ATOM      9  C9  IND d   1       0.030  -0.730  -0.226  0.00  0.00    -0.096 A 
ATOM     10  HN1 IND d   1      -0.073   2.330  -0.028  0.00  0.00     0.298 HD
ENDROOT
TORSDOF 0
ENDMDL
