MODEL 1
REMARK minimizedAffinity -3.84388757
REMARK minimizedRMSD -1
REMARK  0 active torsions:
REMARK  status: ('A' for Active; 'I' for Inactive)
ROOT
ATOM      1  N1  IND d   1      -1.201  -0.269   0.127  0.00  0.00    -0.196 N 
ATOM      2  C2  IND d   1      -1.291   1.095   0.117  0.00  0.00     0.054 A 
ATOM      3  C3  IND d   1      -0.096   1.642  -0.202  0.00  0.00    -0.031 A 
ATOM      4  C4  IND d   1       2.113   0.486  -0.844  0.00  0.00     0.051 A 
ATOM      5  C5  IND d   1       2.696  -0.746  -0.940  0.00  0.00    -0.031 A 
ATOM      6  C6  IND d   1       1.994  -1.907  -0.682  0.00  0.00     0.015 A 
ATOM      7  C7  IND d   1       0.675  -1.878  -0.329  0.00  0.00    -0.016 A 
ATOM      8  C8  IND d   1       0.082  -0.628  -0.223  0.00  0.00    -0.047 A 
ATOM      9  C9  IND d   1       0.800   0.555  -0.442  0.00  0.00    -0.096 A 
ATOM     10  HN1 IND d   1      -1.839  -0.813   0.321  0.00  0.00     0.298 HD
ENDROOT
TORSDOF 0
ENDMDL
