MODEL 1
REMARK minimizedAffinity -2.05412483
REMARK minimizedRMSD -1
REMARK  0 active torsions:
REMARK  status: ('A' for Active; 'I' for Inactive)
ROOT
ATOM      1  N1  IND d   1       2.680   0.398  -1.345  0.00  0.00    -0.196 N 
ATOM      2  C2  IND d   1       3.124  -0.845  -1.703  0.00  0.00     0.054 A 
ATOM      3  C3  IND d   1       2.225  -1.787  -1.339  0.00  0.00    -0.031 A 
ATOM      4  C4  IND d   1      -0.085  -1.507  -0.238  0.00  0.00     0.051 A 
ATOM      5  C5  IND d   1      -0.910  -0.565   0.309  0.00  0.00    -0.031 A 
ATOM      6  C6  IND d   1      -0.575   0.773   0.332  0.00  0.00     0.015 A 
ATOM      7  C7  IND d   1       0.598   1.223  -0.205  0.00  0.00    -0.016 A 
ATOM      8  C8  IND d   1       1.441   0.269  -0.756  0.00  0.00    -0.047 A 
ATOM      9  C9  IND d   1       1.126  -1.096  -0.744  0.00  0.00    -0.096 A 
ATOM     10  HN1 IND d   1       3.104   1.136  -1.466  0.00  0.00     0.298 HD
ENDROOT
TORSDOF 0
ENDMDL
