MODEL 1
REMARK minimizedAffinity -3.84601974
REMARK minimizedRMSD -1
REMARK  0 active torsions:
REMARK  status: ('A' for Active; 'I' for Inactive)
ROOT
ATOM      1  N1  IND d   1       2.568  -1.480  -0.875  0.00  0.00    -0.196 N 
ATOM      2  C2  IND d   1       3.245  -0.322  -1.137  0.00  0.00     0.054 A 
ATOM      3  C3  IND d   1       2.479   0.750  -0.833  0.00  0.00    -0.031 A 
ATOM      4  C4  IND d   1       0.124   0.835   0.202  0.00  0.00     0.051 A 
ATOM      5  C5  IND d   1      -0.915   0.034   0.583  0.00  0.00    -0.031 A 
ATOM      6  C6  IND d   1      -0.844  -1.342   0.499  0.00  0.00     0.015 A 
ATOM      7  C7  IND d   1       0.279  -1.970   0.038  0.00  0.00    -0.016 A 
ATOM      8  C8  IND d   1       1.333  -1.158  -0.356  0.00  0.00    -0.047 A 
ATOM      9  C9  IND d   1       1.251   0.239  -0.313  0.00  0.00    -0.096 A 
ATOM     10  HN1 IND d   1       2.864  -2.276  -1.011  0.00  0.00     0.298 HD
ENDROOT
TORSDOF 0
ENDMDL
