MODEL 1
REMARK minimizedAffinity -1.2914418
REMARK minimizedRMSD -1
REMARK  0 active torsions:
REMARK  status: ('A' for Active; 'I' for Inactive)
ROOT
ATOM      1  N1  IND d   1       2.273   0.153  -0.711  0.00  0.00    -0.196 N 
ATOM      2  C2  IND d   1       2.636  -1.127  -1.029  0.00  0.00     0.054 A 
ATOM      3  C3  IND d   1       1.603  -1.974  -0.819  0.00  0.00    -0.031 A 
ATOM      4  C4  IND d   1      -0.802  -1.465  -0.055  0.00  0.00     0.051 A 
ATOM      5  C5  IND d   1      -1.598  -0.446   0.389  0.00  0.00    -0.031 A 
ATOM      6  C6  IND d   1      -1.136   0.850   0.489  0.00  0.00     0.015 A 
ATOM      7  C7  IND d   1       0.142   1.180   0.135  0.00  0.00    -0.016 A 
ATOM      8  C8  IND d   1       0.955   0.148  -0.309  0.00  0.00    -0.047 A 
ATOM      9  C9  IND d   1       0.505  -1.177  -0.372  0.00  0.00    -0.096 A 
ATOM     10  HN1 IND d   1       2.782   0.844  -0.755  0.00  0.00     0.298 HD
ENDROOT
TORSDOF 0
ENDMDL
