MODEL 1
REMARK minimizedAffinity -2.57145786
REMARK minimizedRMSD -1
REMARK  0 active torsions:
REMARK  status: ('A' for Active; 'I' for Inactive)
ROOT
ATOM      1  N1  IND d   1       0.495   0.823   1.124  0.00  0.00    -0.196 N 
ATOM      2  C2  IND d   1       0.077   0.284  -0.061  0.00  0.00     0.054 A 
ATOM      3  C3  IND d   1      -1.203  -0.140   0.041  0.00  0.00    -0.031 A 
ATOM      4  C4  IND d   1      -2.833   0.042   2.025  0.00  0.00     0.051 A 
ATOM      5  C5  IND d   1      -2.897   0.425   3.336  0.00  0.00    -0.031 A 
ATOM      6  C6  IND d   1      -1.812   0.974   3.988  0.00  0.00     0.015 A 
ATOM      7  C7  IND d   1      -0.621   1.171   3.348  0.00  0.00    -0.016 A 
ATOM      8  C8  IND d   1      -0.551   0.777   2.020  0.00  0.00    -0.047 A 
ATOM      9  C9  IND d   1      -1.636   0.181   1.364  0.00  0.00    -0.096 A 
ATOM     10  HN1 IND d   1       1.279   1.137   1.283  0.00  0.00     0.298 HD
ENDROOT
TORSDOF 0
ENDMDL
