MODEL 1
REMARK minimizedAffinity -2.00015688
REMARK minimizedRMSD -1
REMARK  0 active torsions:
REMARK  status: ('A' for Active; 'I' for Inactive)
ROOT
ATOM      1  N1  IND d   1       0.441   1.270   0.682  0.00  0.00    -0.196 N 
ATOM      2  C2  IND d   1       0.133   0.371  -0.301  0.00  0.00     0.054 A 
ATOM      3  C3  IND d   1      -1.013  -0.280  -0.001  0.00  0.00    -0.031 A 
ATOM      4  C4  IND d   1      -2.602   0.044   1.999  0.00  0.00     0.051 A 
ATOM      5  C5  IND d   1      -2.725   0.725   3.178  0.00  0.00    -0.031 A 
ATOM      6  C6  IND d   1      -1.781   1.642   3.592  0.00  0.00     0.015 A 
ATOM      7  C7  IND d   1      -0.680   1.923   2.834  0.00  0.00    -0.016 A 
ATOM      8  C8  IND d   1      -0.548   1.229   1.639  0.00  0.00    -0.047 A 
ATOM      9  C9  IND d   1      -1.481   0.266   1.234  0.00  0.00    -0.096 A 
ATOM     10  HN1 IND d   1       1.136   1.776   0.698  0.00  0.00     0.298 HD
ENDROOT
TORSDOF 0
ENDMDL
