MODEL 1
REMARK minimizedAffinity -4.35666084
REMARK minimizedRMSD -1
REMARK  0 active torsions:
REMARK  status: ('A' for Active; 'I' for Inactive)
ROOT
ATOM      1  N1  IND d   1       2.224  -1.801  -1.392  0.00  0.00    -0.196 N 
ATOM      2  C2  IND d   1       3.271  -0.925  -1.466  0.00  0.00     0.054 A 
ATOM      3  C3  IND d   1       2.931   0.261  -0.912  0.00  0.00    -0.031 A 
ATOM      4  C4  IND d   1       0.748   0.951   0.264  0.00  0.00     0.051 A 
ATOM      5  C5  IND d   1      -0.512   0.502   0.547  0.00  0.00    -0.031 A 
ATOM      6  C6  IND d   1      -0.931  -0.764   0.192  0.00  0.00     0.015 A 
ATOM      7  C7  IND d   1      -0.099  -1.636  -0.450  0.00  0.00    -0.016 A 
ATOM      8  C8  IND d   1       1.178  -1.182  -0.745  0.00  0.00    -0.047 A 
ATOM      9  C9  IND d   1       1.596   0.117  -0.426  0.00  0.00    -0.096 A 
ATOM     10  HN1 IND d   1       2.220  -2.605  -1.699  0.00  0.00     0.298 HD
ENDROOT
TORSDOF 0
ENDMDL
