MODEL 1
REMARK minimizedAffinity -5.80302286
REMARK minimizedRMSD -1
REMARK  0 active torsions:
REMARK  status: ('A' for Active; 'I' for Inactive)
ROOT
ATOM      1  N1  IND d   1       1.406  -1.077  -0.196  0.00  0.00    -0.196 N 
ATOM      2  C2  IND d   1       2.576  -0.634  -0.747  0.00  0.00     0.054 A 
ATOM      3  C3  IND d   1       2.363   0.499  -1.453  0.00  0.00    -0.031 A 
ATOM      4  C4  IND d   1       0.197   1.856  -1.755  0.00  0.00     0.051 A 
ATOM      5  C5  IND d   1      -1.140   1.829  -1.471  0.00  0.00    -0.031 A 
ATOM      6  C6  IND d   1      -1.707   0.812  -0.730  0.00  0.00     0.015 A 
ATOM      7  C7  IND d   1      -0.954  -0.214  -0.234  0.00  0.00    -0.016 A 
ATOM      8  C8  IND d   1       0.403  -0.193  -0.526  0.00  0.00    -0.047 A 
ATOM      9  C9  IND d   1       0.977   0.814  -1.313  0.00  0.00    -0.096 A 
ATOM     10  HN1 IND d   1       1.312  -1.789   0.277  0.00  0.00     0.298 HD
ENDROOT
TORSDOF 0
ENDMDL
