MODEL 1
REMARK minimizedAffinity -4.66123962
REMARK minimizedRMSD -1
REMARK  0 active torsions:
REMARK  status: ('A' for Active; 'I' for Inactive)
ROOT
ATOM      1  N1  IND d   1      -0.401   1.410  -0.031  0.00  0.00    -0.196 N 
ATOM      2  C2  IND d   1      -1.429   0.646   0.446  0.00  0.00     0.054 A 
ATOM      3  C3  IND d   1      -1.098  -0.664   0.410  0.00  0.00    -0.031 A 
ATOM      4  C4  IND d   1       1.114  -1.773  -0.298  0.00  0.00     0.051 A 
ATOM      5  C5  IND d   1       2.336  -1.490  -0.842  0.00  0.00    -0.031 A 
ATOM      6  C6  IND d   1       2.716  -0.199  -1.147  0.00  0.00     0.015 A 
ATOM      7  C7  IND d   1       1.890   0.863  -0.907  0.00  0.00    -0.016 A 
ATOM      8  C8  IND d   1       0.646   0.578  -0.362  0.00  0.00    -0.047 A 
ATOM      9  C9  IND d   1       0.238  -0.734  -0.090  0.00  0.00    -0.096 A 
ATOM     10  HN1 IND d   1      -0.407   2.266  -0.111  0.00  0.00     0.298 HD
ENDROOT
TORSDOF 0
ENDMDL
