MODEL 1
REMARK minimizedAffinity -5.18269682
REMARK minimizedRMSD -1
REMARK  0 active torsions:
REMARK  status: ('A' for Active; 'I' for Inactive)
ROOT
ATOM      1  N1  IND d   1      -0.954   1.064  -0.787  0.00  0.00    -0.196 N 
ATOM      2  C2  IND d   1      -0.413   2.133  -1.445  0.00  0.00     0.054 A 
ATOM      3  C3  IND d   1       0.883   1.894  -1.744  0.00  0.00    -0.031 A 
ATOM      4  C4  IND d   1       2.292  -0.223  -1.339  0.00  0.00     0.051 A 
ATOM      5  C5  IND d   1       2.244  -1.450  -0.739  0.00  0.00    -0.031 A 
ATOM      6  C6  IND d   1       1.104  -1.912  -0.114  0.00  0.00     0.015 A 
ATOM      7  C7  IND d   1      -0.039  -1.166  -0.076  0.00  0.00    -0.016 A 
ATOM      8  C8  IND d   1       0.007   0.084  -0.678  0.00  0.00    -0.047 A 
ATOM      9  C9  IND d   1       1.174   0.576  -1.276  0.00  0.00    -0.096 A 
ATOM     10  HN1 IND d   1      -1.760   1.012  -0.491  0.00  0.00     0.298 HD
ENDROOT
TORSDOF 0
ENDMDL
