MODEL 1
REMARK minimizedAffinity -4.174016
REMARK minimizedRMSD -1
REMARK  0 active torsions:
REMARK  status: ('A' for Active; 'I' for Inactive)
ROOT
ATOM      1  N1  IND d   1      -0.398   1.036  -0.458  0.00  0.00    -0.196 N 
ATOM      2  C2  IND d   1      -1.069   0.069   0.238  0.00  0.00     0.054 A 
ATOM      3  C3  IND d   1      -0.417  -1.112   0.151  0.00  0.00    -0.031 A 
ATOM      4  C4  IND d   1       1.821  -1.664  -0.995  0.00  0.00     0.051 A 
ATOM      5  C5  IND d   1       2.788  -1.115  -1.790  0.00  0.00    -0.031 A 
ATOM      6  C6  IND d   1       2.744   0.205  -2.187  0.00  0.00     0.015 A 
ATOM      7  C7  IND d   1       1.731   1.034  -1.793  0.00  0.00    -0.016 A 
ATOM      8  C8  IND d   1       0.743   0.479  -0.992  0.00  0.00    -0.047 A 
ATOM      9  C9  IND d   1       0.761  -0.872  -0.621  0.00  0.00    -0.096 A 
ATOM     10  HN1 IND d   1      -0.646   1.854  -0.547  0.00  0.00     0.298 HD
ENDROOT
TORSDOF 0
ENDMDL
