MODEL 1
REMARK minimizedAffinity -5.53816938
REMARK minimizedRMSD -1
REMARK  0 active torsions:
REMARK  status: ('A' for Active; 'I' for Inactive)
ROOT
ATOM      1  N1  IND d   1      -0.712   0.836   0.056  0.00  0.00    -0.196 N 
ATOM      2  C2  IND d   1      -1.262  -0.368   0.397  0.00  0.00     0.054 A 
ATOM      3  C3  IND d   1      -0.404  -1.374   0.114  0.00  0.00    -0.031 A 
ATOM      4  C4  IND d   1       1.994  -1.266  -0.816  0.00  0.00     0.051 A 
ATOM      5  C5  IND d   1       2.918  -0.390  -1.313  0.00  0.00    -0.031 A 
ATOM      6  C6  IND d   1       2.675   0.967  -1.379  0.00  0.00     0.015 A 
ATOM      7  C7  IND d   1       1.499   1.502  -0.936  0.00  0.00    -0.016 A 
ATOM      8  C8  IND d   1       0.556   0.615  -0.437  0.00  0.00    -0.047 A 
ATOM      9  C9  IND d   1       0.780  -0.767  -0.407  0.00  0.00    -0.096 A 
ATOM     10  HN1 IND d   1      -1.093   1.603   0.136  0.00  0.00     0.298 HD
ENDROOT
TORSDOF 0
ENDMDL
