MODEL 1
REMARK minimizedAffinity -1.90180933
REMARK minimizedRMSD -1
REMARK  0 active torsions:
REMARK  status: ('A' for Active; 'I' for Inactive)
ROOT
ATOM      1  N1  IND d   1      -1.278  -0.699   1.097  0.00  0.00    -0.196 N 
ATOM      2  C2  IND d   1      -1.510   0.648   1.099  0.00  0.00     0.054 A 
ATOM      3  C3  IND d   1      -0.628   1.279   0.292  0.00  0.00    -0.031 A 
ATOM      4  C4  IND d   1       1.216   0.287  -1.206  0.00  0.00     0.051 A 
ATOM      5  C5  IND d   1       1.834  -0.892  -1.516  0.00  0.00    -0.031 A 
ATOM      6  C6  IND d   1       1.436  -2.091  -0.962  0.00  0.00     0.015 A 
ATOM      7  C7  IND d   1       0.394  -2.158  -0.082  0.00  0.00    -0.016 A 
ATOM      8  C8  IND d   1      -0.231  -0.962   0.241  0.00  0.00    -0.047 A 
ATOM      9  C9  IND d   1       0.195   0.264  -0.285  0.00  0.00    -0.096 A 
ATOM     10  HN1 IND d   1      -1.712  -1.283   1.554  0.00  0.00     0.298 HD
ENDROOT
TORSDOF 0
ENDMDL
