MODEL 1
REMARK minimizedAffinity -4.15619135
REMARK minimizedRMSD -1
REMARK  0 active torsions:
REMARK  status: ('A' for Active; 'I' for Inactive)
ROOT
ATOM      1  N1  IND d   1       2.252   0.335  -1.429  0.00  0.00    -0.196 N 
ATOM      2  C2  IND d   1       2.842  -0.898  -1.458  0.00  0.00     0.054 A 
ATOM      3  C3  IND d   1       2.056  -1.809  -0.843  0.00  0.00    -0.031 A 
ATOM      4  C4  IND d   1      -0.283  -1.519   0.193  0.00  0.00     0.051 A 
ATOM      5  C5  IND d   1      -1.218  -0.568   0.492  0.00  0.00    -0.031 A 
ATOM      6  C6  IND d   1      -1.042   0.758   0.157  0.00  0.00     0.015 A 
ATOM      7  C7  IND d   1       0.076   1.184  -0.503  0.00  0.00    -0.016 A 
ATOM      8  C8  IND d   1       1.031   0.223  -0.802  0.00  0.00    -0.047 A 
ATOM      9  C9  IND d   1       0.877  -1.118  -0.426  0.00  0.00    -0.096 A 
ATOM     10  HN1 IND d   1       2.588   1.060  -1.748  0.00  0.00     0.298 HD
ENDROOT
TORSDOF 0
ENDMDL
