MODEL 1
REMARK minimizedAffinity -2.56838274
REMARK minimizedRMSD -1
REMARK  0 active torsions:
REMARK  status: ('A' for Active; 'I' for Inactive)
ROOT
ATOM      1  N1  IND d   1       1.724  -0.378  -1.516  0.00  0.00    -0.196 N 
ATOM      2  C2  IND d   1       1.759  -1.617  -0.940  0.00  0.00     0.054 A 
ATOM      3  C3  IND d   1       0.748  -1.753  -0.053  0.00  0.00    -0.031 A 
ATOM      4  C4  IND d   1      -1.141  -0.107   0.537  0.00  0.00     0.051 A 
ATOM      5  C5  IND d   1      -1.573   1.168   0.298  0.00  0.00    -0.031 A 
ATOM      6  C6  IND d   1      -0.917   2.008  -0.578  0.00  0.00     0.015 A 
ATOM      7  C7  IND d   1       0.195   1.599  -1.259  0.00  0.00    -0.016 A 
ATOM      8  C8  IND d   1       0.641   0.308  -1.013  0.00  0.00    -0.047 A 
ATOM      9  C9  IND d   1       0.004  -0.534  -0.093  0.00  0.00    -0.096 A 
ATOM     10  HN1 IND d   1       2.285  -0.077  -2.095  0.00  0.00     0.298 HD
ENDROOT
TORSDOF 0
ENDMDL
