MODEL 1
REMARK minimizedAffinity -2.66779137
REMARK minimizedRMSD -1
REMARK  0 active torsions:
REMARK  status: ('A' for Active; 'I' for Inactive)
ROOT
ATOM      1  N1  IND d   1       0.048   2.076  -2.122  0.00  0.00    -0.196 N 
ATOM      2  C2  IND d   1      -1.215   2.219  -1.620  0.00  0.00     0.054 A 
ATOM      3  C3  IND d   1      -1.394   1.404  -0.556  0.00  0.00    -0.031 A 
ATOM      4  C4  IND d   1       0.283  -0.175   0.594  0.00  0.00     0.051 A 
ATOM      5  C5  IND d   1       1.550  -0.673   0.475  0.00  0.00    -0.031 A 
ATOM      6  C6  IND d   1       2.399  -0.270  -0.536  0.00  0.00     0.015 A 
ATOM      7  C7  IND d   1       2.015   0.658  -1.461  0.00  0.00    -0.016 A 
ATOM      8  C8  IND d   1       0.727   1.161  -1.347  0.00  0.00    -0.047 A 
ATOM      9  C9  IND d   1      -0.154   0.725  -0.349  0.00  0.00    -0.096 A 
ATOM     10  HN1 IND d   1       0.365   2.487  -2.808  0.00  0.00     0.298 HD
ENDROOT
TORSDOF 0
ENDMDL
