MODEL 1
REMARK minimizedAffinity -3.72817636
REMARK minimizedRMSD -1
REMARK  0 active torsions:
REMARK  status: ('A' for Active; 'I' for Inactive)
ROOT
ATOM      1  C1  BNZ d   1      -0.067  -1.197   0.743  0.00  0.00     0.000 A 
ATOM      2  C2  BNZ d   1       0.432  -2.219   1.507  0.00  0.00     0.000 A 
ATOM      3  C3  BNZ d   1       1.780  -2.422   1.609  0.00  0.00     0.000 A 
ATOM      4  C4  BNZ d   1       2.624  -1.630   0.917  0.00  0.00     0.000 A 
ATOM      5  C5  BNZ d   1       2.136  -0.602   0.135  0.00  0.00     0.000 A 
ATOM      6  C6  BNZ d   1       0.781  -0.376   0.065  0.00  0.00     0.000 A 
ENDROOT
TORSDOF 0
ENDMDL
