MODEL 1
REMARK minimizedAffinity -4.23488474
REMARK minimizedRMSD -1
REMARK  0 active torsions:
REMARK  status: ('A' for Active; 'I' for Inactive)
ROOT
ATOM      1  C1  BNZ d   1      -0.089   4.415  -3.177  0.00  0.00     0.000 A 
ATOM      2  C2  BNZ d   1      -0.970   3.703  -3.948  0.00  0.00     0.000 A 
ATOM      3  C3  BNZ d   1      -1.793   2.768  -3.387  0.00  0.00     0.000 A 
ATOM      4  C4  BNZ d   1      -1.708   2.517  -2.064  0.00  0.00     0.000 A 
ATOM      5  C5  BNZ d   1      -0.818   3.219  -1.276  0.00  0.00     0.000 A 
ATOM      6  C6  BNZ d   1      -0.018   4.187  -1.837  0.00  0.00     0.000 A 
ENDROOT
TORSDOF 0
ENDMDL
