MODEL 1
REMARK minimizedAffinity -3.85518026
REMARK minimizedRMSD -1
REMARK  0 active torsions:
REMARK  status: ('A' for Active; 'I' for Inactive)
ROOT
ATOM      1  C1  BNZ d   1       0.654   1.518  -0.269  0.00  0.00     0.000 A 
ATOM      2  C2  BNZ d   1       1.697   0.639  -0.145  0.00  0.00     0.000 A 
ATOM      3  C3  BNZ d   1       1.522  -0.574   0.459  0.00  0.00     0.000 A 
ATOM      4  C4  BNZ d   1       0.316  -0.891   0.974  0.00  0.00     0.000 A 
ATOM      5  C5  BNZ d   1      -0.743  -0.011   0.866  0.00  0.00     0.000 A 
ATOM      6  C6  BNZ d   1      -0.573   1.193   0.222  0.00  0.00     0.000 A 
ENDROOT
TORSDOF 0
ENDMDL
