MODEL 1
REMARK minimizedAffinity -3.37425351
REMARK minimizedRMSD -1
REMARK  0 active torsions:
REMARK  status: ('A' for Active; 'I' for Inactive)
ROOT
ATOM      1  C1  BNZ d   1      -2.764   2.500  -3.007  0.00  0.00     0.000 A 
ATOM      2  C2  BNZ d   1      -2.773   1.299  -2.349  0.00  0.00     0.000 A 
ATOM      3  C3  BNZ d   1      -1.663   0.854  -1.688  0.00  0.00     0.000 A 
ATOM      4  C4  BNZ d   1      -0.534   1.591  -1.719  0.00  0.00     0.000 A 
ATOM      5  C5  BNZ d   1      -0.506   2.800  -2.386  0.00  0.00     0.000 A 
ATOM      6  C6  BNZ d   1      -1.637   3.262  -3.018  0.00  0.00     0.000 A 
ENDROOT
TORSDOF 0
ENDMDL
