MODEL 1
REMARK minimizedAffinity -4.52166414
REMARK minimizedRMSD -1
REMARK  0 active torsions:
REMARK  status: ('A' for Active; 'I' for Inactive)
ROOT
ATOM      1  C1  BNZ d   1       1.275   0.097  -0.225  0.00  0.00     0.000 A 
ATOM      2  C2  BNZ d   1       1.296  -1.161   0.315  0.00  0.00     0.000 A 
ATOM      3  C3  BNZ d   1       0.220  -1.646   1.004  0.00  0.00     0.000 A 
ATOM      4  C4  BNZ d   1      -0.861  -0.859   1.184  0.00  0.00     0.000 A 
ATOM      5  C5  BNZ d   1      -0.894   0.415   0.653  0.00  0.00     0.000 A 
ATOM      6  C6  BNZ d   1       0.176   0.885  -0.072  0.00  0.00     0.000 A 
ENDROOT
TORSDOF 0
ENDMDL
