MODEL 1
REMARK minimizedAffinity -3.84307408
REMARK minimizedRMSD -1
REMARK  0 active torsions:
REMARK  status: ('A' for Active; 'I' for Inactive)
ROOT
ATOM      1  C1  BNZ d   1       0.768  -1.223   0.240  0.00  0.00     0.000 A 
ATOM      2  C2  BNZ d   1      -0.429  -0.864   0.801  0.00  0.00     0.000 A 
ATOM      3  C3  BNZ d   1      -0.852  -1.431   1.971  0.00  0.00     0.000 A 
ATOM      4  C4  BNZ d   1      -0.098  -2.384   2.556  0.00  0.00     0.000 A 
ATOM      5  C5  BNZ d   1       1.106  -2.764   1.997  0.00  0.00     0.000 A 
ATOM      6  C6  BNZ d   1       1.547  -2.163   0.841  0.00  0.00     0.000 A 
ENDROOT
TORSDOF 0
ENDMDL
