MODEL 1
REMARK minimizedAffinity -1.11171603
REMARK minimizedRMSD -1
REMARK  0 active torsions:
REMARK  status: ('A' for Active; 'I' for Inactive)
ROOT
ATOM      1  C1  BNZ d   1      -0.364  -1.939   1.038  0.00  0.00     0.000 A 
ATOM      2  C2  BNZ d   1       0.120  -1.167   0.015  0.00  0.00     0.000 A 
ATOM      3  C3  BNZ d   1      -0.305   0.122  -0.150  0.00  0.00     0.000 A 
ATOM      4  C4  BNZ d   1      -1.241   0.624   0.681  0.00  0.00     0.000 A 
ATOM      5  C5  BNZ d   1      -1.744  -0.145   1.712  0.00  0.00     0.000 A 
ATOM      6  C6  BNZ d   1      -1.286  -1.429   1.899  0.00  0.00     0.000 A 
ENDROOT
TORSDOF 0
ENDMDL
