MODEL 1
REMARK minimizedAffinity 1.69519019
REMARK minimizedRMSD -1
REMARK  0 active torsions:
REMARK  status: ('A' for Active; 'I' for Inactive)
ROOT
ATOM      1  C1  BNZ d   1      -0.041  -0.959   0.278  0.00  0.00     0.000 A 
ATOM      2  C2  BNZ d   1       0.403  -0.064  -0.659  0.00  0.00     0.000 A 
ATOM      3  C3  BNZ d   1      -0.212   1.147  -0.815  0.00  0.00     0.000 A 
ATOM      4  C4  BNZ d   1      -1.292   1.444  -0.065  0.00  0.00     0.000 A 
ATOM      5  C5  BNZ d   1      -1.757   0.548   0.877  0.00  0.00     0.000 A 
ATOM      6  C6  BNZ d   1      -1.112  -0.653   1.059  0.00  0.00     0.000 A 
ENDROOT
TORSDOF 0
ENDMDL
