MODEL 1
REMARK minimizedAffinity -5.30621147
REMARK minimizedRMSD -1
REMARK  0 active torsions:
REMARK  status: ('A' for Active; 'I' for Inactive)
ROOT
ATOM      1  C1  BNZ d   1      -1.246  -0.925   1.686  0.00  0.00     0.000 A 
ATOM      2  C2  BNZ d   1      -0.621  -1.855   2.473  0.00  0.00     0.000 A 
ATOM      3  C3  BNZ d   1       0.490  -2.515   2.027  0.00  0.00     0.000 A 
ATOM      4  C4  BNZ d   1       0.950  -2.274   0.782  0.00  0.00     0.000 A 
ATOM      5  C5  BNZ d   1       0.325  -1.346  -0.026  0.00  0.00     0.000 A 
ATOM      6  C6  BNZ d   1      -0.770  -0.655   0.440  0.00  0.00     0.000 A 
ENDROOT
TORSDOF 0
ENDMDL
