MODEL 1
REMARK minimizedAffinity -4.22082472
REMARK minimizedRMSD -1
REMARK  0 active torsions:
REMARK  status: ('A' for Active; 'I' for Inactive)
ROOT
ATOM      1  C1  BNZ d   1       1.975  -0.997   0.345  0.00  0.00     0.000 A 
ATOM      2  C2  BNZ d   1       0.888  -1.523   0.990  0.00  0.00     0.000 A 
ATOM      3  C3  BNZ d   1      -0.324  -0.892   0.945  0.00  0.00     0.000 A 
ATOM      4  C4  BNZ d   1      -0.438   0.281   0.291  0.00  0.00     0.000 A 
ATOM      5  C5  BNZ d   1       0.652   0.829  -0.357  0.00  0.00     0.000 A 
ATOM      6  C6  BNZ d   1       1.861   0.171  -0.343  0.00  0.00     0.000 A 
ENDROOT
TORSDOF 0
ENDMDL
