MODEL 1
REMARK minimizedAffinity -2.23406506
REMARK minimizedRMSD -1
REMARK  0 active torsions:
REMARK  status: ('A' for Active; 'I' for Inactive)
ROOT
ATOM      1  C1  BNZ d   1      -1.180   1.598  -1.205  0.00  0.00     0.000 A 
ATOM      2  C2  BNZ d   1      -1.029   2.456  -2.262  0.00  0.00     0.000 A 
ATOM      3  C3  BNZ d   1      -1.961   2.508  -3.260  0.00  0.00     0.000 A 
ATOM      4  C4  BNZ d   1      -3.021   1.676  -3.221  0.00  0.00     0.000 A 
ATOM      5  C5  BNZ d   1      -3.182   0.798  -2.168  0.00  0.00     0.000 A 
ATOM      6  C6  BNZ d   1      -2.262   0.776  -1.145  0.00  0.00     0.000 A 
ENDROOT
TORSDOF 0
ENDMDL
