MODEL 1
REMARK minimizedAffinity -4.29281044
REMARK minimizedRMSD -1
REMARK  0 active torsions:
REMARK  status: ('A' for Active; 'I' for Inactive)
ROOT
ATOM      1  C1  BNZ d   1      -0.678   0.793   0.138  0.00  0.00     0.000 A 
ATOM      2  C2  BNZ d   1      -0.013  -0.354  -0.208  0.00  0.00     0.000 A 
ATOM      3  C3  BNZ d   1      -0.200  -1.511   0.495  0.00  0.00     0.000 A 
ATOM      4  C4  BNZ d   1      -1.019  -1.511   1.566  0.00  0.00     0.000 A 
ATOM      5  C5  BNZ d   1      -1.689  -0.361   1.934  0.00  0.00     0.000 A 
ATOM      6  C6  BNZ d   1      -1.528   0.792   1.201  0.00  0.00     0.000 A 
ENDROOT
TORSDOF 0
ENDMDL
