MODEL 1
REMARK minimizedAffinity -4.26823473
REMARK minimizedRMSD -1
REMARK  0 active torsions:
REMARK  status: ('A' for Active; 'I' for Inactive)
ROOT
ATOM      1  C1  BNZ d   1       2.415  -0.120  -0.221  0.00  0.00     0.000 A 
ATOM      2  C2  BNZ d   1       2.814  -1.295   0.359  0.00  0.00     0.000 A 
ATOM      3  C3  BNZ d   1       1.895  -2.208   0.795  0.00  0.00     0.000 A 
ATOM      4  C4  BNZ d   1       0.580  -1.928   0.686  0.00  0.00     0.000 A 
ATOM      5  C5  BNZ d   1       0.162  -0.744   0.112  0.00  0.00     0.000 A 
ATOM      6  C6  BNZ d   1       1.090   0.155  -0.360  0.00  0.00     0.000 A 
ENDROOT
TORSDOF 0
ENDMDL
