MODEL 1
REMARK minimizedAffinity -4.48249531
REMARK minimizedRMSD -1
REMARK  0 active torsions:
REMARK  status: ('A' for Active; 'I' for Inactive)
ROOT
ATOM      1  C1  BNZ d   1       0.476  -0.752   0.181  0.00  0.00     0.000 A 
ATOM      2  C2  BNZ d   1      -0.711  -0.220   0.607  0.00  0.00     0.000 A 
ATOM      3  C3  BNZ d   1      -1.245  -0.575   1.814  0.00  0.00     0.000 A 
ATOM      4  C4  BNZ d   1      -0.611  -1.491   2.575  0.00  0.00     0.000 A 
ATOM      5  C5  BNZ d   1       0.582  -2.044   2.155  0.00  0.00     0.000 A 
ATOM      6  C6  BNZ d   1       1.136  -1.655   0.957  0.00  0.00     0.000 A 
ENDROOT
TORSDOF 0
ENDMDL
