MODEL 1
REMARK minimizedAffinity -3.9387579
REMARK minimizedRMSD -1
REMARK  0 active torsions:
REMARK  status: ('A' for Active; 'I' for Inactive)
ROOT
ATOM      1  C1  BNZ d   1      -0.627  -0.687   0.949  0.00  0.00     0.000 A 
ATOM      2  C2  BNZ d   1       0.554  -1.322   0.671  0.00  0.00     0.000 A 
ATOM      3  C3  BNZ d   1       1.576  -0.660   0.050  0.00  0.00     0.000 A 
ATOM      4  C4  BNZ d   1       1.401   0.622  -0.329  0.00  0.00     0.000 A 
ATOM      5  C5  BNZ d   1       0.213   1.274  -0.066  0.00  0.00     0.000 A 
ATOM      6  C6  BNZ d   1      -0.799   0.616   0.595  0.00  0.00     0.000 A 
ENDROOT
TORSDOF 0
ENDMDL
