MODEL 1
REMARK minimizedAffinity -3.78503132
REMARK minimizedRMSD -1
REMARK  0 active torsions:
REMARK  status: ('A' for Active; 'I' for Inactive)
ROOT
ATOM      1  C1  BNZ d   1       0.122   1.088  -0.743  0.00  0.00     0.000 A 
ATOM      2  C2  BNZ d   1       1.410   0.673  -0.952  0.00  0.00     0.000 A 
ATOM      3  C3  BNZ d   1       1.858  -0.509  -0.432  0.00  0.00     0.000 A 
ATOM      4  C4  BNZ d   1       1.031  -1.254   0.330  0.00  0.00     0.000 A 
ATOM      5  C5  BNZ d   1      -0.268  -0.844   0.559  0.00  0.00     0.000 A 
ATOM      6  C6  BNZ d   1      -0.727   0.327   0.001  0.00  0.00     0.000 A 
ENDROOT
TORSDOF 0
ENDMDL
