MODEL 1
REMARK minimizedAffinity -4.09721851
REMARK minimizedRMSD -1
REMARK  0 active torsions:
REMARK  status: ('A' for Active; 'I' for Inactive)
ROOT
ATOM      1  C1  BNZ d   1       1.698  -1.971   0.877  0.00  0.00     0.000 A 
ATOM      2  C2  BNZ d   1       0.381  -1.621   1.006  0.00  0.00     0.000 A 
ATOM      3  C3  BNZ d   1      -0.095  -0.469   0.444  0.00  0.00     0.000 A 
ATOM      4  C4  BNZ d   1       0.753   0.350  -0.210  0.00  0.00     0.000 A 
ATOM      5  C5  BNZ d   1       2.086   0.015  -0.341  0.00  0.00     0.000 A 
ATOM      6  C6  BNZ d   1       2.554  -1.164   0.192  0.00  0.00     0.000 A 
ENDROOT
TORSDOF 0
ENDMDL
