MODEL 1
REMARK minimizedAffinity 19.5327377
REMARK minimizedRMSD -1
REMARK  0 active torsions:
REMARK  status: ('A' for Active; 'I' for Inactive)
ROOT
ATOM      1  C   UNL d   1       1.785  -4.051  -0.018  0.00  0.00     0.124 A 
ATOM      2  C1  UNL d   1       1.782  -2.704   0.317  0.00  0.00     0.062 A 
ATOM      3  C2  UNL d   1       2.980  -2.001   0.406  0.00  0.00     0.162 A 
ATOM      4  C3  UNL d   1       4.193  -2.644   0.159  0.00  0.00    -0.034 A 
ATOM      5  C4  UNL d   1       4.189  -3.999  -0.177  0.00  0.00     0.162 A 
ATOM      6  C5  UNL d   1       2.988  -4.697  -0.264  0.00  0.00     0.062 A 
ATOM      7  F   UNL d   1       2.994  -5.998  -0.588  0.00  0.00    -0.097 F 
ATOM      8  F1  UNL d   1       5.337  -4.649  -0.421  0.00  0.00    -0.096 F 
ATOM      9  I   UNL d   1       5.987  -1.598   0.291  0.00  0.00    -0.060 I 
ATOM     10  F2  UNL d   1       2.947  -0.700   0.732  0.00  0.00    -0.096 F 
ATOM     11  F3  UNL d   1       0.621  -2.077   0.557  0.00  0.00    -0.097 F 
ATOM     12  F4  UNL d   1       0.631  -4.724  -0.102  0.00  0.00    -0.092 F 
ENDROOT
TORSDOF 0
ENDMDL
