MODEL 1
REMARK minimizedAffinity 13.6971493
REMARK minimizedRMSD -1
REMARK  0 active torsions:
REMARK  status: ('A' for Active; 'I' for Inactive)
ROOT
ATOM      1  C   UNL d   1       1.903  -4.187   0.502  0.00  0.00     0.124 A 
ATOM      2  C1  UNL d   1       1.700  -2.824   0.672  0.00  0.00     0.062 A 
ATOM      3  C2  UNL d   1       2.786  -1.954   0.708  0.00  0.00     0.162 A 
ATOM      4  C3  UNL d   1       4.085  -2.444   0.573  0.00  0.00    -0.034 A 
ATOM      5  C4  UNL d   1       4.281  -3.816   0.403  0.00  0.00     0.162 A 
ATOM      6  C5  UNL d   1       3.192  -4.681   0.368  0.00  0.00     0.062 A 
ATOM      7  F   UNL d   1       3.390  -5.998   0.204  0.00  0.00    -0.097 F 
ATOM      8  F1  UNL d   1       5.517  -4.321   0.270  0.00  0.00    -0.096 F 
ATOM      9  I   UNL d   1       5.711  -1.146   0.625  0.00  0.00    -0.060 I 
ATOM     10  F2  UNL d   1       2.561  -0.642   0.873  0.00  0.00    -0.096 F 
ATOM     11  F3  UNL d   1       0.455  -2.344   0.803  0.00  0.00    -0.097 F 
ATOM     12  F4  UNL d   1       0.856  -5.022   0.469  0.00  0.00    -0.092 F 
ENDROOT
TORSDOF 0
ENDMDL
