MODEL 1
REMARK minimizedAffinity 25.5568085
REMARK minimizedRMSD -1
REMARK  0 active torsions:
REMARK  status: ('A' for Active; 'I' for Inactive)
ROOT
ATOM      1  C   UNL d   1      -2.303   2.682  -2.884  0.00  0.00     0.124 A 
ATOM      2  C1  UNL d   1      -3.204   2.115  -1.993  0.00  0.00     0.062 A 
ATOM      3  C2  UNL d   1      -4.093   1.135  -2.425  0.00  0.00     0.162 A 
ATOM      4  C3  UNL d   1      -4.085   0.714  -3.755  0.00  0.00    -0.034 A 
ATOM      5  C4  UNL d   1      -3.177   1.290  -4.645  0.00  0.00     0.162 A 
ATOM      6  C5  UNL d   1      -2.290   2.269  -4.209  0.00  0.00     0.062 A 
ATOM      7  F   UNL d   1      -1.421   2.816  -5.071  0.00  0.00    -0.097 F 
ATOM      8  F1  UNL d   1      -3.142   0.909  -5.931  0.00  0.00    -0.096 F 
ATOM      9  I   UNL d   1      -5.413  -0.751  -4.404  0.00  0.00    -0.060 I 
ATOM     10  F2  UNL d   1      -4.952   0.605  -1.542  0.00  0.00    -0.096 F 
ATOM     11  F3  UNL d   1      -3.219   2.513  -0.713  0.00  0.00    -0.097 F 
ATOM     12  F4  UNL d   1      -1.449   3.626  -2.466  0.00  0.00    -0.092 F 
ENDROOT
TORSDOF 0
ENDMDL
