MODEL 1
REMARK minimizedAffinity 24.6144066
REMARK minimizedRMSD -1
REMARK  0 active torsions:
REMARK  status: ('A' for Active; 'I' for Inactive)
ROOT
ATOM      1  C   UNL d   1      -1.337   0.427  -2.450  0.00  0.00     0.124 A 
ATOM      2  C1  UNL d   1      -2.666   0.458  -2.051  0.00  0.00     0.062 A 
ATOM      3  C2  UNL d   1      -3.519   1.447  -2.531  0.00  0.00     0.162 A 
ATOM      4  C3  UNL d   1      -3.045   2.415  -3.417  0.00  0.00    -0.034 A 
ATOM      5  C4  UNL d   1      -1.707   2.379  -3.812  0.00  0.00     0.162 A 
ATOM      6  C5  UNL d   1      -0.859   1.388  -3.329  0.00  0.00     0.062 A 
ATOM      7  F   UNL d   1       0.425   1.360  -3.716  0.00  0.00    -0.097 F 
ATOM      8  F1  UNL d   1      -1.218   3.294  -4.662  0.00  0.00    -0.096 F 
ATOM      9  I   UNL d   1      -4.316   3.897  -4.137  0.00  0.00    -0.060 I 
ATOM     10  F2  UNL d   1      -4.798   1.452  -2.129  0.00  0.00    -0.096 F 
ATOM     11  F3  UNL d   1      -3.131  -0.469  -1.200  0.00  0.00    -0.097 F 
ATOM     12  F4  UNL d   1      -0.519  -0.526  -1.985  0.00  0.00    -0.092 F 
ENDROOT
TORSDOF 0
ENDMDL
