MODEL 1
REMARK minimizedAffinity 23.3330097
REMARK minimizedRMSD -1
REMARK  0 active torsions:
REMARK  status: ('A' for Active; 'I' for Inactive)
ROOT
ATOM      1  C   UNL d   1      -4.894   1.878   3.419  0.00  0.00     0.124 A 
ATOM      2  C1  UNL d   1      -3.857   1.422   4.221  0.00  0.00     0.062 A 
ATOM      3  C2  UNL d   1      -2.922   0.524   3.714  0.00  0.00     0.162 A 
ATOM      4  C3  UNL d   1      -3.020   0.076   2.396  0.00  0.00    -0.034 A 
ATOM      5  C4  UNL d   1      -4.066   0.538   1.596  0.00  0.00     0.162 A 
ATOM      6  C5  UNL d   1      -4.998   1.436   2.108  0.00  0.00     0.062 A 
ATOM      7  F   UNL d   1      -5.999   1.875   1.332  0.00  0.00    -0.097 F 
ATOM      8  F1  UNL d   1      -4.190   0.128   0.325  0.00  0.00    -0.096 F 
ATOM      9  I   UNL d   1      -1.624  -1.266   1.634  0.00  0.00    -0.060 I 
ATOM     10  F2  UNL d   1      -1.930   0.101   4.511  0.00  0.00    -0.096 F 
ATOM     11  F3  UNL d   1      -3.755   1.847   5.489  0.00  0.00    -0.097 F 
ATOM     12  F4  UNL d   1      -5.792   2.741   3.910  0.00  0.00    -0.092 F 
ENDROOT
TORSDOF 0
ENDMDL
