MODEL 1
REMARK minimizedAffinity 23.8852501
REMARK minimizedRMSD -1
REMARK  0 active torsions:
REMARK  status: ('A' for Active; 'I' for Inactive)
ROOT
ATOM      1  C   UNL d   1      -4.798   1.619   2.451  0.00  0.00     0.124 A 
ATOM      2  C1  UNL d   1      -3.948   1.505   3.543  0.00  0.00     0.062 A 
ATOM      3  C2  UNL d   1      -2.854   0.646   3.492  0.00  0.00     0.162 A 
ATOM      4  C3  UNL d   1      -2.602  -0.105   2.344  0.00  0.00    -0.034 A 
ATOM      5  C4  UNL d   1      -3.462   0.014   1.250  0.00  0.00     0.162 A 
ATOM      6  C5  UNL d   1      -4.554   0.873   1.307  0.00  0.00     0.062 A 
ATOM      7  F   UNL d   1      -5.374   0.982   0.251  0.00  0.00    -0.097 F 
ATOM      8  F1  UNL d   1      -3.250  -0.694   0.131  0.00  0.00    -0.096 F 
ATOM      9  I   UNL d   1      -0.967  -1.390   2.263  0.00  0.00    -0.060 I 
ATOM     10  F2  UNL d   1      -2.049   0.556   4.561  0.00  0.00    -0.096 F 
ATOM     11  F3  UNL d   1      -4.182   2.223   4.651  0.00  0.00    -0.097 F 
ATOM     12  F4  UNL d   1      -5.851   2.445   2.504  0.00  0.00    -0.092 F 
ENDROOT
TORSDOF 0
ENDMDL
