MODEL 1
REMARK minimizedAffinity 25.9875145
REMARK minimizedRMSD -1
REMARK  0 active torsions:
REMARK  status: ('A' for Active; 'I' for Inactive)
ROOT
ATOM      1  C   UNL d   1       1.363  -4.238  -0.428  0.00  0.00     0.124 A 
ATOM      2  C1  UNL d   1       1.725  -2.912  -0.236  0.00  0.00     0.062 A 
ATOM      3  C2  UNL d   1       0.906  -2.063   0.503  0.00  0.00     0.162 A 
ATOM      4  C3  UNL d   1      -0.283  -2.538   1.057  0.00  0.00    -0.034 A 
ATOM      5  C4  UNL d   1      -0.640  -3.873   0.859  0.00  0.00     0.162 A 
ATOM      6  C5  UNL d   1       0.182  -4.717   0.119  0.00  0.00     0.062 A 
ATOM      7  F   UNL d   1      -0.169  -5.998  -0.065  0.00  0.00    -0.097 F 
ATOM      8  F1  UNL d   1      -1.776  -4.362   1.377  0.00  0.00    -0.096 F 
ATOM      9  I   UNL d   1      -1.510  -1.272   2.162  0.00  0.00    -0.060 I 
ATOM     10  F2  UNL d   1       1.280  -0.786   0.672  0.00  0.00    -0.096 F 
ATOM     11  F3  UNL d   1       2.866  -2.446  -0.765  0.00  0.00    -0.097 F 
ATOM     12  F4  UNL d   1       2.153  -5.053  -1.140  0.00  0.00    -0.092 F 
ENDROOT
TORSDOF 0
ENDMDL
