MODEL 1
REMARK minimizedAffinity 2.50284719
REMARK minimizedRMSD -1
REMARK  2 active torsions:
REMARK  status: ('A' for Active; 'I' for Inactive)
REMARK    1  A    between atoms: C1_2  and  C2_3 
REMARK    2  A    between atoms: C2_3  and  C3_4 
ROOT
ATOM      1  C3  UNL d   1       3.554   1.219   0.624  0.00  0.00    -0.075 A 
ATOM      2  C4  UNL d   1       4.168   1.753  -0.519  0.00  0.00     0.002 A 
ATOM      3  C5  UNL d   1       5.338   1.187  -1.025  0.00  0.00     0.002 A 
ATOM      4  C6  UNL d   1       5.915   0.089  -0.390  0.00  0.00    -0.004 A 
ATOM      5  C7  UNL d   1       5.324  -0.439   0.755  0.00  0.00     0.002 A 
ATOM      6  C8  UNL d   1       4.150   0.122   1.261  0.00  0.00     0.002 A 
ENDROOT
BRANCH   1   7
ATOM      7  C2  UNL d   1       2.271   1.808   1.159  0.00  0.00     0.056 C 
BRANCH   7   8
ATOM      8  C1  UNL d   1       1.396   0.808   1.922  0.00  0.00     0.007 C 
ATOM      9  C   UNL d   1       0.724  -0.215   1.016  0.00  0.00     0.009 C 
ENDBRANCH   7   8
ENDBRANCH   1   7
TORSDOF 2
ENDMDL
