MODEL 1
REMARK minimizedAffinity -2.00165033
REMARK minimizedRMSD -1
REMARK  2 active torsions:
REMARK  status: ('A' for Active; 'I' for Inactive)
REMARK    1  A    between atoms: C1_2  and  C2_3 
REMARK    2  A    between atoms: C2_3  and  C3_4 
ROOT
ATOM      1  C3  UNL d   1      -1.195  -2.416  -0.141  0.00  0.00    -0.075 A 
ATOM      2  C4  UNL d   1      -0.775  -3.749  -0.262  0.00  0.00     0.002 A 
ATOM      3  C5  UNL d   1      -1.199  -4.531  -1.337  0.00  0.00     0.002 A 
ATOM      4  C6  UNL d   1      -2.053  -3.994  -2.298  0.00  0.00    -0.004 A 
ATOM      5  C7  UNL d   1      -2.489  -2.676  -2.180  0.00  0.00     0.002 A 
ATOM      6  C8  UNL d   1      -2.063  -1.891  -1.107  0.00  0.00     0.002 A 
ENDROOT
BRANCH   1   7
ATOM      7  C2  UNL d   1      -0.716  -1.557   1.004  0.00  0.00     0.056 C 
BRANCH   7   8
ATOM      8  C1  UNL d   1      -0.099  -0.224   0.568  0.00  0.00     0.007 C 
ATOM      9  C   UNL d   1       0.777   0.411   1.640  0.00  0.00     0.009 C 
ENDBRANCH   7   8
ENDBRANCH   1   7
TORSDOF 2
ENDMDL
