MODEL 1
REMARK minimizedAffinity 3.24733686
REMARK minimizedRMSD -1
REMARK  2 active torsions:
REMARK  status: ('A' for Active; 'I' for Inactive)
REMARK    1  A    between atoms: C1_2  and  C2_3 
REMARK    2  A    between atoms: C2_3  and  C3_4 
ROOT
ATOM      1  C3  UNL d   1       3.205   0.625   0.544  0.00  0.00    -0.075 A 
ATOM      2  C4  UNL d   1       4.017   1.720   0.218  0.00  0.00     0.002 A 
ATOM      3  C5  UNL d   1       5.405   1.632   0.330  0.00  0.00     0.002 A 
ATOM      4  C6  UNL d   1       5.997   0.453   0.780  0.00  0.00    -0.004 A 
ATOM      5  C7  UNL d   1       5.198  -0.636   1.123  0.00  0.00     0.002 A 
ATOM      6  C8  UNL d   1       3.810  -0.551   1.007  0.00  0.00     0.002 A 
ENDROOT
BRANCH   1   7
ATOM      7  C2  UNL d   1       1.704   0.705   0.396  0.00  0.00     0.056 C 
BRANCH   7   8
ATOM      8  C1  UNL d   1       0.932  -0.161   1.397  0.00  0.00     0.007 C 
ATOM      9  C   UNL d   1       0.401  -1.453   0.790  0.00  0.00     0.009 C 
ENDBRANCH   7   8
ENDBRANCH   1   7
TORSDOF 2
ENDMDL
