MODEL 1
REMARK minimizedAffinity 6.91283941
REMARK minimizedRMSD -1
REMARK  2 active torsions:
REMARK  status: ('A' for Active; 'I' for Inactive)
REMARK    1  A    between atoms: C1_2  and  C2_3 
REMARK    2  A    between atoms: C2_3  and  C3_4 
ROOT
ATOM      1  C3  UNL d   1      -3.753  -3.808  -2.019  0.00  0.00    -0.075 A 
ATOM      2  C4  UNL d   1      -3.994  -4.928  -1.210  0.00  0.00     0.002 A 
ATOM      3  C5  UNL d   1      -4.747  -6.000  -1.691  0.00  0.00     0.002 A 
ATOM      4  C6  UNL d   1      -5.276  -5.962  -2.979  0.00  0.00    -0.004 A 
ATOM      5  C7  UNL d   1      -5.057  -4.847  -3.786  0.00  0.00     0.002 A 
ATOM      6  C8  UNL d   1      -4.300  -3.775  -3.309  0.00  0.00     0.002 A 
ENDROOT
BRANCH   1   7
ATOM      7  C2  UNL d   1      -2.915  -2.657  -1.516  0.00  0.00     0.056 C 
BRANCH   7   8
ATOM      8  C1  UNL d   1      -2.698  -2.661   0.001  0.00  0.00     0.007 C 
ATOM      9  C   UNL d   1      -1.280  -3.042   0.404  0.00  0.00     0.009 C 
ENDBRANCH   7   8
ENDBRANCH   1   7
TORSDOF 2
ENDMDL
