MODEL 1
REMARK minimizedAffinity -1.31787097
REMARK minimizedRMSD -1
REMARK  2 active torsions:
REMARK  status: ('A' for Active; 'I' for Inactive)
REMARK    1  A    between atoms: C1_2  and  C2_3 
REMARK    2  A    between atoms: C2_3  and  C3_4 
ROOT
ATOM      1  C3  UNL d   1      -3.844  -4.843  -4.795  0.00  0.00    -0.075 A 
ATOM      2  C4  UNL d   1      -5.195  -4.495  -4.659  0.00  0.00     0.002 A 
ATOM      3  C5  UNL d   1      -5.917  -4.884  -3.530  0.00  0.00     0.002 A 
ATOM      4  C6  UNL d   1      -5.301  -5.634  -2.530  0.00  0.00    -0.004 A 
ATOM      5  C7  UNL d   1      -3.964  -6.000  -2.663  0.00  0.00     0.002 A 
ATOM      6  C8  UNL d   1      -3.238  -5.608  -3.789  0.00  0.00     0.002 A 
ENDROOT
BRANCH   1   7
ATOM      7  C2  UNL d   1      -3.049  -4.400  -6.000  0.00  0.00     0.056 C 
BRANCH   7   8
ATOM      8  C1  UNL d   1      -1.590  -4.049  -5.690  0.00  0.00     0.007 C 
ATOM      9  C   UNL d   1      -1.242  -2.599  -6.000  0.00  0.00     0.009 C 
ENDBRANCH   7   8
ENDBRANCH   1   7
TORSDOF 2
ENDMDL
