MODEL 1
REMARK minimizedAffinity 9.2096138
REMARK minimizedRMSD -1
REMARK  2 active torsions:
REMARK  status: ('A' for Active; 'I' for Inactive)
REMARK    1  A    between atoms: C1_2  and  C2_3 
REMARK    2  A    between atoms: C2_3  and  C3_4 
ROOT
ATOM      1  C3  UNL d   1       5.978   1.869   0.716  0.00  0.00    -0.075 A 
ATOM      2  C4  UNL d   1       5.950   0.983   1.803  0.00  0.00     0.002 A 
ATOM      3  C5  UNL d   1       5.958  -0.396   1.594  0.00  0.00     0.002 A 
ATOM      4  C6  UNL d   1       5.984  -0.907   0.298  0.00  0.00    -0.004 A 
ATOM      5  C7  UNL d   1       5.995  -0.036  -0.790  0.00  0.00     0.002 A 
ATOM      6  C8  UNL d   1       5.992   1.344  -0.583  0.00  0.00     0.002 A 
ENDROOT
BRANCH   1   7
ATOM      7  C2  UNL d   1       6.000   3.362   0.937  0.00  0.00     0.056 C 
BRANCH   7   8
ATOM      8  C1  UNL d   1       4.767   4.091   0.392  0.00  0.00     0.007 C 
ATOM      9  C   UNL d   1       3.456   3.403   0.749  0.00  0.00     0.009 C 
ENDBRANCH   7   8
ENDBRANCH   1   7
TORSDOF 2
ENDMDL
