MODEL 1
REMARK minimizedAffinity 8.39874744
REMARK minimizedRMSD -1
REMARK  2 active torsions:
REMARK  status: ('A' for Active; 'I' for Inactive)
REMARK    1  A    between atoms: C1_2  and  C2_3 
REMARK    2  A    between atoms: C2_3  and  C3_4 
ROOT
ATOM      1  C3  UNL d   1      -5.318   4.099   2.100  0.00  0.00    -0.075 A 
ATOM      2  C4  UNL d   1      -5.624   4.900   3.209  0.00  0.00     0.002 A 
ATOM      3  C5  UNL d   1      -4.998   4.680   4.436  0.00  0.00     0.002 A 
ATOM      4  C6  UNL d   1      -4.067   3.653   4.572  0.00  0.00    -0.004 A 
ATOM      5  C7  UNL d   1      -3.767   2.840   3.481  0.00  0.00     0.002 A 
ATOM      6  C8  UNL d   1      -4.389   3.061   2.251  0.00  0.00     0.002 A 
ENDROOT
BRANCH   1   7
ATOM      7  C2  UNL d   1      -5.970   4.351   0.761  0.00  0.00     0.056 C 
BRANCH   7   8
ATOM      8  C1  UNL d   1      -5.899   5.810   0.297  0.00  0.00     0.007 C 
ATOM      9  C   UNL d   1      -5.285   5.970  -1.087  0.00  0.00     0.009 C 
ENDBRANCH   7   8
ENDBRANCH   1   7
TORSDOF 2
ENDMDL
