MODEL 1
REMARK minimizedAffinity 5.31576633
REMARK minimizedRMSD -1
REMARK  2 active torsions:
REMARK  status: ('A' for Active; 'I' for Inactive)
REMARK    1  A    between atoms: C1_2  and  C2_3 
REMARK    2  A    between atoms: C2_3  and  C3_4 
ROOT
ATOM      1  C3  UNL d   1       4.130   0.472   1.707  0.00  0.00    -0.075 A 
ATOM      2  C4  UNL d   1       3.118  -0.307   2.285  0.00  0.00     0.002 A 
ATOM      3  C5  UNL d   1       1.794   0.132   2.276  0.00  0.00     0.002 A 
ATOM      4  C6  UNL d   1       1.467   1.358   1.701  0.00  0.00    -0.004 A 
ATOM      5  C7  UNL d   1       2.467   2.148   1.139  0.00  0.00     0.002 A 
ATOM      6  C8  UNL d   1       3.792   1.709   1.143  0.00  0.00     0.002 A 
ENDROOT
BRANCH   1   7
ATOM      7  C2  UNL d   1       5.561  -0.011   1.687  0.00  0.00     0.056 C 
BRANCH   7   8
ATOM      8  C1  UNL d   1       5.963  -0.714   0.386  0.00  0.00     0.007 C 
ATOM      9  C   UNL d   1       5.996   0.220  -0.816  0.00  0.00     0.009 C 
ENDBRANCH   7   8
ENDBRANCH   1   7
TORSDOF 2
ENDMDL
