MODEL 1
REMARK minimizedAffinity 1.2181927
REMARK minimizedRMSD -1
REMARK  2 active torsions:
REMARK  status: ('A' for Active; 'I' for Inactive)
REMARK    1  A    between atoms: C1_2  and  C2_3 
REMARK    2  A    between atoms: C2_3  and  C3_4 
ROOT
ATOM      1  C3  UNL d   1      -4.691  -5.291  -2.606  0.00  0.00    -0.075 A 
ATOM      2  C4  UNL d   1      -3.779  -5.697  -3.591  0.00  0.00     0.002 A 
ATOM      3  C5  UNL d   1      -3.971  -5.337  -4.926  0.00  0.00     0.002 A 
ATOM      4  C6  UNL d   1      -5.079  -4.577  -5.293  0.00  0.00    -0.004 A 
ATOM      5  C7  UNL d   1      -6.000  -4.182  -4.325  0.00  0.00     0.002 A 
ATOM      6  C8  UNL d   1      -5.808  -4.537  -2.988  0.00  0.00     0.002 A 
ENDROOT
BRANCH   1   7
ATOM      7  C2  UNL d   1      -4.474  -5.653  -1.156  0.00  0.00     0.056 C 
BRANCH   7   8
ATOM      8  C1  UNL d   1      -3.581  -4.667  -0.395  0.00  0.00     0.007 C 
ATOM      9  C   UNL d   1      -3.310  -3.383  -1.167  0.00  0.00     0.009 C 
ENDBRANCH   7   8
ENDBRANCH   1   7
TORSDOF 2
ENDMDL
