MODEL 1
REMARK minimizedAffinity 11.8333893
REMARK minimizedRMSD -1
REMARK  2 active torsions:
REMARK  status: ('A' for Active; 'I' for Inactive)
REMARK    1  A    between atoms: C1_2  and  C2_3 
REMARK    2  A    between atoms: C2_3  and  C3_4 
ROOT
ATOM      1  C3  UNL d   1       4.906   1.083   1.093  0.00  0.00    -0.075 A 
ATOM      2  C4  UNL d   1       6.000   1.892   1.435  0.00  0.00     0.002 A 
ATOM      3  C5  UNL d   1       6.000   3.252   1.124  0.00  0.00     0.002 A 
ATOM      4  C6  UNL d   1       4.915   3.818   0.459  0.00  0.00    -0.004 A 
ATOM      5  C7  UNL d   1       3.830   3.021   0.099  0.00  0.00     0.002 A 
ATOM      6  C8  UNL d   1       3.825   1.660   0.413  0.00  0.00     0.002 A 
ENDROOT
BRANCH   1   7
ATOM      7  C2  UNL d   1       4.887  -0.383   1.453  0.00  0.00     0.056 C 
BRANCH   7   8
ATOM      8  C1  UNL d   1       4.409  -0.668   2.881  0.00  0.00     0.007 C 
ATOM      9  C   UNL d   1       2.925  -0.391   3.084  0.00  0.00     0.009 C 
ENDBRANCH   7   8
ENDBRANCH   1   7
TORSDOF 2
ENDMDL
