MODEL 1
REMARK minimizedAffinity 6.62289858
REMARK minimizedRMSD -1
REMARK  2 active torsions:
REMARK  status: ('A' for Active; 'I' for Inactive)
REMARK    1  A    between atoms: C1_2  and  C2_3 
REMARK    2  A    between atoms: C2_3  and  C3_4 
ROOT
ATOM      1  C3  UNL d   1       5.848   0.842   0.780  0.00  0.00    -0.075 A 
ATOM      2  C4  UNL d   1       6.000   1.940   1.640  0.00  0.00     0.002 A 
ATOM      3  C5  UNL d   1       5.960   3.242   1.140  0.00  0.00     0.002 A 
ATOM      4  C6  UNL d   1       5.778   3.462  -0.223  0.00  0.00    -0.004 A 
ATOM      5  C7  UNL d   1       5.643   2.379  -1.089  0.00  0.00     0.002 A 
ATOM      6  C8  UNL d   1       5.678   1.075  -0.591  0.00  0.00     0.002 A 
ENDROOT
BRANCH   1   7
ATOM      7  C2  UNL d   1       5.861  -0.569   1.319  0.00  0.00     0.056 C 
BRANCH   7   8
ATOM      8  C1  UNL d   1       4.468  -1.149   1.582  0.00  0.00     0.007 C 
ATOM      9  C   UNL d   1       3.917  -0.788   2.955  0.00  0.00     0.009 C 
ENDBRANCH   7   8
ENDBRANCH   1   7
TORSDOF 2
ENDMDL
