MODEL 1
REMARK minimizedAffinity 10.9087276
REMARK minimizedRMSD -1
REMARK  2 active torsions:
REMARK  status: ('A' for Active; 'I' for Inactive)
REMARK    1  A    between atoms: C1_2  and  C2_3 
REMARK    2  A    between atoms: C2_3  and  C3_4 
ROOT
ATOM      1  C3  UNL d   1       0.557  -2.848  -5.938  0.00  0.00    -0.075 A 
ATOM      2  C4  UNL d   1       1.480  -1.794  -5.872  0.00  0.00     0.002 A 
ATOM      3  C5  UNL d   1       2.851  -2.052  -5.883  0.00  0.00     0.002 A 
ATOM      4  C6  UNL d   1       3.316  -3.364  -5.948  0.00  0.00    -0.004 A 
ATOM      5  C7  UNL d   1       2.408  -4.419  -5.998  0.00  0.00     0.002 A 
ATOM      6  C8  UNL d   1       1.036  -4.164  -5.992  0.00  0.00     0.002 A 
ENDROOT
BRANCH   1   7
ATOM      7  C2  UNL d   1      -0.928  -2.574  -5.957  0.00  0.00     0.056 C 
BRANCH   7   8
ATOM      8  C1  UNL d   1      -1.794  -3.837  -6.000  0.00  0.00     0.007 C 
ATOM      9  C   UNL d   1      -1.413  -4.862  -4.941  0.00  0.00     0.009 C 
ENDBRANCH   7   8
ENDBRANCH   1   7
TORSDOF 2
ENDMDL
