MODEL 1
REMARK minimizedAffinity -0.763347387
REMARK minimizedRMSD -1
REMARK  2 active torsions:
REMARK  status: ('A' for Active; 'I' for Inactive)
REMARK    1  A    between atoms: C1_2  and  C2_3 
REMARK    2  A    between atoms: C2_3  and  C3_4 
ROOT
ATOM      1  C3  UNL d   1      -4.096  -5.145  -4.653  0.00  0.00    -0.075 A 
ATOM      2  C4  UNL d   1      -3.217  -5.428  -3.597  0.00  0.00     0.002 A 
ATOM      3  C5  UNL d   1      -3.708  -5.858  -2.364  0.00  0.00     0.002 A 
ATOM      4  C6  UNL d   1      -5.080  -6.000  -2.167  0.00  0.00    -0.004 A 
ATOM      5  C7  UNL d   1      -5.962  -5.705  -3.204  0.00  0.00     0.002 A 
ATOM      6  C8  UNL d   1      -5.474  -5.279  -4.441  0.00  0.00     0.002 A 
ENDROOT
BRANCH   1   7
ATOM      7  C2  UNL d   1      -3.569  -4.708  -6.000  0.00  0.00     0.056 C 
BRANCH   7   8
ATOM      8  C1  UNL d   1      -2.085  -4.328  -5.996  0.00  0.00     0.007 C 
ATOM      9  C   UNL d   1      -1.851  -2.824  -5.998  0.00  0.00     0.009 C 
ENDBRANCH   7   8
ENDBRANCH   1   7
TORSDOF 2
ENDMDL
