MODEL 1
REMARK minimizedAffinity -3.66852522
REMARK minimizedRMSD -1
REMARK  2 active torsions:
REMARK  status: ('A' for Active; 'I' for Inactive)
REMARK    1  A    between atoms: C1_2  and  C2_3 
REMARK    2  A    between atoms: C2_3  and  C3_4 
ROOT
ATOM      1  C3  UNL d   1       5.486   4.860   2.904  0.00  0.00    -0.075 A 
ATOM      2  C4  UNL d   1       6.000   3.567   3.081  0.00  0.00     0.002 A 
ATOM      3  C5  UNL d   1       5.595   2.524   2.249  0.00  0.00     0.002 A 
ATOM      4  C6  UNL d   1       4.666   2.756   1.237  0.00  0.00    -0.004 A 
ATOM      5  C7  UNL d   1       4.137   4.033   1.062  0.00  0.00     0.002 A 
ATOM      6  C8  UNL d   1       4.544   5.080   1.891  0.00  0.00     0.002 A 
ENDROOT
BRANCH   1   7
ATOM      7  C2  UNL d   1       5.942   6.000   3.783  0.00  0.00     0.056 C 
BRANCH   7   8
ATOM      8  C1  UNL d   1       5.900   5.687   5.282  0.00  0.00     0.007 C 
ATOM      9  C   UNL d   1       4.497   5.758   5.871  0.00  0.00     0.009 C 
ENDBRANCH   7   8
ENDBRANCH   1   7
TORSDOF 2
ENDMDL
