MODEL 1
REMARK minimizedAffinity 2.44685888
REMARK minimizedRMSD -1
REMARK  2 active torsions:
REMARK  status: ('A' for Active; 'I' for Inactive)
REMARK    1  A    between atoms: C1_2  and  C2_3 
REMARK    2  A    between atoms: C2_3  and  C3_4 
ROOT
ATOM      1  C3  UNL d   1      -3.430  -4.113  -4.099  0.00  0.00    -0.075 A 
ATOM      2  C4  UNL d   1      -2.791  -4.074  -2.851  0.00  0.00     0.002 A 
ATOM      3  C5  UNL d   1      -3.481  -4.429  -1.691  0.00  0.00     0.002 A 
ATOM      4  C6  UNL d   1      -4.817  -4.817  -1.763  0.00  0.00    -0.004 A 
ATOM      5  C7  UNL d   1      -5.466  -4.843  -2.995  0.00  0.00     0.002 A 
ATOM      6  C8  UNL d   1      -4.777  -4.493  -4.158  0.00  0.00     0.002 A 
ENDROOT
BRANCH   1   7
ATOM      7  C2  UNL d   1      -2.681  -3.758  -5.361  0.00  0.00     0.056 C 
BRANCH   7   8
ATOM      8  C1  UNL d   1      -1.855  -2.472  -5.256  0.00  0.00     0.007 C 
ATOM      9  C   UNL d   1      -0.525  -2.550  -5.993  0.00  0.00     0.009 C 
ENDBRANCH   7   8
ENDBRANCH   1   7
TORSDOF 2
ENDMDL
