MODEL 1
REMARK minimizedAffinity 2.68684816
REMARK minimizedRMSD -1
REMARK  2 active torsions:
REMARK  status: ('A' for Active; 'I' for Inactive)
REMARK    1  A    between atoms: C2'_3  and  C1'_4 
REMARK    2  A    between atoms: C1'_4  and  C1_5 
ROOT
ATOM      1  C1  I4B d   1       0.722   1.556   0.468  0.00  0.00    -0.075 A 
ATOM      2  C2  I4B d   1       1.008   0.925   1.653  0.00  0.00     0.003 A 
ATOM      3  C3  I4B d   1       1.639   1.633   2.704  0.00  0.00     0.002 A 
ATOM      4  C4  I4B d   1       2.010   2.948   2.511  0.00  0.00    -0.004 A 
ATOM      5  C5  I4B d   1       1.699   3.593   1.317  0.00  0.00     0.002 A 
ATOM      6  C6  I4B d   1       1.040   2.897   0.294  0.00  0.00     0.003 A 
ENDROOT
BRANCH   1   7
ATOM      7  C1' I4B d   1       0.085   0.769  -0.632  0.00  0.00     0.060 C 
BRANCH   7   8
ATOM      8  C2' I4B d   1      -1.323   1.295  -0.828  0.00  0.00    -0.013 C 
ATOM      9  C4' I4B d   1      -2.249   0.784   0.244  0.00  0.00     0.013 C 
ATOM     10  C3' I4B d   1      -1.262   2.793  -0.822  0.00  0.00     0.013 C 
ENDBRANCH   7   8
ENDBRANCH   1   7
TORSDOF 2
ENDMDL
