MODEL 1
REMARK minimizedAffinity 3.37497449
REMARK minimizedRMSD -1
REMARK  2 active torsions:
REMARK  status: ('A' for Active; 'I' for Inactive)
REMARK    1  A    between atoms: C2'_3  and  C1'_4 
REMARK    2  A    between atoms: C1'_4  and  C1_5 
ROOT
ATOM      1  C1  I4B d   1      -5.196   3.972   3.986  0.00  0.00    -0.075 A 
ATOM      2  C2  I4B d   1      -6.000   4.156   5.083  0.00  0.00     0.003 A 
ATOM      3  C3  I4B d   1      -5.727   5.201   5.999  0.00  0.00     0.002 A 
ATOM      4  C4  I4B d   1      -4.619   6.000   5.808  0.00  0.00    -0.004 A 
ATOM      5  C5  I4B d   1      -3.818   5.827   4.683  0.00  0.00     0.002 A 
ATOM      6  C6  I4B d   1      -4.115   4.814   3.759  0.00  0.00     0.003 A 
ENDROOT
BRANCH   1   7
ATOM      7  C1' I4B d   1      -5.494   2.839   3.056  0.00  0.00     0.060 C 
BRANCH   7   8
ATOM      8  C2' I4B d   1      -4.713   3.066   1.778  0.00  0.00    -0.013 C 
ATOM      9  C4' I4B d   1      -4.486   1.773   1.040  0.00  0.00     0.013 C 
ATOM     10  C3' I4B d   1      -5.478   4.043   0.935  0.00  0.00     0.013 C 
ENDBRANCH   7   8
ENDBRANCH   1   7
TORSDOF 2
ENDMDL
