MODEL 1
REMARK minimizedAffinity 6.27685356
REMARK minimizedRMSD -1
REMARK  2 active torsions:
REMARK  status: ('A' for Active; 'I' for Inactive)
REMARK    1  A    between atoms: C2'_3  and  C1'_4 
REMARK    2  A    between atoms: C1'_4  and  C1_5 
ROOT
ATOM      1  C1  I4B d   1       1.008  -3.057  -0.029  0.00  0.00    -0.075 A 
ATOM      2  C2  I4B d   1       0.380  -2.143  -0.838  0.00  0.00     0.003 A 
ATOM      3  C3  I4B d   1       1.086  -1.015  -1.320  0.00  0.00     0.002 A 
ATOM      4  C4  I4B d   1       2.395  -0.814  -0.930  0.00  0.00    -0.004 A 
ATOM      5  C5  I4B d   1       3.036  -1.753  -0.128  0.00  0.00     0.002 A 
ATOM      6  C6  I4B d   1       2.343  -2.888   0.316  0.00  0.00     0.003 A 
ENDROOT
BRANCH   1   7
ATOM      7  C1' I4B d   1       0.223  -4.220   0.490  0.00  0.00     0.060 C 
BRANCH   7   8
ATOM      8  C2' I4B d   1      -0.058  -5.149  -0.674  0.00  0.00    -0.013 C 
ATOM      9  C4' I4B d   1       1.143  -5.999  -0.996  0.00  0.00     0.013 C 
ATOM     10  C3' I4B d   1      -1.241  -5.997  -0.314  0.00  0.00     0.013 C 
ENDBRANCH   7   8
ENDBRANCH   1   7
TORSDOF 2
ENDMDL
