MODEL 1
REMARK minimizedAffinity 7.73615408
REMARK minimizedRMSD -1
REMARK  2 active torsions:
REMARK  status: ('A' for Active; 'I' for Inactive)
REMARK    1  A    between atoms: C2'_3  and  C1'_4 
REMARK    2  A    between atoms: C1'_4  and  C1_5 
ROOT
ATOM      1  C1  I4B d   1       1.854  -3.010  -0.615  0.00  0.00    -0.075 A 
ATOM      2  C2  I4B d   1       1.512  -2.084  -1.569  0.00  0.00     0.003 A 
ATOM      3  C3  I4B d   1       1.828  -0.717  -1.381  0.00  0.00     0.002 A 
ATOM      4  C4  I4B d   1       2.436  -0.315  -0.209  0.00  0.00    -0.004 A 
ATOM      5  C5  I4B d   1       2.802  -1.258   0.747  0.00  0.00     0.002 A 
ATOM      6  C6  I4B d   1       2.521  -2.616   0.538  0.00  0.00     0.003 A 
ENDROOT
BRANCH   1   7
ATOM      7  C1' I4B d   1       1.476  -4.441  -0.832  0.00  0.00     0.060 C 
BRANCH   7   8
ATOM      8  C2' I4B d   1       0.095  -4.653  -0.247  0.00  0.00    -0.013 C 
ATOM      9  C4' I4B d   1       0.007  -4.111   1.156  0.00  0.00     0.013 C 
ATOM     10  C3' I4B d   1      -0.898  -3.982  -1.149  0.00  0.00     0.013 C 
ENDBRANCH   7   8
ENDBRANCH   1   7
TORSDOF 2
ENDMDL
