MODEL 1
REMARK minimizedAffinity 0.00704445178
REMARK minimizedRMSD -1
REMARK  2 active torsions:
REMARK  status: ('A' for Active; 'I' for Inactive)
REMARK    1  A    between atoms: C2'_3  and  C1'_4 
REMARK    2  A    between atoms: C1'_4  and  C1_5 
ROOT
ATOM      1  C1  I4B d   1       1.196  -1.322  -0.629  0.00  0.00    -0.075 A 
ATOM      2  C2  I4B d   1       0.200  -2.237  -0.400  0.00  0.00     0.003 A 
ATOM      3  C3  I4B d   1       0.523  -3.581  -0.090  0.00  0.00     0.002 A 
ATOM      4  C4  I4B d   1       1.845  -3.975  -0.071  0.00  0.00    -0.004 A 
ATOM      5  C5  I4B d   1       2.855  -3.040  -0.282  0.00  0.00     0.002 A 
ATOM      6  C6  I4B d   1       2.530  -1.703  -0.550  0.00  0.00     0.003 A 
ENDROOT
BRANCH   1   7
ATOM      7  C1' I4B d   1       0.819   0.081  -0.986  0.00  0.00     0.060 C 
BRANCH   7   8
ATOM      8  C2' I4B d   1       1.130   0.964   0.205  0.00  0.00    -0.013 C 
ATOM      9  C4' I4B d   1       2.613   1.183   0.349  0.00  0.00     0.013 C 
ATOM     10  C3' I4B d   1       0.406   2.265   0.018  0.00  0.00     0.013 C 
ENDBRANCH   7   8
ENDBRANCH   1   7
TORSDOF 2
ENDMDL
