MODEL 1
REMARK minimizedAffinity 5.50982523
REMARK minimizedRMSD -1
REMARK  2 active torsions:
REMARK  status: ('A' for Active; 'I' for Inactive)
REMARK    1  A    between atoms: C2'_3  and  C1'_4 
REMARK    2  A    between atoms: C1'_4  and  C1_5 
ROOT
ATOM      1  C1  I4B d   1       0.669  -1.066  -1.049  0.00  0.00    -0.075 A 
ATOM      2  C2  I4B d   1       1.246   0.136  -0.724  0.00  0.00     0.003 A 
ATOM      3  C3  I4B d   1       0.528   1.344  -0.904  0.00  0.00     0.002 A 
ATOM      4  C4  I4B d   1      -0.737   1.307  -1.455  0.00  0.00    -0.004 A 
ATOM      5  C5  I4B d   1      -1.329   0.085  -1.762  0.00  0.00     0.002 A 
ATOM      6  C6  I4B d   1      -0.627  -1.110  -1.547  0.00  0.00     0.003 A 
ENDROOT
BRANCH   1   7
ATOM      7  C1' I4B d   1       1.468  -2.319  -0.877  0.00  0.00     0.060 C 
BRANCH   7   8
ATOM      8  C2' I4B d   1       0.577  -3.354  -0.220  0.00  0.00    -0.013 C 
ATOM      9  C4' I4B d   1       0.628  -4.665  -0.959  0.00  0.00     0.013 C 
ATOM     10  C3' I4B d   1       1.027  -3.515   1.202  0.00  0.00     0.013 C 
ENDBRANCH   7   8
ENDBRANCH   1   7
TORSDOF 2
ENDMDL
