MODEL 1
REMARK minimizedAffinity 1.98357785
REMARK minimizedRMSD -1
REMARK  2 active torsions:
REMARK  status: ('A' for Active; 'I' for Inactive)
REMARK    1  A    between atoms: C2'_3  and  C1'_4 
REMARK    2  A    between atoms: C1'_4  and  C1_5 
ROOT
ATOM      1  C1  I4B d   1      -4.839   5.339   3.238  0.00  0.00    -0.075 A 
ATOM      2  C2  I4B d   1      -3.624   5.627   3.809  0.00  0.00     0.003 A 
ATOM      3  C3  I4B d   1      -3.538   5.914   5.193  0.00  0.00     0.002 A 
ATOM      4  C4  I4B d   1      -4.690   5.952   5.952  0.00  0.00    -0.004 A 
ATOM      5  C5  I4B d   1      -5.917   5.637   5.376  0.00  0.00     0.002 A 
ATOM      6  C6  I4B d   1      -5.991   5.317   4.013  0.00  0.00     0.003 A 
ENDROOT
BRANCH   1   7
ATOM      7  C1' I4B d   1      -4.898   5.073   1.767  0.00  0.00     0.060 C 
BRANCH   7   8
ATOM      8  C2' I4B d   1      -3.867   5.954   1.091  0.00  0.00    -0.013 C 
ATOM      9  C4' I4B d   1      -2.496   5.734   1.674  0.00  0.00     0.013 C 
ATOM     10  C3' I4B d   1      -3.886   5.647  -0.377  0.00  0.00     0.013 C 
ENDBRANCH   7   8
ENDBRANCH   1   7
TORSDOF 2
ENDMDL
