MODEL 1
REMARK minimizedAffinity 2.42085409
REMARK minimizedRMSD -1
REMARK  2 active torsions:
REMARK  status: ('A' for Active; 'I' for Inactive)
REMARK    1  A    between atoms: C2'_3  and  C1'_4 
REMARK    2  A    between atoms: C1'_4  and  C1_5 
ROOT
ATOM      1  C1  I4B d   1      -2.673   0.022  -1.758  0.00  0.00    -0.075 A 
ATOM      2  C2  I4B d   1      -2.891  -0.986  -0.853  0.00  0.00     0.003 A 
ATOM      3  C3  I4B d   1      -4.126  -1.075  -0.167  0.00  0.00     0.002 A 
ATOM      4  C4  I4B d   1      -5.091  -0.111  -0.379  0.00  0.00    -0.004 A 
ATOM      5  C5  I4B d   1      -4.878   0.897  -1.314  0.00  0.00     0.002 A 
ATOM      6  C6  I4B d   1      -3.666   0.958  -2.018  0.00  0.00     0.003 A 
ENDROOT
BRANCH   1   7
ATOM      7  C1' I4B d   1      -1.344   0.105  -2.440  0.00  0.00     0.060 C 
BRANCH   7   8
ATOM      8  C2' I4B d   1      -0.495  -1.050  -1.949  0.00  0.00    -0.013 C 
ATOM      9  C4' I4B d   1       0.136  -1.791  -3.099  0.00  0.00     0.013 C 
ATOM     10  C3' I4B d   1       0.547  -0.498  -1.023  0.00  0.00     0.013 C 
ENDBRANCH   7   8
ENDBRANCH   1   7
TORSDOF 2
ENDMDL
