MODEL 1
REMARK minimizedAffinity 4.51749039
REMARK minimizedRMSD -1
REMARK  2 active torsions:
REMARK  status: ('A' for Active; 'I' for Inactive)
REMARK    1  A    between atoms: C2'_3  and  C1'_4 
REMARK    2  A    between atoms: C1'_4  and  C1_5 
ROOT
ATOM      1  C1  I4B d   1      -1.107  -0.019  -2.195  0.00  0.00    -0.075 A 
ATOM      2  C2  I4B d   1      -1.942  -0.550  -1.244  0.00  0.00     0.003 A 
ATOM      3  C3  I4B d   1      -3.222   0.014  -1.024  0.00  0.00     0.002 A 
ATOM      4  C4  I4B d   1      -3.603   1.132  -1.737  0.00  0.00    -0.004 A 
ATOM      5  C5  I4B d   1      -2.765   1.655  -2.717  0.00  0.00     0.002 A 
ATOM      6  C6  I4B d   1      -1.514   1.069  -2.957  0.00  0.00     0.003 A 
ENDROOT
BRANCH   1   7
ATOM      7  C1' I4B d   1       0.250  -0.620  -2.379  0.00  0.00     0.060 C 
BRANCH   7   8
ATOM      8  C2' I4B d   1       0.960  -0.586  -1.041  0.00  0.00    -0.013 C 
ATOM      9  C4' I4B d   1       1.505  -1.943  -0.678  0.00  0.00     0.013 C 
ATOM     10  C3' I4B d   1       2.058   0.433  -1.125  0.00  0.00     0.013 C 
ENDBRANCH   7   8
ENDBRANCH   1   7
TORSDOF 2
ENDMDL
