MODEL 1
REMARK minimizedAffinity 1.485834
REMARK minimizedRMSD -1
REMARK  2 active torsions:
REMARK  status: ('A' for Active; 'I' for Inactive)
REMARK    1  A    between atoms: C2'_3  and  C1'_4 
REMARK    2  A    between atoms: C1'_4  and  C1_5 
ROOT
ATOM      1  C1  I4B d   1       0.637  -3.077  -0.953  0.00  0.00    -0.075 A 
ATOM      2  C2  I4B d   1       1.652  -3.992  -0.821  0.00  0.00     0.003 A 
ATOM      3  C3  I4B d   1       1.453  -5.337  -1.214  0.00  0.00     0.002 A 
ATOM      4  C4  I4B d   1       0.217  -5.734  -1.682  0.00  0.00    -0.004 A 
ATOM      5  C5  I4B d   1      -0.803  -4.800  -1.836  0.00  0.00     0.002 A 
ATOM      6  C6  I4B d   1      -0.589  -3.460  -1.481  0.00  0.00     0.003 A 
ENDROOT
BRANCH   1   7
ATOM      7  C1' I4B d   1       0.871  -1.671  -0.497  0.00  0.00     0.060 C 
BRANCH   7   8
ATOM      8  C2' I4B d   1       2.000  -1.093  -1.326  0.00  0.00    -0.013 C 
ATOM      9  C4' I4B d   1       1.514  -0.666  -2.686  0.00  0.00     0.013 C 
ATOM     10  C3' I4B d   1       2.583   0.063  -0.571  0.00  0.00     0.013 C 
ENDBRANCH   7   8
ENDBRANCH   1   7
TORSDOF 2
ENDMDL
