MODEL 1
REMARK minimizedAffinity -4.27907419
REMARK minimizedRMSD -1
REMARK  0 active torsions:
REMARK  status: ('A' for Active; 'I' for Inactive)
ROOT
ATOM      1  C4' PXY d   1      -1.769   0.989  -1.286  0.00  0.00     0.077 C 
ATOM      2  C1' PXY d   1       3.115  -1.070   1.021  0.00  0.00     0.077 C 
ATOM      3  C1  PXY d   1       1.829  -0.541   0.419  0.00  0.00    -0.082 A 
ATOM      4  C2  PXY d   1       1.874   0.458  -0.448  0.00  0.00     0.003 A 
ATOM      5  C3  PXY d   1       0.718   0.969  -0.978  0.00  0.00     0.003 A 
ATOM      6  C4  PXY d   1      -0.494   0.417  -0.659  0.00  0.00    -0.082 A 
ATOM      7  C5  PXY d   1      -0.548  -0.609   0.216  0.00  0.00     0.003 A 
ATOM      8  C6  PXY d   1       0.634  -1.087   0.775  0.00  0.00     0.003 A 
ENDROOT
TORSDOF 0
ENDMDL
