MODEL 1
REMARK minimizedAffinity -0.639438152
REMARK minimizedRMSD -1
REMARK  0 active torsions:
REMARK  status: ('A' for Active; 'I' for Inactive)
ROOT
ATOM      1  C4' PXY d   1      -2.521  -4.646   3.263  0.00  0.00     0.077 C 
ATOM      2  C1' PXY d   1      -5.042  -5.805  -1.808  0.00  0.00     0.077 C 
ATOM      3  C1  PXY d   1      -4.370  -5.504  -0.483  0.00  0.00    -0.082 A 
ATOM      4  C2  PXY d   1      -5.080  -5.534   0.633  0.00  0.00     0.003 A 
ATOM      5  C3  PXY d   1      -4.495  -5.234   1.836  0.00  0.00     0.003 A 
ATOM      6  C4  PXY d   1      -3.157  -4.952   1.904  0.00  0.00    -0.082 A 
ATOM      7  C5  PXY d   1      -2.423  -4.930   0.771  0.00  0.00     0.003 A 
ATOM      8  C6  PXY d   1      -3.044  -5.198  -0.445  0.00  0.00     0.003 A 
ENDROOT
TORSDOF 0
ENDMDL
