MODEL 1
REMARK minimizedAffinity -2.61496639
REMARK minimizedRMSD -1
REMARK  0 active torsions:
REMARK  status: ('A' for Active; 'I' for Inactive)
ROOT
ATOM      1  C4' PXY d   1      -2.234  -1.064   2.527  0.00  0.00     0.077 C 
ATOM      2  C1' PXY d   1       2.285   0.095  -0.887  0.00  0.00     0.077 C 
ATOM      3  C1  PXY d   1       1.096  -0.196   0.008  0.00  0.00    -0.082 A 
ATOM      4  C2  PXY d   1       1.135  -1.233   0.830  0.00  0.00     0.003 A 
ATOM      5  C3  PXY d   1       0.056  -1.529   1.623  0.00  0.00     0.003 A 
ATOM      6  C4  PXY d   1      -1.053  -0.726   1.612  0.00  0.00    -0.082 A 
ATOM      7  C5  PXY d   1      -1.096   0.339   0.784  0.00  0.00     0.003 A 
ATOM      8  C6  PXY d   1      -0.006   0.599  -0.042  0.00  0.00     0.003 A 
ENDROOT
TORSDOF 0
ENDMDL
