MODEL 1
REMARK minimizedAffinity -5.04967499
REMARK minimizedRMSD -1
REMARK  0 active torsions:
REMARK  status: ('A' for Active; 'I' for Inactive)
ROOT
ATOM      1  C4' PXY d   1      -1.009   1.499  -0.613  0.00  0.00     0.077 C 
ATOM      2  C1' PXY d   1       1.441  -3.262   1.564  0.00  0.00     0.077 C 
ATOM      3  C1  PXY d   1       0.787  -2.019   0.995  0.00  0.00    -0.082 A 
ATOM      4  C2  PXY d   1       1.470  -1.237   0.174  0.00  0.00     0.003 A 
ATOM      5  C3  PXY d   1       0.905  -0.092  -0.324  0.00  0.00     0.003 A 
ATOM      6  C4  PXY d   1      -0.392   0.229  -0.022  0.00  0.00    -0.082 A 
ATOM      7  C5  PXY d   1      -1.099  -0.569   0.805  0.00  0.00     0.003 A 
ATOM      8  C6  PXY d   1      -0.493  -1.706   1.334  0.00  0.00     0.003 A 
ENDROOT
TORSDOF 0
ENDMDL
