MODEL 1
REMARK minimizedAffinity -4.96629953
REMARK minimizedRMSD -1
REMARK  0 active torsions:
REMARK  status: ('A' for Active; 'I' for Inactive)
ROOT
ATOM      1  C4' PXY d   1      -0.983   1.369  -0.944  0.00  0.00     0.077 C 
ATOM      2  C1' PXY d   1       1.559  -3.051   1.779  0.00  0.00     0.077 C 
ATOM      3  C1  PXY d   1       0.881  -1.895   1.070  0.00  0.00    -0.082 A 
ATOM      4  C2  PXY d   1       1.443  -1.366  -0.005  0.00  0.00     0.003 A 
ATOM      5  C3  PXY d   1       0.860  -0.300  -0.640  0.00  0.00     0.003 A 
ATOM      6  C4  PXY d   1      -0.339   0.196  -0.202  0.00  0.00    -0.082 A 
ATOM      7  C5  PXY d   1      -0.924  -0.345   0.888  0.00  0.00     0.003 A 
ATOM      8  C6  PXY d   1      -0.295  -1.400   1.543  0.00  0.00     0.003 A 
ENDROOT
TORSDOF 0
ENDMDL
