MODEL 1
REMARK minimizedAffinity -3.41119456
REMARK minimizedRMSD -1
REMARK  0 active torsions:
REMARK  status: ('A' for Active; 'I' for Inactive)
ROOT
ATOM      1  C4' PXY d   1      -0.769   1.823  -0.880  0.00  0.00     0.077 C 
ATOM      2  C1' PXY d   1       1.547  -3.013   1.280  0.00  0.00     0.077 C 
ATOM      3  C1  PXY d   1       0.927  -1.751   0.714  0.00  0.00    -0.082 A 
ATOM      4  C2  PXY d   1       1.679  -0.905   0.027  0.00  0.00     0.003 A 
ATOM      5  C3  PXY d   1       1.142   0.257  -0.465  0.00  0.00     0.003 A 
ATOM      6  C4  PXY d   1      -0.189   0.531  -0.298  0.00  0.00    -0.082 A 
ATOM      7  C5  PXY d   1      -0.964  -0.332   0.392  0.00  0.00     0.003 A 
ATOM      8  C6  PXY d   1      -0.391  -1.486   0.919  0.00  0.00     0.003 A 
ENDROOT
TORSDOF 0
ENDMDL
