MODEL 1
REMARK minimizedAffinity -4.08127213
REMARK minimizedRMSD -1
REMARK  0 active torsions:
REMARK  status: ('A' for Active; 'I' for Inactive)
ROOT
ATOM      1  C4' PXY d   1      -1.606  -1.834   2.857  0.00  0.00     0.077 C 
ATOM      2  C1' PXY d   1       2.353   0.069  -0.901  0.00  0.00     0.077 C 
ATOM      3  C1  PXY d   1       1.321  -0.441   0.084  0.00  0.00    -0.082 A 
ATOM      4  C2  PXY d   1       0.135   0.141   0.150  0.00  0.00     0.003 A 
ATOM      5  C3  PXY d   1      -0.799  -0.287   1.058  0.00  0.00     0.003 A 
ATOM      6  C4  PXY d   1      -0.536  -1.358   1.870  0.00  0.00    -0.082 A 
ATOM      7  C5  PXY d   1       0.668  -1.964   1.802  0.00  0.00     0.003 A 
ATOM      8  C6  PXY d   1       1.617  -1.488   0.902  0.00  0.00     0.003 A 
ENDROOT
TORSDOF 0
ENDMDL
