MODEL 1
REMARK minimizedAffinity -4.53862047
REMARK minimizedRMSD -1
REMARK  0 active torsions:
REMARK  status: ('A' for Active; 'I' for Inactive)
ROOT
ATOM      1  C4' PXY d   1       1.280  -3.128   1.027  0.00  0.00     0.077 C 
ATOM      2  C1' PXY d   1      -0.642   2.093  -0.543  0.00  0.00     0.077 C 
ATOM      3  C1  PXY d   1      -0.129   0.724  -0.141  0.00  0.00    -0.082 A 
ATOM      4  C2  PXY d   1      -0.914  -0.093   0.543  0.00  0.00     0.003 A 
ATOM      5  C3  PXY d   1      -0.455  -1.322   0.942  0.00  0.00     0.003 A 
ATOM      6  C4  PXY d   1       0.801  -1.740   0.592  0.00  0.00    -0.082 A 
ATOM      7  C5  PXY d   1       1.604  -0.916  -0.115  0.00  0.00     0.003 A 
ATOM      8  C6  PXY d   1       1.134   0.344  -0.475  0.00  0.00     0.003 A 
ENDROOT
TORSDOF 0
ENDMDL
