MODEL 1
REMARK minimizedAffinity -1.53012204
REMARK minimizedRMSD -1
REMARK  0 active torsions:
REMARK  status: ('A' for Active; 'I' for Inactive)
ROOT
ATOM      1  C4' PXY d   1      -1.478   2.173  -1.809  0.00  0.00     0.077 C 
ATOM      2  C1' PXY d   1       1.996  -1.559   0.914  0.00  0.00     0.077 C 
ATOM      3  C1  PXY d   1       1.075  -0.584   0.208  0.00  0.00    -0.082 A 
ATOM      4  C2  PXY d   1       1.353  -0.199  -1.027  0.00  0.00     0.003 A 
ATOM      5  C3  PXY d   1       0.549   0.707  -1.669  0.00  0.00     0.003 A 
ATOM      6  C4  PXY d   1      -0.582   1.183  -1.060  0.00  0.00    -0.082 A 
ATOM      7  C5  PXY d   1      -0.878   0.786   0.196  0.00  0.00     0.003 A 
ATOM      8  C6  PXY d   1      -0.026  -0.102   0.845  0.00  0.00     0.003 A 
ENDROOT
TORSDOF 0
ENDMDL
