MODEL 1
REMARK minimizedAffinity -1.9136827
REMARK minimizedRMSD -1
REMARK  0 active torsions:
REMARK  status: ('A' for Active; 'I' for Inactive)
ROOT
ATOM      1  C4' PXY d   1      -0.379   1.746  -0.968  0.00  0.00     0.077 C 
ATOM      2  C1' PXY d   1       1.237  -3.346   1.240  0.00  0.00     0.077 C 
ATOM      3  C1  PXY d   1       0.825  -2.006   0.663  0.00  0.00    -0.082 A 
ATOM      4  C2  PXY d   1      -0.453  -1.665   0.649  0.00  0.00     0.003 A 
ATOM      5  C3  PXY d   1      -0.846  -0.471   0.102  0.00  0.00     0.003 A 
ATOM      6  C4  PXY d   1       0.084   0.407  -0.387  0.00  0.00    -0.082 A 
ATOM      7  C5  PXY d   1       1.391   0.071  -0.367  0.00  0.00     0.003 A 
ATOM      8  C6  PXY d   1       1.766  -1.164   0.155  0.00  0.00     0.003 A 
ENDROOT
TORSDOF 0
ENDMDL
