MODEL 1
REMARK minimizedAffinity -5.06035852
REMARK minimizedRMSD -1
REMARK  0 active torsions:
REMARK  status: ('A' for Active; 'I' for Inactive)
ROOT
ATOM      1  C4' PXY d   1      -0.331   2.424  -1.437  0.00  0.00     0.077 C 
ATOM      2  C1' PXY d   1       0.924  -2.616   1.101  0.00  0.00     0.077 C 
ATOM      3  C1  PXY d   1       0.607  -1.290   0.436  0.00  0.00    -0.082 A 
ATOM      4  C2  PXY d   1      -0.635  -0.833   0.447  0.00  0.00     0.003 A 
ATOM      5  C3  PXY d   1      -0.945   0.348  -0.177  0.00  0.00     0.003 A 
ATOM      6  C4  PXY d   1       0.036   1.095  -0.771  0.00  0.00    -0.082 A 
ATOM      7  C5  PXY d   1       1.308   0.641  -0.777  0.00  0.00     0.003 A 
ATOM      8  C6  PXY d   1       1.594  -0.580  -0.174  0.00  0.00     0.003 A 
ENDROOT
TORSDOF 0
ENDMDL
