MODEL 1
REMARK minimizedAffinity -4.34882402
REMARK minimizedRMSD -1
REMARK  0 active torsions:
REMARK  status: ('A' for Active; 'I' for Inactive)
ROOT
ATOM      1  C4' PXY d   1      -1.008   1.877  -1.501  0.00  0.00     0.077 C 
ATOM      2  C1' PXY d   1       1.549  -2.542   1.211  0.00  0.00     0.077 C 
ATOM      3  C1  PXY d   1       0.890  -1.376   0.501  0.00  0.00    -0.082 A 
ATOM      4  C2  PXY d   1      -0.429  -1.270   0.504  0.00  0.00     0.003 A 
ATOM      5  C3  PXY d   1      -1.044  -0.239  -0.160  0.00  0.00     0.003 A 
ATOM      6  C4  PXY d   1      -0.299   0.722  -0.789  0.00  0.00    -0.082 A 
ATOM      7  C5  PXY d   1       1.048   0.626  -0.788  0.00  0.00     0.003 A 
ATOM      8  C6  PXY d   1       1.651  -0.450  -0.143  0.00  0.00     0.003 A 
ENDROOT
TORSDOF 0
ENDMDL
