MODEL 1
REMARK minimizedAffinity -4.06134796
REMARK minimizedRMSD -1
REMARK  0 active torsions:
REMARK  status: ('A' for Active; 'I' for Inactive)
ROOT
ATOM      1  C4' PXY d   1       1.783  -2.941   1.612  0.00  0.00     0.077 C 
ATOM      2  C1' PXY d   1      -1.263   1.363  -0.757  0.00  0.00     0.077 C 
ATOM      3  C1  PXY d   1      -0.473   0.233  -0.126  0.00  0.00    -0.082 A 
ATOM      4  C2  PXY d   1       0.830   0.147  -0.340  0.00  0.00     0.003 A 
ATOM      5  C3  PXY d   1       1.554  -0.886   0.197  0.00  0.00     0.003 A 
ATOM      6  C4  PXY d   1       0.948  -1.811   1.003  0.00  0.00    -0.082 A 
ATOM      7  C5  PXY d   1      -0.379  -1.725   1.235  0.00  0.00     0.003 A 
ATOM      8  C6  PXY d   1      -1.104  -0.691   0.648  0.00  0.00     0.003 A 
ENDROOT
TORSDOF 0
ENDMDL
