MODEL 1
REMARK minimizedAffinity -4.52874327
REMARK minimizedRMSD -1
REMARK  0 active torsions:
REMARK  status: ('A' for Active; 'I' for Inactive)
ROOT
ATOM      1  C4' PXY d   1      -1.204  -1.867   2.870  0.00  0.00     0.077 C 
ATOM      2  C1' PXY d   1       2.521  -0.257  -1.247  0.00  0.00     0.077 C 
ATOM      3  C1  PXY d   1       1.549  -0.691  -0.167  0.00  0.00    -0.082 A 
ATOM      4  C2  PXY d   1       0.424  -0.017   0.010  0.00  0.00     0.003 A 
ATOM      5  C3  PXY d   1      -0.451  -0.377   1.003  0.00  0.00     0.003 A 
ATOM      6  C4  PXY d   1      -0.198  -1.470   1.786  0.00  0.00    -0.082 A 
ATOM      7  C5  PXY d   1       0.942  -2.170   1.604  0.00  0.00     0.003 A 
ATOM      8  C6  PXY d   1       1.837  -1.764   0.619  0.00  0.00     0.003 A 
ENDROOT
TORSDOF 0
ENDMDL
