MODEL 1
REMARK minimizedAffinity -4.75364399
REMARK minimizedRMSD -1
REMARK  0 active torsions:
REMARK  status: ('A' for Active; 'I' for Inactive)
ROOT
ATOM      1  C4' PXY d   1       1.945   0.752  -1.313  0.00  0.00     0.077 C 
ATOM      2  C1' PXY d   1       0.103  -3.100   2.584  0.00  0.00     0.077 C 
ATOM      3  C1  PXY d   1       0.574  -2.090   1.557  0.00  0.00    -0.082 A 
ATOM      4  C2  PXY d   1       1.861  -2.009   1.260  0.00  0.00     0.003 A 
ATOM      5  C3  PXY d   1       2.309  -1.080   0.357  0.00  0.00     0.003 A 
ATOM      6  C4  PXY d   1       1.423  -0.260  -0.289  0.00  0.00    -0.082 A 
ATOM      7  C5  PXY d   1       0.107  -0.343  -0.000  0.00  0.00     0.003 A 
ATOM      8  C6  PXY d   1      -0.322  -1.265   0.950  0.00  0.00     0.003 A 
ENDROOT
TORSDOF 0
ENDMDL
