MODEL 1
REMARK minimizedAffinity -3.88083482
REMARK minimizedRMSD -1
REMARK  0 active torsions:
REMARK  status: ('A' for Active; 'I' for Inactive)
ROOT
ATOM      1  C4' PXY d   1       1.587  -2.659   1.456  0.00  0.00     0.077 C 
ATOM      2  C1' PXY d   1      -1.104   1.700  -1.223  0.00  0.00     0.077 C 
ATOM      3  C1  PXY d   1      -0.408   0.556  -0.511  0.00  0.00    -0.082 A 
ATOM      4  C2  PXY d   1       0.896   0.390  -0.662  0.00  0.00     0.003 A 
ATOM      5  C3  PXY d   1       1.537  -0.658  -0.051  0.00  0.00     0.003 A 
ATOM      6  C4  PXY d   1       0.844  -1.513   0.764  0.00  0.00    -0.082 A 
ATOM      7  C5  PXY d   1      -0.485  -1.343   0.931  0.00  0.00     0.003 A 
ATOM      8  C6  PXY d   1      -1.123  -0.298   0.270  0.00  0.00     0.003 A 
ENDROOT
TORSDOF 0
ENDMDL
