MODEL 1
REMARK minimizedAffinity -5.57298613
REMARK minimizedRMSD -1
REMARK  0 active torsions:
REMARK  status: ('A' for Active; 'I' for Inactive)
ROOT
ATOM      1  C4' PXY d   1       1.219  -3.429   1.832  0.00  0.00     0.077 C 
ATOM      2  C1' PXY d   1      -0.884   1.330  -0.687  0.00  0.00     0.077 C 
ATOM      3  C1  PXY d   1      -0.340   0.084  -0.016  0.00  0.00    -0.082 A 
ATOM      4  C2  PXY d   1       0.874  -0.346  -0.319  0.00  0.00     0.003 A 
ATOM      5  C3  PXY d   1       1.368  -1.489   0.254  0.00  0.00     0.003 A 
ATOM      6  C4  PXY d   1       0.633  -2.170   1.187  0.00  0.00    -0.082 A 
ATOM      7  C5  PXY d   1      -0.602  -1.732   1.510  0.00  0.00     0.003 A 
ATOM      8  C6  PXY d   1      -1.102  -0.593   0.886  0.00  0.00     0.003 A 
ENDROOT
TORSDOF 0
ENDMDL
