MODEL 1
REMARK minimizedAffinity -4.55980396
REMARK minimizedRMSD -1
REMARK  0 active torsions:
REMARK  status: ('A' for Active; 'I' for Inactive)
ROOT
ATOM      1  C4' PXY d   1      -1.144   1.210  -0.031  0.00  0.00     0.077 C 
ATOM      2  C1' PXY d   1       2.037  -3.309   1.666  0.00  0.00     0.077 C 
ATOM      3  C1  PXY d   1       1.214  -2.117   1.219  0.00  0.00    -0.082 A 
ATOM      4  C2  PXY d   1      -0.050  -2.016   1.598  0.00  0.00     0.003 A 
ATOM      5  C3  PXY d   1      -0.818  -0.961   1.177  0.00  0.00     0.003 A 
ATOM      6  C4  PXY d   1      -0.272   0.029   0.404  0.00  0.00    -0.082 A 
ATOM      7  C5  PXY d   1       1.019  -0.061   0.022  0.00  0.00     0.003 A 
ATOM      8  C6  PXY d   1       1.771  -1.161   0.426  0.00  0.00     0.003 A 
ENDROOT
TORSDOF 0
ENDMDL
