MODEL 1
REMARK minimizedAffinity -3.44523311
REMARK minimizedRMSD -1
REMARK  0 active torsions:
REMARK  status: ('A' for Active; 'I' for Inactive)
ROOT
ATOM      1  C4' PXY d   1      -1.164  -2.463   2.672  0.00  0.00     0.077 C 
ATOM      2  C1' PXY d   1       2.299   0.091  -1.188  0.00  0.00     0.077 C 
ATOM      3  C1  PXY d   1       1.397  -0.590  -0.178  0.00  0.00    -0.082 A 
ATOM      4  C2  PXY d   1       0.218  -0.061   0.107  0.00  0.00     0.003 A 
ATOM      5  C3  PXY d   1      -0.597  -0.646   1.042  0.00  0.00     0.003 A 
ATOM      6  C4  PXY d   1      -0.224  -1.814   1.651  0.00  0.00    -0.082 A 
ATOM      7  C5  PXY d   1       0.972  -2.366   1.357  0.00  0.00     0.003 A 
ATOM      8  C6  PXY d   1       1.802  -1.734   0.436  0.00  0.00     0.003 A 
ENDROOT
TORSDOF 0
ENDMDL
