MODEL 1
REMARK minimizedAffinity -4.58799314
REMARK minimizedRMSD -1
REMARK  0 active torsions:
REMARK  status: ('A' for Active; 'I' for Inactive)
ROOT
ATOM      1  C4' PXY d   1      -1.069  -2.119   3.016  0.00  0.00     0.077 C 
ATOM      2  C1' PXY d   1       2.709  -0.895  -1.185  0.00  0.00     0.077 C 
ATOM      3  C1  PXY d   1       1.724  -1.227  -0.082  0.00  0.00    -0.082 A 
ATOM      4  C2  PXY d   1       0.539  -0.638  -0.063  0.00  0.00     0.003 A 
ATOM      5  C3  PXY d   1      -0.351  -0.903   0.946  0.00  0.00     0.003 A 
ATOM      6  C4  PXY d   1      -0.047  -1.821   1.915  0.00  0.00    -0.082 A 
ATOM      7  C5  PXY d   1       1.156  -2.434   1.897  0.00  0.00     0.003 A 
ATOM      8  C6  PXY d   1       2.062  -2.121   0.888  0.00  0.00     0.003 A 
ENDROOT
TORSDOF 0
ENDMDL
