MODEL 1
REMARK minimizedAffinity 16.1708412
REMARK minimizedRMSD -1
REMARK  0 active torsions:
REMARK  status: ('A' for Active; 'I' for Inactive)
ROOT
ATOM      1  C1  DEN d   1       3.654   0.774   3.109  0.00  0.00     0.130 A 
ATOM      2  C2  DEN d   1       4.465   0.308   1.987  0.00  0.00    -0.031 A 
ATOM      3  C3  DEN d   1       3.647  -0.627   1.189  0.00  0.00     0.027 A 
ATOM      4  C4  DEN d   1       1.214  -1.393   1.578  0.00  0.00     0.027 A 
ATOM      5  C5  DEN d   1       0.120  -1.278   2.407  0.00  0.00    -0.003 A 
ATOM      6  C6  DEN d   1       0.138  -0.505   3.537  0.00  0.00     0.001 A 
ATOM      7  C7  DEN d   1       1.259   0.221   3.845  0.00  0.00     0.017 A 
ATOM      8  C8  DEN d   1       2.369   0.104   3.019  0.00  0.00    -0.094 A 
ATOM      9  C9  DEN d   1       2.326  -0.673   1.874  0.00  0.00    -0.072 A 
ENDROOT
TORSDOF 0
ENDMDL
