MODEL 1
REMARK minimizedAffinity 21.1431427
REMARK minimizedRMSD -1
REMARK  0 active torsions:
REMARK  status: ('A' for Active; 'I' for Inactive)
ROOT
ATOM      1  C1  DEN d   1      -2.469   4.519  -1.962  0.00  0.00     0.130 A 
ATOM      2  C2  DEN d   1      -2.685   3.080  -1.836  0.00  0.00    -0.031 A 
ATOM      3  C3  DEN d   1      -2.474   2.469  -3.164  0.00  0.00     0.027 A 
ATOM      4  C4  DEN d   1      -1.831   3.604  -5.389  0.00  0.00     0.027 A 
ATOM      5  C5  DEN d   1      -1.551   4.809  -5.995  0.00  0.00    -0.003 A 
ATOM      6  C6  DEN d   1      -1.590   5.996  -5.312  0.00  0.00     0.001 A 
ATOM      7  C7  DEN d   1      -1.872   5.999  -3.972  0.00  0.00     0.017 A 
ATOM      8  C8  DEN d   1      -2.163   4.789  -3.356  0.00  0.00    -0.094 A 
ATOM      9  C9  DEN d   1      -2.106   3.598  -4.060  0.00  0.00    -0.072 A 
ENDROOT
TORSDOF 0
ENDMDL
