MODEL 1
REMARK minimizedAffinity 5.51875687
REMARK minimizedRMSD -1
REMARK  0 active torsions:
REMARK  status: ('A' for Active; 'I' for Inactive)
ROOT
ATOM      1  C1  DEN d   1      -5.690  -4.856  -0.288  0.00  0.00     0.130 A 
ATOM      2  C2  DEN d   1      -4.609  -5.682  -0.820  0.00  0.00    -0.031 A 
ATOM      3  C3  DEN d   1      -3.397  -5.419  -0.019  0.00  0.00     0.027 A 
ATOM      4  C4  DEN d   1      -3.090  -3.824   1.984  0.00  0.00     0.027 A 
ATOM      5  C5  DEN d   1      -3.719  -2.903   2.792  0.00  0.00    -0.003 A 
ATOM      6  C6  DEN d   1      -5.029  -2.546   2.611  0.00  0.00     0.001 A 
ATOM      7  C7  DEN d   1      -5.766  -3.147   1.625  0.00  0.00     0.017 A 
ATOM      8  C8  DEN d   1      -5.136  -4.071   0.801  0.00  0.00    -0.094 A 
ATOM      9  C9  DEN d   1      -3.815  -4.428   1.009  0.00  0.00    -0.072 A 
ENDROOT
TORSDOF 0
ENDMDL
