MODEL 1
REMARK minimizedAffinity 15.199399
REMARK minimizedRMSD -1
REMARK  0 active torsions:
REMARK  status: ('A' for Active; 'I' for Inactive)
ROOT
ATOM      1  C1  DEN d   1       0.452  -1.946   1.688  0.00  0.00     0.130 A 
ATOM      2  C2  DEN d   1      -0.421  -1.165   2.560  0.00  0.00    -0.031 A 
ATOM      3  C3  DEN d   1       0.372  -0.056   3.126  0.00  0.00     0.027 A 
ATOM      4  C4  DEN d   1       2.854   0.527   2.735  0.00  0.00     0.027 A 
ATOM      5  C5  DEN d   1       4.008   0.148   2.085  0.00  0.00    -0.003 A 
ATOM      6  C6  DEN d   1       4.065  -0.966   1.290  0.00  0.00     0.001 A 
ATOM      7  C7  DEN d   1       2.936  -1.715   1.089  0.00  0.00     0.017 A 
ATOM      8  C8  DEN d   1       1.771  -1.343   1.747  0.00  0.00    -0.094 A 
ATOM      9  C9  DEN d   1       1.730  -0.207   2.537  0.00  0.00    -0.072 A 
ENDROOT
TORSDOF 0
ENDMDL
