MODEL 1
REMARK minimizedAffinity 13.8634863
REMARK minimizedRMSD -1
REMARK  0 active torsions:
REMARK  status: ('A' for Active; 'I' for Inactive)
ROOT
ATOM      1  C1  DEN d   1      -1.903  -3.639   2.250  0.00  0.00     0.130 A 
ATOM      2  C2  DEN d   1      -2.878  -3.396   3.310  0.00  0.00    -0.031 A 
ATOM      3  C3  DEN d   1      -2.421  -2.230   4.092  0.00  0.00     0.027 A 
ATOM      4  C4  DEN d   1      -0.314  -0.779   3.762  0.00  0.00     0.027 A 
ATOM      5  C5  DEN d   1       0.820  -0.605   3.001  0.00  0.00    -0.003 A 
ATOM      6  C6  DEN d   1       1.142  -1.443   1.966  0.00  0.00     0.001 A 
ATOM      7  C7  DEN d   1       0.296  -2.468   1.635  0.00  0.00     0.017 A 
ATOM      8  C8  DEN d   1      -0.847  -2.655   2.403  0.00  0.00    -0.094 A 
ATOM      9  C9  DEN d   1      -1.160  -1.789   3.437  0.00  0.00    -0.072 A 
ENDROOT
TORSDOF 0
ENDMDL
