MODEL 1
REMARK minimizedAffinity 20.202528
REMARK minimizedRMSD -1
REMARK  0 active torsions:
REMARK  status: ('A' for Active; 'I' for Inactive)
ROOT
ATOM      1  C1  DEN d   1      -2.773   2.624  -2.490  0.00  0.00     0.130 A 
ATOM      2  C2  DEN d   1      -3.866   2.785  -1.535  0.00  0.00    -0.031 A 
ATOM      3  C3  DEN d   1      -3.277   2.977  -0.194  0.00  0.00     0.027 A 
ATOM      4  C4  DEN d   1      -0.791   3.045   0.491  0.00  0.00     0.027 A 
ATOM      5  C5  DEN d   1       0.503   2.944   0.031  0.00  0.00    -0.003 A 
ATOM      6  C6  DEN d   1       0.794   2.697  -1.285  0.00  0.00     0.001 A 
ATOM      7  C7  DEN d   1      -0.224   2.588  -2.196  0.00  0.00     0.017 A 
ATOM      8  C8  DEN d   1      -1.532   2.681  -1.738  0.00  0.00    -0.094 A 
ATOM      9  C9  DEN d   1      -1.804   2.943  -0.406  0.00  0.00    -0.072 A 
ENDROOT
TORSDOF 0
ENDMDL
