MODEL 1
REMARK minimizedAffinity 10.1445551
REMARK minimizedRMSD -1
REMARK  0 active torsions:
REMARK  status: ('A' for Active; 'I' for Inactive)
ROOT
ATOM      1  C1  DEN d   1      -3.288  -5.202  -0.795  0.00  0.00     0.130 A 
ATOM      2  C2  DEN d   1      -4.509  -6.000  -0.872  0.00  0.00    -0.031 A 
ATOM      3  C3  DEN d   1      -5.272  -5.787   0.375  0.00  0.00     0.027 A 
ATOM      4  C4  DEN d   1      -4.687  -4.304   2.402  0.00  0.00     0.027 A 
ATOM      5  C5  DEN d   1      -3.748  -3.446   2.932  0.00  0.00    -0.003 A 
ATOM      6  C6  DEN d   1      -2.584  -3.142   2.276  0.00  0.00     0.001 A 
ATOM      7  C7  DEN d   1      -2.349  -3.666   1.033  0.00  0.00     0.017 A 
ATOM      8  C8  DEN d   1      -3.288  -4.538   0.495  0.00  0.00    -0.094 A 
ATOM      9  C9  DEN d   1      -4.464  -4.822   1.168  0.00  0.00    -0.072 A 
ENDROOT
TORSDOF 0
ENDMDL
