MODEL 1
REMARK minimizedAffinity 11.8825312
REMARK minimizedRMSD -1
REMARK  0 active torsions:
REMARK  status: ('A' for Active; 'I' for Inactive)
ROOT
ATOM      1  C1  DEN d   1       3.122  -1.167   1.847  0.00  0.00     0.130 A 
ATOM      2  C2  DEN d   1       2.110  -1.798   1.004  0.00  0.00    -0.031 A 
ATOM      3  C3  DEN d   1       0.794  -1.604   1.647  0.00  0.00     0.027 A 
ATOM      4  C4  DEN d   1       0.229  -0.392   3.852  0.00  0.00     0.027 A 
ATOM      5  C5  DEN d   1       0.758   0.293   4.924  0.00  0.00    -0.003 A 
ATOM      6  C6  DEN d   1       2.104   0.507   5.062  0.00  0.00     0.001 A 
ATOM      7  C7  DEN d   1       2.963   0.071   4.088  0.00  0.00     0.017 A 
ATOM      8  C8  DEN d   1       2.439  -0.626   3.008  0.00  0.00    -0.094 A 
ATOM      9  C9  DEN d   1       1.074  -0.822   2.881  0.00  0.00    -0.072 A 
ENDROOT
TORSDOF 0
ENDMDL
