MODEL 1
REMARK minimizedAffinity 23.180397
REMARK minimizedRMSD -1
REMARK  0 active torsions:
REMARK  status: ('A' for Active; 'I' for Inactive)
ROOT
ATOM      1  C1  DEN d   1      -0.678  -1.649   2.465  0.00  0.00     0.130 A 
ATOM      2  C2  DEN d   1       0.509  -1.456   1.637  0.00  0.00    -0.031 A 
ATOM      3  C3  DEN d   1       1.520  -0.748   2.448  0.00  0.00     0.027 A 
ATOM      4  C4  DEN d   1       1.365   0.061   4.892  0.00  0.00     0.027 A 
ATOM      5  C5  DEN d   1       0.550   0.135   6.000  0.00  0.00    -0.003 A 
ATOM      6  C6  DEN d   1      -0.732  -0.345   5.997  0.00  0.00     0.001 A 
ATOM      7  C7  DEN d   1      -1.223  -0.963   4.877  0.00  0.00     0.017 A 
ATOM      8  C8  DEN d   1      -0.410  -1.036   3.753  0.00  0.00    -0.094 A 
ATOM      9  C9  DEN d   1       0.888  -0.554   3.780  0.00  0.00    -0.072 A 
ENDROOT
TORSDOF 0
ENDMDL
