MODEL 1
REMARK minimizedAffinity 10.4696827
REMARK minimizedRMSD -1
REMARK  0 active torsions:
REMARK  status: ('A' for Active; 'I' for Inactive)
ROOT
ATOM      1  C1  DEN d   1       0.554  -1.216   2.377  0.00  0.00     0.130 A 
ATOM      2  C2  DEN d   1       0.133  -0.407   3.517  0.00  0.00    -0.031 A 
ATOM      3  C3  DEN d   1       1.304   0.355   3.994  0.00  0.00     0.027 A 
ATOM      4  C4  DEN d   1       3.716   0.364   3.078  0.00  0.00     0.027 A 
ATOM      5  C5  DEN d   1       4.557  -0.170   2.128  0.00  0.00    -0.003 A 
ATOM      6  C6  DEN d   1       4.136  -1.107   1.223  0.00  0.00     0.001 A 
ATOM      7  C7  DEN d   1       2.825  -1.507   1.220  0.00  0.00     0.017 A 
ATOM      8  C8  DEN d   1       1.972  -0.978   2.180  0.00  0.00    -0.094 A 
ATOM      9  C9  DEN d   1       2.415  -0.022   3.079  0.00  0.00    -0.072 A 
ENDROOT
TORSDOF 0
ENDMDL
