MODEL 1
REMARK minimizedAffinity 4.22482824
REMARK minimizedRMSD -1
REMARK  0 active torsions:
REMARK  status: ('A' for Active; 'I' for Inactive)
ROOT
ATOM      1  C1  DEN d   1      -2.683  -2.681   3.954  0.00  0.00     0.130 A 
ATOM      2  C2  DEN d   1      -2.590  -3.177   2.583  0.00  0.00    -0.031 A 
ATOM      3  C3  DEN d   1      -1.383  -2.592   1.967  0.00  0.00     0.027 A 
ATOM      4  C4  DEN d   1       0.344  -0.977   2.997  0.00  0.00     0.027 A 
ATOM      5  C5  DEN d   1       0.681  -0.266   4.128  0.00  0.00    -0.003 A 
ATOM      6  C6  DEN d   1      -0.091  -0.283   5.259  0.00  0.00     0.001 A 
ATOM      7  C7  DEN d   1      -1.217  -1.062   5.300  0.00  0.00     0.017 A 
ATOM      8  C8  DEN d   1      -1.567  -1.776   4.161  0.00  0.00    -0.094 A 
ATOM      9  C9  DEN d   1      -0.767  -1.755   3.032  0.00  0.00    -0.072 A 
ENDROOT
TORSDOF 0
ENDMDL
