MODEL 1
REMARK minimizedAffinity 18.3516636
REMARK minimizedRMSD -1
REMARK  0 active torsions:
REMARK  status: ('A' for Active; 'I' for Inactive)
ROOT
ATOM      1  C1  DEN d   1       2.816   0.425   3.482  0.00  0.00     0.130 A 
ATOM      2  C2  DEN d   1       3.544  -0.032   2.302  0.00  0.00    -0.031 A 
ATOM      3  C3  DEN d   1       2.620  -0.837   1.478  0.00  0.00     0.027 A 
ATOM      4  C4  DEN d   1       0.143  -1.411   1.910  0.00  0.00     0.027 A 
ATOM      5  C5  DEN d   1      -0.909  -1.257   2.787  0.00  0.00    -0.003 A 
ATOM      6  C6  DEN d   1      -0.784  -0.566   3.963  0.00  0.00     0.001 A 
ATOM      7  C7  DEN d   1       0.407   0.036   4.274  0.00  0.00     0.017 A 
ATOM      8  C8  DEN d   1       1.474  -0.121   3.399  0.00  0.00    -0.094 A 
ATOM      9  C9  DEN d   1       1.324  -0.813   2.209  0.00  0.00    -0.072 A 
ENDROOT
TORSDOF 0
ENDMDL
