MODEL 1
REMARK minimizedAffinity 20.3100281
REMARK minimizedRMSD -1
REMARK  0 active torsions:
REMARK  status: ('A' for Active; 'I' for Inactive)
ROOT
ATOM      1  C1  DEN d   1      -1.522   3.707  -2.083  0.00  0.00     0.130 A 
ATOM      2  C2  DEN d   1      -1.740   2.263  -2.084  0.00  0.00    -0.031 A 
ATOM      3  C3  DEN d   1      -2.190   1.870  -3.435  0.00  0.00     0.027 A 
ATOM      4  C4  DEN d   1      -2.561   3.349  -5.515  0.00  0.00     0.027 A 
ATOM      5  C5  DEN d   1      -2.517   4.638  -5.999  0.00  0.00    -0.003 A 
ATOM      6  C6  DEN d   1      -2.174   5.703  -5.208  0.00  0.00     0.001 A 
ATOM      7  C7  DEN d   1      -1.817   5.492  -3.903  0.00  0.00     0.017 A 
ATOM      8  C8  DEN d   1      -1.866   4.196  -3.406  0.00  0.00    -0.094 A 
ATOM      9  C9  DEN d   1      -2.204   3.131  -4.224  0.00  0.00    -0.072 A 
ENDROOT
TORSDOF 0
ENDMDL
