MODEL 1
REMARK minimizedAffinity 1.60907066
REMARK minimizedRMSD -1
REMARK  0 active torsions:
REMARK  status: ('A' for Active; 'I' for Inactive)
ROOT
ATOM      1  C1  DEN d   1      -1.146  -2.255   0.706  0.00  0.00     0.130 A 
ATOM      2  C2  DEN d   1      -2.410  -1.615   1.061  0.00  0.00    -0.031 A 
ATOM      3  C3  DEN d   1      -2.202  -0.153   1.037  0.00  0.00     0.027 A 
ATOM      4  C4  DEN d   1      -0.061   1.174   0.484  0.00  0.00     0.027 A 
ATOM      5  C5  DEN d   1       1.267   1.066   0.134  0.00  0.00    -0.003 A 
ATOM      6  C6  DEN d   1       1.888  -0.146  -0.014  0.00  0.00     0.001 A 
ATOM      7  C7  DEN d   1       1.168  -1.301   0.143  0.00  0.00     0.017 A 
ATOM      8  C8  DEN d   1      -0.170  -1.200   0.502  0.00  0.00    -0.094 A 
ATOM      9  C9  DEN d   1      -0.782   0.034   0.636  0.00  0.00    -0.072 A 
ENDROOT
TORSDOF 0
ENDMDL
