MODEL 1
REMARK minimizedAffinity 13.9874477
REMARK minimizedRMSD -1
REMARK  0 active torsions:
REMARK  status: ('A' for Active; 'I' for Inactive)
ROOT
ATOM      1  C   UNL d   1       2.647   4.670  -0.967  0.00  0.00     0.124 A 
ATOM      2  C1  UNL d   1       2.382   4.278  -2.272  0.00  0.00     0.062 A 
ATOM      3  C2  UNL d   1       3.337   4.466  -3.267  0.00  0.00     0.162 A 
ATOM      4  C3  UNL d   1       4.568   5.046  -2.960  0.00  0.00    -0.034 A 
ATOM      5  C4  UNL d   1       4.827   5.438  -1.646  0.00  0.00     0.162 A 
ATOM      6  C5  UNL d   1       3.869   5.249  -0.655  0.00  0.00     0.062 A 
ATOM      7  F   UNL d   1       4.127   5.628   0.605  0.00  0.00    -0.097 F 
ATOM      8  F1  UNL d   1       6.000   6.000  -1.317  0.00  0.00    -0.096 F 
ATOM      9  I   UNL d   1       5.998   5.328  -4.445  0.00  0.00    -0.060 I 
ATOM     10  F2  UNL d   1       3.053   4.078  -4.519  0.00  0.00    -0.096 F 
ATOM     11  F3  UNL d   1       1.202   3.719  -2.576  0.00  0.00    -0.097 F 
ATOM     12  F4  UNL d   1       1.726   4.489  -0.012  0.00  0.00    -0.092 F 
ENDROOT
TORSDOF 0
ENDMDL
