MODEL 1
REMARK minimizedAffinity 6.10805845
REMARK minimizedRMSD -1
REMARK  0 active torsions:
REMARK  status: ('A' for Active; 'I' for Inactive)
ROOT
ATOM      1  C   UNL d   1      -4.948   3.699  -3.006  0.00  0.00     0.124 A 
ATOM      2  C1  UNL d   1      -3.868   4.152  -3.751  0.00  0.00     0.062 A 
ATOM      3  C2  UNL d   1      -2.796   3.304  -4.017  0.00  0.00     0.162 A 
ATOM      4  C3  UNL d   1      -2.799   1.994  -3.537  0.00  0.00    -0.034 A 
ATOM      5  C4  UNL d   1      -3.888   1.547  -2.788  0.00  0.00     0.162 A 
ATOM      6  C5  UNL d   1      -4.957   2.397  -2.525  0.00  0.00     0.062 A 
ATOM      7  F   UNL d   1      -5.999   1.958  -1.805  0.00  0.00    -0.097 F 
ATOM      8  F1  UNL d   1      -3.923   0.293  -2.312  0.00  0.00    -0.096 F 
ATOM      9  I   UNL d   1      -1.198   0.724  -3.932  0.00  0.00    -0.060 I 
ATOM     10  F2  UNL d   1      -1.766   3.769  -4.740  0.00  0.00    -0.096 F 
ATOM     11  F3  UNL d   1      -3.856   5.409  -4.216  0.00  0.00    -0.097 F 
ATOM     12  F4  UNL d   1      -5.977   4.517  -2.751  0.00  0.00    -0.092 F 
ENDROOT
TORSDOF 0
ENDMDL
