MODEL 1
REMARK minimizedAffinity 20.0140762
REMARK minimizedRMSD -1
REMARK  0 active torsions:
REMARK  status: ('A' for Active; 'I' for Inactive)
ROOT
ATOM      1  C   UNL d   1       1.664   4.227  -1.529  0.00  0.00     0.124 A 
ATOM      2  C1  UNL d   1       1.985   3.545  -2.694  0.00  0.00     0.062 A 
ATOM      3  C2  UNL d   1       1.167   2.516  -3.151  0.00  0.00     0.162 A 
ATOM      4  C3  UNL d   1       0.019   2.162  -2.442  0.00  0.00    -0.034 A 
ATOM      5  C4  UNL d   1      -0.296   2.852  -1.270  0.00  0.00     0.162 A 
ATOM      6  C5  UNL d   1       0.524   3.880  -0.818  0.00  0.00     0.062 A 
ATOM      7  F   UNL d   1       0.213   4.538   0.309  0.00  0.00    -0.097 F 
ATOM      8  F1  UNL d   1      -1.392   2.538  -0.564  0.00  0.00    -0.096 F 
ATOM      9  I   UNL d   1      -1.207   0.623  -3.121  0.00  0.00    -0.060 I 
ATOM     10  F2  UNL d   1       1.502   1.874  -4.280  0.00  0.00    -0.096 F 
ATOM     11  F3  UNL d   1       3.087   3.878  -3.383  0.00  0.00    -0.097 F 
ATOM     12  F4  UNL d   1       2.454   5.217  -1.091  0.00  0.00    -0.092 F 
ENDROOT
TORSDOF 0
ENDMDL
