MODEL 1
REMARK minimizedAffinity 9.01886559
REMARK minimizedRMSD -1
REMARK  0 active torsions:
REMARK  status: ('A' for Active; 'I' for Inactive)
ROOT
ATOM      1  C   UNL d   1       2.012  -1.839  -5.077  0.00  0.00     0.124 A 
ATOM      2  C1  UNL d   1       1.417  -3.047  -5.413  0.00  0.00     0.062 A 
ATOM      3  C2  UNL d   1       2.202  -4.165  -5.677  0.00  0.00     0.162 A 
ATOM      4  C3  UNL d   1       3.593  -4.081  -5.605  0.00  0.00    -0.034 A 
ATOM      5  C4  UNL d   1       4.185  -2.863  -5.268  0.00  0.00     0.162 A 
ATOM      6  C5  UNL d   1       3.395  -1.748  -5.005  0.00  0.00     0.062 A 
ATOM      7  F   UNL d   1       3.972  -0.582  -4.680  0.00  0.00    -0.097 F 
ATOM      8  F1  UNL d   1       5.519  -2.747  -5.190  0.00  0.00    -0.096 F 
ATOM      9  I   UNL d   1       4.771  -5.751  -6.000  0.00  0.00    -0.060 I 
ATOM     10  F2  UNL d   1       1.600  -5.320  -5.999  0.00  0.00    -0.096 F 
ATOM     11  F3  UNL d   1       0.081  -3.138  -5.484  0.00  0.00    -0.097 F 
ATOM     12  F4  UNL d   1       1.254  -0.765  -4.824  0.00  0.00    -0.092 F 
ENDROOT
TORSDOF 0
ENDMDL
