MODEL 1
REMARK minimizedAffinity 23.3220978
REMARK minimizedRMSD -1
REMARK  0 active torsions:
REMARK  status: ('A' for Active; 'I' for Inactive)
ROOT
ATOM      1  C   UNL d   1       0.139  -3.379  -2.362  0.00  0.00     0.124 A 
ATOM      2  C1  UNL d   1      -0.498  -2.916  -1.219  0.00  0.00     0.062 A 
ATOM      3  C2  UNL d   1      -0.929  -1.595  -1.144  0.00  0.00     0.162 A 
ATOM      4  C3  UNL d   1      -0.727  -0.726  -2.216  0.00  0.00    -0.034 A 
ATOM      5  C4  UNL d   1      -0.085  -1.199  -3.363  0.00  0.00     0.162 A 
ATOM      6  C5  UNL d   1       0.344  -2.520  -3.433  0.00  0.00     0.062 A 
ATOM      7  F   UNL d   1       0.959  -2.965  -4.538  0.00  0.00    -0.097 F 
ATOM      8  F1  UNL d   1       0.126  -0.391  -4.412  0.00  0.00    -0.096 F 
ATOM      9  I   UNL d   1      -1.370   1.250  -2.108  0.00  0.00    -0.060 I 
ATOM     10  F2  UNL d   1      -1.541  -1.175  -0.026  0.00  0.00    -0.096 F 
ATOM     11  F3  UNL d   1      -0.697  -3.743  -0.183  0.00  0.00    -0.097 F 
ATOM     12  F4  UNL d   1       0.554  -4.650  -2.431  0.00  0.00    -0.092 F 
ENDROOT
TORSDOF 0
ENDMDL
