MODEL 1
REMARK minimizedAffinity 9.37051773
REMARK minimizedRMSD -1
REMARK  0 active torsions:
REMARK  status: ('A' for Active; 'I' for Inactive)
ROOT
ATOM      1  C   UNL d   1       2.079  -2.592  -3.546  0.00  0.00     0.124 A 
ATOM      2  C1  UNL d   1       1.814  -3.919  -3.854  0.00  0.00     0.062 A 
ATOM      3  C2  UNL d   1       2.806  -4.719  -4.414  0.00  0.00     0.162 A 
ATOM      4  C3  UNL d   1       4.073  -4.194  -4.669  0.00  0.00    -0.034 A 
ATOM      5  C4  UNL d   1       4.331  -2.858  -4.358  0.00  0.00     0.162 A 
ATOM      6  C5  UNL d   1       3.337  -2.063  -3.798  0.00  0.00     0.062 A 
ATOM      7  F   UNL d   1       3.594  -0.781  -3.501  0.00  0.00    -0.097 F 
ATOM      8  F1  UNL d   1       5.538  -2.322  -4.590  0.00  0.00    -0.096 F 
ATOM      9  I   UNL d   1       5.558  -5.387  -5.506  0.00  0.00    -0.060 I 
ATOM     10  F2  UNL d   1       2.522  -5.998  -4.701  0.00  0.00    -0.096 F 
ATOM     11  F3  UNL d   1       0.599  -4.432  -3.612  0.00  0.00    -0.097 F 
ATOM     12  F4  UNL d   1       1.122  -1.824  -3.008  0.00  0.00    -0.092 F 
ENDROOT
TORSDOF 0
ENDMDL
