MODEL 1
REMARK minimizedAffinity 9.32129669
REMARK minimizedRMSD -1
REMARK  0 active torsions:
REMARK  status: ('A' for Active; 'I' for Inactive)
ROOT
ATOM      1  C   UNL d   1      -2.471   1.019  -2.467  0.00  0.00     0.124 A 
ATOM      2  C1  UNL d   1      -2.338   1.987  -1.482  0.00  0.00     0.062 A 
ATOM      3  C2  UNL d   1      -3.091   3.157  -1.544  0.00  0.00     0.162 A 
ATOM      4  C3  UNL d   1      -3.983   3.364  -2.596  0.00  0.00    -0.034 A 
ATOM      5  C4  UNL d   1      -4.111   2.385  -3.583  0.00  0.00     0.162 A 
ATOM      6  C5  UNL d   1      -3.357   1.218  -3.516  0.00  0.00     0.062 A 
ATOM      7  F   UNL d   1      -3.486   0.283  -4.469  0.00  0.00    -0.097 F 
ATOM      8  F1  UNL d   1      -4.960   2.552  -4.608  0.00  0.00    -0.096 F 
ATOM      9  I   UNL d   1      -5.110   5.111  -2.693  0.00  0.00    -0.060 I 
ATOM     10  F2  UNL d   1      -2.942   4.076  -0.579  0.00  0.00    -0.096 F 
ATOM     11  F3  UNL d   1      -1.483   1.797  -0.467  0.00  0.00    -0.097 F 
ATOM     12  F4  UNL d   1      -1.745  -0.105  -2.405  0.00  0.00    -0.092 F 
ENDROOT
TORSDOF 0
ENDMDL
