MODEL 1
REMARK minimizedAffinity 17.2929688
REMARK minimizedRMSD -1
REMARK  0 active torsions:
REMARK  status: ('A' for Active; 'I' for Inactive)
ROOT
ATOM      1  C   UNL d   1      -1.986   0.557  -2.220  0.00  0.00     0.124 A 
ATOM      2  C1  UNL d   1      -2.930   0.626  -3.235  0.00  0.00     0.062 A 
ATOM      3  C2  UNL d   1      -3.801   1.709  -3.309  0.00  0.00     0.162 A 
ATOM      4  C3  UNL d   1      -3.732   2.733  -2.365  0.00  0.00    -0.034 A 
ATOM      5  C4  UNL d   1      -2.780   2.657  -1.346  0.00  0.00     0.162 A 
ATOM      6  C5  UNL d   1      -1.912   1.572  -1.277  0.00  0.00     0.062 A 
ATOM      7  F   UNL d   1      -1.001   1.507  -0.295  0.00  0.00    -0.097 F 
ATOM      8  F1  UNL d   1      -2.686   3.624  -0.422  0.00  0.00    -0.096 F 
ATOM      9  I   UNL d   1      -5.032   4.355  -2.472  0.00  0.00    -0.060 I 
ATOM     10  F2  UNL d   1      -4.703   1.749  -4.301  0.00  0.00    -0.096 F 
ATOM     11  F3  UNL d   1      -3.004  -0.355  -4.147  0.00  0.00    -0.097 F 
ATOM     12  F4  UNL d   1      -1.150  -0.487  -2.150  0.00  0.00    -0.092 F 
ENDROOT
TORSDOF 0
ENDMDL
