MODEL 1
REMARK minimizedAffinity 26.2958927
REMARK minimizedRMSD -1
REMARK  0 active torsions:
REMARK  status: ('A' for Active; 'I' for Inactive)
ROOT
ATOM      1  C   UNL d   1      -2.522   2.042  -3.167  0.00  0.00     0.124 A 
ATOM      2  C1  UNL d   1      -2.781   2.540  -1.898  0.00  0.00     0.062 A 
ATOM      3  C2  UNL d   1      -2.246   1.912  -0.777  0.00  0.00     0.162 A 
ATOM      4  C3  UNL d   1      -1.445   0.780  -0.920  0.00  0.00    -0.034 A 
ATOM      5  C4  UNL d   1      -1.189   0.284  -2.200  0.00  0.00     0.162 A 
ATOM      6  C5  UNL d   1      -1.726   0.915  -3.317  0.00  0.00     0.062 A 
ATOM      7  F   UNL d   1      -1.474   0.433  -4.543  0.00  0.00    -0.097 F 
ATOM      8  F1  UNL d   1      -0.422  -0.803  -2.373  0.00  0.00    -0.096 F 
ATOM      9  I   UNL d   1      -0.643  -0.162   0.754  0.00  0.00    -0.060 I 
ATOM     10  F2  UNL d   1      -2.514   2.415   0.437  0.00  0.00    -0.096 F 
ATOM     11  F3  UNL d   1      -3.551   3.628  -1.751  0.00  0.00    -0.097 F 
ATOM     12  F4  UNL d   1      -3.038   2.648  -4.244  0.00  0.00    -0.092 F 
ENDROOT
TORSDOF 0
ENDMDL
