MODEL 1
REMARK minimizedAffinity 15.0322838
REMARK minimizedRMSD -1
REMARK  0 active torsions:
REMARK  status: ('A' for Active; 'I' for Inactive)
ROOT
ATOM      1  C   UNL d   1      -2.552   2.100  -0.925  0.00  0.00     0.124 A 
ATOM      2  C1  UNL d   1      -1.845   1.712   0.204  0.00  0.00     0.062 A 
ATOM      3  C2  UNL d   1      -1.120   0.524   0.203  0.00  0.00     0.162 A 
ATOM      4  C3  UNL d   1      -1.099  -0.286  -0.933  0.00  0.00    -0.034 A 
ATOM      5  C4  UNL d   1      -1.813   0.110  -2.065  0.00  0.00     0.162 A 
ATOM      6  C5  UNL d   1      -2.535   1.299  -2.058  0.00  0.00     0.062 A 
ATOM      7  F   UNL d   1      -3.218   1.672  -3.151  0.00  0.00    -0.097 F 
ATOM      8  F1  UNL d   1      -1.814  -0.645  -3.173  0.00  0.00    -0.096 F 
ATOM      9  I   UNL d   1      -0.017  -2.064  -0.938  0.00  0.00    -0.060 I 
ATOM     10  F2  UNL d   1      -0.446   0.174   1.309  0.00  0.00    -0.096 F 
ATOM     11  F3  UNL d   1      -1.859   2.484   1.300  0.00  0.00    -0.097 F 
ATOM     12  F4  UNL d   1      -3.248   3.244  -0.921  0.00  0.00    -0.092 F 
ENDROOT
TORSDOF 0
ENDMDL
