MODEL 1
REMARK minimizedAffinity -2.55940485
REMARK minimizedRMSD -1
REMARK  0 active torsions:
REMARK  status: ('A' for Active; 'I' for Inactive)
ROOT
ATOM      1  C   UNL d   1      -0.917  -4.999  -4.808  0.00  0.00     0.172 C 
ATOM      2  N   UNL d   1      -2.222  -4.381  -4.863  0.00  0.00    -0.070 N 
ATOM      3  C1  UNL d   1      -3.068  -4.209  -3.801  0.00  0.00    -0.004 A 
ATOM      4  C2  UNL d   1      -4.205  -3.583  -4.265  0.00  0.00    -0.047 A 
ATOM      5  C3  UNL d   1      -4.036  -3.373  -5.654  0.00  0.00    -0.047 A 
ATOM      6  C4  UNL d   1      -2.800  -3.877  -5.998  0.00  0.00    -0.004 A 
ENDROOT
TORSDOF 0
ENDMDL
