MODEL 1
REMARK minimizedAffinity -2.20083594
REMARK minimizedRMSD -1
REMARK  0 active torsions:
REMARK  status: ('A' for Active; 'I' for Inactive)
ROOT
ATOM      1  C   UNL d   1      -4.447  -1.348  -4.909  0.00  0.00     0.172 C 
ATOM      2  N   UNL d   1      -3.697  -2.581  -4.945  0.00  0.00    -0.070 N 
ATOM      3  C1  UNL d   1      -3.676  -3.532  -3.960  0.00  0.00    -0.004 A 
ATOM      4  C2  UNL d   1      -2.845  -4.550  -4.374  0.00  0.00    -0.047 A 
ATOM      5  C3  UNL d   1      -2.349  -4.199  -5.651  0.00  0.00    -0.047 A 
ATOM      6  C4  UNL d   1      -2.892  -2.975  -5.981  0.00  0.00    -0.004 A 
ENDROOT
TORSDOF 0
ENDMDL
