MODEL 1
REMARK minimizedAffinity -2.94512916
REMARK minimizedRMSD -1
REMARK  0 active torsions:
REMARK  status: ('A' for Active; 'I' for Inactive)
ROOT
ATOM      1  C   UNL d   1      -2.401  -4.504  -5.184  0.00  0.00     0.172 C 
ATOM      2  N   UNL d   1      -3.792  -4.225  -4.917  0.00  0.00    -0.070 N 
ATOM      3  C1  UNL d   1      -4.705  -5.118  -4.423  0.00  0.00    -0.004 A 
ATOM      4  C2  UNL d   1      -5.915  -4.467  -4.311  0.00  0.00    -0.047 A 
ATOM      5  C3  UNL d   1      -5.722  -3.137  -4.754  0.00  0.00    -0.047 A 
ATOM      6  C4  UNL d   1      -4.399  -3.014  -5.124  0.00  0.00    -0.004 A 
ENDROOT
TORSDOF 0
ENDMDL
