MODEL 1
REMARK minimizedAffinity -2.96617985
REMARK minimizedRMSD -1
REMARK  0 active torsions:
REMARK  status: ('A' for Active; 'I' for Inactive)
ROOT
ATOM      1  C   UNL d   1      -2.180  -5.099  -4.840  0.00  0.00     0.172 C 
ATOM      2  N   UNL d   1      -3.363  -4.334  -4.520  0.00  0.00    -0.070 N 
ATOM      3  C1  UNL d   1      -3.796  -4.025  -3.258  0.00  0.00    -0.004 A 
ATOM      4  C2  UNL d   1      -4.953  -3.287  -3.378  0.00  0.00    -0.047 A 
ATOM      5  C3  UNL d   1      -5.225  -3.148  -4.760  0.00  0.00    -0.047 A 
ATOM      6  C4  UNL d   1      -4.225  -3.806  -5.444  0.00  0.00    -0.004 A 
ENDROOT
TORSDOF 0
ENDMDL
