MODEL 1
REMARK minimizedAffinity -2.51762795
REMARK minimizedRMSD -1
REMARK  0 active torsions:
REMARK  status: ('A' for Active; 'I' for Inactive)
ROOT
ATOM      1  C   UNL d   1      -1.705  -4.970  -5.996  0.00  0.00     0.172 C 
ATOM      2  N   UNL d   1      -2.989  -4.575  -5.468  0.00  0.00    -0.070 N 
ATOM      3  C1  UNL d   1      -3.678  -5.221  -4.476  0.00  0.00    -0.004 A 
ATOM      4  C2  UNL d   1      -4.853  -4.535  -4.261  0.00  0.00    -0.047 A 
ATOM      5  C3  UNL d   1      -4.872  -3.438  -5.155  0.00  0.00    -0.047 A 
ATOM      6  C4  UNL d   1      -3.707  -3.487  -5.891  0.00  0.00    -0.004 A 
ENDROOT
TORSDOF 0
ENDMDL
