MODEL 1
REMARK minimizedAffinity -1.72754264
REMARK minimizedRMSD -1
REMARK  0 active torsions:
REMARK  status: ('A' for Active; 'I' for Inactive)
ROOT
ATOM      1  C   UNL d   1      -4.901  -4.279  -5.325  0.00  0.00     0.172 C 
ATOM      2  N   UNL d   1      -3.563  -4.812  -5.215  0.00  0.00    -0.070 N 
ATOM      3  C1  UNL d   1      -3.154  -5.764  -4.320  0.00  0.00    -0.004 A 
ATOM      4  C2  UNL d   1      -1.814  -6.000  -4.537  0.00  0.00    -0.047 A 
ATOM      5  C3  UNL d   1      -1.403  -5.160  -5.599  0.00  0.00    -0.047 A 
ATOM      6  C4  UNL d   1      -2.505  -4.435  -6.000  0.00  0.00    -0.004 A 
ENDROOT
TORSDOF 0
ENDMDL
