MODEL 1
REMARK minimizedAffinity -1.70770347
REMARK minimizedRMSD -1
REMARK  0 active torsions:
REMARK  status: ('A' for Active; 'I' for Inactive)
ROOT
ATOM      1  C   UNL d   1      -2.447  -5.092  -5.399  0.00  0.00     0.172 C 
ATOM      2  N   UNL d   1      -3.880  -4.991  -5.547  0.00  0.00    -0.070 N 
ATOM      3  C1  UNL d   1      -4.637  -3.886  -5.263  0.00  0.00    -0.004 A 
ATOM      4  C2  UNL d   1      -5.952  -4.193  -5.537  0.00  0.00    -0.047 A 
ATOM      5  C3  UNL d   1      -5.987  -5.530  -6.000  0.00  0.00    -0.047 A 
ATOM      6  C4  UNL d   1      -4.691  -6.000  -5.996  0.00  0.00    -0.004 A 
ENDROOT
TORSDOF 0
ENDMDL
