MODEL 1
REMARK minimizedAffinity -2.09050202
REMARK minimizedRMSD -1
REMARK  0 active torsions:
REMARK  status: ('A' for Active; 'I' for Inactive)
ROOT
ATOM      1  C   UNL d   1      -4.497  -4.577  -5.592  0.00  0.00     0.172 C 
ATOM      2  N   UNL d   1      -3.155  -5.010  -5.282  0.00  0.00    -0.070 N 
ATOM      3  C1  UNL d   1      -2.030  -4.700  -5.999  0.00  0.00    -0.004 A 
ATOM      4  C2  UNL d   1      -0.956  -5.302  -5.380  0.00  0.00    -0.047 A 
ATOM      5  C3  UNL d   1      -1.452  -6.000  -4.253  0.00  0.00    -0.047 A 
ATOM      6  C4  UNL d   1      -2.817  -5.802  -4.216  0.00  0.00    -0.004 A 
ENDROOT
TORSDOF 0
ENDMDL
