MODEL 1
REMARK minimizedAffinity -2.15701485
REMARK minimizedRMSD -1
REMARK  0 active torsions:
REMARK  status: ('A' for Active; 'I' for Inactive)
ROOT
ATOM      1  C   UNL d   1      -5.879  -3.785  -5.933  0.00  0.00     0.172 C 
ATOM      2  N   UNL d   1      -4.586  -4.429  -5.933  0.00  0.00    -0.070 N 
ATOM      3  C1  UNL d   1      -4.367  -5.779  -5.870  0.00  0.00    -0.004 A 
ATOM      4  C2  UNL d   1      -3.005  -5.987  -5.895  0.00  0.00    -0.047 A 
ATOM      5  C3  UNL d   1      -2.384  -4.718  -5.975  0.00  0.00    -0.047 A 
ATOM      6  C4  UNL d   1      -3.386  -3.771  -5.997  0.00  0.00    -0.004 A 
ENDROOT
TORSDOF 0
ENDMDL
