MODEL 1
REMARK minimizedAffinity -2.75519323
REMARK minimizedRMSD -1
REMARK  0 active torsions:
REMARK  status: ('A' for Active; 'I' for Inactive)
ROOT
ATOM      1  C   UNL d   1      -6.000  -3.854  -4.138  0.00  0.00     0.172 C 
ATOM      2  N   UNL d   1      -4.667  -4.130  -4.622  0.00  0.00    -0.070 N 
ATOM      3  C1  UNL d   1      -4.184  -3.803  -5.861  0.00  0.00    -0.004 A 
ATOM      4  C2  UNL d   1      -2.877  -4.235  -5.931  0.00  0.00    -0.047 A 
ATOM      5  C3  UNL d   1      -2.565  -4.843  -4.692  0.00  0.00    -0.047 A 
ATOM      6  C4  UNL d   1      -3.691  -4.764  -3.900  0.00  0.00    -0.004 A 
ENDROOT
TORSDOF 0
ENDMDL
