MODEL 1
REMARK minimizedAffinity -2.94211006
REMARK minimizedRMSD -1
REMARK  0 active torsions:
REMARK  status: ('A' for Active; 'I' for Inactive)
ROOT
ATOM      1  C   UNL d   1      -2.688  -4.084  -4.940  0.00  0.00     0.172 C 
ATOM      2  N   UNL d   1      -3.979  -3.678  -4.435  0.00  0.00    -0.070 N 
ATOM      3  C1  UNL d   1      -4.512  -2.420  -4.526  0.00  0.00    -0.004 A 
ATOM      4  C2  UNL d   1      -5.753  -2.443  -3.927  0.00  0.00    -0.047 A 
ATOM      5  C3  UNL d   1      -5.973  -3.761  -3.460  0.00  0.00    -0.047 A 
ATOM      6  C4  UNL d   1      -4.859  -4.504  -3.788  0.00  0.00    -0.004 A 
ENDROOT
TORSDOF 0
ENDMDL
