MODEL 1
REMARK minimizedAffinity -2.66814613
REMARK minimizedRMSD -1
REMARK  0 active torsions:
REMARK  status: ('A' for Active; 'I' for Inactive)
ROOT
ATOM      1  C   UNL d   1      -0.815  -5.528  -4.910  0.00  0.00     0.172 C 
ATOM      2  N   UNL d   1      -2.238  -5.288  -4.966  0.00  0.00    -0.070 N 
ATOM      3  C1  UNL d   1      -2.920  -4.355  -4.231  0.00  0.00    -0.004 A 
ATOM      4  C2  UNL d   1      -4.253  -4.441  -4.572  0.00  0.00    -0.047 A 
ATOM      5  C3  UNL d   1      -4.376  -5.461  -5.544  0.00  0.00    -0.047 A 
ATOM      6  C4  UNL d   1      -3.114  -5.969  -5.770  0.00  0.00    -0.004 A 
ENDROOT
TORSDOF 0
ENDMDL
