MODEL 1
REMARK minimizedAffinity -2.03188801
REMARK minimizedRMSD -1
REMARK  0 active torsions:
REMARK  status: ('A' for Active; 'I' for Inactive)
ROOT
ATOM      1  C   UNL d   1      -5.445  -5.465  -6.000  0.00  0.00     0.172 C 
ATOM      2  N   UNL d   1      -4.068  -5.196  -5.659  0.00  0.00    -0.070 N 
ATOM      3  C1  UNL d   1      -3.618  -4.113  -4.953  0.00  0.00    -0.004 A 
ATOM      4  C2  UNL d   1      -2.249  -4.223  -4.839  0.00  0.00    -0.047 A 
ATOM      5  C3  UNL d   1      -1.863  -5.413  -5.501  0.00  0.00    -0.047 A 
ATOM      6  C4  UNL d   1      -3.009  -5.995  -5.999  0.00  0.00    -0.004 A 
ENDROOT
TORSDOF 0
ENDMDL
