MODEL 1
REMARK minimizedAffinity -2.97181416
REMARK minimizedRMSD -1
REMARK  0 active torsions:
REMARK  status: ('A' for Active; 'I' for Inactive)
ROOT
ATOM      1  C   UNL d   1      -2.611  -4.961  -5.597  0.00  0.00     0.172 C 
ATOM      2  N   UNL d   1      -3.654  -4.033  -5.228  0.00  0.00    -0.070 N 
ATOM      3  C1  UNL d   1      -4.113  -2.999  -6.000  0.00  0.00    -0.004 A 
ATOM      4  C2  UNL d   1      -5.105  -2.353  -5.294  0.00  0.00    -0.047 A 
ATOM      5  C3  UNL d   1      -5.246  -3.021  -4.054  0.00  0.00    -0.047 A 
ATOM      6  C4  UNL d   1      -4.336  -4.057  -4.040  0.00  0.00    -0.004 A 
ENDROOT
TORSDOF 0
ENDMDL
