MODEL 1
REMARK minimizedAffinity -2.71034741
REMARK minimizedRMSD -1
REMARK  0 active torsions:
REMARK  status: ('A' for Active; 'I' for Inactive)
ROOT
ATOM      1  C   UNL d   1      -2.262  -5.245  -5.467  0.00  0.00     0.172 C 
ATOM      2  N   UNL d   1      -3.566  -4.702  -5.168  0.00  0.00    -0.070 N 
ATOM      3  C1  UNL d   1      -4.656  -4.741  -5.996  0.00  0.00    -0.004 A 
ATOM      4  C2  UNL d   1      -5.702  -4.120  -5.347  0.00  0.00    -0.047 A 
ATOM      5  C3  UNL d   1      -5.223  -3.693  -4.086  0.00  0.00    -0.047 A 
ATOM      6  C4  UNL d   1      -3.898  -4.066  -4.001  0.00  0.00    -0.004 A 
ENDROOT
TORSDOF 0
ENDMDL
