MODEL 1
REMARK minimizedAffinity -2.21398306
REMARK minimizedRMSD -1
REMARK  0 active torsions:
REMARK  status: ('A' for Active; 'I' for Inactive)
ROOT
ATOM      1  C   UNL d   1      -1.129  -5.992  -5.885  0.00  0.00     0.172 C 
ATOM      2  N   UNL d   1      -2.426  -5.358  -5.853  0.00  0.00    -0.070 N 
ATOM      3  C1  UNL d   1      -3.623  -5.999  -5.674  0.00  0.00    -0.004 A 
ATOM      4  C2  UNL d   1      -4.620  -5.048  -5.705  0.00  0.00    -0.047 A 
ATOM      5  C3  UNL d   1      -4.001  -3.793  -5.911  0.00  0.00    -0.047 A 
ATOM      6  C4  UNL d   1      -2.643  -4.014  -5.999  0.00  0.00    -0.004 A 
ENDROOT
TORSDOF 0
ENDMDL
