MODEL 1
REMARK minimizedAffinity 21.6299324
REMARK minimizedRMSD -1
REMARK  1 active torsions:
REMARK  status: ('A' for Active; 'I' for Inactive)
REMARK    1  A    between atoms: C1_2  and  C2_3 
ROOT
ATOM      1  C2  UNL d   1       1.830  -3.340  -0.623  0.00  0.00    -0.081 A 
ATOM      2  C3  UNL d   1       1.956  -1.951  -0.501  0.00  0.00     0.006 A 
ATOM      3  C4  UNL d   1       3.206  -1.371  -0.271  0.00  0.00     0.002 A 
ATOM      4  C5  UNL d   1       4.350  -2.169  -0.166  0.00  0.00    -0.080 A 
ATOM      5  C6  UNL d   1       5.702  -1.557   0.051  0.00  0.00     0.076 C 
ATOM      6  C7  UNL d   1       4.221  -3.559  -0.270  0.00  0.00     0.002 A 
ATOM      7  C8  UNL d   1       2.972  -4.139  -0.500  0.00  0.00     0.006 A 
ENDROOT
BRANCH   1   8
ATOM      8  C1  UNL d   1       0.493  -3.964  -0.936  0.00  0.00     0.054 C 
ATOM      9  C   UNL d   1       0.658  -5.357  -1.528  0.00  0.00     0.018 C 
ENDBRANCH   1   8
TORSDOF 1
ENDMDL
