MODEL 1
REMARK minimizedAffinity 8.58881474
REMARK minimizedRMSD -1
REMARK  1 active torsions:
REMARK  status: ('A' for Active; 'I' for Inactive)
REMARK    1  A    between atoms: C1_2  and  C2_3 
ROOT
ATOM      1  C2  UNL d   1      -2.751  -4.271  -5.999  0.00  0.00    -0.081 A 
ATOM      2  C3  UNL d   1      -1.949  -5.418  -5.976  0.00  0.00     0.006 A 
ATOM      3  C4  UNL d   1      -0.557  -5.309  -5.944  0.00  0.00     0.002 A 
ATOM      4  C5  UNL d   1       0.056  -4.051  -5.926  0.00  0.00    -0.080 A 
ATOM      5  C6  UNL d   1       1.548  -3.920  -5.861  0.00  0.00     0.076 C 
ATOM      6  C7  UNL d   1      -0.745  -2.905  -5.967  0.00  0.00     0.002 A 
ATOM      7  C8  UNL d   1      -2.137  -3.014  -6.000  0.00  0.00     0.006 A 
ENDROOT
BRANCH   1   8
ATOM      8  C1  UNL d   1      -4.254  -4.385  -5.968  0.00  0.00     0.054 C 
ATOM      9  C   UNL d   1      -4.699  -5.841  -5.993  0.00  0.00     0.018 C 
ENDBRANCH   1   8
TORSDOF 1
ENDMDL
