MODEL 1
REMARK minimizedAffinity 3.80036736
REMARK minimizedRMSD -1
REMARK  1 active torsions:
REMARK  status: ('A' for Active; 'I' for Inactive)
REMARK    1  A    between atoms: C1_2  and  C2_3 
ROOT
ATOM      1  C2  UNL d   1      -4.891  -0.896   2.789  0.00  0.00    -0.081 A 
ATOM      2  C3  UNL d   1      -5.822  -0.651   3.806  0.00  0.00     0.006 A 
ATOM      3  C4  UNL d   1      -6.000  -1.573   4.840  0.00  0.00     0.002 A 
ATOM      4  C5  UNL d   1      -5.246  -2.751   4.879  0.00  0.00    -0.080 A 
ATOM      5  C6  UNL d   1      -5.405  -3.734   6.000  0.00  0.00     0.076 C 
ATOM      6  C7  UNL d   1      -4.328  -3.004   3.853  0.00  0.00     0.002 A 
ATOM      7  C8  UNL d   1      -4.150  -2.083   2.819  0.00  0.00     0.006 A 
ENDROOT
BRANCH   1   8
ATOM      8  C1  UNL d   1      -4.651   0.126   1.707  0.00  0.00     0.054 C 
ATOM      9  C   UNL d   1      -3.784  -0.441   0.592  0.00  0.00     0.018 C 
ENDBRANCH   1   8
TORSDOF 1
ENDMDL
