MODEL 1
REMARK minimizedAffinity 11.416132
REMARK minimizedRMSD -1
REMARK  1 active torsions:
REMARK  status: ('A' for Active; 'I' for Inactive)
REMARK    1  A    between atoms: C1_2  and  C2_3 
ROOT
ATOM      1  C2  UNL d   1      -2.516  -3.564  -5.514  0.00  0.00    -0.081 A 
ATOM      2  C3  UNL d   1      -2.568  -2.239  -5.965  0.00  0.00     0.006 A 
ATOM      3  C4  UNL d   1      -1.595  -1.318  -5.570  0.00  0.00     0.002 A 
ATOM      4  C5  UNL d   1      -0.549  -1.708  -4.726  0.00  0.00    -0.080 A 
ATOM      5  C6  UNL d   1       0.519  -0.737  -4.320  0.00  0.00     0.076 C 
ATOM      6  C7  UNL d   1      -0.507  -3.027  -4.262  0.00  0.00     0.002 A 
ATOM      7  C8  UNL d   1      -1.480  -3.948  -4.656  0.00  0.00     0.006 A 
ENDROOT
BRANCH   1   8
ATOM      8  C1  UNL d   1      -3.528  -4.575  -5.989  0.00  0.00     0.054 C 
ATOM      9  C   UNL d   1      -3.028  -5.998  -5.782  0.00  0.00     0.018 C 
ENDBRANCH   1   8
TORSDOF 1
ENDMDL
