MODEL 1
REMARK minimizedAffinity 6.74051809
REMARK minimizedRMSD -1
REMARK  1 active torsions:
REMARK  status: ('A' for Active; 'I' for Inactive)
REMARK    1  A    between atoms: C1_2  and  C2_3 
ROOT
ATOM      1  C2  UNL d   1      -4.542  -0.355   1.496  0.00  0.00    -0.081 A 
ATOM      2  C3  UNL d   1      -4.048  -1.533   2.069  0.00  0.00     0.006 A 
ATOM      3  C4  UNL d   1      -4.505  -1.960   3.317  0.00  0.00     0.002 A 
ATOM      4  C5  UNL d   1      -5.470  -1.220   4.011  0.00  0.00    -0.080 A 
ATOM      5  C6  UNL d   1      -5.991  -1.683   5.338  0.00  0.00     0.076 C 
ATOM      6  C7  UNL d   1      -5.951  -0.034   3.447  0.00  0.00     0.002 A 
ATOM      7  C8  UNL d   1      -5.493   0.394   2.198  0.00  0.00     0.006 A 
ENDROOT
BRANCH   1   8
ATOM      8  C1  UNL d   1      -4.099   0.074   0.121  0.00  0.00     0.054 C 
ATOM      9  C   UNL d   1      -5.289   0.434  -0.757  0.00  0.00     0.018 C 
ENDBRANCH   1   8
TORSDOF 1
ENDMDL
