MODEL 1
REMARK minimizedAffinity 7.00331974
REMARK minimizedRMSD -1
REMARK  1 active torsions:
REMARK  status: ('A' for Active; 'I' for Inactive)
REMARK    1  A    between atoms: C1_2  and  C2_3 
ROOT
ATOM      1  C2  UNL d   1      -1.072  -2.081  -4.192  0.00  0.00    -0.081 A 
ATOM      2  C3  UNL d   1      -1.269  -1.943  -2.812  0.00  0.00     0.006 A 
ATOM      3  C4  UNL d   1      -0.875  -2.956  -1.936  0.00  0.00     0.002 A 
ATOM      4  C5  UNL d   1      -0.270  -4.120  -2.422  0.00  0.00    -0.080 A 
ATOM      5  C6  UNL d   1       0.185  -5.203  -1.489  0.00  0.00     0.076 C 
ATOM      6  C7  UNL d   1      -0.089  -4.266  -3.802  0.00  0.00     0.002 A 
ATOM      7  C8  UNL d   1      -0.484  -3.253  -4.679  0.00  0.00     0.006 A 
ENDROOT
BRANCH   1   8
ATOM      8  C1  UNL d   1      -1.437  -0.962  -5.134  0.00  0.00     0.054 C 
ATOM      9  C   UNL d   1      -2.631  -1.335  -6.000  0.00  0.00     0.018 C 
ENDBRANCH   1   8
TORSDOF 1
ENDMDL
