MODEL 1
REMARK minimizedAffinity -0.539174616
REMARK minimizedRMSD -1
REMARK  0 active torsions:
REMARK  status: ('A' for Active; 'I' for Inactive)
ROOT
ATOM      1  C1  DEN d   1       1.152   3.028   1.929  0.00  0.00     0.130 A 
ATOM      2  C2  DEN d   1       1.490   2.113   3.015  0.00  0.00    -0.031 A 
ATOM      3  C3  DEN d   1       1.787   0.793   2.425  0.00  0.00     0.027 A 
ATOM      4  C4  DEN d   1       1.761   0.081  -0.054  0.00  0.00     0.027 A 
ATOM      5  C5  DEN d   1       1.524   0.508  -1.342  0.00  0.00    -0.003 A 
ATOM      6  C6  DEN d   1       1.116   1.784  -1.625  0.00  0.00     0.001 A 
ATOM      7  C7  DEN d   1       0.977   2.693  -0.609  0.00  0.00     0.017 A 
ATOM      8  C8  DEN d   1       1.208   2.269   0.693  0.00  0.00    -0.094 A 
ATOM      9  C9  DEN d   1       1.631   0.977   0.957  0.00  0.00    -0.072 A 
ENDROOT
TORSDOF 0
ENDMDL
