MODEL 1
REMARK minimizedAffinity -1.9326216
REMARK minimizedRMSD -1
REMARK  0 active torsions:
REMARK  status: ('A' for Active; 'I' for Inactive)
ROOT
ATOM      1  C1  DEN d   1       0.705   0.371  -0.630  0.00  0.00     0.130 A 
ATOM      2  C2  DEN d   1       0.683   0.402  -2.090  0.00  0.00    -0.031 A 
ATOM      3  C3  DEN d   1       0.920   1.794  -2.521  0.00  0.00     0.027 A 
ATOM      4  C4  DEN d   1       1.323   3.893  -1.078  0.00  0.00     0.027 A 
ATOM      5  C5  DEN d   1       1.420   4.367   0.212  0.00  0.00    -0.003 A 
ATOM      6  C6  DEN d   1       1.253   3.555   1.303  0.00  0.00     0.001 A 
ATOM      7  C7  DEN d   1       1.024   2.217   1.124  0.00  0.00     0.017 A 
ATOM      8  C8  DEN d   1       0.918   1.733  -0.174  0.00  0.00    -0.094 A 
ATOM      9  C9  DEN d   1       1.102   2.567  -1.263  0.00  0.00    -0.072 A 
ENDROOT
TORSDOF 0
ENDMDL
