MODEL 1
REMARK minimizedAffinity -3.71937823
REMARK minimizedRMSD -1
REMARK  0 active torsions:
REMARK  status: ('A' for Active; 'I' for Inactive)
ROOT
ATOM      1  C1  DEN d   1       1.460   1.094  -2.294  0.00  0.00     0.130 A 
ATOM      2  C2  DEN d   1       1.316  -0.195  -1.622  0.00  0.00    -0.031 A 
ATOM      3  C3  DEN d   1       1.154   0.059  -0.177  0.00  0.00     0.027 A 
ATOM      4  C4  DEN d   1       1.107   2.311   1.080  0.00  0.00     0.027 A 
ATOM      5  C5  DEN d   1       1.202   3.678   0.938  0.00  0.00    -0.003 A 
ATOM      6  C6  DEN d   1       1.421   4.273  -0.276  0.00  0.00     0.001 A 
ATOM      7  C7  DEN d   1       1.508   3.500  -1.404  0.00  0.00     0.017 A 
ATOM      8  C8  DEN d   1       1.421   2.121  -1.268  0.00  0.00    -0.094 A 
ATOM      9  C9  DEN d   1       1.187   1.540  -0.034  0.00  0.00    -0.072 A 
ENDROOT
TORSDOF 0
ENDMDL
