MODEL 1
REMARK minimizedAffinity 5.57095909
REMARK minimizedRMSD -1
REMARK  0 active torsions:
REMARK  status: ('A' for Active; 'I' for Inactive)
ROOT
ATOM      1  C1  DEN d   1       2.286   4.930  -2.255  0.00  0.00     0.130 A 
ATOM      2  C2  DEN d   1       2.499   6.000  -1.283  0.00  0.00    -0.031 A 
ATOM      3  C3  DEN d   1       2.233   5.453   0.063  0.00  0.00     0.027 A 
ATOM      4  C4  DEN d   1       1.519   3.067   0.733  0.00  0.00     0.027 A 
ATOM      5  C5  DEN d   1       1.202   1.814   0.255  0.00  0.00    -0.003 A 
ATOM      6  C6  DEN d   1       1.191   1.524  -1.084  0.00  0.00     0.001 A 
ATOM      7  C7  DEN d   1       1.547   2.488  -1.990  0.00  0.00     0.017 A 
ATOM      8  C8  DEN d   1       1.861   3.755  -1.516  0.00  0.00    -0.094 A 
ATOM      9  C9  DEN d   1       1.878   4.025  -0.159  0.00  0.00    -0.072 A 
ENDROOT
TORSDOF 0
ENDMDL
