MODEL 1
REMARK minimizedAffinity 1.35491943
REMARK minimizedRMSD -1
REMARK  0 active torsions:
REMARK  status: ('A' for Active; 'I' for Inactive)
ROOT
ATOM      1  C1  DEN d   1       1.590   5.157  -1.162  0.00  0.00     0.130 A 
ATOM      2  C2  DEN d   1       1.553   5.628   0.219  0.00  0.00    -0.031 A 
ATOM      3  C3  DEN d   1       1.321   4.460   1.093  0.00  0.00     0.027 A 
ATOM      4  C4  DEN d   1       1.021   1.982   0.445  0.00  0.00     0.027 A 
ATOM      5  C5  DEN d   1       0.964   1.096  -0.609  0.00  0.00    -0.003 A 
ATOM      6  C6  DEN d   1       1.076   1.503  -1.912  0.00  0.00     0.001 A 
ATOM      7  C7  DEN d   1       1.297   2.826  -2.193  0.00  0.00     0.017 A 
ATOM      8  C8  DEN d   1       1.349   3.726  -1.137  0.00  0.00    -0.094 A 
ATOM      9  C9  DEN d   1       1.246   3.293   0.174  0.00  0.00    -0.072 A 
ENDROOT
TORSDOF 0
ENDMDL
