MODEL 1
REMARK minimizedAffinity 6.68832874
REMARK minimizedRMSD -1
REMARK  0 active torsions:
REMARK  status: ('A' for Active; 'I' for Inactive)
ROOT
ATOM      1  C1  DEN d   1       1.744   3.407  -1.049  0.00  0.00     0.130 A 
ATOM      2  C2  DEN d   1       0.737   3.799  -2.031  0.00  0.00    -0.031 A 
ATOM      3  C3  DEN d   1       0.257   2.577  -2.706  0.00  0.00     0.027 A 
ATOM      4  C4  DEN d   1       0.969   0.127  -2.325  0.00  0.00     0.027 A 
ATOM      5  C5  DEN d   1       1.800  -0.701  -1.604  0.00  0.00    -0.003 A 
ATOM      6  C6  DEN d   1       2.688  -0.219  -0.679  0.00  0.00     0.001 A 
ATOM      7  C7  DEN d   1       2.734   1.125  -0.419  0.00  0.00     0.017 A 
ATOM      8  C8  DEN d   1       1.904   1.967  -1.147  0.00  0.00    -0.094 A 
ATOM      9  C9  DEN d   1       1.004   1.459  -2.068  0.00  0.00    -0.072 A 
ENDROOT
TORSDOF 0
ENDMDL
