MODEL 1
REMARK minimizedAffinity 0.167913213
REMARK minimizedRMSD -1
REMARK  0 active torsions:
REMARK  status: ('A' for Active; 'I' for Inactive)
ROOT
ATOM      1  C1  DEN d   1       1.250   1.583  -2.192  0.00  0.00     0.130 A 
ATOM      2  C2  DEN d   1       1.248   0.301  -1.492  0.00  0.00    -0.031 A 
ATOM      3  C3  DEN d   1       1.327   0.572  -0.043  0.00  0.00     0.027 A 
ATOM      4  C4  DEN d   1       1.447   2.840   1.180  0.00  0.00     0.027 A 
ATOM      5  C5  DEN d   1       1.490   4.206   1.010  0.00  0.00    -0.003 A 
ATOM      6  C6  DEN d   1       1.489   4.788  -0.230  0.00  0.00     0.001 A 
ATOM      7  C7  DEN d   1       1.401   4.002  -1.349  0.00  0.00     0.017 A 
ATOM      8  C8  DEN d   1       1.365   2.623  -1.186  0.00  0.00    -0.094 A 
ATOM      9  C9  DEN d   1       1.354   2.055   0.077  0.00  0.00    -0.072 A 
ENDROOT
TORSDOF 0
ENDMDL
