MODEL 1
REMARK minimizedAffinity -3.44018292
REMARK minimizedRMSD -1
REMARK  0 active torsions:
REMARK  status: ('A' for Active; 'I' for Inactive)
ROOT
ATOM      1  C1  DEN d   1       1.244   1.132  -2.133  0.00  0.00     0.130 A 
ATOM      2  C2  DEN d   1       0.974  -0.196  -1.588  0.00  0.00    -0.031 A 
ATOM      3  C3  DEN d   1       0.619  -0.041  -0.163  0.00  0.00     0.027 A 
ATOM      4  C4  DEN d   1       0.458   2.116   1.243  0.00  0.00     0.027 A 
ATOM      5  C5  DEN d   1       0.607   3.485   1.220  0.00  0.00    -0.003 A 
ATOM      6  C6  DEN d   1       1.010   4.156   0.096  0.00  0.00     0.001 A 
ATOM      7  C7  DEN d   1       1.232   3.464  -1.065  0.00  0.00     0.017 A 
ATOM      8  C8  DEN d   1       1.091   2.083  -1.048  0.00  0.00    -0.094 A 
ATOM      9  C9  DEN d   1       0.671   1.424   0.095  0.00  0.00    -0.072 A 
ENDROOT
TORSDOF 0
ENDMDL
