MODEL 1
REMARK minimizedAffinity 1.12313008
REMARK minimizedRMSD -1
REMARK  0 active torsions:
REMARK  status: ('A' for Active; 'I' for Inactive)
ROOT
ATOM      1  C1  DEN d   1       1.596   4.733   0.227  0.00  0.00     0.130 A 
ATOM      2  C2  DEN d   1       1.771   5.621  -0.919  0.00  0.00    -0.031 A 
ATOM      3  C3  DEN d   1       1.501   4.841  -2.145  0.00  0.00     0.027 A 
ATOM      4  C4  DEN d   1       0.830   2.362  -2.376  0.00  0.00     0.027 A 
ATOM      5  C5  DEN d   1       0.570   1.200  -1.683  0.00  0.00    -0.003 A 
ATOM      6  C6  DEN d   1       0.667   1.126  -0.319  0.00  0.00     0.001 A 
ATOM      7  C7  DEN d   1       0.988   2.247   0.401  0.00  0.00     0.017 A 
ATOM      8  C8  DEN d   1       1.258   3.420  -0.291  0.00  0.00    -0.094 A 
ATOM      9  C9  DEN d   1       1.144   3.478  -1.670  0.00  0.00    -0.072 A 
ENDROOT
TORSDOF 0
ENDMDL
