MODEL 1
REMARK minimizedAffinity 1.76692808
REMARK minimizedRMSD -1
REMARK  0 active torsions:
REMARK  status: ('A' for Active; 'I' for Inactive)
ROOT
ATOM      1  C1  DEN d   1       2.999   0.655   1.276  0.00  0.00     0.130 A 
ATOM      2  C2  DEN d   1       2.735   1.874   2.035  0.00  0.00    -0.031 A 
ATOM      3  C3  DEN d   1       1.795   2.704   1.256  0.00  0.00     0.027 A 
ATOM      4  C4  DEN d   1       0.722   2.218  -1.039  0.00  0.00     0.027 A 
ATOM      5  C5  DEN d   1       0.651   1.316  -2.077  0.00  0.00    -0.003 A 
ATOM      6  C6  DEN d   1       1.379   0.155  -2.086  0.00  0.00     0.001 A 
ATOM      7  C7  DEN d   1       2.174  -0.156  -1.015  0.00  0.00     0.017 A 
ATOM      8  C8  DEN d   1       2.256   0.753   0.032  0.00  0.00    -0.094 A 
ATOM      9  C9  DEN d   1       1.504   1.915   0.028  0.00  0.00    -0.072 A 
ENDROOT
TORSDOF 0
ENDMDL
