MODEL 1
REMARK minimizedAffinity 2.83630466
REMARK minimizedRMSD -1
REMARK  0 active torsions:
REMARK  status: ('A' for Active; 'I' for Inactive)
ROOT
ATOM      1  C1  DEN d   1       2.250   1.282   0.960  0.00  0.00     0.130 A 
ATOM      2  C2  DEN d   1       2.005   2.082   2.156  0.00  0.00    -0.031 A 
ATOM      3  C3  DEN d   1       1.559   3.422   1.726  0.00  0.00     0.027 A 
ATOM      4  C4  DEN d   1       1.223   4.330  -0.665  0.00  0.00     0.027 A 
ATOM      5  C5  DEN d   1       1.316   4.025  -2.005  0.00  0.00    -0.003 A 
ATOM      6  C6  DEN d   1       1.755   2.806  -2.447  0.00  0.00     0.001 A 
ATOM      7  C7  DEN d   1       2.076   1.830  -1.541  0.00  0.00     0.017 A 
ATOM      8  C8  DEN d   1       1.992   2.132  -0.188  0.00  0.00    -0.094 A 
ATOM      9  C9  DEN d   1       1.534   3.367   0.239  0.00  0.00    -0.072 A 
ENDROOT
TORSDOF 0
ENDMDL
