MODEL 1
REMARK minimizedAffinity 6.10657692
REMARK minimizedRMSD -1
REMARK  0 active torsions:
REMARK  status: ('A' for Active; 'I' for Inactive)
ROOT
ATOM      1  C1  DEN d   1       1.508   2.219  -2.345  0.00  0.00     0.130 A 
ATOM      2  C2  DEN d   1       1.490   0.836  -1.877  0.00  0.00    -0.031 A 
ATOM      3  C3  DEN d   1       1.448   0.854  -0.401  0.00  0.00     0.027 A 
ATOM      4  C4  DEN d   1       1.404   2.878   1.196  0.00  0.00     0.027 A 
ATOM      5  C5  DEN d   1       1.418   4.254   1.266  0.00  0.00    -0.003 A 
ATOM      6  C6  DEN d   1       1.496   5.041   0.147  0.00  0.00     0.001 A 
ATOM      7  C7  DEN d   1       1.518   4.458  -1.092  0.00  0.00     0.017 A 
ATOM      8  C8  DEN d   1       1.512   3.072  -1.170  0.00  0.00    -0.094 A 
ATOM      9  C9  DEN d   1       1.420   2.294  -0.028  0.00  0.00    -0.072 A 
ENDROOT
TORSDOF 0
ENDMDL
