MODEL 1
REMARK minimizedAffinity -0.833148777
REMARK minimizedRMSD -1
REMARK  0 active torsions:
REMARK  status: ('A' for Active; 'I' for Inactive)
ROOT
ATOM      1  C1  DEN d   1       0.376  -2.120  -2.190  0.00  0.00     0.130 A 
ATOM      2  C2  DEN d   1       0.303  -2.967  -1.003  0.00  0.00    -0.031 A 
ATOM      3  C3  DEN d   1       0.770  -2.175   0.153  0.00  0.00     0.027 A 
ATOM      4  C4  DEN d   1       1.589   0.270   0.220  0.00  0.00     0.027 A 
ATOM      5  C5  DEN d   1       1.839   1.391  -0.540  0.00  0.00    -0.003 A 
ATOM      6  C6  DEN d   1       1.654   1.410  -1.897  0.00  0.00     0.001 A 
ATOM      7  C7  DEN d   1       1.161   0.299  -2.530  0.00  0.00     0.017 A 
ATOM      8  C8  DEN d   1       0.913  -0.837  -1.772  0.00  0.00    -0.094 A 
ATOM      9  C9  DEN d   1       1.096  -0.833  -0.399  0.00  0.00    -0.072 A 
ENDROOT
TORSDOF 0
ENDMDL
