MODEL 1
REMARK minimizedAffinity -4.81641817
REMARK minimizedRMSD -1
REMARK  0 active torsions:
REMARK  status: ('A' for Active; 'I' for Inactive)
ROOT
ATOM      1  C1  DEN d   1       1.901   2.017  -2.178  0.00  0.00     0.130 A 
ATOM      2  C2  DEN d   1       1.855   0.627  -1.734  0.00  0.00    -0.031 A 
ATOM      3  C3  DEN d   1       1.420   0.613  -0.322  0.00  0.00     0.027 A 
ATOM      4  C4  DEN d   1       0.814   2.598   1.208  0.00  0.00     0.027 A 
ATOM      5  C5  DEN d   1       0.714   3.970   1.281  0.00  0.00    -0.003 A 
ATOM      6  C6  DEN d   1       1.032   4.782   0.225  0.00  0.00     0.001 A 
ATOM      7  C7  DEN d   1       1.423   4.227  -0.965  0.00  0.00     0.017 A 
ATOM      8  C8  DEN d   1       1.534   2.845  -1.043  0.00  0.00    -0.094 A 
ATOM      9  C9  DEN d   1       1.196   2.040   0.032  0.00  0.00    -0.072 A 
ENDROOT
TORSDOF 0
ENDMDL
