MODEL 1
REMARK minimizedAffinity 6.24884987
REMARK minimizedRMSD -1
REMARK  0 active torsions:
REMARK  status: ('A' for Active; 'I' for Inactive)
ROOT
ATOM      1  C1  DEN d   1       2.200   3.544  -0.133  0.00  0.00     0.130 A 
ATOM      2  C2  DEN d   1       1.861   4.515  -1.170  0.00  0.00    -0.031 A 
ATOM      3  C3  DEN d   1       1.313   3.776  -2.325  0.00  0.00     0.027 A 
ATOM      4  C4  DEN d   1       0.953   1.238  -2.606  0.00  0.00     0.027 A 
ATOM      5  C5  DEN d   1       1.101   0.010  -2.000  0.00  0.00    -0.003 A 
ATOM      6  C6  DEN d   1       1.651  -0.129  -0.754  0.00  0.00     0.001 A 
ATOM      7  C7  DEN d   1       2.034   0.985  -0.054  0.00  0.00     0.017 A 
ATOM      8  C8  DEN d   1       1.895   2.226  -0.661  0.00  0.00    -0.094 A 
ATOM      9  C9  DEN d   1       1.325   2.346  -1.916  0.00  0.00    -0.072 A 
ENDROOT
TORSDOF 0
ENDMDL
