MODEL 1
REMARK minimizedAffinity -4.51823616
REMARK minimizedRMSD -1
REMARK  2 active torsions:
REMARK  status: ('A' for Active; 'I' for Inactive)
REMARK    1  A    between atoms: C2'_3  and  C1'_4 
REMARK    2  A    between atoms: C1'_4  and  C1_5 
ROOT
ATOM      1  C1  I4B d   1      -0.267   0.544   0.366  0.00  0.00    -0.075 A 
ATOM      2  C2  I4B d   1      -0.387  -0.330   1.417  0.00  0.00     0.003 A 
ATOM      3  C3  I4B d   1       0.680  -1.201   1.744  0.00  0.00     0.002 A 
ATOM      4  C4  I4B d   1       1.821  -1.199   0.969  0.00  0.00    -0.004 A 
ATOM      5  C5  I4B d   1       1.950  -0.296  -0.082  0.00  0.00     0.002 A 
ATOM      6  C6  I4B d   1       0.904   0.590  -0.378  0.00  0.00     0.003 A 
ENDROOT
BRANCH   1   7
ATOM      7  C1' I4B d   1      -1.427   1.427   0.027  0.00  0.00     0.060 C 
BRANCH   7   8
ATOM      8  C2' I4B d   1      -1.436   1.630  -1.474  0.00  0.00    -0.013 C 
ATOM      9  C4' I4B d   1      -2.685   1.061  -2.094  0.00  0.00     0.013 C 
ATOM     10  C3' I4B d   1      -1.320   3.100  -1.744  0.00  0.00     0.013 C 
ENDBRANCH   7   8
ENDBRANCH   1   7
TORSDOF 2
ENDMDL
