MODEL 1
REMARK minimizedAffinity -3.54054093
REMARK minimizedRMSD -1
REMARK  2 active torsions:
REMARK  status: ('A' for Active; 'I' for Inactive)
REMARK    1  A    between atoms: C2'_3  and  C1'_4 
REMARK    2  A    between atoms: C1'_4  and  C1_5 
ROOT
ATOM      1  C1  I4B d   1       0.452  -1.406   1.045  0.00  0.00    -0.075 A 
ATOM      2  C2  I4B d   1      -0.724  -0.795   1.402  0.00  0.00     0.003 A 
ATOM      3  C3  I4B d   1      -1.393  -1.177   2.590  0.00  0.00     0.002 A 
ATOM      4  C4  I4B d   1      -0.881  -2.202   3.359  0.00  0.00    -0.004 A 
ATOM      5  C5  I4B d   1       0.323  -2.804   3.008  0.00  0.00     0.002 A 
ATOM      6  C6  I4B d   1       1.001  -2.396   1.850  0.00  0.00     0.003 A 
ENDROOT
BRANCH   1   7
ATOM      7  C1' I4B d   1       1.116  -1.001  -0.233  0.00  0.00     0.060 C 
BRANCH   7   8
ATOM      8  C2' I4B d   1       1.374   0.491  -0.172  0.00  0.00    -0.013 C 
ATOM      9  C4' I4B d   1       2.606   0.863  -0.955  0.00  0.00     0.013 C 
ATOM     10  C3' I4B d   1       0.161   1.193  -0.706  0.00  0.00     0.013 C 
ENDBRANCH   7   8
ENDBRANCH   1   7
TORSDOF 2
ENDMDL
