MODEL 1
REMARK minimizedAffinity -1.37977719
REMARK minimizedRMSD -1
REMARK  2 active torsions:
REMARK  status: ('A' for Active; 'I' for Inactive)
REMARK    1  A    between atoms: C2'_3  and  C1'_4 
REMARK    2  A    between atoms: C1'_4  and  C1_5 
ROOT
ATOM      1  C1  I4B d   1      -0.389   1.107  -0.514  0.00  0.00    -0.075 A 
ATOM      2  C2  I4B d   1      -0.911   0.251   0.424  0.00  0.00     0.003 A 
ATOM      3  C3  I4B d   1      -0.090  -0.734   1.024  0.00  0.00     0.002 A 
ATOM      4  C4  I4B d   1       1.225  -0.860   0.623  0.00  0.00    -0.004 A 
ATOM      5  C5  I4B d   1       1.757   0.023  -0.312  0.00  0.00     0.002 A 
ATOM      6  C6  I4B d   1       0.949   1.021  -0.875  0.00  0.00     0.003 A 
ENDROOT
BRANCH   1   7
ATOM      7  C1' I4B d   1      -1.293   2.115  -1.151  0.00  0.00     0.060 C 
BRANCH   7   8
ATOM      8  C2' I4B d   1      -1.886   1.488  -2.397  0.00  0.00    -0.013 C 
ATOM      9  C4' I4B d   1      -3.355   1.205  -2.218  0.00  0.00     0.013 C 
ATOM     10  C3' I4B d   1      -1.650   2.424  -3.544  0.00  0.00     0.013 C 
ENDBRANCH   7   8
ENDBRANCH   1   7
TORSDOF 2
ENDMDL
