MODEL 1
REMARK minimizedAffinity -3.26590109
REMARK minimizedRMSD -1
REMARK  2 active torsions:
REMARK  status: ('A' for Active; 'I' for Inactive)
REMARK    1  A    between atoms: C2'_3  and  C1'_4 
REMARK    2  A    between atoms: C1'_4  and  C1_5 
ROOT
ATOM      1  C1  I4B d   1      -0.852   1.555  -1.120  0.00  0.00    -0.075 A 
ATOM      2  C2  I4B d   1      -0.894   2.797  -1.703  0.00  0.00     0.003 A 
ATOM      3  C3  I4B d   1      -1.498   2.968  -2.972  0.00  0.00     0.002 A 
ATOM      4  C4  I4B d   1      -1.997   1.869  -3.641  0.00  0.00    -0.004 A 
ATOM      5  C5  I4B d   1      -1.974   0.615  -3.039  0.00  0.00     0.002 A 
ATOM      6  C6  I4B d   1      -1.409   0.458  -1.765  0.00  0.00     0.003 A 
ENDROOT
BRANCH   1   7
ATOM      7  C1' I4B d   1      -0.178   1.404   0.207  0.00  0.00     0.060 C 
BRANCH   7   8
ATOM      8  C2' I4B d   1       0.151  -0.062   0.400  0.00  0.00    -0.013 C 
ATOM      9  C4' I4B d   1       1.625  -0.319   0.223  0.00  0.00     0.013 C 
ATOM     10  C3' I4B d   1      -0.308  -0.464   1.770  0.00  0.00     0.013 C 
ENDBRANCH   7   8
ENDBRANCH   1   7
TORSDOF 2
ENDMDL
