MODEL 1
REMARK minimizedAffinity -3.90496182
REMARK minimizedRMSD -1
REMARK  2 active torsions:
REMARK  status: ('A' for Active; 'I' for Inactive)
REMARK    1  A    between atoms: C2'_3  and  C1'_4 
REMARK    2  A    between atoms: C1'_4  and  C1_5 
ROOT
ATOM      1  C1  I4B d   1      -0.011  -0.905   1.174  0.00  0.00    -0.075 A 
ATOM      2  C2  I4B d   1      -1.084  -0.869   2.030  0.00  0.00     0.003 A 
ATOM      3  C3  I4B d   1      -0.993  -1.462   3.312  0.00  0.00     0.002 A 
ATOM      4  C4  I4B d   1       0.164  -2.120   3.676  0.00  0.00    -0.004 A 
ATOM      5  C5  I4B d   1       1.259  -2.135   2.817  0.00  0.00     0.002 A 
ATOM      6  C6  I4B d   1       1.176  -1.513   1.563  0.00  0.00     0.003 A 
ENDROOT
BRANCH   1   7
ATOM      7  C1' I4B d   1      -0.152  -0.297  -0.185  0.00  0.00     0.060 C 
BRANCH   7   8
ATOM      8  C2' I4B d   1       0.384   1.119  -0.122  0.00  0.00    -0.013 C 
ATOM      9  C4' I4B d   1       1.758   1.209  -0.731  0.00  0.00     0.013 C 
ATOM     10  C3' I4B d   1      -0.585   2.013  -0.836  0.00  0.00     0.013 C 
ENDBRANCH   7   8
ENDBRANCH   1   7
TORSDOF 2
ENDMDL
