MODEL 1
REMARK minimizedAffinity -5.53966808
REMARK minimizedRMSD -1
REMARK  2 active torsions:
REMARK  status: ('A' for Active; 'I' for Inactive)
REMARK    1  A    between atoms: C2'_3  and  C1'_4 
REMARK    2  A    between atoms: C1'_4  and  C1_5 
ROOT
ATOM      1  C1  I4B d   1      -0.119   0.359   0.328  0.00  0.00    -0.075 A 
ATOM      2  C2  I4B d   1      -0.590  -0.557   1.236  0.00  0.00     0.003 A 
ATOM      3  C3  I4B d   1       0.229  -1.634   1.653  0.00  0.00     0.002 A 
ATOM      4  C4  I4B d   1       1.486  -1.784   1.103  0.00  0.00    -0.004 A 
ATOM      5  C5  I4B d   1       1.971  -0.842   0.201  0.00  0.00     0.002 A 
ATOM      6  C6  I4B d   1       1.168   0.244  -0.180  0.00  0.00     0.003 A 
ENDROOT
BRANCH   1   7
ATOM      7  C1' I4B d   1      -1.023   1.465  -0.115  0.00  0.00     0.060 C 
BRANCH   7   8
ATOM      8  C2' I4B d   1      -1.020   1.491  -1.630  0.00  0.00    -0.013 C 
ATOM      9  C4' I4B d   1      -2.361   1.086  -2.185  0.00  0.00     0.013 C 
ATOM     10  C3' I4B d   1      -0.649   2.876  -2.069  0.00  0.00     0.013 C 
ENDBRANCH   7   8
ENDBRANCH   1   7
TORSDOF 2
ENDMDL
