MODEL 1
REMARK minimizedAffinity -0.805659294
REMARK minimizedRMSD -1
REMARK  2 active torsions:
REMARK  status: ('A' for Active; 'I' for Inactive)
REMARK    1  A    between atoms: C2'_3  and  C1'_4 
REMARK    2  A    between atoms: C1'_4  and  C1_5 
ROOT
ATOM      1  C1  I4B d   1       0.928  -0.206   0.056  0.00  0.00    -0.075 A 
ATOM      2  C2  I4B d   1       1.395   0.437  -1.063  0.00  0.00     0.003 A 
ATOM      3  C3  I4B d   1       0.573   1.368  -1.745  0.00  0.00     0.002 A 
ATOM      4  C4  I4B d   1      -0.716   1.586  -1.305  0.00  0.00    -0.004 A 
ATOM      5  C5  I4B d   1      -1.180   0.950  -0.157  0.00  0.00     0.002 A 
ATOM      6  C6  I4B d   1      -0.348   0.057   0.535  0.00  0.00     0.003 A 
ENDROOT
BRANCH   1   7
ATOM      7  C1' I4B d   1       1.810  -1.207   0.732  0.00  0.00     0.060 C 
BRANCH   7   8
ATOM      8  C2' I4B d   1       1.938  -0.809   2.188  0.00  0.00    -0.013 C 
ATOM      9  C4' I4B d   1       1.458  -1.908   3.099  0.00  0.00     0.013 C 
ATOM     10  C3' I4B d   1       3.377  -0.477   2.452  0.00  0.00     0.013 C 
ENDBRANCH   7   8
ENDBRANCH   1   7
TORSDOF 2
ENDMDL
