MODEL 1
REMARK minimizedAffinity -4.35699224
REMARK minimizedRMSD -1
REMARK  2 active torsions:
REMARK  status: ('A' for Active; 'I' for Inactive)
REMARK    1  A    between atoms: C2'_3  and  C1'_4 
REMARK    2  A    between atoms: C1'_4  and  C1_5 
ROOT
ATOM      1  C1  I4B d   1      -0.090   1.013  -0.506  0.00  0.00    -0.075 A 
ATOM      2  C2  I4B d   1      -0.824   0.566   0.564  0.00  0.00     0.003 A 
ATOM      3  C3  I4B d   1      -0.349  -0.508   1.355  0.00  0.00     0.002 A 
ATOM      4  C4  I4B d   1       0.832  -1.135   1.012  0.00  0.00    -0.004 A 
ATOM      5  C5  I4B d   1       1.586  -0.665  -0.060  0.00  0.00     0.002 A 
ATOM      6  C6  I4B d   1       1.128   0.423  -0.817  0.00  0.00     0.003 A 
ENDROOT
BRANCH   1   7
ATOM      7  C1' I4B d   1      -0.638   2.128  -1.340  0.00  0.00     0.060 C 
BRANCH   7   8
ATOM      8  C2' I4B d   1      -1.689   1.548  -2.263  0.00  0.00    -0.013 C 
ATOM      9  C4' I4B d   1      -3.050   2.121  -1.969  0.00  0.00     0.013 C 
ATOM     10  C3' I4B d   1      -1.275   1.835  -3.676  0.00  0.00     0.013 C 
ENDBRANCH   7   8
ENDBRANCH   1   7
TORSDOF 2
ENDMDL
