MODEL 1
REMARK minimizedAffinity -3.79963899
REMARK minimizedRMSD -1
REMARK  2 active torsions:
REMARK  status: ('A' for Active; 'I' for Inactive)
REMARK    1  A    between atoms: C2'_3  and  C1'_4 
REMARK    2  A    between atoms: C1'_4  and  C1_5 
ROOT
ATOM      1  C1  I4B d   1      -0.202  -1.001   0.841  0.00  0.00    -0.075 A 
ATOM      2  C2  I4B d   1      -0.641  -1.255   2.116  0.00  0.00     0.003 A 
ATOM      3  C3  I4B d   1       0.092  -2.121   2.963  0.00  0.00     0.002 A 
ATOM      4  C4  I4B d   1       1.223  -2.746   2.480  0.00  0.00    -0.004 A 
ATOM      5  C5  I4B d   1       1.679  -2.470   1.195  0.00  0.00     0.002 A 
ATOM      6  C6  I4B d   1       0.969  -1.582   0.373  0.00  0.00     0.003 A 
ENDROOT
BRANCH   1   7
ATOM      7  C1' I4B d   1      -1.019  -0.108  -0.038  0.00  0.00     0.060 C 
BRANCH   7   8
ATOM      8  C2' I4B d   1      -0.083   0.560  -1.024  0.00  0.00    -0.013 C 
ATOM      9  C4' I4B d   1      -0.842   1.413  -2.006  0.00  0.00     0.013 C 
ATOM     10  C3' I4B d   1       0.903   1.379  -0.245  0.00  0.00     0.013 C 
ENDBRANCH   7   8
ENDBRANCH   1   7
TORSDOF 2
ENDMDL
