MODEL 1
REMARK minimizedAffinity -3.75566554
REMARK minimizedRMSD -1
REMARK  2 active torsions:
REMARK  status: ('A' for Active; 'I' for Inactive)
REMARK    1  A    between atoms: C2'_3  and  C1'_4 
REMARK    2  A    between atoms: C1'_4  and  C1_5 
ROOT
ATOM      1  C1  I4B d   1      -0.872   2.920  -3.108  0.00  0.00    -0.075 A 
ATOM      2  C2  I4B d   1      -1.528   2.998  -1.905  0.00  0.00     0.003 A 
ATOM      3  C3  I4B d   1      -2.654   2.178  -1.652  0.00  0.00     0.002 A 
ATOM      4  C4  I4B d   1      -3.117   1.335  -2.643  0.00  0.00    -0.004 A 
ATOM      5  C5  I4B d   1      -2.436   1.240  -3.853  0.00  0.00     0.002 A 
ATOM      6  C6  I4B d   1      -1.299   2.029  -4.083  0.00  0.00     0.003 A 
ENDROOT
BRANCH   1   7
ATOM      7  C1' I4B d   1       0.294   3.825  -3.353  0.00  0.00     0.060 C 
BRANCH   7   8
ATOM      8  C2' I4B d   1      -0.104   4.818  -4.427  0.00  0.00    -0.013 C 
ATOM      9  C4' I4B d   1       0.836   5.993  -4.458  0.00  0.00     0.013 C 
ATOM     10  C3' I4B d   1      -0.114   4.097  -5.742  0.00  0.00     0.013 C 
ENDBRANCH   7   8
ENDBRANCH   1   7
TORSDOF 2
ENDMDL
