MODEL 1
REMARK minimizedAffinity 4.06778288
REMARK minimizedRMSD -1
REMARK  2 active torsions:
REMARK  status: ('A' for Active; 'I' for Inactive)
REMARK    1  A    between atoms: C2'_3  and  C1'_4 
REMARK    2  A    between atoms: C1'_4  and  C1_5 
ROOT
ATOM      1  C1  I4B d   1       0.414  -1.019   1.955  0.00  0.00    -0.075 A 
ATOM      2  C2  I4B d   1      -0.165  -0.251   0.976  0.00  0.00     0.003 A 
ATOM      3  C3  I4B d   1       0.579   0.124  -0.169  0.00  0.00     0.002 A 
ATOM      4  C4  I4B d   1       1.904  -0.247  -0.269  0.00  0.00    -0.004 A 
ATOM      5  C5  I4B d   1       2.483  -1.045   0.713  0.00  0.00     0.002 A 
ATOM      6  C6  I4B d   1       1.730  -1.444   1.827  0.00  0.00     0.003 A 
ENDROOT
BRANCH   1   7
ATOM      7  C1' I4B d   1      -0.390  -1.369   3.167  0.00  0.00     0.060 C 
BRANCH   7   8
ATOM      8  C2' I4B d   1      -1.812  -1.642   2.721  0.00  0.00    -0.013 C 
ATOM      9  C4' I4B d   1      -2.317  -2.947   3.276  0.00  0.00     0.013 C 
ATOM     10  C3' I4B d   1      -2.667  -0.495   3.172  0.00  0.00     0.013 C 
ENDBRANCH   7   8
ENDBRANCH   1   7
TORSDOF 2
ENDMDL
