MODEL 1
REMARK minimizedAffinity 3.61945057
REMARK minimizedRMSD -1
REMARK  2 active torsions:
REMARK  status: ('A' for Active; 'I' for Inactive)
REMARK    1  A    between atoms: C1_2  and  C2_3 
REMARK    2  A    between atoms: C2_3  and  C3_4 
ROOT
ATOM      1  C3  UNL d   1       2.007  -0.115  -2.888  0.00  0.00    -0.075 A 
ATOM      2  C4  UNL d   1       1.880   0.152  -1.517  0.00  0.00     0.002 A 
ATOM      3  C5  UNL d   1       1.229  -0.752  -0.677  0.00  0.00     0.002 A 
ATOM      4  C6  UNL d   1       0.690  -1.927  -1.196  0.00  0.00    -0.004 A 
ATOM      5  C7  UNL d   1       0.796  -2.195  -2.559  0.00  0.00     0.002 A 
ATOM      6  C8  UNL d   1       1.451  -1.294  -3.402  0.00  0.00     0.002 A 
ENDROOT
BRANCH   1   7
ATOM      7  C2  UNL d   1       2.736   0.845  -3.797  0.00  0.00     0.056 C 
BRANCH   7   8
ATOM      8  C1  UNL d   1       4.263   0.766  -3.692  0.00  0.00     0.007 C 
ATOM      9  C   UNL d   1       4.979   1.348  -4.903  0.00  0.00     0.009 C 
ENDBRANCH   7   8
ENDBRANCH   1   7
TORSDOF 2
ENDMDL
