MODEL 1
REMARK minimizedAffinity 2.22252798
REMARK minimizedRMSD -1
REMARK  2 active torsions:
REMARK  status: ('A' for Active; 'I' for Inactive)
REMARK    1  A    between atoms: C1_2  and  C2_3 
REMARK    2  A    between atoms: C2_3  and  C3_4 
ROOT
ATOM      1  C3  UNL d   1       0.101  -1.781   0.040  0.00  0.00    -0.075 A 
ATOM      2  C4  UNL d   1       0.502  -0.733  -0.801  0.00  0.00     0.002 A 
ATOM      3  C5  UNL d   1       1.856  -0.491  -1.036  0.00  0.00     0.002 A 
ATOM      4  C6  UNL d   1       2.824  -1.286  -0.426  0.00  0.00    -0.004 A 
ATOM      5  C7  UNL d   1       2.438  -2.320   0.424  0.00  0.00     0.002 A 
ATOM      6  C8  UNL d   1       1.084  -2.566   0.657  0.00  0.00     0.002 A 
ENDROOT
BRANCH   1   7
ATOM      7  C2  UNL d   1      -1.363  -2.067   0.275  0.00  0.00     0.056 C 
BRANCH   7   8
ATOM      8  C1  UNL d   1      -2.237  -1.913  -0.975  0.00  0.00     0.007 C 
ATOM      9  C   UNL d   1      -1.921  -2.935  -2.058  0.00  0.00     0.009 C 
ENDBRANCH   7   8
ENDBRANCH   1   7
TORSDOF 2
ENDMDL
