MODEL 1
REMARK minimizedAffinity -0.939326525
REMARK minimizedRMSD -1
REMARK  2 active torsions:
REMARK  status: ('A' for Active; 'I' for Inactive)
REMARK    1  A    between atoms: C1_2  and  C2_3 
REMARK    2  A    between atoms: C2_3  and  C3_4 
ROOT
ATOM      1  C3  UNL d   1      -4.093   3.542   5.249  0.00  0.00    -0.075 A 
ATOM      2  C4  UNL d   1      -4.799   4.494   5.999  0.00  0.00     0.002 A 
ATOM      3  C5  UNL d   1      -5.167   5.713   5.430  0.00  0.00     0.002 A 
ATOM      4  C6  UNL d   1      -4.827   6.000   4.110  0.00  0.00    -0.004 A 
ATOM      5  C7  UNL d   1      -4.112   5.069   3.361  0.00  0.00     0.002 A 
ATOM      6  C8  UNL d   1      -3.745   3.846   3.926  0.00  0.00     0.002 A 
ENDROOT
BRANCH   1   7
ATOM      7  C2  UNL d   1      -3.717   2.209   5.850  0.00  0.00     0.056 C 
BRANCH   7   8
ATOM      8  C1  UNL d   1      -2.960   1.284   4.892  0.00  0.00     0.007 C 
ATOM      9  C   UNL d   1      -3.374  -0.177   5.014  0.00  0.00     0.009 C 
ENDBRANCH   7   8
ENDBRANCH   1   7
TORSDOF 2
ENDMDL
