MODEL 1
REMARK minimizedAffinity 5.06079912
REMARK minimizedRMSD -1
REMARK  2 active torsions:
REMARK  status: ('A' for Active; 'I' for Inactive)
REMARK    1  A    between atoms: C1_2  and  C2_3 
REMARK    2  A    between atoms: C2_3  and  C3_4 
ROOT
ATOM      1  C3  UNL d   1       0.251  -0.387  -2.514  0.00  0.00    -0.075 A 
ATOM      2  C4  UNL d   1       0.070  -1.636  -3.125  0.00  0.00     0.002 A 
ATOM      3  C5  UNL d   1      -0.029  -1.739  -4.513  0.00  0.00     0.002 A 
ATOM      4  C6  UNL d   1       0.042  -0.595  -5.305  0.00  0.00    -0.004 A 
ATOM      5  C7  UNL d   1       0.206   0.653  -4.708  0.00  0.00     0.002 A 
ATOM      6  C8  UNL d   1       0.309   0.758  -3.320  0.00  0.00     0.002 A 
ENDROOT
BRANCH   1   7
ATOM      7  C2  UNL d   1       0.388  -0.273  -1.015  0.00  0.00     0.056 C 
BRANCH   7   8
ATOM      8  C1  UNL d   1       1.833  -0.361  -0.512  0.00  0.00     0.007 C 
ATOM      9  C   UNL d   1       2.276  -1.785  -0.206  0.00  0.00     0.009 C 
ENDBRANCH   7   8
ENDBRANCH   1   7
TORSDOF 2
ENDMDL
