MODEL 1
REMARK minimizedAffinity 0.124101587
REMARK minimizedRMSD -1
REMARK  2 active torsions:
REMARK  status: ('A' for Active; 'I' for Inactive)
REMARK    1  A    between atoms: C1_2  and  C2_3 
REMARK    2  A    between atoms: C2_3  and  C3_4 
ROOT
ATOM      1  C3  UNL d   1       0.739  -1.520  -0.305  0.00  0.00    -0.075 A 
ATOM      2  C4  UNL d   1       1.928  -2.188   0.019  0.00  0.00     0.002 A 
ATOM      3  C5  UNL d   1       1.893  -3.431   0.653  0.00  0.00     0.002 A 
ATOM      4  C6  UNL d   1       0.671  -4.014   0.980  0.00  0.00    -0.004 A 
ATOM      5  C7  UNL d   1      -0.517  -3.352   0.678  0.00  0.00     0.002 A 
ATOM      6  C8  UNL d   1      -0.484  -2.111   0.040  0.00  0.00     0.002 A 
ENDROOT
BRANCH   1   7
ATOM      7  C2  UNL d   1       0.770  -0.189  -1.018  0.00  0.00     0.056 C 
BRANCH   7   8
ATOM      8  C1  UNL d   1      -0.006  -0.171  -2.339  0.00  0.00     0.007 C 
ATOM      9  C   UNL d   1       0.310  -1.359  -3.237  0.00  0.00     0.009 C 
ENDBRANCH   7   8
ENDBRANCH   1   7
TORSDOF 2
ENDMDL
