MODEL 1
REMARK minimizedAffinity 1.59367824
REMARK minimizedRMSD -1
REMARK  2 active torsions:
REMARK  status: ('A' for Active; 'I' for Inactive)
REMARK    1  A    between atoms: C1_2  and  C2_3 
REMARK    2  A    between atoms: C2_3  and  C3_4 
ROOT
ATOM      1  C3  UNL d   1       0.716   0.297  -2.007  0.00  0.00    -0.075 A 
ATOM      2  C4  UNL d   1       0.446  -0.881  -2.718  0.00  0.00     0.002 A 
ATOM      3  C5  UNL d   1       0.405  -2.111  -2.061  0.00  0.00     0.002 A 
ATOM      4  C6  UNL d   1       0.644  -2.181  -0.690  0.00  0.00    -0.004 A 
ATOM      5  C7  UNL d   1       0.929  -1.019   0.023  0.00  0.00     0.002 A 
ATOM      6  C8  UNL d   1       0.966   0.214  -0.631  0.00  0.00     0.002 A 
ENDROOT
BRANCH   1   7
ATOM      7  C2  UNL d   1       0.732   1.635  -2.706  0.00  0.00     0.056 C 
BRANCH   7   8
ATOM      8  C1  UNL d   1       1.185   1.569  -4.169  0.00  0.00     0.007 C 
ATOM      9  C   UNL d   1       1.219   2.931  -4.849  0.00  0.00     0.009 C 
ENDBRANCH   7   8
ENDBRANCH   1   7
TORSDOF 2
ENDMDL
