MODEL 1
REMARK minimizedAffinity 7.73330879
REMARK minimizedRMSD -1
REMARK  2 active torsions:
REMARK  status: ('A' for Active; 'I' for Inactive)
REMARK    1  A    between atoms: C1_2  and  C2_3 
REMARK    2  A    between atoms: C2_3  and  C3_4 
ROOT
ATOM      1  C3  UNL d   1       1.730   0.407  -3.010  0.00  0.00    -0.075 A 
ATOM      2  C4  UNL d   1       0.773   1.315  -2.536  0.00  0.00     0.002 A 
ATOM      3  C5  UNL d   1       0.079   1.060  -1.352  0.00  0.00     0.002 A 
ATOM      4  C6  UNL d   1       0.325  -0.109  -0.636  0.00  0.00    -0.004 A 
ATOM      5  C7  UNL d   1       1.262  -1.027  -1.107  0.00  0.00     0.002 A 
ATOM      6  C8  UNL d   1       1.961  -0.772  -2.288  0.00  0.00     0.002 A 
ENDROOT
BRANCH   1   7
ATOM      7  C2  UNL d   1       2.505   0.691  -4.274  0.00  0.00     0.056 C 
BRANCH   7   8
ATOM      8  C1  UNL d   1       3.935   1.187  -4.031  0.00  0.00     0.007 C 
ATOM      9  C   UNL d   1       4.831   1.060  -5.256  0.00  0.00     0.009 C 
ENDBRANCH   7   8
ENDBRANCH   1   7
TORSDOF 2
ENDMDL
