MODEL 1
REMARK minimizedAffinity 9.53497601
REMARK minimizedRMSD -1
REMARK  2 active torsions:
REMARK  status: ('A' for Active; 'I' for Inactive)
REMARK    1  A    between atoms: C1_2  and  C2_3 
REMARK    2  A    between atoms: C2_3  and  C3_4 
ROOT
ATOM      1  C3  UNL d   1       3.333   1.425  -5.464  0.00  0.00    -0.075 A 
ATOM      2  C4  UNL d   1       2.282   0.790  -4.785  0.00  0.00     0.002 A 
ATOM      3  C5  UNL d   1       1.193   1.526  -4.318  0.00  0.00     0.002 A 
ATOM      4  C6  UNL d   1       1.145   2.905  -4.513  0.00  0.00    -0.004 A 
ATOM      5  C7  UNL d   1       2.191   3.549  -5.171  0.00  0.00     0.002 A 
ATOM      6  C8  UNL d   1       3.280   2.814  -5.644  0.00  0.00     0.002 A 
ENDROOT
BRANCH   1   7
ATOM      7  C2  UNL d   1       4.500   0.630  -5.998  0.00  0.00     0.056 C 
BRANCH   7   8
ATOM      8  C1  UNL d   1       5.570   0.311  -4.948  0.00  0.00     0.007 C 
ATOM      9  C   UNL d   1       5.999   1.528  -4.140  0.00  0.00     0.009 C 
ENDBRANCH   7   8
ENDBRANCH   1   7
TORSDOF 2
ENDMDL
