MODEL 1
REMARK minimizedAffinity 1.28188419
REMARK minimizedRMSD -1
REMARK  2 active torsions:
REMARK  status: ('A' for Active; 'I' for Inactive)
REMARK    1  A    between atoms: C1_2  and  C2_3 
REMARK    2  A    between atoms: C2_3  and  C3_4 
ROOT
ATOM      1  C3  UNL d   1       1.401  -1.023  -2.037  0.00  0.00    -0.075 A 
ATOM      2  C4  UNL d   1       1.370   0.075  -2.909  0.00  0.00     0.002 A 
ATOM      3  C5  UNL d   1       1.395  -0.117  -4.290  0.00  0.00     0.002 A 
ATOM      4  C6  UNL d   1       1.461  -1.405  -4.817  0.00  0.00    -0.004 A 
ATOM      5  C7  UNL d   1       1.509  -2.502  -3.960  0.00  0.00     0.002 A 
ATOM      6  C8  UNL d   1       1.479  -2.314  -2.577  0.00  0.00     0.002 A 
ENDROOT
BRANCH   1   7
ATOM      7  C2  UNL d   1       1.344  -0.823  -0.541  0.00  0.00     0.056 C 
BRANCH   7   8
ATOM      8  C1  UNL d   1      -0.060  -0.528  -0.004  0.00  0.00     0.007 C 
ATOM      9  C   UNL d   1      -0.700  -1.721   0.694  0.00  0.00     0.009 C 
ENDBRANCH   7   8
ENDBRANCH   1   7
TORSDOF 2
ENDMDL
