MODEL 1
REMARK minimizedAffinity 5.80268812
REMARK minimizedRMSD -1
REMARK  2 active torsions:
REMARK  status: ('A' for Active; 'I' for Inactive)
REMARK    1  A    between atoms: C1_2  and  C2_3 
REMARK    2  A    between atoms: C2_3  and  C3_4 
ROOT
ATOM      1  C3  UNL d   1       3.234   1.876  -4.561  0.00  0.00    -0.075 A 
ATOM      2  C4  UNL d   1       4.055   1.521  -3.481  0.00  0.00     0.002 A 
ATOM      3  C5  UNL d   1       5.430   1.364  -3.657  0.00  0.00     0.002 A 
ATOM      4  C6  UNL d   1       6.000   1.550  -4.915  0.00  0.00    -0.004 A 
ATOM      5  C7  UNL d   1       5.192   1.887  -5.999  0.00  0.00     0.002 A 
ATOM      6  C8  UNL d   1       3.816   2.049  -5.824  0.00  0.00     0.002 A 
ENDROOT
BRANCH   1   7
ATOM      7  C2  UNL d   1       1.750   2.076  -4.370  0.00  0.00     0.056 C 
BRANCH   7   8
ATOM      8  C1  UNL d   1       1.117   1.120  -3.355  0.00  0.00     0.007 C 
ATOM      9  C   UNL d   1       0.720   1.803  -2.053  0.00  0.00     0.009 C 
ENDBRANCH   7   8
ENDBRANCH   1   7
TORSDOF 2
ENDMDL
