MODEL 1
REMARK minimizedAffinity 12.6580315
REMARK minimizedRMSD -1
REMARK  2 active torsions:
REMARK  status: ('A' for Active; 'I' for Inactive)
REMARK    1  A    between atoms: C1_2  and  C2_3 
REMARK    2  A    between atoms: C2_3  and  C3_4 
ROOT
ATOM      1  C3  UNL d   1       0.557  -0.019  -1.333  0.00  0.00    -0.075 A 
ATOM      2  C4  UNL d   1      -0.222  -0.907  -0.578  0.00  0.00     0.002 A 
ATOM      3  C5  UNL d   1      -0.244  -2.268  -0.887  0.00  0.00     0.002 A 
ATOM      4  C6  UNL d   1       0.501  -2.754  -1.958  0.00  0.00    -0.004 A 
ATOM      5  C7  UNL d   1       1.265  -1.878  -2.726  0.00  0.00     0.002 A 
ATOM      6  C8  UNL d   1       1.293  -0.517  -2.416  0.00  0.00     0.002 A 
ENDROOT
BRANCH   1   7
ATOM      7  C2  UNL d   1       0.609   1.450  -0.985  0.00  0.00     0.056 C 
BRANCH   7   8
ATOM      8  C1  UNL d   1       1.986   1.931  -0.513  0.00  0.00     0.007 C 
ATOM      9  C   UNL d   1       2.024   2.279   0.969  0.00  0.00     0.009 C 
ENDBRANCH   7   8
ENDBRANCH   1   7
TORSDOF 2
ENDMDL
