MODEL 1
REMARK minimizedAffinity 3.42914724
REMARK minimizedRMSD -1
REMARK  2 active torsions:
REMARK  status: ('A' for Active; 'I' for Inactive)
REMARK    1  A    between atoms: C1_2  and  C2_3 
REMARK    2  A    between atoms: C2_3  and  C3_4 
ROOT
ATOM      1  C3  UNL d   1       0.860   0.610  -1.742  0.00  0.00    -0.075 A 
ATOM      2  C4  UNL d   1       1.241   0.330  -3.063  0.00  0.00     0.002 A 
ATOM      3  C5  UNL d   1       1.533  -0.977  -3.454  0.00  0.00     0.002 A 
ATOM      4  C6  UNL d   1       1.458  -2.017  -2.531  0.00  0.00    -0.004 A 
ATOM      5  C7  UNL d   1       1.096  -1.748  -1.212  0.00  0.00     0.002 A 
ATOM      6  C8  UNL d   1       0.799  -0.442  -0.819  0.00  0.00     0.002 A 
ENDROOT
BRANCH   1   7
ATOM      7  C2  UNL d   1       0.514   2.018  -1.320  0.00  0.00     0.056 C 
BRANCH   7   8
ATOM      8  C1  UNL d   1       1.733   2.898  -1.028  0.00  0.00     0.007 C 
ATOM      9  C   UNL d   1       2.302   2.692   0.370  0.00  0.00     0.009 C 
ENDBRANCH   7   8
ENDBRANCH   1   7
TORSDOF 2
ENDMDL
