MODEL 1
REMARK minimizedAffinity 0.0596482381
REMARK minimizedRMSD -1
REMARK  2 active torsions:
REMARK  status: ('A' for Active; 'I' for Inactive)
REMARK    1  A    between atoms: C1_2  and  C2_3 
REMARK    2  A    between atoms: C2_3  and  C3_4 
ROOT
ATOM      1  C3  UNL d   1       0.802  -0.244  -0.793  0.00  0.00    -0.075 A 
ATOM      2  C4  UNL d   1       1.351  -1.088  -1.768  0.00  0.00     0.002 A 
ATOM      3  C5  UNL d   1       1.518  -0.641  -3.079  0.00  0.00     0.002 A 
ATOM      4  C6  UNL d   1       1.131   0.649  -3.433  0.00  0.00    -0.004 A 
ATOM      5  C7  UNL d   1       0.569   1.491  -2.476  0.00  0.00     0.002 A 
ATOM      6  C8  UNL d   1       0.405   1.048  -1.162  0.00  0.00     0.002 A 
ENDROOT
BRANCH   1   7
ATOM      7  C2  UNL d   1       0.646  -0.711   0.635  0.00  0.00     0.056 C 
BRANCH   7   8
ATOM      8  C1  UNL d   1      -0.495  -1.713   0.841  0.00  0.00     0.007 C 
ATOM      9  C   UNL d   1      -0.655  -2.151   2.291  0.00  0.00     0.009 C 
ENDBRANCH   7   8
ENDBRANCH   1   7
TORSDOF 2
ENDMDL
