MODEL 1
REMARK minimizedAffinity 3.79738784
REMARK minimizedRMSD -1
REMARK  2 active torsions:
REMARK  status: ('A' for Active; 'I' for Inactive)
REMARK    1  A    between atoms: C1_2  and  C2_3 
REMARK    2  A    between atoms: C2_3  and  C3_4 
ROOT
ATOM      1  C3  UNL d   1       1.134   0.082  -2.851  0.00  0.00    -0.075 A 
ATOM      2  C4  UNL d   1       0.834  -0.321  -4.161  0.00  0.00     0.002 A 
ATOM      3  C5  UNL d   1       0.940  -1.662  -4.531  0.00  0.00     0.002 A 
ATOM      4  C6  UNL d   1       1.355  -2.614  -3.602  0.00  0.00    -0.004 A 
ATOM      5  C7  UNL d   1       1.671  -2.222  -2.302  0.00  0.00     0.002 A 
ATOM      6  C8  UNL d   1       1.562  -0.882  -1.928  0.00  0.00     0.002 A 
ENDROOT
BRANCH   1   7
ATOM      7  C2  UNL d   1       0.993   1.527  -2.437  0.00  0.00     0.056 C 
BRANCH   7   8
ATOM      8  C1  UNL d   1       0.426   1.719  -1.026  0.00  0.00     0.007 C 
ATOM      9  C   UNL d   1       1.066   2.879  -0.275  0.00  0.00     0.009 C 
ENDBRANCH   7   8
ENDBRANCH   1   7
TORSDOF 2
ENDMDL
