MODEL 1
REMARK minimizedAffinity 9.1139822
REMARK minimizedRMSD -1
REMARK  2 active torsions:
REMARK  status: ('A' for Active; 'I' for Inactive)
REMARK    1  A    between atoms: C1_2  and  C2_3 
REMARK    2  A    between atoms: C2_3  and  C3_4 
ROOT
ATOM      1  C3  UNL d   1       2.223  -5.989   2.935  0.00  0.00    -0.075 A 
ATOM      2  C4  UNL d   1       1.888  -5.966   4.296  0.00  0.00     0.002 A 
ATOM      3  C5  UNL d   1       2.886  -5.929   5.271  0.00  0.00     0.002 A 
ATOM      4  C6  UNL d   1       4.228  -5.926   4.898  0.00  0.00    -0.004 A 
ATOM      5  C7  UNL d   1       4.573  -5.966   3.549  0.00  0.00     0.002 A 
ATOM      6  C8  UNL d   1       3.576  -5.998   2.571  0.00  0.00     0.002 A 
ENDROOT
BRANCH   1   7
ATOM      7  C2  UNL d   1       1.148  -6.000   1.875  0.00  0.00     0.056 C 
BRANCH   7   8
ATOM      8  C1  UNL d   1       0.126  -4.866   2.012  0.00  0.00     0.007 C 
ATOM      9  C   UNL d   1       0.659  -3.518   1.547  0.00  0.00     0.009 C 
ENDBRANCH   7   8
ENDBRANCH   1   7
TORSDOF 2
ENDMDL
