MODEL 1
REMARK minimizedAffinity 5.40785742
REMARK minimizedRMSD -1
REMARK  2 active torsions:
REMARK  status: ('A' for Active; 'I' for Inactive)
REMARK    1  A    between atoms: C1_2  and  C2_3 
REMARK    2  A    between atoms: C2_3  and  C3_4 
ROOT
ATOM      1  C3  UNL d   1       1.208  -0.566  -2.941  0.00  0.00    -0.075 A 
ATOM      2  C4  UNL d   1       1.488  -0.825  -4.290  0.00  0.00     0.002 A 
ATOM      3  C5  UNL d   1       1.551  -2.137  -4.761  0.00  0.00     0.002 A 
ATOM      4  C6  UNL d   1       1.345  -3.204  -3.890  0.00  0.00    -0.004 A 
ATOM      5  C7  UNL d   1       1.083  -2.959  -2.544  0.00  0.00     0.002 A 
ATOM      6  C8  UNL d   1       1.015  -1.647  -2.070  0.00  0.00     0.002 A 
ENDROOT
BRANCH   1   7
ATOM      7  C2  UNL d   1       1.110   0.852  -2.431  0.00  0.00     0.056 C 
BRANCH   7   8
ATOM      8  C1  UNL d   1       0.515   0.969  -1.023  0.00  0.00     0.007 C 
ATOM      9  C   UNL d   1       1.327   1.869  -0.102  0.00  0.00     0.009 C 
ENDBRANCH   7   8
ENDBRANCH   1   7
TORSDOF 2
ENDMDL
