MODEL 1
REMARK minimizedAffinity -4.48243237
REMARK minimizedRMSD -1
REMARK  1 active torsions:
REMARK  status: ('A' for Active; 'I' for Inactive)
REMARK    1  A    between atoms: C1_2  and  C2_3 
ROOT
ATOM      1  C2  UNL d   1       0.747   0.121  -1.797  0.00  0.00    -0.081 A 
ATOM      2  C3  UNL d   1      -0.219   1.129  -1.692  0.00  0.00     0.006 A 
ATOM      3  C4  UNL d   1      -0.973   1.269  -0.524  0.00  0.00     0.002 A 
ATOM      4  C5  UNL d   1      -0.767   0.410   0.561  0.00  0.00    -0.080 A 
ATOM      5  C6  UNL d   1      -1.548   0.569   1.831  0.00  0.00     0.076 C 
ATOM      6  C7  UNL d   1       0.186  -0.608   0.450  0.00  0.00     0.002 A 
ATOM      7  C8  UNL d   1       0.939  -0.749  -0.718  0.00  0.00     0.006 A 
ENDROOT
BRANCH   1   8
ATOM      8  C1  UNL d   1       1.606   0.007  -3.030  0.00  0.00     0.054 C 
ATOM      9  C   UNL d   1       0.973   0.726  -4.213  0.00  0.00     0.018 C 
ENDBRANCH   1   8
TORSDOF 1
ENDMDL
