MODEL 1
REMARK minimizedAffinity -3.85954356
REMARK minimizedRMSD -1
REMARK  1 active torsions:
REMARK  status: ('A' for Active; 'I' for Inactive)
REMARK    1  A    between atoms: C1_2  and  C2_3 
ROOT
ATOM      1  C2  UNL d   1       0.136   0.277  -0.798  0.00  0.00    -0.081 A 
ATOM      2  C3  UNL d   1       0.896  -0.157   0.295  0.00  0.00     0.006 A 
ATOM      3  C4  UNL d   1       0.500   0.151   1.599  0.00  0.00     0.002 A 
ATOM      4  C5  UNL d   1      -0.665   0.890   1.832  0.00  0.00    -0.080 A 
ATOM      5  C6  UNL d   1      -1.117   1.201   3.228  0.00  0.00     0.076 C 
ATOM      6  C7  UNL d   1      -1.415   1.338   0.739  0.00  0.00     0.002 A 
ATOM      7  C8  UNL d   1      -1.019   1.031  -0.565  0.00  0.00     0.006 A 
ENDROOT
BRANCH   1   8
ATOM      8  C1  UNL d   1       0.525  -0.108  -2.203  0.00  0.00     0.054 C 
ATOM      9  C   UNL d   1       1.802   0.596  -2.636  0.00  0.00     0.018 C 
ENDBRANCH   1   8
TORSDOF 1
ENDMDL
