MODEL 1
REMARK minimizedAffinity -4.27619791
REMARK minimizedRMSD -1
REMARK  1 active torsions:
REMARK  status: ('A' for Active; 'I' for Inactive)
REMARK    1  A    between atoms: C1_2  and  C2_3 
ROOT
ATOM      1  C2  UNL d   1       0.617  -0.037  -1.023  0.00  0.00    -0.081 A 
ATOM      2  C3  UNL d   1      -0.606   0.637  -0.928  0.00  0.00     0.006 A 
ATOM      3  C4  UNL d   1      -1.282   0.709   0.293  0.00  0.00     0.002 A 
ATOM      4  C5  UNL d   1      -0.742   0.115   1.439  0.00  0.00    -0.080 A 
ATOM      5  C6  UNL d   1      -1.442   0.211   2.762  0.00  0.00     0.076 C 
ATOM      6  C7  UNL d   1       0.472  -0.573   1.340  0.00  0.00     0.002 A 
ATOM      7  C8  UNL d   1       1.148  -0.645   0.120  0.00  0.00     0.006 A 
ENDROOT
BRANCH   1   8
ATOM      8  C1  UNL d   1       1.380  -0.061  -2.323  0.00  0.00     0.054 C 
ATOM      9  C   UNL d   1       1.418   1.318  -2.968  0.00  0.00     0.018 C 
ENDBRANCH   1   8
TORSDOF 1
ENDMDL
