MODEL 1
REMARK minimizedAffinity -5.59517288
REMARK minimizedRMSD -1
REMARK  1 active torsions:
REMARK  status: ('A' for Active; 'I' for Inactive)
REMARK    1  A    between atoms: C1_2  and  C2_3 
ROOT
ATOM      1  C2  UNL d   1       0.372  -0.025  -1.128  0.00  0.00    -0.081 A 
ATOM      2  C3  UNL d   1      -0.205   1.249  -1.057  0.00  0.00     0.006 A 
ATOM      3  C4  UNL d   1      -0.578   1.790   0.176  0.00  0.00     0.002 A 
ATOM      4  C5  UNL d   1      -0.375   1.069   1.358  0.00  0.00    -0.080 A 
ATOM      5  C6  UNL d   1      -0.744   1.650   2.691  0.00  0.00     0.076 C 
ATOM      6  C7  UNL d   1       0.185  -0.211   1.285  0.00  0.00     0.002 A 
ATOM      7  C8  UNL d   1       0.558  -0.752   0.052  0.00  0.00     0.006 A 
ENDROOT
BRANCH   1   8
ATOM      8  C1  UNL d   1       0.835  -0.583  -2.449  0.00  0.00     0.054 C 
ATOM      9  C   UNL d   1       1.576   0.466  -3.264  0.00  0.00     0.018 C 
ENDBRANCH   1   8
TORSDOF 1
ENDMDL
