MODEL 1
REMARK minimizedAffinity -3.21407962
REMARK minimizedRMSD -1
REMARK  1 active torsions:
REMARK  status: ('A' for Active; 'I' for Inactive)
REMARK    1  A    between atoms: C1_2  and  C2_3 
ROOT
ATOM      1  C2  UNL d   1       1.193  -0.394   1.937  0.00  0.00    -0.081 A 
ATOM      2  C3  UNL d   1       0.120  -0.073   2.777  0.00  0.00     0.006 A 
ATOM      3  C4  UNL d   1      -1.171   0.055   2.258  0.00  0.00     0.002 A 
ATOM      4  C5  UNL d   1      -1.411  -0.143   0.894  0.00  0.00    -0.080 A 
ATOM      5  C6  UNL d   1      -2.796  -0.038   0.329  0.00  0.00     0.076 C 
ATOM      6  C7  UNL d   1      -0.335  -0.447   0.052  0.00  0.00     0.002 A 
ATOM      7  C8  UNL d   1       0.956  -0.574   0.570  0.00  0.00     0.006 A 
ENDROOT
BRANCH   1   8
ATOM      8  C1  UNL d   1       2.575  -0.597   2.504  0.00  0.00     0.054 C 
ATOM      9  C   UNL d   1       3.168   0.715   2.999  0.00  0.00     0.018 C 
ENDBRANCH   1   8
TORSDOF 1
ENDMDL
