MODEL 1
REMARK minimizedAffinity -1.47538984
REMARK minimizedRMSD -1
REMARK  1 active torsions:
REMARK  status: ('A' for Active; 'I' for Inactive)
REMARK    1  A    between atoms: C1_2  and  C2_3 
ROOT
ATOM      1  C2  UNL d   1       0.485  -0.258  -1.726  0.00  0.00    -0.081 A 
ATOM      2  C3  UNL d   1       0.661  -1.082  -0.607  0.00  0.00     0.006 A 
ATOM      3  C4  UNL d   1       0.023  -0.783   0.599  0.00  0.00     0.002 A 
ATOM      4  C5  UNL d   1      -0.806   0.338   0.705  0.00  0.00    -0.080 A 
ATOM      5  C6  UNL d   1      -1.521   0.653   1.986  0.00  0.00     0.076 C 
ATOM      6  C7  UNL d   1      -0.969   1.171  -0.407  0.00  0.00     0.002 A 
ATOM      7  C8  UNL d   1      -0.331   0.873  -1.614  0.00  0.00     0.006 A 
ENDROOT
BRANCH   1   8
ATOM      8  C1  UNL d   1       1.119  -0.613  -3.046  0.00  0.00     0.054 C 
ATOM      9  C   UNL d   1       0.726   0.377  -4.133  0.00  0.00     0.018 C 
ENDBRANCH   1   8
TORSDOF 1
ENDMDL
