MODEL 1
REMARK minimizedAffinity -4.66268682
REMARK minimizedRMSD -1
REMARK  1 active torsions:
REMARK  status: ('A' for Active; 'I' for Inactive)
REMARK    1  A    between atoms: C1_2  and  C2_3 
ROOT
ATOM      1  C2  UNL d   1      -0.391   0.145   1.822  0.00  0.00    -0.081 A 
ATOM      2  C3  UNL d   1       0.552  -0.806   1.415  0.00  0.00     0.006 A 
ATOM      3  C4  UNL d   1       0.887  -0.939   0.065  0.00  0.00     0.002 A 
ATOM      4  C5  UNL d   1       0.291  -0.118  -0.898  0.00  0.00    -0.080 A 
ATOM      5  C6  UNL d   1       0.663  -0.230  -2.346  0.00  0.00     0.076 C 
ATOM      6  C7  UNL d   1      -0.665   0.820  -0.493  0.00  0.00     0.002 A 
ATOM      7  C8  UNL d   1      -1.000   0.953   0.856  0.00  0.00     0.006 A 
ENDROOT
BRANCH   1   8
ATOM      8  C1  UNL d   1      -0.706   0.335   3.284  0.00  0.00     0.054 C 
ATOM      9  C   UNL d   1       0.435  -0.153   4.164  0.00  0.00     0.018 C 
ENDBRANCH   1   8
TORSDOF 1
ENDMDL
