MODEL 1
REMARK minimizedAffinity -3.17349601
REMARK minimizedRMSD -1
REMARK  1 active torsions:
REMARK  status: ('A' for Active; 'I' for Inactive)
REMARK    1  A    between atoms: C1_2  and  C2_3 
ROOT
ATOM      1  C2  UNL d   1       0.841  -0.472   2.230  0.00  0.00    -0.081 A 
ATOM      2  C3  UNL d   1      -0.097   0.197   3.025  0.00  0.00     0.006 A 
ATOM      3  C4  UNL d   1      -1.295   0.655   2.471  0.00  0.00     0.002 A 
ATOM      4  C5  UNL d   1      -1.578   0.445   1.118  0.00  0.00    -0.080 A 
ATOM      5  C6  UNL d   1      -2.874   0.904   0.518  0.00  0.00     0.076 C 
ATOM      6  C7  UNL d   1      -0.633  -0.209   0.320  0.00  0.00     0.002 A 
ATOM      7  C8  UNL d   1       0.565  -0.667   0.872  0.00  0.00     0.006 A 
ENDROOT
BRANCH   1   8
ATOM      8  C1  UNL d   1       2.105  -1.024   2.838  0.00  0.00     0.054 C 
ATOM      9  C   UNL d   1       3.014   0.091   3.334  0.00  0.00     0.018 C 
ENDBRANCH   1   8
TORSDOF 1
ENDMDL
