MODEL 1
REMARK minimizedAffinity -2.03761458
REMARK minimizedRMSD -1
REMARK  1 active torsions:
REMARK  status: ('A' for Active; 'I' for Inactive)
REMARK    1  A    between atoms: C1_2  and  C2_3 
ROOT
ATOM      1  C2  UNL d   1       0.495   0.006  -1.821  0.00  0.00    -0.081 A 
ATOM      2  C3  UNL d   1       1.180  -0.588  -0.754  0.00  0.00     0.006 A 
ATOM      3  C4  UNL d   1       0.748  -0.395   0.560  0.00  0.00     0.002 A 
ATOM      4  C5  UNL d   1      -0.380   0.388   0.829  0.00  0.00    -0.080 A 
ATOM      5  C6  UNL d   1      -0.872   0.579   2.233  0.00  0.00     0.076 C 
ATOM      6  C7  UNL d   1      -1.054   0.996  -0.235  0.00  0.00     0.002 A 
ATOM      7  C8  UNL d   1      -0.622   0.804  -1.549  0.00  0.00     0.006 A 
ENDROOT
BRANCH   1   8
ATOM      8  C1  UNL d   1       0.920  -0.253  -3.244  0.00  0.00     0.054 C 
ATOM      9  C   UNL d   1       0.199   0.673  -4.213  0.00  0.00     0.018 C 
ENDBRANCH   1   8
TORSDOF 1
ENDMDL
