MODEL 1
REMARK minimizedAffinity -5.46610212
REMARK minimizedRMSD -1
REMARK  1 active torsions:
REMARK  status: ('A' for Active; 'I' for Inactive)
REMARK    1  A    between atoms: C1_2  and  C2_3 
ROOT
ATOM      1  C2  UNL d   1      -0.406  -0.482   0.468  0.00  0.00    -0.073 A 
ATOM      2  C3  UNL d   1       0.567  -1.357  -0.028  0.00  0.00    -0.002 A 
ATOM      3  C4  UNL d   1       0.287  -2.718  -0.163  0.00  0.00     0.004 A 
ATOM      4  C5  UNL d   1      -0.967  -3.215   0.189  0.00  0.00    -0.004 A 
ATOM      5  C6  UNL d   1      -1.956  -2.354   0.675  0.00  0.00    -0.075 A 
ATOM      6  C7  UNL d   1      -3.310  -2.874   1.061  0.00  0.00     0.076 C 
ATOM      7  C8  UNL d   1      -1.667  -0.990   0.811  0.00  0.00     0.001 A 
ENDROOT
BRANCH   1   8
ATOM      8  C1  UNL d   1      -0.111   0.989   0.609  0.00  0.00     0.053 C 
ATOM      9  C   UNL d   1       0.399   1.596  -0.688  0.00  0.00     0.018 C 
ENDBRANCH   1   8
TORSDOF 1
ENDMDL
