MODEL 1
REMARK minimizedAffinity -3.61445451
REMARK minimizedRMSD -1
REMARK  1 active torsions:
REMARK  status: ('A' for Active; 'I' for Inactive)
REMARK    1  A    between atoms: C1_2  and  C2_3 
ROOT
ATOM      1  C2  UNL d   1      -0.297  -1.088   0.735  0.00  0.00    -0.073 A 
ATOM      2  C3  UNL d   1      -0.574  -2.404   1.120  0.00  0.00    -0.002 A 
ATOM      3  C4  UNL d   1      -0.360  -3.459   0.231  0.00  0.00     0.004 A 
ATOM      4  C5  UNL d   1       0.141  -3.209  -1.046  0.00  0.00    -0.004 A 
ATOM      5  C6  UNL d   1       0.435  -1.902  -1.446  0.00  0.00    -0.075 A 
ATOM      6  C7  UNL d   1       0.972  -1.617  -2.818  0.00  0.00     0.076 C 
ATOM      7  C8  UNL d   1       0.215  -0.848  -0.549  0.00  0.00     0.001 A 
ENDROOT
BRANCH   1   8
ATOM      8  C1  UNL d   1      -0.521   0.054   1.692  0.00  0.00     0.053 C 
ATOM      9  C   UNL d   1      -1.955   0.103   2.195  0.00  0.00     0.018 C 
ENDBRANCH   1   8
TORSDOF 1
ENDMDL
