MODEL 1
REMARK minimizedAffinity -5.14594746
REMARK minimizedRMSD -1
REMARK  1 active torsions:
REMARK  status: ('A' for Active; 'I' for Inactive)
REMARK    1  A    between atoms: C1_2  and  C2_3 
ROOT
ATOM      1  C2  UNL d   1       0.467  -0.214   0.397  0.00  0.00    -0.073 A 
ATOM      2  C3  UNL d   1       0.277  -1.421  -0.284  0.00  0.00    -0.002 A 
ATOM      3  C4  UNL d   1      -0.689  -2.330   0.150  0.00  0.00     0.004 A 
ATOM      4  C5  UNL d   1      -1.477  -2.039   1.264  0.00  0.00    -0.004 A 
ATOM      5  C6  UNL d   1      -1.309  -0.833   1.950  0.00  0.00    -0.075 A 
ATOM      6  C7  UNL d   1      -2.147  -0.506   3.151  0.00  0.00     0.076 C 
ATOM      7  C8  UNL d   1      -0.336   0.074   1.510  0.00  0.00     0.001 A 
ENDROOT
BRANCH   1   8
ATOM      8  C1  UNL d   1       1.504   0.774  -0.072  0.00  0.00     0.053 C 
ATOM      9  C   UNL d   1       0.988   2.204  -0.034  0.00  0.00     0.018 C 
ENDBRANCH   1   8
TORSDOF 1
ENDMDL
