MODEL 1
REMARK minimizedAffinity -3.96183085
REMARK minimizedRMSD -1
REMARK  1 active torsions:
REMARK  status: ('A' for Active; 'I' for Inactive)
REMARK    1  A    between atoms: C1_2  and  C2_3 
ROOT
ATOM      1  C2  UNL d   1       0.085  -0.223   0.106  0.00  0.00    -0.073 A 
ATOM      2  C3  UNL d   1       1.112  -1.130  -0.178  0.00  0.00    -0.002 A 
ATOM      3  C4  UNL d   1       0.894  -2.503  -0.054  0.00  0.00     0.004 A 
ATOM      4  C5  UNL d   1      -0.352  -2.983   0.348  0.00  0.00    -0.004 A 
ATOM      5  C6  UNL d   1      -1.395  -2.092   0.625  0.00  0.00    -0.075 A 
ATOM      6  C7  UNL d   1      -2.741  -2.592   1.060  0.00  0.00     0.076 C 
ATOM      7  C8  UNL d   1      -1.168  -0.715   0.500  0.00  0.00     0.001 A 
ENDROOT
BRANCH   1   8
ATOM      8  C1  UNL d   1       0.313   1.260  -0.033  0.00  0.00     0.053 C 
ATOM      9  C   UNL d   1       1.742   1.651   0.310  0.00  0.00     0.018 C 
ENDBRANCH   1   8
TORSDOF 1
ENDMDL
