MODEL 1
REMARK minimizedAffinity -2.62625575
REMARK minimizedRMSD -1
REMARK  1 active torsions:
REMARK  status: ('A' for Active; 'I' for Inactive)
REMARK    1  A    between atoms: C1_2  and  C2_3 
ROOT
ATOM      1  C2  UNL d   1      -0.631  -0.435   0.482  0.00  0.00    -0.073 A 
ATOM      2  C3  UNL d   1      -1.333  -0.706   1.662  0.00  0.00    -0.002 A 
ATOM      3  C4  UNL d   1      -1.971  -1.934   1.836  0.00  0.00     0.004 A 
ATOM      4  C5  UNL d   1      -1.909  -2.906   0.838  0.00  0.00    -0.004 A 
ATOM      5  C6  UNL d   1      -1.202  -2.659  -0.344  0.00  0.00    -0.075 A 
ATOM      6  C7  UNL d   1      -1.127  -3.692  -1.429  0.00  0.00     0.076 C 
ATOM      7  C8  UNL d   1      -0.566  -1.421  -0.513  0.00  0.00     0.001 A 
ENDROOT
BRANCH   1   8
ATOM      8  C1  UNL d   1       0.065   0.888   0.292  0.00  0.00     0.053 C 
ATOM      9  C   UNL d   1      -0.373   1.584  -0.988  0.00  0.00     0.018 C 
ENDBRANCH   1   8
TORSDOF 1
ENDMDL
