MODEL 1
REMARK minimizedAffinity -3.14937282
REMARK minimizedRMSD -1
REMARK  1 active torsions:
REMARK  status: ('A' for Active; 'I' for Inactive)
REMARK    1  A    between atoms: C1_2  and  C2_3 
ROOT
ATOM      1  C2  UNL d   1      -0.014   3.669   1.252  0.00  0.00    -0.073 A 
ATOM      2  C3  UNL d   1       1.278   4.197   1.138  0.00  0.00    -0.002 A 
ATOM      3  C4  UNL d   1       2.219   3.584   0.310  0.00  0.00     0.004 A 
ATOM      4  C5  UNL d   1       1.878   2.444  -0.418  0.00  0.00    -0.004 A 
ATOM      5  C6  UNL d   1       0.589   1.909  -0.326  0.00  0.00    -0.075 A 
ATOM      6  C7  UNL d   1       0.206   0.681  -1.101  0.00  0.00     0.076 C 
ATOM      7  C8  UNL d   1      -0.350   2.528   0.509  0.00  0.00     0.001 A 
ENDROOT
BRANCH   1   8
ATOM      8  C1  UNL d   1      -1.035   4.331   2.140  0.00  0.00     0.053 C 
ATOM      9  C   UNL d   1      -0.386   5.185   3.218  0.00  0.00     0.018 C 
ENDBRANCH   1   8
TORSDOF 1
ENDMDL
