MODEL 1
REMARK minimizedAffinity -1.5130856
REMARK minimizedRMSD -1
REMARK  1 active torsions:
REMARK  status: ('A' for Active; 'I' for Inactive)
REMARK    1  A    between atoms: C1_2  and  C2_3 
ROOT
ATOM      1  C2  UNL d   1      -1.620  -1.177   0.960  0.00  0.00    -0.073 A 
ATOM      2  C3  UNL d   1      -0.816  -0.225   0.324  0.00  0.00    -0.002 A 
ATOM      3  C4  UNL d   1       0.470  -0.558  -0.101  0.00  0.00     0.004 A 
ATOM      4  C5  UNL d   1       0.963  -1.848   0.098  0.00  0.00    -0.004 A 
ATOM      5  C6  UNL d   1       0.170  -2.818   0.721  0.00  0.00    -0.075 A 
ATOM      6  C7  UNL d   1       0.686  -4.209   0.945  0.00  0.00     0.076 C 
ATOM      7  C8  UNL d   1      -1.120  -2.474   1.148  0.00  0.00     0.001 A 
ENDROOT
BRANCH   1   8
ATOM      8  C1  UNL d   1      -3.012  -0.823   1.416  0.00  0.00     0.053 C 
ATOM      9  C   UNL d   1      -3.445   0.545   0.915  0.00  0.00     0.018 C 
ENDBRANCH   1   8
TORSDOF 1
ENDMDL
