MODEL 1
REMARK minimizedAffinity -4.42871475
REMARK minimizedRMSD -1
REMARK  1 active torsions:
REMARK  status: ('A' for Active; 'I' for Inactive)
REMARK    1  A    between atoms: C1_2  and  C2_3 
ROOT
ATOM      1  C2  UNL d   1      -1.129  -0.789   0.304  0.00  0.00    -0.073 A 
ATOM      2  C3  UNL d   1      -1.394  -2.103   0.709  0.00  0.00    -0.002 A 
ATOM      3  C4  UNL d   1      -1.038  -3.177  -0.108  0.00  0.00     0.004 A 
ATOM      4  C5  UNL d   1      -0.408  -2.951  -1.331  0.00  0.00    -0.004 A 
ATOM      5  C6  UNL d   1      -0.124  -1.646  -1.748  0.00  0.00    -0.075 A 
ATOM      6  C7  UNL d   1       0.551  -1.386  -3.062  0.00  0.00     0.076 C 
ATOM      7  C8  UNL d   1      -0.487  -0.572  -0.924  0.00  0.00     0.001 A 
ENDROOT
BRANCH   1   8
ATOM      8  C1  UNL d   1      -1.505   0.374   1.185  0.00  0.00     0.053 C 
ATOM      9  C   UNL d   1      -2.534  -0.015   2.234  0.00  0.00     0.018 C 
ENDBRANCH   1   8
TORSDOF 1
ENDMDL
