MODEL 1
REMARK minimizedAffinity -5.6026125
REMARK minimizedRMSD -1
REMARK  0 active torsions:
REMARK  status: ('A' for Active; 'I' for Inactive)
ROOT
ATOM      1  C2' OXE d   1       0.781  -0.251   1.806  0.00  0.00     0.078 C 
ATOM      2  C1' OXE d   1       0.204  -0.096  -0.937  0.00  0.00     0.078 C 
ATOM      3  C1  OXE d   1      -0.072   1.121  -0.090  0.00  0.00    -0.078 A 
ATOM      4  C2  OXE d   1       0.169   1.020   1.259  0.00  0.00    -0.078 A 
ATOM      5  C3  OXE d   1      -0.017   2.131   2.077  0.00  0.00     0.003 A 
ATOM      6  C4  OXE d   1      -0.593   3.300   1.564  0.00  0.00    -0.002 A 
ATOM      7  C5  OXE d   1      -0.883   3.410   0.200  0.00  0.00    -0.002 A 
ATOM      8  C6  OXE d   1      -0.590   2.347  -0.646  0.00  0.00     0.003 A 
ENDROOT
TORSDOF 0
ENDMDL
