MODEL 1
REMARK minimizedAffinity -5.05309725
REMARK minimizedRMSD -1
REMARK  0 active torsions:
REMARK  status: ('A' for Active; 'I' for Inactive)
ROOT
ATOM      1  C2' OXE d   1       0.225  -0.492  -0.687  0.00  0.00     0.078 C 
ATOM      2  C1' OXE d   1      -0.798   2.026  -1.390  0.00  0.00     0.078 C 
ATOM      3  C1  OXE d   1      -0.602   1.731   0.076  0.00  0.00    -0.078 A 
ATOM      4  C2  OXE d   1      -0.144   0.480   0.414  0.00  0.00    -0.078 A 
ATOM      5  C3  OXE d   1       0.106   0.174   1.748  0.00  0.00     0.003 A 
ATOM      6  C4  OXE d   1      -0.248   1.074   2.760  0.00  0.00    -0.002 A 
ATOM      7  C5  OXE d   1      -0.752   2.339   2.441  0.00  0.00    -0.002 A 
ATOM      8  C6  OXE d   1      -0.895   2.698   1.105  0.00  0.00     0.003 A 
ENDROOT
TORSDOF 0
ENDMDL
