MODEL 1
REMARK minimizedAffinity -3.01796746
REMARK minimizedRMSD -1
REMARK  0 active torsions:
REMARK  status: ('A' for Active; 'I' for Inactive)
ROOT
ATOM      1  C2' OXE d   1      -0.039   1.058  -2.078  0.00  0.00     0.078 C 
ATOM      2  C1' OXE d   1       0.022  -1.448  -0.815  0.00  0.00     0.078 C 
ATOM      3  C1  OXE d   1       0.089  -0.219   0.057  0.00  0.00    -0.078 A 
ATOM      4  C2  OXE d   1       0.106   1.003  -0.573  0.00  0.00    -0.078 A 
ATOM      5  C3  OXE d   1       0.112   2.169   0.186  0.00  0.00     0.003 A 
ATOM      6  C4  OXE d   1       0.257   2.109   1.577  0.00  0.00    -0.002 A 
ATOM      7  C5  OXE d   1       0.282   0.875   2.236  0.00  0.00    -0.002 A 
ATOM      8  C6  OXE d   1       0.156  -0.295   1.495  0.00  0.00     0.003 A 
ENDROOT
TORSDOF 0
ENDMDL
