MODEL 1
REMARK minimizedAffinity -3.37705183
REMARK minimizedRMSD -1
REMARK  0 active torsions:
REMARK  status: ('A' for Active; 'I' for Inactive)
ROOT
ATOM      1  C2' OXE d   1      -1.132   1.141  -1.194  0.00  0.00     0.078 C 
ATOM      2  C1' OXE d   1       0.375  -1.202  -0.843  0.00  0.00     0.078 C 
ATOM      3  C1  OXE d   1       0.364  -0.197   0.282  0.00  0.00    -0.078 A 
ATOM      4  C2  OXE d   1      -0.338   0.967   0.083  0.00  0.00    -0.078 A 
ATOM      5  C3  OXE d   1      -0.425   1.903   1.110  0.00  0.00     0.003 A 
ATOM      6  C4  OXE d   1       0.320   1.740   2.283  0.00  0.00    -0.002 A 
ATOM      7  C5  OXE d   1       1.074   0.579   2.490  0.00  0.00    -0.002 A 
ATOM      8  C6  OXE d   1       1.072  -0.416   1.519  0.00  0.00     0.003 A 
ENDROOT
TORSDOF 0
ENDMDL
