MODEL 1
REMARK minimizedAffinity -3.28216624
REMARK minimizedRMSD -1
REMARK  0 active torsions:
REMARK  status: ('A' for Active; 'I' for Inactive)
ROOT
ATOM      1  C2' OXE d   1      -0.519   1.652   2.355  0.00  0.00     0.078 C 
ATOM      2  C1' OXE d   1       1.250  -0.502   2.688  0.00  0.00     0.078 C 
ATOM      3  C1  OXE d   1       0.684  -0.263   1.311  0.00  0.00    -0.078 A 
ATOM      4  C2  OXE d   1      -0.217   0.765   1.167  0.00  0.00    -0.078 A 
ATOM      5  C3  OXE d   1      -0.728   1.063  -0.093  0.00  0.00     0.003 A 
ATOM      6  C4  OXE d   1      -0.451   0.231  -1.185  0.00  0.00    -0.002 A 
ATOM      7  C5  OXE d   1       0.433  -0.845  -1.052  0.00  0.00    -0.002 A 
ATOM      8  C6  OXE d   1       1.041  -1.079   0.177  0.00  0.00     0.003 A 
ENDROOT
TORSDOF 0
ENDMDL
