MODEL 1
REMARK minimizedAffinity -3.54607916
REMARK minimizedRMSD -1
REMARK  0 active torsions:
REMARK  status: ('A' for Active; 'I' for Inactive)
ROOT
ATOM      1  C2' OXE d   1      -1.338   1.133   1.872  0.00  0.00     0.078 C 
ATOM      2  C1' OXE d   1      -0.996   3.480   0.371  0.00  0.00     0.078 C 
ATOM      3  C1  OXE d   1       0.086   3.110   1.354  0.00  0.00    -0.078 A 
ATOM      4  C2  OXE d   1      -0.112   1.985   2.118  0.00  0.00    -0.078 A 
ATOM      5  C3  OXE d   1       0.880   1.569   3.002  0.00  0.00     0.003 A 
ATOM      6  C4  OXE d   1       2.006   2.368   3.231  0.00  0.00    -0.002 A 
ATOM      7  C5  OXE d   1       2.208   3.539   2.492  0.00  0.00    -0.002 A 
ATOM      8  C6  OXE d   1       1.280   3.901   1.522  0.00  0.00     0.003 A 
ENDROOT
TORSDOF 0
ENDMDL
