MODEL 1
REMARK minimizedAffinity -4.22825193
REMARK minimizedRMSD -1
REMARK  0 active torsions:
REMARK  status: ('A' for Active; 'I' for Inactive)
ROOT
ATOM      1  C2' OXE d   1      -1.454   2.677   1.482  0.00  0.00     0.078 C 
ATOM      2  C1' OXE d   1       0.458   0.977   2.638  0.00  0.00     0.078 C 
ATOM      3  C1  OXE d   1       0.137   0.785   1.176  0.00  0.00    -0.078 A 
ATOM      4  C2  OXE d   1      -0.833   1.590   0.631  0.00  0.00    -0.078 A 
ATOM      5  C3  OXE d   1      -1.128   1.491  -0.726  0.00  0.00     0.003 A 
ATOM      6  C4  OXE d   1      -0.557   0.477  -1.504  0.00  0.00    -0.002 A 
ATOM      7  C5  OXE d   1       0.405  -0.380  -0.958  0.00  0.00    -0.002 A 
ATOM      8  C6  OXE d   1       0.793  -0.212   0.367  0.00  0.00     0.003 A 
ENDROOT
TORSDOF 0
ENDMDL
