MODEL 1
REMARK minimizedAffinity -2.93101358
REMARK minimizedRMSD -1
REMARK  0 active torsions:
REMARK  status: ('A' for Active; 'I' for Inactive)
ROOT
ATOM      1  C2' OXE d   1       1.199  -0.063   1.194  0.00  0.00     0.078 C 
ATOM      2  C1' OXE d   1      -0.031  -0.262  -1.322  0.00  0.00     0.078 C 
ATOM      3  C1  OXE d   1      -0.584   0.747  -0.347  0.00  0.00    -0.078 A 
ATOM      4  C2  OXE d   1      -0.006   0.805   0.899  0.00  0.00    -0.078 A 
ATOM      5  C3  OXE d   1      -0.442   1.756   1.818  0.00  0.00     0.003 A 
ATOM      6  C4  OXE d   1      -1.563   2.547   1.541  0.00  0.00    -0.002 A 
ATOM      7  C5  OXE d   1      -2.191   2.476   0.293  0.00  0.00    -0.002 A 
ATOM      8  C6  OXE d   1      -1.689   1.614  -0.675  0.00  0.00     0.003 A 
ENDROOT
TORSDOF 0
ENDMDL
