MODEL 1
REMARK minimizedAffinity -2.50266504
REMARK minimizedRMSD -1
REMARK  0 active torsions:
REMARK  status: ('A' for Active; 'I' for Inactive)
ROOT
ATOM      1  C2' OXE d   1       1.142  -1.265   2.093  0.00  0.00     0.078 C 
ATOM      2  C1' OXE d   1       0.104  -1.325  -0.515  0.00  0.00     0.078 C 
ATOM      3  C1  OXE d   1      -0.151  -0.092   0.316  0.00  0.00    -0.078 A 
ATOM      4  C2  OXE d   1       0.321  -0.091   1.607  0.00  0.00    -0.078 A 
ATOM      5  C3  OXE d   1       0.161   1.043   2.398  0.00  0.00     0.003 A 
ATOM      6  C4  OXE d   1      -0.609   2.121   1.944  0.00  0.00    -0.002 A 
ATOM      7  C5  OXE d   1      -1.133   2.124   0.647  0.00  0.00    -0.002 A 
ATOM      8  C6  OXE d   1      -0.877   1.045  -0.193  0.00  0.00     0.003 A 
ENDROOT
TORSDOF 0
ENDMDL
