MODEL 1
REMARK minimizedAffinity -1.99464524
REMARK minimizedRMSD -1
REMARK  0 active torsions:
REMARK  status: ('A' for Active; 'I' for Inactive)
ROOT
ATOM      1  C2' OXE d   1      -1.680   2.685   1.647  0.00  0.00     0.078 C 
ATOM      2  C1' OXE d   1       0.395   1.321   2.955  0.00  0.00     0.078 C 
ATOM      3  C1  OXE d   1       0.060   0.905   1.545  0.00  0.00    -0.078 A 
ATOM      4  C2  OXE d   1      -0.988   1.546   0.929  0.00  0.00    -0.078 A 
ATOM      5  C3  OXE d   1      -1.304   1.239  -0.391  0.00  0.00     0.003 A 
ATOM      6  C4  OXE d   1      -0.665   0.178  -1.045  0.00  0.00    -0.002 A 
ATOM      7  C5  OXE d   1       0.378  -0.515  -0.421  0.00  0.00    -0.002 A 
ATOM      8  C6  OXE d   1       0.780  -0.136   0.855  0.00  0.00     0.003 A 
ENDROOT
TORSDOF 0
ENDMDL
