MODEL 1
REMARK minimizedAffinity 10.3866291
REMARK minimizedRMSD -1
REMARK  1 active torsions:
REMARK  status: ('A' for Active; 'I' for Inactive)
REMARK    1  A    between atoms: C1_2  and  C2_3 
ROOT
ATOM      1  C2  UNL d   1       1.017  -0.663   3.160  0.00  0.00    -0.076 A 
ATOM      2  C3  UNL d   1       0.814  -1.366   1.960  0.00  0.00     0.004 A 
ATOM      3  C4  UNL d   1       1.870  -1.606   1.082  0.00  0.00    -0.003 A 
ATOM      4  C5  UNL d   1       3.146  -1.147   1.390  0.00  0.00     0.000 A 
ATOM      5  C6  UNL d   1       3.369  -0.463   2.585  0.00  0.00     0.000 A 
ATOM      6  C7  UNL d   1       2.318  -0.228   3.489  0.00  0.00    -0.073 A 
ATOM      7  C8  UNL d   1       2.614   0.520   4.760  0.00  0.00     0.078 C 
ENDROOT
BRANCH   1   8
ATOM      8  C1  UNL d   1      -0.171  -0.410   4.060  0.00  0.00     0.053 C 
ATOM      9  C   UNL d   1      -1.487  -0.391   3.297  0.00  0.00     0.018 C 
ENDBRANCH   1   8
TORSDOF 1
ENDMDL
