MODEL 1
REMARK minimizedAffinity 7.11751413
REMARK minimizedRMSD -1
REMARK  1 active torsions:
REMARK  status: ('A' for Active; 'I' for Inactive)
REMARK    1  A    between atoms: C1_2  and  C2_3 
ROOT
ATOM      1  C2  UNL d   1       0.945  -1.578   2.240  0.00  0.00    -0.076 A 
ATOM      2  C3  UNL d   1       0.096  -2.293   1.378  0.00  0.00     0.004 A 
ATOM      3  C4  UNL d   1      -1.241  -2.512   1.707  0.00  0.00    -0.003 A 
ATOM      4  C5  UNL d   1      -1.751  -2.018   2.902  0.00  0.00     0.000 A 
ATOM      5  C6  UNL d   1      -0.927  -1.291   3.761  0.00  0.00     0.000 A 
ATOM      6  C7  UNL d   1       0.419  -1.048   3.438  0.00  0.00    -0.073 A 
ATOM      7  C8  UNL d   1       1.263  -0.263   4.404  0.00  0.00     0.078 C 
ENDROOT
BRANCH   1   8
ATOM      8  C1  UNL d   1       2.393  -1.396   1.844  0.00  0.00     0.053 C 
ATOM      9  C   UNL d   1       2.824   0.062   1.867  0.00  0.00     0.018 C 
ENDBRANCH   1   8
TORSDOF 1
ENDMDL
