MODEL 1
REMARK minimizedAffinity 18.3092747
REMARK minimizedRMSD -1
REMARK  1 active torsions:
REMARK  status: ('A' for Active; 'I' for Inactive)
REMARK    1  A    between atoms: C1_2  and  C2_3 
ROOT
ATOM      1  C2  UNL d   1      -3.034   4.206  -2.280  0.00  0.00    -0.076 A 
ATOM      2  C3  UNL d   1      -2.532   5.515  -2.387  0.00  0.00     0.004 A 
ATOM      3  C4  UNL d   1      -2.044   6.000  -3.599  0.00  0.00    -0.003 A 
ATOM      4  C5  UNL d   1      -2.049   5.183  -4.724  0.00  0.00     0.000 A 
ATOM      5  C6  UNL d   1      -2.559   3.888  -4.641  0.00  0.00     0.000 A 
ATOM      6  C7  UNL d   1      -3.070   3.390  -3.430  0.00  0.00    -0.073 A 
ATOM      7  C8  UNL d   1      -3.603   1.983  -3.395  0.00  0.00     0.078 C 
ENDROOT
BRANCH   1   8
ATOM      8  C1  UNL d   1      -3.526   3.727  -0.933  0.00  0.00     0.053 C 
ATOM      9  C   UNL d   1      -4.972   4.116  -0.668  0.00  0.00     0.018 C 
ENDBRANCH   1   8
TORSDOF 1
ENDMDL
