MODEL 1
REMARK minimizedAffinity 15.4411058
REMARK minimizedRMSD -1
REMARK  1 active torsions:
REMARK  status: ('A' for Active; 'I' for Inactive)
REMARK    1  A    between atoms: C1_2  and  C2_3 
ROOT
ATOM      1  C2  UNL d   1      -4.756   3.032  -2.244  0.00  0.00    -0.076 A 
ATOM      2  C3  UNL d   1      -3.780   2.625  -3.171  0.00  0.00     0.004 A 
ATOM      3  C4  UNL d   1      -2.626   3.379  -3.376  0.00  0.00    -0.003 A 
ATOM      4  C5  UNL d   1      -2.428   4.552  -2.656  0.00  0.00     0.000 A 
ATOM      5  C6  UNL d   1      -3.376   4.961  -1.719  0.00  0.00     0.000 A 
ATOM      6  C7  UNL d   1      -4.538   4.204  -1.489  0.00  0.00    -0.073 A 
ATOM      7  C8  UNL d   1      -5.531   4.696  -0.472  0.00  0.00     0.078 C 
ENDROOT
BRANCH   1   8
ATOM      8  C1  UNL d   1      -6.000   2.188  -2.085  0.00  0.00     0.053 C 
ATOM      9  C   UNL d   1      -6.000   0.972  -2.998  0.00  0.00     0.018 C 
ENDBRANCH   1   8
TORSDOF 1
ENDMDL
