MODEL 1
REMARK minimizedAffinity 19.0025158
REMARK minimizedRMSD -1
REMARK  1 active torsions:
REMARK  status: ('A' for Active; 'I' for Inactive)
REMARK    1  A    between atoms: C1_2  and  C2_3 
ROOT
ATOM      1  C2  UNL d   1      -2.614   4.846  -3.026  0.00  0.00    -0.076 A 
ATOM      2  C3  UNL d   1      -2.745   5.987  -3.836  0.00  0.00     0.004 A 
ATOM      3  C4  UNL d   1      -2.331   5.974  -5.167  0.00  0.00    -0.003 A 
ATOM      4  C5  UNL d   1      -1.780   4.819  -5.710  0.00  0.00     0.000 A 
ATOM      5  C6  UNL d   1      -1.658   3.672  -4.926  0.00  0.00     0.000 A 
ATOM      6  C7  UNL d   1      -2.086   3.663  -3.587  0.00  0.00    -0.073 A 
ATOM      7  C8  UNL d   1      -1.926   2.400  -2.787  0.00  0.00     0.078 C 
ENDROOT
BRANCH   1   8
ATOM      8  C1  UNL d   1      -3.055   4.927  -1.582  0.00  0.00     0.053 C 
ATOM      9  C   UNL d   1      -4.421   4.297  -1.354  0.00  0.00     0.018 C 
ENDBRANCH   1   8
TORSDOF 1
ENDMDL
