MODEL 1
REMARK minimizedAffinity 17.0479088
REMARK minimizedRMSD -1
REMARK  1 active torsions:
REMARK  status: ('A' for Active; 'I' for Inactive)
REMARK    1  A    between atoms: C1_2  and  C2_3 
ROOT
ATOM      1  C2  UNL d   1      -2.820   5.150  -2.606  0.00  0.00    -0.076 A 
ATOM      2  C3  UNL d   1      -3.826   5.790  -1.861  0.00  0.00     0.004 A 
ATOM      3  C4  UNL d   1      -4.744   5.054  -1.114  0.00  0.00    -0.003 A 
ATOM      4  C5  UNL d   1      -4.671   3.666  -1.100  0.00  0.00     0.000 A 
ATOM      5  C6  UNL d   1      -3.669   3.015  -1.819  0.00  0.00     0.000 A 
ATOM      6  C7  UNL d   1      -2.726   3.743  -2.564  0.00  0.00    -0.073 A 
ATOM      7  C8  UNL d   1      -1.670   2.989  -3.325  0.00  0.00     0.078 C 
ENDROOT
BRANCH   1   8
ATOM      8  C1  UNL d   1      -1.869   6.000  -3.418  0.00  0.00     0.053 C 
ATOM      9  C   UNL d   1      -2.209   5.999  -4.901  0.00  0.00     0.018 C 
ENDBRANCH   1   8
TORSDOF 1
ENDMDL
