MODEL 1
REMARK minimizedAffinity 22.6257153
REMARK minimizedRMSD -1
REMARK  1 active torsions:
REMARK  status: ('A' for Active; 'I' for Inactive)
REMARK    1  A    between atoms: C1_2  and  C2_3 
ROOT
ATOM      1  C2  UNL d   1      -2.920   3.688  -2.126  0.00  0.00    -0.076 A 
ATOM      2  C3  UNL d   1      -3.921   2.893  -1.541  0.00  0.00     0.004 A 
ATOM      3  C4  UNL d   1      -4.909   3.459  -0.738  0.00  0.00    -0.003 A 
ATOM      4  C5  UNL d   1      -4.913   4.830  -0.507  0.00  0.00     0.000 A 
ATOM      5  C6  UNL d   1      -3.938   5.637  -1.093  0.00  0.00     0.000 A 
ATOM      6  C7  UNL d   1      -2.944   5.084  -1.919  0.00  0.00    -0.073 A 
ATOM      7  C8  UNL d   1      -1.914   6.000  -2.520  0.00  0.00     0.078 C 
ENDROOT
BRANCH   1   8
ATOM      8  C1  UNL d   1      -1.858   3.015  -2.965  0.00  0.00     0.053 C 
ATOM      9  C   UNL d   1      -0.814   2.300  -2.121  0.00  0.00     0.018 C 
ENDBRANCH   1   8
TORSDOF 1
ENDMDL
