MODEL 1
REMARK minimizedAffinity 7.86732531
REMARK minimizedRMSD -1
REMARK  1 active torsions:
REMARK  status: ('A' for Active; 'I' for Inactive)
REMARK    1  A    between atoms: C1_2  and  C2_3 
ROOT
ATOM      1  C2  UNL d   1      -0.073  -2.345   2.562  0.00  0.00    -0.076 A 
ATOM      2  C3  UNL d   1       0.574  -2.892   1.440  0.00  0.00     0.004 A 
ATOM      3  C4  UNL d   1       1.696  -2.276   0.888  0.00  0.00    -0.003 A 
ATOM      4  C5  UNL d   1       2.190  -1.104   1.450  0.00  0.00     0.000 A 
ATOM      5  C6  UNL d   1       1.571  -0.557   2.574  0.00  0.00     0.000 A 
ATOM      6  C7  UNL d   1       0.449  -1.174   3.152  0.00  0.00    -0.073 A 
ATOM      7  C8  UNL d   1      -0.183  -0.538   4.360  0.00  0.00     0.078 C 
ENDROOT
BRANCH   1   8
ATOM      8  C1  UNL d   1      -1.302  -3.042   3.100  0.00  0.00     0.053 C 
ATOM      9  C   UNL d   1      -2.294  -3.403   2.005  0.00  0.00     0.018 C 
ENDBRANCH   1   8
TORSDOF 1
ENDMDL
