MODEL 1
REMARK minimizedAffinity 15.4626436
REMARK minimizedRMSD -1
REMARK  1 active torsions:
REMARK  status: ('A' for Active; 'I' for Inactive)
REMARK    1  A    between atoms: C1_2  and  C2_3 
ROOT
ATOM      1  C2  UNL d   1       2.313  -0.642   2.835  0.00  0.00    -0.076 A 
ATOM      2  C3  UNL d   1       2.658  -0.125   4.096  0.00  0.00     0.004 A 
ATOM      3  C4  UNL d   1       1.701   0.021   5.098  0.00  0.00    -0.003 A 
ATOM      4  C5  UNL d   1       0.382  -0.349   4.856  0.00  0.00     0.000 A 
ATOM      5  C6  UNL d   1       0.025  -0.880   3.617  0.00  0.00     0.000 A 
ATOM      6  C7  UNL d   1       0.982  -1.049   2.601  0.00  0.00    -0.073 A 
ATOM      7  C8  UNL d   1       0.540  -1.621   1.282  0.00  0.00     0.078 C 
ENDROOT
BRANCH   1   8
ATOM      8  C1  UNL d   1       3.388  -0.752   1.778  0.00  0.00     0.053 C 
ATOM      9  C   UNL d   1       4.768  -0.400   2.312  0.00  0.00     0.018 C 
ENDBRANCH   1   8
TORSDOF 1
ENDMDL
