MODEL 1
REMARK minimizedAffinity 9.10247231
REMARK minimizedRMSD -1
REMARK  1 active torsions:
REMARK  status: ('A' for Active; 'I' for Inactive)
REMARK    1  A    between atoms: C1_2  and  C2_3 
ROOT
ATOM      1  C2  UNL d   1       2.335  -0.212   3.120  0.00  0.00    -0.076 A 
ATOM      2  C3  UNL d   1       2.609   0.303   4.399  0.00  0.00     0.004 A 
ATOM      3  C4  UNL d   1       1.664   0.226   5.421  0.00  0.00    -0.003 A 
ATOM      4  C5  UNL d   1       0.430  -0.368   5.180  0.00  0.00     0.000 A 
ATOM      5  C6  UNL d   1       0.148  -0.900   3.922  0.00  0.00     0.000 A 
ATOM      6  C7  UNL d   1       1.096  -0.845   2.886  0.00  0.00    -0.073 A 
ATOM      7  C8  UNL d   1       0.736  -1.429   1.547  0.00  0.00     0.078 C 
ENDROOT
BRANCH   1   8
ATOM      8  C1  UNL d   1       3.388  -0.075   2.044  0.00  0.00     0.053 C 
ATOM      9  C   UNL d   1       4.728   0.386   2.596  0.00  0.00     0.018 C 
ENDBRANCH   1   8
TORSDOF 1
ENDMDL
