MODEL 1
REMARK minimizedAffinity 24.9187946
REMARK minimizedRMSD -1
REMARK  1 active torsions:
REMARK  status: ('A' for Active; 'I' for Inactive)
REMARK    1  A    between atoms: C1_2  and  C2_3 
ROOT
ATOM      1  C2  UNL d   1       1.537   0.112   3.115  0.00  0.00    -0.076 A 
ATOM      2  C3  UNL d   1       2.554   1.031   3.427  0.00  0.00     0.004 A 
ATOM      3  C4  UNL d   1       3.642   1.214   2.576  0.00  0.00    -0.003 A 
ATOM      4  C5  UNL d   1       3.731   0.482   1.397  0.00  0.00     0.000 A 
ATOM      5  C6  UNL d   1       2.723  -0.422   1.063  0.00  0.00     0.000 A 
ATOM      6  C7  UNL d   1       1.611  -0.607   1.902  0.00  0.00    -0.073 A 
ATOM      7  C8  UNL d   1       0.556  -1.599   1.495  0.00  0.00     0.078 C 
ENDROOT
BRANCH   1   8
ATOM      8  C1  UNL d   1       0.395  -0.064   4.090  0.00  0.00     0.053 C 
ATOM      9  C   UNL d   1      -0.963   0.155   3.442  0.00  0.00     0.018 C 
ENDBRANCH   1   8
TORSDOF 1
ENDMDL
