MODEL 1
REMARK minimizedAffinity -1.17803967
REMARK minimizedRMSD -1
REMARK  1 active torsions:
REMARK  status: ('A' for Active; 'I' for Inactive)
REMARK    1  A    between atoms: C1_2  and  C2_3 
ROOT
ATOM      1  C2  UNL d   1       0.637   0.843  -0.274  0.00  0.00    -0.076 A 
ATOM      2  C3  UNL d   1      -0.742   1.107  -0.207  0.00  0.00     0.004 A 
ATOM      3  C4  UNL d   1      -1.614   0.214   0.413  0.00  0.00    -0.003 A 
ATOM      4  C5  UNL d   1      -1.121  -0.958   0.977  0.00  0.00     0.000 A 
ATOM      5  C6  UNL d   1       0.247  -1.228   0.934  0.00  0.00     0.000 A 
ATOM      6  C7  UNL d   1       1.141  -0.330   0.327  0.00  0.00    -0.073 A 
ATOM      7  C8  UNL d   1       2.606  -0.674   0.305  0.00  0.00     0.078 C 
ENDROOT
BRANCH   1   8
ATOM      8  C1  UNL d   1       1.530   1.836  -0.984  0.00  0.00     0.053 C 
ATOM      9  C   UNL d   1       1.217   1.945  -2.468  0.00  0.00     0.018 C 
ENDBRANCH   1   8
TORSDOF 1
ENDMDL
