MODEL 1
REMARK minimizedAffinity -4.65809298
REMARK minimizedRMSD -1
REMARK  1 active torsions:
REMARK  status: ('A' for Active; 'I' for Inactive)
REMARK    1  A    between atoms: C1_2  and  C2_3 
ROOT
ATOM      1  C2  UNL d   1       0.079   0.067   0.398  0.00  0.00    -0.076 A 
ATOM      2  C3  UNL d   1      -1.316  -0.053   0.278  0.00  0.00     0.004 A 
ATOM      3  C4  UNL d   1      -1.943  -1.292   0.402  0.00  0.00    -0.003 A 
ATOM      4  C5  UNL d   1      -1.184  -2.431   0.648  0.00  0.00     0.000 A 
ATOM      5  C6  UNL d   1       0.199  -2.328   0.787  0.00  0.00     0.000 A 
ATOM      6  C7  UNL d   1       0.845  -1.084   0.681  0.00  0.00    -0.073 A 
ATOM      7  C8  UNL d   1       2.341  -1.032   0.834  0.00  0.00     0.078 C 
ENDROOT
BRANCH   1   8
ATOM      8  C1  UNL d   1       0.706   1.432   0.227  0.00  0.00     0.053 C 
ATOM      9  C   UNL d   1       0.911   1.801  -1.234  0.00  0.00     0.018 C 
ENDBRANCH   1   8
TORSDOF 1
ENDMDL
