MODEL 1
REMARK minimizedAffinity -0.959459007
REMARK minimizedRMSD -1
REMARK  1 active torsions:
REMARK  status: ('A' for Active; 'I' for Inactive)
REMARK    1  A    between atoms: C1_2  and  C2_3 
ROOT
ATOM      1  C2  UNL d   1       0.078   1.349  -0.370  0.00  0.00    -0.076 A 
ATOM      2  C3  UNL d   1      -1.017   2.147   0.004  0.00  0.00     0.004 A 
ATOM      3  C4  UNL d   1      -2.116   1.595   0.659  0.00  0.00    -0.003 A 
ATOM      4  C5  UNL d   1      -2.139   0.236   0.951  0.00  0.00     0.000 A 
ATOM      5  C6  UNL d   1      -1.053  -0.567   0.603  0.00  0.00     0.000 A 
ATOM      6  C7  UNL d   1       0.070  -0.024  -0.043  0.00  0.00    -0.073 A 
ATOM      7  C8  UNL d   1       1.210  -0.938  -0.401  0.00  0.00     0.078 C 
ENDROOT
BRANCH   1   8
ATOM      8  C1  UNL d   1       1.231   1.998  -1.102  0.00  0.00     0.053 C 
ATOM      9  C   UNL d   1       0.954   2.171  -2.588  0.00  0.00     0.018 C 
ENDBRANCH   1   8
TORSDOF 1
ENDMDL
