MODEL 1
REMARK minimizedAffinity -3.80815578
REMARK minimizedRMSD -1
REMARK  1 active torsions:
REMARK  status: ('A' for Active; 'I' for Inactive)
REMARK    1  A    between atoms: C1_2  and  C2_3 
ROOT
ATOM      1  C2  UNL d   1       1.175   1.455  -1.566  0.00  0.00    -0.076 A 
ATOM      2  C3  UNL d   1       2.569   1.280  -1.526  0.00  0.00     0.004 A 
ATOM      3  C4  UNL d   1       3.359   1.555  -2.640  0.00  0.00    -0.003 A 
ATOM      4  C5  UNL d   1       2.769   2.010  -3.814  0.00  0.00     0.000 A 
ATOM      5  C6  UNL d   1       1.389   2.207  -3.866  0.00  0.00     0.000 A 
ATOM      6  C7  UNL d   1       0.580   1.950  -2.747  0.00  0.00    -0.073 A 
ATOM      7  C8  UNL d   1      -0.904   2.173  -2.861  0.00  0.00     0.078 C 
ENDROOT
BRANCH   1   8
ATOM      8  C1  UNL d   1       0.366   1.115  -0.335  0.00  0.00     0.053 C 
ATOM      9  C   UNL d   1       0.110  -0.378  -0.200  0.00  0.00     0.018 C 
ENDBRANCH   1   8
TORSDOF 1
ENDMDL
