MODEL 1
REMARK minimizedAffinity -4.89950705
REMARK minimizedRMSD -1
REMARK  1 active torsions:
REMARK  status: ('A' for Active; 'I' for Inactive)
REMARK    1  A    between atoms: C1_2  and  C2_3 
ROOT
ATOM      1  C2  UNL d   1      -0.080   0.136   0.067  0.00  0.00    -0.076 A 
ATOM      2  C3  UNL d   1      -1.485   0.162   0.113  0.00  0.00     0.004 A 
ATOM      3  C4  UNL d   1      -2.208  -0.935   0.578  0.00  0.00    -0.003 A 
ATOM      4  C5  UNL d   1      -1.539  -2.076   1.006  0.00  0.00     0.000 A 
ATOM      5  C6  UNL d   1      -0.145  -2.113   0.984  0.00  0.00     0.000 A 
ATOM      6  C7  UNL d   1       0.600  -1.010   0.533  0.00  0.00    -0.073 A 
ATOM      7  C8  UNL d   1       2.101  -1.107   0.525  0.00  0.00     0.078 C 
ENDROOT
BRANCH   1   8
ATOM      8  C1  UNL d   1       0.649   1.345  -0.472  0.00  0.00     0.053 C 
ATOM      9  C   UNL d   1       0.649   1.395  -1.992  0.00  0.00     0.018 C 
ENDBRANCH   1   8
TORSDOF 1
ENDMDL
