MODEL 1
REMARK minimizedAffinity -3.73469329
REMARK minimizedRMSD -1
REMARK  1 active torsions:
REMARK  status: ('A' for Active; 'I' for Inactive)
REMARK    1  A    between atoms: C1_2  and  C2_3 
ROOT
ATOM      1  C2  UNL d   1       0.129   0.023  -0.172  0.00  0.00    -0.076 A 
ATOM      2  C3  UNL d   1      -1.206   0.390   0.072  0.00  0.00     0.004 A 
ATOM      3  C4  UNL d   1      -2.129  -0.537   0.553  0.00  0.00    -0.003 A 
ATOM      4  C5  UNL d   1      -1.732  -1.847   0.799  0.00  0.00     0.000 A 
ATOM      5  C6  UNL d   1      -0.407  -2.225   0.579  0.00  0.00     0.000 A 
ATOM      6  C7  UNL d   1       0.540  -1.298   0.109  0.00  0.00    -0.073 A 
ATOM      7  C8  UNL d   1       1.953  -1.761  -0.116  0.00  0.00     0.078 C 
ENDROOT
BRANCH   1   8
ATOM      8  C1  UNL d   1       1.078   1.064  -0.720  0.00  0.00     0.053 C 
ATOM      9  C   UNL d   1       0.601   1.652  -2.039  0.00  0.00     0.018 C 
ENDBRANCH   1   8
TORSDOF 1
ENDMDL
