MODEL 1
REMARK minimizedAffinity -0.927612662
REMARK minimizedRMSD -1
REMARK  1 active torsions:
REMARK  status: ('A' for Active; 'I' for Inactive)
REMARK    1  A    between atoms: C1_2  and  C2_3 
ROOT
ATOM      1  C2  UNL d   1       0.348   0.408  -0.323  0.00  0.00    -0.076 A 
ATOM      2  C3  UNL d   1       1.156  -0.722  -0.535  0.00  0.00     0.004 A 
ATOM      3  C4  UNL d   1       0.907  -1.919   0.134  0.00  0.00    -0.003 A 
ATOM      4  C5  UNL d   1      -0.156  -2.005   1.027  0.00  0.00     0.000 A 
ATOM      5  C6  UNL d   1      -0.979  -0.899   1.237  0.00  0.00     0.000 A 
ATOM      6  C7  UNL d   1      -0.751   0.310   0.557  0.00  0.00    -0.073 A 
ATOM      7  C8  UNL d   1      -1.667   1.472   0.826  0.00  0.00     0.078 C 
ENDROOT
BRANCH   1   8
ATOM      8  C1  UNL d   1       0.683   1.687  -1.057  0.00  0.00     0.053 C 
ATOM      9  C   UNL d   1       1.112   1.438  -2.494  0.00  0.00     0.018 C 
ENDBRANCH   1   8
TORSDOF 1
ENDMDL
