MODEL 1
REMARK minimizedAffinity -3.5471108
REMARK minimizedRMSD -1
REMARK  1 active torsions:
REMARK  status: ('A' for Active; 'I' for Inactive)
REMARK    1  A    between atoms: C1_2  and  C2_3 
ROOT
ATOM      1  C2  UNL d   1       0.510   0.070   0.076  0.00  0.00    -0.076 A 
ATOM      2  C3  UNL d   1      -0.873   0.114  -0.173  0.00  0.00     0.004 A 
ATOM      3  C4  UNL d   1      -1.731  -0.835   0.378  0.00  0.00    -0.003 A 
ATOM      4  C5  UNL d   1      -1.221  -1.845   1.188  0.00  0.00     0.000 A 
ATOM      5  C6  UNL d   1       0.146  -1.894   1.459  0.00  0.00     0.000 A 
ATOM      6  C7  UNL d   1       1.023  -0.935   0.925  0.00  0.00    -0.073 A 
ATOM      7  C8  UNL d   1       2.489  -1.039   1.245  0.00  0.00     0.078 C 
ENDROOT
BRANCH   1   8
ATOM      8  C1  UNL d   1       1.396   1.110  -0.571  0.00  0.00     0.053 C 
ATOM      9  C   UNL d   1       0.795   1.674  -1.850  0.00  0.00     0.018 C 
ENDBRANCH   1   8
TORSDOF 1
ENDMDL
