MODEL 1
REMARK minimizedAffinity -4.91345739
REMARK minimizedRMSD -1
REMARK  1 active torsions:
REMARK  status: ('A' for Active; 'I' for Inactive)
REMARK    1  A    between atoms: C1_2  and  C2_3 
ROOT
ATOM      1  C2  UNL d   1      -0.247  -0.059  -0.169  0.00  0.00    -0.076 A 
ATOM      2  C3  UNL d   1      -1.644  -0.029  -0.011  0.00  0.00     0.004 A 
ATOM      3  C4  UNL d   1      -2.315  -1.067   0.634  0.00  0.00    -0.003 A 
ATOM      4  C5  UNL d   1      -1.601  -2.151   1.131  0.00  0.00     0.000 A 
ATOM      5  C6  UNL d   1      -0.213  -2.190   0.998  0.00  0.00     0.000 A 
ATOM      6  C7  UNL d   1       0.481  -1.144   0.365  0.00  0.00    -0.073 A 
ATOM      7  C8  UNL d   1       1.977  -1.240   0.245  0.00  0.00     0.078 C 
ENDROOT
BRANCH   1   8
ATOM      8  C1  UNL d   1       0.424   1.081  -0.901  0.00  0.00     0.053 C 
ATOM      9  C   UNL d   1      -0.150   1.299  -2.292  0.00  0.00     0.018 C 
ENDBRANCH   1   8
TORSDOF 1
ENDMDL
