MODEL 1
REMARK minimizedAffinity -3.81256866
REMARK minimizedRMSD -1
REMARK  1 active torsions:
REMARK  status: ('A' for Active; 'I' for Inactive)
REMARK    1  A    between atoms: C1_2  and  C2_3 
ROOT
ATOM      1  C2  UNL d   1       0.059  -0.466  -0.596  0.00  0.00    -0.076 A 
ATOM      2  C3  UNL d   1      -1.181  -0.989  -1.002  0.00  0.00     0.004 A 
ATOM      3  C4  UNL d   1      -1.823  -1.975  -0.255  0.00  0.00    -0.003 A 
ATOM      4  C5  UNL d   1      -1.237  -2.453   0.911  0.00  0.00     0.000 A 
ATOM      5  C6  UNL d   1      -0.016  -1.934   1.339  0.00  0.00     0.000 A 
ATOM      6  C7  UNL d   1       0.638  -0.928   0.606  0.00  0.00    -0.073 A 
ATOM      7  C8  UNL d   1       1.956  -0.408   1.110  0.00  0.00     0.078 C 
ENDROOT
BRANCH   1   8
ATOM      8  C1  UNL d   1       0.722   0.582  -1.461  0.00  0.00     0.053 C 
ATOM      9  C   UNL d   1      -0.272   1.326  -2.339  0.00  0.00     0.018 C 
ENDBRANCH   1   8
TORSDOF 1
ENDMDL
