MODEL 1
REMARK minimizedAffinity -3.39171457
REMARK minimizedRMSD -1
REMARK  1 active torsions:
REMARK  status: ('A' for Active; 'I' for Inactive)
REMARK    1  A    between atoms: N_2  and  C1_3 
ROOT
ATOM      1  C1  UNL d   1       0.797   0.475   0.206  0.00  0.00     0.143 A 
ATOM      2  C2  UNL d   1       2.084  -0.029  -0.008  0.00  0.00    -0.057 A 
ATOM      3  C3  UNL d   1       3.207   0.579   0.565  0.00  0.00     0.033 A 
ATOM      4  C4  UNL d   1       3.065   1.723   1.342  0.00  0.00    -0.042 A 
ATOM      5  C5  UNL d   1       1.798   2.257   1.548  0.00  0.00     0.033 A 
ATOM      6  C6  UNL d   1       0.680   1.642   0.979  0.00  0.00    -0.057 A 
ENDROOT
BRANCH   1   7
ATOM      7  N   UNL d   1      -0.349  -0.026  -0.416  0.00  0.00    -0.732 N 
ATOM      8  C   UNL d   1      -1.151   0.819  -1.274  0.00  0.00     0.284 C 
ATOM      9  H3  UNL d   1      -0.218  -0.971  -0.768  0.00  0.00     0.395 HD
ENDBRANCH   1   7
TORSDOF 1
ENDMDL
