MODEL 1
REMARK minimizedAffinity -3.11485291
REMARK minimizedRMSD -1
REMARK  1 active torsions:
REMARK  status: ('A' for Active; 'I' for Inactive)
REMARK    1  A    between atoms: N_2  and  C1_3 
ROOT
ATOM      1  C1  UNL d   1       1.331   0.603  -0.127  0.00  0.00     0.143 A 
ATOM      2  C2  UNL d   1       0.887  -0.504   0.604  0.00  0.00    -0.057 A 
ATOM      3  C3  UNL d   1      -0.350  -1.103   0.335  0.00  0.00     0.033 A 
ATOM      4  C4  UNL d   1      -1.179  -0.587  -0.655  0.00  0.00    -0.042 A 
ATOM      5  C5  UNL d   1      -0.768   0.528  -1.378  0.00  0.00     0.033 A 
ATOM      6  C6  UNL d   1       0.470   1.118  -1.109  0.00  0.00    -0.057 A 
ENDROOT
BRANCH   1   7
ATOM      7  N   UNL d   1       2.506   1.303   0.158  0.00  0.00    -0.732 N 
ATOM      8  C   UNL d   1       2.487   2.439   1.055  0.00  0.00     0.284 C 
ATOM      9  H3  UNL d   1       3.305   0.686   0.286  0.00  0.00     0.395 HD
ENDBRANCH   1   7
TORSDOF 1
ENDMDL
