MODEL 1
REMARK minimizedAffinity -2.7355895
REMARK minimizedRMSD -1
REMARK  1 active torsions:
REMARK  status: ('A' for Active; 'I' for Inactive)
REMARK    1  A    between atoms: N_2  and  C1_3 
ROOT
ATOM      1  C1  UNL d   1       0.618   0.293  -0.100  0.00  0.00     0.143 A 
ATOM      2  C2  UNL d   1       0.178   0.847  -1.307  0.00  0.00    -0.057 A 
ATOM      3  C3  UNL d   1      -1.059   0.495  -1.859  0.00  0.00     0.033 A 
ATOM      4  C4  UNL d   1      -1.868  -0.443  -1.226  0.00  0.00    -0.042 A 
ATOM      5  C5  UNL d   1      -1.440  -1.026  -0.039  0.00  0.00     0.033 A 
ATOM      6  C6  UNL d   1      -0.206  -0.665   0.511  0.00  0.00    -0.057 A 
ENDROOT
BRANCH   1   7
ATOM      7  N   UNL d   1       1.881   0.528   0.449  0.00  0.00    -0.732 N 
ATOM      8  C   UNL d   1       2.285   1.867   0.822  0.00  0.00     0.284 C 
ATOM      9  H3  UNL d   1       2.155  -0.190   1.116  0.00  0.00     0.395 HD
ENDBRANCH   1   7
TORSDOF 1
ENDMDL
