MODEL 1
REMARK minimizedAffinity -2.57907581
REMARK minimizedRMSD -1
REMARK  1 active torsions:
REMARK  status: ('A' for Active; 'I' for Inactive)
REMARK    1  A    between atoms: N_2  and  C1_3 
ROOT
ATOM      1  C1  UNL d   1       0.572   0.000  -0.515  0.00  0.00     0.143 A 
ATOM      2  C2  UNL d   1      -0.335  -0.881   0.084  0.00  0.00    -0.057 A 
ATOM      3  C3  UNL d   1      -1.660  -0.972  -0.359  0.00  0.00     0.033 A 
ATOM      4  C4  UNL d   1      -2.111  -0.158  -1.393  0.00  0.00    -0.042 A 
ATOM      5  C5  UNL d   1      -1.235   0.744  -1.986  0.00  0.00     0.033 A 
ATOM      6  C6  UNL d   1       0.089   0.824  -1.544  0.00  0.00    -0.057 A 
ENDROOT
BRANCH   1   7
ATOM      7  N   UNL d   1       1.875   0.207  -0.056  0.00  0.00    -0.732 N 
ATOM      8  C   UNL d   1       2.225   1.422   0.648  0.00  0.00     0.284 C 
ATOM      9  H3  UNL d   1       2.285  -0.636   0.341  0.00  0.00     0.395 HD
ENDBRANCH   1   7
TORSDOF 1
ENDMDL
