MODEL 1
REMARK minimizedAffinity -2.42913675
REMARK minimizedRMSD -1
REMARK  1 active torsions:
REMARK  status: ('A' for Active; 'I' for Inactive)
REMARK    1  A    between atoms: N_2  and  C1_3 
ROOT
ATOM      1  C1  UNL d   1      -0.152   0.094  -0.172  0.00  0.00     0.143 A 
ATOM      2  C2  UNL d   1      -1.064   0.787  -0.975  0.00  0.00    -0.057 A 
ATOM      3  C3  UNL d   1      -2.276   0.205  -1.367  0.00  0.00     0.033 A 
ATOM      4  C4  UNL d   1      -2.585  -1.096  -0.984  0.00  0.00    -0.042 A 
ATOM      5  C5  UNL d   1      -1.682  -1.813  -0.206  0.00  0.00     0.033 A 
ATOM      6  C6  UNL d   1      -0.476  -1.223   0.187  0.00  0.00    -0.057 A 
ENDROOT
BRANCH   1   7
ATOM      7  N   UNL d   1       1.112   0.582   0.168  0.00  0.00    -0.732 N 
ATOM      8  C   UNL d   1       1.249   1.784   0.963  0.00  0.00     0.284 C 
ATOM      9  H3  UNL d   1       1.760  -0.160   0.422  0.00  0.00     0.395 HD
ENDBRANCH   1   7
TORSDOF 1
ENDMDL
