MODEL 1
REMARK minimizedAffinity -1.17957318
REMARK minimizedRMSD -1
REMARK  1 active torsions:
REMARK  status: ('A' for Active; 'I' for Inactive)
REMARK    1  A    between atoms: N_2  and  C1_3 
ROOT
ATOM      1  C1  UNL d   1       0.574   0.688  -0.848  0.00  0.00     0.143 A 
ATOM      2  C2  UNL d   1       1.525   1.706  -0.719  0.00  0.00    -0.057 A 
ATOM      3  C3  UNL d   1       2.554   1.623   0.227  0.00  0.00     0.033 A 
ATOM      4  C4  UNL d   1       2.633   0.530   1.084  0.00  0.00    -0.042 A 
ATOM      5  C5  UNL d   1       1.684  -0.482   0.991  0.00  0.00     0.033 A 
ATOM      6  C6  UNL d   1       0.663  -0.397   0.039  0.00  0.00    -0.057 A 
ENDROOT
BRANCH   1   7
ATOM      7  N   UNL d   1      -0.529   0.757  -1.702  0.00  0.00    -0.732 N 
ATOM      8  C   UNL d   1      -1.670  -0.111  -1.504  0.00  0.00     0.284 C 
ATOM      9  H3  UNL d   1      -0.772   1.715  -1.945  0.00  0.00     0.395 HD
ENDBRANCH   1   7
TORSDOF 1
ENDMDL
