MODEL 1
REMARK minimizedAffinity -1.08213568
REMARK minimizedRMSD -1
REMARK  1 active torsions:
REMARK  status: ('A' for Active; 'I' for Inactive)
REMARK    1  A    between atoms: N_2  and  C1_3 
ROOT
ATOM      1  C1  UNL d   1      -2.352  -0.032  -1.503  0.00  0.00     0.143 A 
ATOM      2  C2  UNL d   1      -1.130  -0.640  -1.195  0.00  0.00    -0.057 A 
ATOM      3  C3  UNL d   1      -1.004  -1.504  -0.101  0.00  0.00     0.033 A 
ATOM      4  C4  UNL d   1      -2.096  -1.755   0.724  0.00  0.00    -0.042 A 
ATOM      5  C5  UNL d   1      -3.314  -1.143   0.452  0.00  0.00     0.033 A 
ATOM      6  C6  UNL d   1      -3.435  -0.285  -0.646  0.00  0.00    -0.057 A 
ENDROOT
BRANCH   1   7
ATOM      7  N   UNL d   1      -2.517   0.913  -2.518  0.00  0.00    -0.732 N 
ATOM      8  C   UNL d   1      -1.371   1.584  -3.094  0.00  0.00     0.284 C 
ATOM      9  H3  UNL d   1      -3.220   0.635  -3.198  0.00  0.00     0.395 HD
ENDBRANCH   1   7
TORSDOF 1
ENDMDL
