MODEL 1
REMARK minimizedAffinity -0.149459243
REMARK minimizedRMSD -1
REMARK  1 active torsions:
REMARK  status: ('A' for Active; 'I' for Inactive)
REMARK    1  A    between atoms: N_2  and  C1_3 
ROOT
ATOM      1  C1  UNL d   1       0.553  -0.205   0.461  0.00  0.00     0.143 A 
ATOM      2  C2  UNL d   1       0.626   0.450  -0.772  0.00  0.00    -0.057 A 
ATOM      3  C3  UNL d   1       1.569   1.459  -1.004  0.00  0.00     0.033 A 
ATOM      4  C4  UNL d   1       2.440   1.851   0.007  0.00  0.00    -0.042 A 
ATOM      5  C5  UNL d   1       2.368   1.230   1.250  0.00  0.00     0.033 A 
ATOM      6  C6  UNL d   1       1.429   0.219   1.473  0.00  0.00    -0.057 A 
ENDROOT
BRANCH   1   7
ATOM      7  N   UNL d   1      -0.427  -1.147   0.785  0.00  0.00    -0.732 N 
ATOM      8  C   UNL d   1      -0.224  -2.077   1.875  0.00  0.00     0.284 C 
ATOM      9  H3  UNL d   1      -1.368  -0.761   0.738  0.00  0.00     0.395 HD
ENDBRANCH   1   7
TORSDOF 1
ENDMDL
