MODEL 1
REMARK minimizedAffinity 7.73298168
REMARK minimizedRMSD -1
REMARK  1 active torsions:
REMARK  status: ('A' for Active; 'I' for Inactive)
REMARK    1  A    between atoms: C1_2  and  C2_3 
ROOT
ATOM      1  C2  UNL d   1       1.271  -3.951   2.508  0.00  0.00    -0.073 A 
ATOM      2  C3  UNL d   1       0.712  -2.695   2.771  0.00  0.00    -0.002 A 
ATOM      3  C4  UNL d   1       0.133  -2.426   4.012  0.00  0.00     0.004 A 
ATOM      4  C5  UNL d   1       0.115  -3.406   5.004  0.00  0.00    -0.004 A 
ATOM      5  C6  UNL d   1       0.679  -4.663   4.765  0.00  0.00    -0.075 A 
ATOM      6  C7  UNL d   1       0.665  -5.729   5.822  0.00  0.00     0.076 C 
ATOM      7  C8  UNL d   1       1.255  -4.926   3.515  0.00  0.00     0.001 A 
ENDROOT
BRANCH   1   8
ATOM      8  C1  UNL d   1       1.902  -4.244   1.171  0.00  0.00     0.053 C 
ATOM      9  C   UNL d   1       1.028  -5.146   0.314  0.00  0.00     0.018 C 
ENDBRANCH   1   8
TORSDOF 1
ENDMDL
