MODEL 1
REMARK minimizedAffinity -0.711535037
REMARK minimizedRMSD -1
REMARK  1 active torsions:
REMARK  status: ('A' for Active; 'I' for Inactive)
REMARK    1  A    between atoms: C1_2  and  C2_3 
ROOT
ATOM      1  C2  UNL d   1       4.388   5.390  -4.060  0.00  0.00    -0.073 A 
ATOM      2  C3  UNL d   1       5.339   6.000  -3.234  0.00  0.00    -0.002 A 
ATOM      3  C4  UNL d   1       5.201   5.953  -1.846  0.00  0.00     0.004 A 
ATOM      4  C5  UNL d   1       4.117   5.291  -1.270  0.00  0.00    -0.004 A 
ATOM      5  C6  UNL d   1       3.162   4.666  -2.079  0.00  0.00    -0.075 A 
ATOM      6  C7  UNL d   1       1.988   3.952  -1.475  0.00  0.00     0.076 C 
ATOM      7  C8  UNL d   1       3.306   4.719  -3.472  0.00  0.00     0.001 A 
ENDROOT
BRANCH   1   8
ATOM      8  C1  UNL d   1       4.537   5.432  -5.559  0.00  0.00     0.053 C 
ATOM      9  C   UNL d   1       5.987   5.598  -5.984  0.00  0.00     0.018 C 
ENDBRANCH   1   8
TORSDOF 1
ENDMDL
