MODEL 1
REMARK minimizedAffinity 5.89479303
REMARK minimizedRMSD -1
REMARK  1 active torsions:
REMARK  status: ('A' for Active; 'I' for Inactive)
REMARK    1  A    between atoms: C1_2  and  C2_3 
ROOT
ATOM      1  C2  UNL d   1       0.736  -1.980   3.753  0.00  0.00    -0.073 A 
ATOM      2  C3  UNL d   1       1.638  -2.741   3.002  0.00  0.00    -0.002 A 
ATOM      3  C4  UNL d   1       2.177  -2.232   1.819  0.00  0.00     0.004 A 
ATOM      4  C5  UNL d   1       1.825  -0.955   1.381  0.00  0.00    -0.004 A 
ATOM      5  C6  UNL d   1       0.934  -0.174   2.124  0.00  0.00    -0.075 A 
ATOM      6  C7  UNL d   1       0.544   1.200   1.665  0.00  0.00     0.076 C 
ATOM      7  C8  UNL d   1       0.396  -0.694   3.309  0.00  0.00     0.001 A 
ENDROOT
BRANCH   1   8
ATOM      8  C1  UNL d   1       0.157  -2.523   5.034  0.00  0.00     0.053 C 
ATOM      9  C   UNL d   1       1.239  -2.981   5.999  0.00  0.00     0.018 C 
ENDBRANCH   1   8
TORSDOF 1
ENDMDL
