MODEL 1
REMARK minimizedAffinity 10.1399641
REMARK minimizedRMSD -1
REMARK  1 active torsions:
REMARK  status: ('A' for Active; 'I' for Inactive)
REMARK    1  A    between atoms: C1_2  and  C2_3 
ROOT
ATOM      1  C2  UNL d   1      -5.251  -2.810  -3.787  0.00  0.00    -0.073 A 
ATOM      2  C3  UNL d   1      -5.929  -2.722  -5.008  0.00  0.00    -0.002 A 
ATOM      3  C4  UNL d   1      -5.723  -3.682  -6.000  0.00  0.00     0.004 A 
ATOM      4  C5  UNL d   1      -4.843  -4.742  -5.779  0.00  0.00    -0.004 A 
ATOM      5  C6  UNL d   1      -4.165  -4.854  -4.561  0.00  0.00    -0.075 A 
ATOM      6  C7  UNL d   1      -3.214  -5.986  -4.309  0.00  0.00     0.076 C 
ATOM      7  C8  UNL d   1      -4.375  -3.884  -3.571  0.00  0.00     0.001 A 
ENDROOT
BRANCH   1   8
ATOM      8  C1  UNL d   1      -5.475  -1.780  -2.710  0.00  0.00     0.053 C 
ATOM      9  C   UNL d   1      -5.646  -2.415  -1.340  0.00  0.00     0.018 C 
ENDBRANCH   1   8
TORSDOF 1
ENDMDL
