MODEL 1
REMARK minimizedAffinity 2.15359426
REMARK minimizedRMSD -1
REMARK  1 active torsions:
REMARK  status: ('A' for Active; 'I' for Inactive)
REMARK    1  A    between atoms: C1_2  and  C2_3 
ROOT
ATOM      1  C2  UNL d   1       2.726  -1.516   2.262  0.00  0.00    -0.073 A 
ATOM      2  C3  UNL d   1       1.798  -2.079   1.380  0.00  0.00    -0.002 A 
ATOM      3  C4  UNL d   1       2.229  -2.865   0.310  0.00  0.00     0.004 A 
ATOM      4  C5  UNL d   1       3.589  -3.102   0.116  0.00  0.00    -0.004 A 
ATOM      5  C6  UNL d   1       4.532  -2.558   0.995  0.00  0.00    -0.075 A 
ATOM      6  C7  UNL d   1       6.000  -2.801   0.799  0.00  0.00     0.076 C 
ATOM      7  C8  UNL d   1       4.092  -1.767   2.065  0.00  0.00     0.001 A 
ENDROOT
BRANCH   1   8
ATOM      8  C1  UNL d   1       2.266  -0.672   3.422  0.00  0.00     0.053 C 
ATOM      9  C   UNL d   1       1.165  -1.352   4.221  0.00  0.00     0.018 C 
ENDBRANCH   1   8
TORSDOF 1
ENDMDL
