MODEL 1
REMARK minimizedAffinity 4.47112846
REMARK minimizedRMSD -1
REMARK  0 active torsions:
REMARK  status: ('A' for Active; 'I' for Inactive)
ROOT
ATOM      1  O1  BZF d   1      -2.699   1.001   4.146  0.00  0.00    -0.204 OA
ATOM      2  C2  BZF d   1      -3.870   1.131   3.425  0.00  0.00     0.174 A 
ATOM      3  C3  BZF d   1      -3.858   0.326   2.343  0.00  0.00    -0.012 A 
ATOM      4  C3A BZF d   1      -2.639  -0.417   2.441  0.00  0.00    -0.107 A 
ATOM      5  C4  BZF d   1      -2.067  -1.388   1.670  0.00  0.00     0.055 A 
ATOM      6  C5  BZF d   1      -0.835  -1.856   2.003  0.00  0.00    -0.016 A 
ATOM      7  C6  BZF d   1      -0.146  -1.372   3.095  0.00  0.00     0.022 A 
ATOM      8  C7  BZF d   1      -0.674  -0.412   3.893  0.00  0.00     0.029 A 
ATOM      9  C7A BZF d   1      -1.933   0.039   3.578  0.00  0.00     0.058 A 
ENDROOT
TORSDOF 0
ENDMDL
