MODEL 1
REMARK minimizedAffinity 5.85312986
REMARK minimizedRMSD -1
REMARK  0 active torsions:
REMARK  status: ('A' for Active; 'I' for Inactive)
ROOT
ATOM      1  O1  BZF d   1      -3.484   0.848   0.461  0.00  0.00    -0.204 OA
ATOM      2  C2  BZF d   1      -3.217   0.134  -0.691  0.00  0.00     0.174 A 
ATOM      3  C3  BZF d   1      -2.374  -0.888  -0.436  0.00  0.00    -0.012 A 
ATOM      4  C3A BZF d   1      -2.169  -0.861   0.980  0.00  0.00    -0.107 A 
ATOM      5  C4  BZF d   1      -1.442  -1.636   1.838  0.00  0.00     0.055 A 
ATOM      6  C5  BZF d   1      -1.395  -1.300   3.154  0.00  0.00    -0.016 A 
ATOM      7  C6  BZF d   1      -2.057  -0.194   3.644  0.00  0.00     0.022 A 
ATOM      8  C7  BZF d   1      -2.795   0.602   2.833  0.00  0.00     0.029 A 
ATOM      9  C7A BZF d   1      -2.872   0.246   1.509  0.00  0.00     0.058 A 
ENDROOT
TORSDOF 0
ENDMDL
