MODEL 1
REMARK minimizedAffinity 0.446831793
REMARK minimizedRMSD -1
REMARK  0 active torsions:
REMARK  status: ('A' for Active; 'I' for Inactive)
ROOT
ATOM      1  O1  BZF d   1      -1.419   1.125   3.377  0.00  0.00    -0.204 OA
ATOM      2  C2  BZF d   1      -2.572   0.550   2.879  0.00  0.00     0.174 A 
ATOM      3  C3  BZF d   1      -2.368  -0.748   2.577  0.00  0.00    -0.012 A 
ATOM      4  C3A BZF d   1      -1.027  -1.024   2.993  0.00  0.00    -0.107 A 
ATOM      5  C4  BZF d   1      -0.249  -2.147   2.970  0.00  0.00     0.055 A 
ATOM      6  C5  BZF d   1       1.043  -2.064   3.383  0.00  0.00    -0.016 A 
ATOM      7  C6  BZF d   1       1.590  -0.876   3.821  0.00  0.00     0.022 A 
ATOM      8  C7  BZF d   1       0.857   0.263   3.866  0.00  0.00     0.029 A 
ATOM      9  C7A BZF d   1      -0.458   0.175   3.480  0.00  0.00     0.058 A 
ENDROOT
TORSDOF 0
ENDMDL
