MODEL 1
REMARK minimizedAffinity 12.5985632
REMARK minimizedRMSD -1
REMARK  0 active torsions:
REMARK  status: ('A' for Active; 'I' for Inactive)
ROOT
ATOM      1  O1  BZF d   1       4.756  -2.849   1.441  0.00  0.00    -0.204 OA
ATOM      2  C2  BZF d   1       5.271  -1.752   0.777  0.00  0.00     0.174 A 
ATOM      3  C3  BZF d   1       4.279  -0.987   0.277  0.00  0.00    -0.012 A 
ATOM      4  C3A BZF d   1       3.067  -1.598   0.731  0.00  0.00    -0.107 A 
ATOM      5  C4  BZF d   1       1.746  -1.293   0.573  0.00  0.00     0.055 A 
ATOM      6  C5  BZF d   1       0.808  -2.135   1.082  0.00  0.00    -0.016 A 
ATOM      7  C6  BZF d   1       1.156  -3.292   1.747  0.00  0.00     0.022 A 
ATOM      8  C7  BZF d   1       2.454  -3.635   1.932  0.00  0.00     0.029 A 
ATOM      9  C7A BZF d   1       3.404  -2.769   1.448  0.00  0.00     0.058 A 
ENDROOT
TORSDOF 0
ENDMDL
