MODEL 1
REMARK minimizedAffinity 11.0320129
REMARK minimizedRMSD -1
REMARK  0 active torsions:
REMARK  status: ('A' for Active; 'I' for Inactive)
ROOT
ATOM      1  O1  BZF d   1       1.081  -5.282   1.389  0.00  0.00    -0.204 OA
ATOM      2  C2  BZF d   1       2.224  -5.783   0.797  0.00  0.00     0.174 A 
ATOM      3  C3  BZF d   1       3.063  -4.784   0.455  0.00  0.00    -0.012 A 
ATOM      4  C3A BZF d   1       2.444  -3.590   0.941  0.00  0.00    -0.107 A 
ATOM      5  C4  BZF d   1       2.801  -2.272   0.921  0.00  0.00     0.055 A 
ATOM      6  C5  BZF d   1       1.940  -1.346   1.417  0.00  0.00    -0.016 A 
ATOM      7  C6  BZF d   1       0.712  -1.701   1.937  0.00  0.00     0.022 A 
ATOM      8  C7  BZF d   1       0.316  -2.996   1.984  0.00  0.00     0.029 A 
ATOM      9  C7A BZF d   1       1.198  -3.938   1.513  0.00  0.00     0.058 A 
ENDROOT
TORSDOF 0
ENDMDL
