MODEL 1
REMARK minimizedAffinity -6.25023031
REMARK minimizedRMSD -1
REMARK  0 active torsions:
REMARK  status: ('A' for Active; 'I' for Inactive)
ROOT
ATOM      1  C   UNL d   1      -2.078   0.298   0.002  0.00  0.00     0.078 C 
ATOM      2  C1  UNL d   1      -1.062   0.308   1.104  0.00  0.00    -0.077 A 
ATOM      3  C2  UNL d   1       0.210  -0.246   0.918  0.00  0.00    -0.001 A 
ATOM      4  C3  UNL d   1       1.143  -0.239   1.956  0.00  0.00     0.003 A 
ATOM      5  C4  UNL d   1       0.813   0.321   3.189  0.00  0.00    -0.005 A 
ATOM      6  C5  UNL d   1      -0.452   0.873   3.385  0.00  0.00     0.003 A 
ATOM      7  C6  UNL d   1      -1.385   0.866   2.348  0.00  0.00    -0.001 A 
ENDROOT
TORSDOF 0
ENDMDL
