MODEL 1
REMARK minimizedAffinity -5.17525864
REMARK minimizedRMSD -1
REMARK  0 active torsions:
REMARK  status: ('A' for Active; 'I' for Inactive)
ROOT
ATOM      1  C   UNL d   1       0.321  -0.741  -1.349  0.00  0.00     0.078 C 
ATOM      2  C1  UNL d   1      -0.159   0.048  -0.169  0.00  0.00    -0.077 A 
ATOM      3  C2  UNL d   1      -1.527   0.249   0.056  0.00  0.00    -0.001 A 
ATOM      4  C3  UNL d   1      -1.960   0.994   1.154  0.00  0.00     0.003 A 
ATOM      5  C4  UNL d   1      -1.032   1.546   2.035  0.00  0.00    -0.005 A 
ATOM      6  C5  UNL d   1       0.331   1.353   1.819  0.00  0.00     0.003 A 
ATOM      7  C6  UNL d   1       0.766   0.608   0.721  0.00  0.00    -0.001 A 
ENDROOT
TORSDOF 0
ENDMDL
