MODEL 1
REMARK minimizedAffinity -5.33944368
REMARK minimizedRMSD -1
REMARK  0 active torsions:
REMARK  status: ('A' for Active; 'I' for Inactive)
ROOT
ATOM      1  C   UNL d   1      -0.631   1.257   2.603  0.00  0.00     0.078 C 
ATOM      2  C1  UNL d   1      -0.194   0.332   1.506  0.00  0.00    -0.077 A 
ATOM      3  C2  UNL d   1      -1.064  -0.012   0.465  0.00  0.00    -0.001 A 
ATOM      4  C3  UNL d   1      -0.648  -0.882  -0.544  0.00  0.00     0.003 A 
ATOM      5  C4  UNL d   1       0.639  -1.415  -0.521  0.00  0.00    -0.005 A 
ATOM      6  C5  UNL d   1       1.511  -1.080   0.512  0.00  0.00     0.003 A 
ATOM      7  C6  UNL d   1       1.097  -0.210   1.522  0.00  0.00    -0.001 A 
ENDROOT
TORSDOF 0
ENDMDL
