MODEL 1
REMARK minimizedAffinity -3.00916791
REMARK minimizedRMSD -1
REMARK  0 active torsions:
REMARK  status: ('A' for Active; 'I' for Inactive)
ROOT
ATOM      1  C   UNL d   1      -1.857  -0.911  -0.041  0.00  0.00     0.078 C 
ATOM      2  C1  UNL d   1      -1.098   0.065   0.807  0.00  0.00    -0.077 A 
ATOM      3  C2  UNL d   1       0.130   0.587   0.381  0.00  0.00    -0.001 A 
ATOM      4  C3  UNL d   1       0.831   1.487   1.185  0.00  0.00     0.003 A 
ATOM      5  C4  UNL d   1       0.313   1.873   2.420  0.00  0.00    -0.005 A 
ATOM      6  C5  UNL d   1      -0.907   1.358   2.852  0.00  0.00     0.003 A 
ATOM      7  C6  UNL d   1      -1.610   0.457   2.050  0.00  0.00    -0.001 A 
ENDROOT
TORSDOF 0
ENDMDL
