MODEL 1
REMARK minimizedAffinity -5.10700464
REMARK minimizedRMSD -1
REMARK  0 active torsions:
REMARK  status: ('A' for Active; 'I' for Inactive)
ROOT
ATOM      1  C   UNL d   1      -0.309   1.552   2.283  0.00  0.00     0.078 C 
ATOM      2  C1  UNL d   1       0.080   0.463   1.329  0.00  0.00    -0.077 A 
ATOM      3  C2  UNL d   1      -0.528   0.354   0.072  0.00  0.00    -0.001 A 
ATOM      4  C3  UNL d   1      -0.163  -0.671  -0.802  0.00  0.00     0.003 A 
ATOM      5  C4  UNL d   1       0.810  -1.596  -0.428  0.00  0.00    -0.005 A 
ATOM      6  C5  UNL d   1       1.419  -1.497   0.821  0.00  0.00     0.003 A 
ATOM      7  C6  UNL d   1       1.055  -0.473   1.697  0.00  0.00    -0.001 A 
ENDROOT
TORSDOF 0
ENDMDL
