MODEL 1
REMARK minimizedAffinity -3.51381254
REMARK minimizedRMSD -1
REMARK  0 active torsions:
REMARK  status: ('A' for Active; 'I' for Inactive)
ROOT
ATOM      1  C   UNL d   1       0.377  -0.377  -1.634  0.00  0.00     0.078 C 
ATOM      2  C1  UNL d   1      -0.076   0.114  -0.291  0.00  0.00    -0.077 A 
ATOM      3  C2  UNL d   1       0.594   1.159   0.357  0.00  0.00    -0.001 A 
ATOM      4  C3  UNL d   1       0.167   1.599   1.611  0.00  0.00     0.003 A 
ATOM      5  C4  UNL d   1      -0.930   1.000   2.228  0.00  0.00    -0.005 A 
ATOM      6  C5  UNL d   1      -1.601  -0.042   1.591  0.00  0.00     0.003 A 
ATOM      7  C6  UNL d   1      -1.176  -0.484   0.337  0.00  0.00    -0.001 A 
ENDROOT
TORSDOF 0
ENDMDL
