MODEL 1
REMARK minimizedAffinity -4.27303839
REMARK minimizedRMSD -1
REMARK  0 active torsions:
REMARK  status: ('A' for Active; 'I' for Inactive)
ROOT
ATOM      1  C   UNL d   1      -0.016  -1.288  -0.731  0.00  0.00     0.078 C 
ATOM      2  C1  UNL d   1      -0.300  -0.259   0.323  0.00  0.00    -0.077 A 
ATOM      3  C2  UNL d   1       0.364   0.973   0.324  0.00  0.00    -0.001 A 
ATOM      4  C3  UNL d   1       0.097   1.918   1.317  0.00  0.00     0.003 A 
ATOM      5  C4  UNL d   1      -0.834   1.639   2.316  0.00  0.00    -0.005 A 
ATOM      6  C5  UNL d   1      -1.498   0.414   2.324  0.00  0.00     0.003 A 
ATOM      7  C6  UNL d   1      -1.232  -0.532   1.332  0.00  0.00    -0.001 A 
ENDROOT
TORSDOF 0
ENDMDL
