MODEL 1
REMARK minimizedAffinity -4.0382719
REMARK minimizedRMSD -1
REMARK  0 active torsions:
REMARK  status: ('A' for Active; 'I' for Inactive)
ROOT
ATOM      1  C   UNL d   1      -2.022  -1.510   0.305  0.00  0.00     0.078 C 
ATOM      2  C1  UNL d   1      -0.760  -0.820   0.728  0.00  0.00    -0.077 A 
ATOM      3  C2  UNL d   1       0.489  -1.430   0.555  0.00  0.00    -0.001 A 
ATOM      4  C3  UNL d   1       1.655  -0.779   0.962  0.00  0.00     0.003 A 
ATOM      5  C4  UNL d   1       1.584   0.483   1.547  0.00  0.00    -0.005 A 
ATOM      6  C5  UNL d   1       0.346   1.097   1.726  0.00  0.00     0.003 A 
ATOM      7  C6  UNL d   1      -0.821   0.449   1.319  0.00  0.00    -0.001 A 
ENDROOT
TORSDOF 0
ENDMDL
