MODEL 1
REMARK minimizedAffinity -0.837577999
REMARK minimizedRMSD -1
REMARK  1 active torsions:
REMARK  status: ('A' for Active; 'I' for Inactive)
REMARK    1  A    between atoms: C1_2  and  C2_3 
ROOT
ATOM      1  C2  UNL d   1      -4.653   2.311  -3.067  0.00  0.00    -0.077 A 
ATOM      2  C3  UNL d   1      -3.255   2.296  -2.958  0.00  0.00     0.002 A 
ATOM      3  C4  UNL d   1      -2.501   1.363  -3.673  0.00  0.00     0.002 A 
ATOM      4  C5  UNL d   1      -3.135   0.442  -4.504  0.00  0.00    -0.004 A 
ATOM      5  C6  UNL d   1      -4.525   0.448  -4.618  0.00  0.00     0.002 A 
ATOM      6  C7  UNL d   1      -5.280   1.379  -3.903  0.00  0.00     0.002 A 
ENDROOT
BRANCH   1   7
ATOM      7  C1  UNL d   1      -5.464   3.348  -2.335  0.00  0.00     0.055 C 
ATOM      8  C   UNL d   1      -4.588   4.196  -1.424  0.00  0.00     0.019 C 
ENDBRANCH   1   7
TORSDOF 1
ENDMDL
