MODEL 1
REMARK minimizedAffinity 3.54128909
REMARK minimizedRMSD -1
REMARK  0 active torsions:
REMARK  status: ('A' for Active; 'I' for Inactive)
ROOT
ATOM      1  C   UNL d   1      -5.995  -4.004  -5.162  0.00  0.00    -0.002 A 
ATOM      2  C1  UNL d   1      -5.719  -2.666  -4.916  0.00  0.00     0.010 A 
ATOM      3  C2  UNL d   1      -4.416  -2.178  -5.025  0.00  0.00     0.041 A 
ATOM      4  C3  UNL d   1      -3.384  -3.065  -5.390  0.00  0.00    -0.075 A 
ATOM      5  S   UNL d   1      -1.712  -2.691  -5.585  0.00  0.00     0.015 SA
ATOM      6  C4  UNL d   1      -1.325  -4.298  -6.000  0.00  0.00     0.022 A 
ATOM      7  C5  UNL d   1      -2.431  -5.113  -5.994  0.00  0.00     0.026 A 
ATOM      8  C6  UNL d   1      -3.637  -4.416  -5.643  0.00  0.00    -0.082 A 
ATOM      9  C7  UNL d   1      -4.969  -4.881  -5.523  0.00  0.00     0.045 A 
ENDROOT
TORSDOF 0
ENDMDL
