MODEL 1
REMARK minimizedAffinity 1.43800366
REMARK minimizedRMSD -1
REMARK  0 active torsions:
REMARK  status: ('A' for Active; 'I' for Inactive)
ROOT
ATOM      1  C   UNL d   1      -6.000  -1.328  -1.110  0.00  0.00    -0.002 A 
ATOM      2  C1  UNL d   1      -6.000  -1.119   0.262  0.00  0.00     0.010 A 
ATOM      3  C2  UNL d   1      -5.935  -2.199   1.145  0.00  0.00     0.041 A 
ATOM      4  C3  UNL d   1      -5.867  -3.505   0.620  0.00  0.00    -0.075 A 
ATOM      5  S   UNL d   1      -5.779  -4.979   1.510  0.00  0.00     0.015 SA
ATOM      6  C4  UNL d   1      -5.739  -5.921   0.090  0.00  0.00     0.022 A 
ATOM      7  C5  UNL d   1      -5.791  -5.145  -1.044  0.00  0.00     0.026 A 
ATOM      8  C6  UNL d   1      -5.865  -3.740  -0.757  0.00  0.00    -0.082 A 
ATOM      9  C7  UNL d   1      -5.933  -2.625  -1.626  0.00  0.00     0.045 A 
ENDROOT
TORSDOF 0
ENDMDL
