MODEL 1
REMARK minimizedAffinity 17.7783794
REMARK minimizedRMSD -1
REMARK  0 active torsions:
REMARK  status: ('A' for Active; 'I' for Inactive)
ROOT
ATOM      1  C   UNL d   1       0.763   1.750  -0.421  0.00  0.00    -0.002 A 
ATOM      2  C1  UNL d   1       1.838   2.292  -1.110  0.00  0.00     0.010 A 
ATOM      3  C2  UNL d   1       2.315   1.684  -2.273  0.00  0.00     0.041 A 
ATOM      4  C3  UNL d   1       1.686   0.512  -2.737  0.00  0.00    -0.075 A 
ATOM      5  S   UNL d   1       2.098  -0.405  -4.138  0.00  0.00     0.015 SA
ATOM      6  C4  UNL d   1       0.856  -1.536  -3.855  0.00  0.00     0.022 A 
ATOM      7  C5  UNL d   1       0.135  -1.238  -2.723  0.00  0.00     0.026 A 
ATOM      8  C6  UNL d   1       0.601  -0.052  -2.060  0.00  0.00    -0.082 A 
ATOM      9  C7  UNL d   1       0.141   0.587  -0.884  0.00  0.00     0.045 A 
ENDROOT
TORSDOF 0
ENDMDL
