MODEL 1
REMARK minimizedAffinity 10.7488356
REMARK minimizedRMSD -1
REMARK  0 active torsions:
REMARK  status: ('A' for Active; 'I' for Inactive)
ROOT
ATOM      1  C   UNL d   1      -5.995  -5.614  -1.375  0.00  0.00    -0.002 A 
ATOM      2  C1  UNL d   1      -5.996  -5.957  -2.720  0.00  0.00     0.010 A 
ATOM      3  C2  UNL d   1      -5.999  -4.968  -3.705  0.00  0.00     0.041 A 
ATOM      4  C3  UNL d   1      -5.998  -3.615  -3.313  0.00  0.00    -0.075 A 
ATOM      5  S   UNL d   1      -6.000  -2.234  -4.345  0.00  0.00     0.015 SA
ATOM      6  C4  UNL d   1      -5.998  -1.155  -3.025  0.00  0.00     0.022 A 
ATOM      7  C5  UNL d   1      -5.997  -1.816  -1.819  0.00  0.00     0.026 A 
ATOM      8  C6  UNL d   1      -5.996  -3.244  -1.965  0.00  0.00    -0.082 A 
ATOM      9  C7  UNL d   1      -5.995  -4.270  -0.990  0.00  0.00     0.045 A 
ENDROOT
TORSDOF 0
ENDMDL
