MODEL 1
REMARK minimizedAffinity 20.2428951
REMARK minimizedRMSD -1
REMARK  0 active torsions:
REMARK  status: ('A' for Active; 'I' for Inactive)
ROOT
ATOM      1  C   UNL d   1       2.300   2.846  -1.508  0.00  0.00    -0.002 A 
ATOM      2  C1  UNL d   1       1.267   1.920  -1.505  0.00  0.00     0.010 A 
ATOM      3  C2  UNL d   1       0.625   1.576  -0.314  0.00  0.00     0.041 A 
ATOM      4  C3  UNL d   1       1.041   2.187   0.886  0.00  0.00    -0.075 A 
ATOM      5  S   UNL d   1       0.400   1.922   2.464  0.00  0.00     0.015 SA
ATOM      6  C4  UNL d   1       1.481   3.034   3.171  0.00  0.00     0.022 A 
ATOM      7  C5  UNL d   1       2.318   3.602   2.240  0.00  0.00     0.026 A 
ATOM      8  C6  UNL d   1       2.078   3.124   0.907  0.00  0.00    -0.082 A 
ATOM      9  C7  UNL d   1       2.710   3.451  -0.317  0.00  0.00     0.045 A 
ENDROOT
TORSDOF 0
ENDMDL
