MODEL 1
REMARK minimizedAffinity 18.1447124
REMARK minimizedRMSD -1
REMARK  0 active torsions:
REMARK  status: ('A' for Active; 'I' for Inactive)
ROOT
ATOM      1  C   UNL d   1       1.709   1.782  -1.198  0.00  0.00    -0.002 A 
ATOM      2  C1  UNL d   1       0.474   2.332  -1.508  0.00  0.00     0.010 A 
ATOM      3  C2  UNL d   1      -0.257   1.864  -2.602  0.00  0.00     0.041 A 
ATOM      4  C3  UNL d   1       0.279   0.823  -3.385  0.00  0.00    -0.075 A 
ATOM      5  S   UNL d   1      -0.438   0.089  -4.771  0.00  0.00     0.015 SA
ATOM      6  C4  UNL d   1       0.879  -0.972  -4.983  0.00  0.00     0.022 A 
ATOM      7  C5  UNL d   1       1.851  -0.785  -4.029  0.00  0.00     0.026 A 
ATOM      8  C6  UNL d   1       1.521   0.252  -3.092  0.00  0.00    -0.082 A 
ATOM      9  C7  UNL d   1       2.238   0.750  -1.977  0.00  0.00     0.045 A 
ENDROOT
TORSDOF 0
ENDMDL
