MODEL 1
REMARK minimizedAffinity 16.3560715
REMARK minimizedRMSD -1
REMARK  0 active torsions:
REMARK  status: ('A' for Active; 'I' for Inactive)
ROOT
ATOM      1  C   UNL d   1      -5.870  -1.599  -2.930  0.00  0.00    -0.002 A 
ATOM      2  C1  UNL d   1      -5.999  -2.175  -4.186  0.00  0.00     0.010 A 
ATOM      3  C2  UNL d   1      -5.730  -3.532  -4.377  0.00  0.00     0.041 A 
ATOM      4  C3  UNL d   1      -5.326  -4.308  -3.273  0.00  0.00    -0.075 A 
ATOM      5  S   UNL d   1      -4.944  -5.989  -3.269  0.00  0.00     0.015 SA
ATOM      6  C4  UNL d   1      -4.600  -5.983  -1.599  0.00  0.00     0.022 A 
ATOM      7  C5  UNL d   1      -4.768  -4.737  -1.043  0.00  0.00     0.026 A 
ATOM      8  C6  UNL d   1      -5.189  -3.752  -1.998  0.00  0.00    -0.082 A 
ATOM      9  C7  UNL d   1      -5.469  -2.373  -1.837  0.00  0.00     0.045 A 
ENDROOT
TORSDOF 0
ENDMDL
