MODEL 1
REMARK minimizedAffinity 9.34030914
REMARK minimizedRMSD -1
REMARK  0 active torsions:
REMARK  status: ('A' for Active; 'I' for Inactive)
ROOT
ATOM      1  C   UNL d   1       1.244   1.984   0.017  0.00  0.00    -0.002 A 
ATOM      2  C1  UNL d   1       1.913   2.832  -0.854  0.00  0.00     0.010 A 
ATOM      3  C2  UNL d   1       2.121   2.464  -2.185  0.00  0.00     0.041 A 
ATOM      4  C3  UNL d   1       1.637   1.218  -2.630  0.00  0.00    -0.075 A 
ATOM      5  S   UNL d   1       1.773   0.556  -4.217  0.00  0.00     0.015 SA
ATOM      6  C4  UNL d   1       0.945  -0.866  -3.776  0.00  0.00     0.022 A 
ATOM      7  C5  UNL d   1       0.567  -0.854  -2.454  0.00  0.00     0.026 A 
ATOM      8  C6  UNL d   1       0.959   0.347  -1.772  0.00  0.00    -0.082 A 
ATOM      9  C7  UNL d   1       0.765   0.749  -0.429  0.00  0.00     0.045 A 
ENDROOT
TORSDOF 0
ENDMDL
