MODEL 1
REMARK minimizedAffinity 15.1236448
REMARK minimizedRMSD -1
REMARK  0 active torsions:
REMARK  status: ('A' for Active; 'I' for Inactive)
ROOT
ATOM      1  C   UNL d   1       4.087   5.233  -4.318  0.00  0.00    -0.002 A 
ATOM      2  C1  UNL d   1       4.434   4.006  -4.864  0.00  0.00     0.010 A 
ATOM      3  C2  UNL d   1       4.095   2.818  -4.213  0.00  0.00     0.041 A 
ATOM      4  C3  UNL d   1       3.394   2.885  -2.993  0.00  0.00    -0.075 A 
ATOM      5  S   UNL d   1       2.873   1.561  -2.020  0.00  0.00     0.015 SA
ATOM      6  C4  UNL d   1       2.177   2.594  -0.856  0.00  0.00     0.022 A 
ATOM      7  C5  UNL d   1       2.329   3.919  -1.187  0.00  0.00     0.026 A 
ATOM      8  C6  UNL d   1       3.032   4.109  -2.424  0.00  0.00    -0.082 A 
ATOM      9  C7  UNL d   1       3.391   5.296  -3.108  0.00  0.00     0.045 A 
ENDROOT
TORSDOF 0
ENDMDL
