MODEL 1
REMARK minimizedAffinity 12.3983278
REMARK minimizedRMSD -1
REMARK  0 active torsions:
REMARK  status: ('A' for Active; 'I' for Inactive)
ROOT
ATOM      1  C   UNL d   1       1.128   2.088  -0.788  0.00  0.00    -0.002 A 
ATOM      2  C1  UNL d   1       2.366   2.468  -1.288  0.00  0.00     0.010 A 
ATOM      3  C2  UNL d   1       2.975   1.733  -2.307  0.00  0.00     0.041 A 
ATOM      4  C3  UNL d   1       2.313   0.601  -2.821  0.00  0.00    -0.075 A 
ATOM      5  S   UNL d   1       2.867  -0.450  -4.070  0.00  0.00     0.015 SA
ATOM      6  C4  UNL d   1       1.474  -1.427  -3.970  0.00  0.00     0.022 A 
ATOM      7  C5  UNL d   1       0.597  -0.977  -3.011  0.00  0.00     0.026 A 
ATOM      8  C6  UNL d   1       1.066   0.199  -2.334  0.00  0.00    -0.082 A 
ATOM      9  C7  UNL d   1       0.474   0.965  -1.300  0.00  0.00     0.045 A 
ENDROOT
TORSDOF 0
ENDMDL
