MODEL 1
REMARK minimizedAffinity 14.3384533
REMARK minimizedRMSD -1
REMARK  0 active torsions:
REMARK  status: ('A' for Active; 'I' for Inactive)
ROOT
ATOM      1  C   UNL d   1      -1.291  -1.480   1.349  0.00  0.00    -0.002 A 
ATOM      2  C1  UNL d   1      -1.295  -0.102   1.516  0.00  0.00     0.010 A 
ATOM      3  C2  UNL d   1      -0.688   0.729   0.572  0.00  0.00     0.041 A 
ATOM      4  C3  UNL d   1      -0.072   0.147  -0.554  0.00  0.00    -0.075 A 
ATOM      5  S   UNL d   1       0.732   0.967  -1.839  0.00  0.00     0.015 SA
ATOM      6  C4  UNL d   1       1.099  -0.492  -2.640  0.00  0.00     0.022 A 
ATOM      7  C5  UNL d   1       0.627  -1.588  -1.958  0.00  0.00     0.026 A 
ATOM      8  C6  UNL d   1      -0.057  -1.238  -0.744  0.00  0.00    -0.082 A 
ATOM      9  C7  UNL d   1      -0.680  -2.054   0.231  0.00  0.00     0.045 A 
ENDROOT
TORSDOF 0
ENDMDL
