MODEL 1
REMARK minimizedAffinity 22.485939
REMARK minimizedRMSD -1
REMARK  0 active torsions:
REMARK  status: ('A' for Active; 'I' for Inactive)
ROOT
ATOM      1  C   UNL d   1       1.279   0.511  -4.509  0.00  0.00    -0.002 A 
ATOM      2  C1  UNL d   1       1.735  -0.763  -4.198  0.00  0.00     0.010 A 
ATOM      3  C2  UNL d   1       0.938  -1.882  -4.446  0.00  0.00     0.041 A 
ATOM      4  C3  UNL d   1      -0.336  -1.699  -5.018  0.00  0.00    -0.075 A 
ATOM      5  S   UNL d   1      -1.485  -2.922  -5.410  0.00  0.00     0.015 SA
ATOM      6  C4  UNL d   1      -2.608  -1.784  -6.000  0.00  0.00     0.022 A 
ATOM      7  C5  UNL d   1      -2.134  -0.497  -5.907  0.00  0.00     0.026 A 
ATOM      8  C6  UNL d   1      -0.817  -0.426  -5.340  0.00  0.00    -0.082 A 
ATOM      9  C7  UNL d   1       0.015   0.689  -5.076  0.00  0.00     0.045 A 
ENDROOT
TORSDOF 0
ENDMDL
