MODEL 1
REMARK minimizedAffinity 3.61948681
REMARK minimizedRMSD -1
REMARK  0 active torsions:
REMARK  status: ('A' for Active; 'I' for Inactive)
ROOT
ATOM      1  C2' OXE d   1      -2.586   3.302  -4.543  0.00  0.00     0.078 C 
ATOM      2  C1' OXE d   1      -5.340   3.780  -4.282  0.00  0.00     0.078 C 
ATOM      3  C1  OXE d   1      -4.907   2.446  -4.836  0.00  0.00    -0.078 A 
ATOM      4  C2  OXE d   1      -3.559   2.238  -5.004  0.00  0.00    -0.078 A 
ATOM      5  C3  OXE d   1      -3.103   1.005  -5.460  0.00  0.00     0.003 A 
ATOM      6  C4  OXE d   1      -4.010   0.030  -5.893  0.00  0.00    -0.002 A 
ATOM      7  C5  OXE d   1      -5.388   0.236  -5.768  0.00  0.00    -0.002 A 
ATOM      8  C6  OXE d   1      -5.851   1.419  -5.203  0.00  0.00     0.003 A 
ENDROOT
TORSDOF 0
ENDMDL
