MODEL 1
REMARK minimizedAffinity 7.37343454
REMARK minimizedRMSD -1
REMARK  0 active torsions:
REMARK  status: ('A' for Active; 'I' for Inactive)
ROOT
ATOM      1  C2' OXE d   1       1.048   2.870  -3.852  0.00  0.00     0.078 C 
ATOM      2  C1' OXE d   1       1.961   0.216  -3.841  0.00  0.00     0.078 C 
ATOM      3  C1  OXE d   1       1.992   0.976  -2.538  0.00  0.00    -0.078 A 
ATOM      4  C2  OXE d   1       1.586   2.288  -2.563  0.00  0.00    -0.078 A 
ATOM      5  C3  OXE d   1       1.543   3.018  -1.378  0.00  0.00     0.003 A 
ATOM      6  C4  OXE d   1       2.052   2.476  -0.192  0.00  0.00    -0.002 A 
ATOM      7  C5  OXE d   1       2.507   1.154  -0.154  0.00  0.00    -0.002 A 
ATOM      8  C6  OXE d   1       2.444   0.378  -1.306  0.00  0.00     0.003 A 
ENDROOT
TORSDOF 0
ENDMDL
