MODEL 1
REMARK minimizedAffinity 0.828426182
REMARK minimizedRMSD -1
REMARK  0 active torsions:
REMARK  status: ('A' for Active; 'I' for Inactive)
ROOT
ATOM      1  C2' OXE d   1       1.381   2.866  -0.510  0.00  0.00     0.078 C 
ATOM      2  C1' OXE d   1       1.990   2.579  -3.235  0.00  0.00     0.078 C 
ATOM      3  C1  OXE d   1       2.063   1.349  -2.364  0.00  0.00    -0.078 A 
ATOM      4  C2  OXE d   1       1.809   1.509  -1.023  0.00  0.00    -0.078 A 
ATOM      5  C3  OXE d   1       1.809   0.397  -0.185  0.00  0.00     0.003 A 
ATOM      6  C4  OXE d   1       2.216  -0.853  -0.665  0.00  0.00    -0.002 A 
ATOM      7  C5  OXE d   1       2.518  -1.029  -2.020  0.00  0.00    -0.002 A 
ATOM      8  C6  OXE d   1       2.405   0.051  -2.889  0.00  0.00     0.003 A 
ENDROOT
TORSDOF 0
ENDMDL
