MODEL 1
REMARK minimizedAffinity 7.26106119
REMARK minimizedRMSD -1
REMARK  0 active torsions:
REMARK  status: ('A' for Active; 'I' for Inactive)
ROOT
ATOM      1  C2' OXE d   1       1.687   2.682  -2.950  0.00  0.00     0.078 C 
ATOM      2  C1' OXE d   1       2.324   2.634  -0.216  0.00  0.00     0.078 C 
ATOM      3  C1  OXE d   1       2.193   1.313  -0.931  0.00  0.00    -0.078 A 
ATOM      4  C2  OXE d   1       1.836   1.344  -2.258  0.00  0.00    -0.078 A 
ATOM      5  C3  OXE d   1       1.755   0.156  -2.978  0.00  0.00     0.003 A 
ATOM      6  C4  OXE d   1       1.884  -1.077  -2.328  0.00  0.00    -0.002 A 
ATOM      7  C5  OXE d   1       2.209  -1.133  -0.969  0.00  0.00    -0.002 A 
ATOM      8  C6  OXE d   1       2.409   0.051  -0.267  0.00  0.00     0.003 A 
ENDROOT
TORSDOF 0
ENDMDL
