MODEL 1
REMARK minimizedAffinity 5.38891411
REMARK minimizedRMSD -1
REMARK  0 active torsions:
REMARK  status: ('A' for Active; 'I' for Inactive)
ROOT
ATOM      1  C2' OXE d   1      -1.418  -1.313   1.011  0.00  0.00     0.078 C 
ATOM      2  C1' OXE d   1      -1.676   0.525   3.116  0.00  0.00     0.078 C 
ATOM      3  C1  OXE d   1      -0.328  -0.119   2.906  0.00  0.00    -0.078 A 
ATOM      4  C2  OXE d   1      -0.223  -1.052   1.903  0.00  0.00    -0.078 A 
ATOM      5  C3  OXE d   1       1.011  -1.636   1.631  0.00  0.00     0.003 A 
ATOM      6  C4  OXE d   1       2.108  -1.397   2.468  0.00  0.00    -0.002 A 
ATOM      7  C5  OXE d   1       2.012  -0.480   3.520  0.00  0.00    -0.002 A 
ATOM      8  C6  OXE d   1       0.815   0.198   3.726  0.00  0.00     0.003 A 
ENDROOT
TORSDOF 0
ENDMDL
