MODEL 1
REMARK minimizedAffinity -0.185567021
REMARK minimizedRMSD -1
REMARK  0 active torsions:
REMARK  status: ('A' for Active; 'I' for Inactive)
ROOT
ATOM      1  C2' OXE d   1       2.815  -3.062   0.889  0.00  0.00     0.078 C 
ATOM      2  C1' OXE d   1       0.331  -1.918   1.522  0.00  0.00     0.078 C 
ATOM      3  C1  OXE d   1       1.024  -1.446   0.268  0.00  0.00    -0.078 A 
ATOM      4  C2  OXE d   1       2.261  -1.977  -0.009  0.00  0.00    -0.078 A 
ATOM      5  C3  OXE d   1       2.919  -1.616  -1.181  0.00  0.00     0.003 A 
ATOM      6  C4  OXE d   1       2.404  -0.605  -2.001  0.00  0.00    -0.002 A 
ATOM      7  C5  OXE d   1       1.164  -0.022  -1.715  0.00  0.00    -0.002 A 
ATOM      8  C6  OXE d   1       0.443  -0.461  -0.610  0.00  0.00     0.003 A 
ENDROOT
TORSDOF 0
ENDMDL
