MODEL 1
REMARK minimizedAffinity 3.75829124
REMARK minimizedRMSD -1
REMARK  0 active torsions:
REMARK  status: ('A' for Active; 'I' for Inactive)
ROOT
ATOM      1  C2' OXE d   1       0.829  -1.607   2.545  0.00  0.00     0.078 C 
ATOM      2  C1' OXE d   1      -1.341  -0.950   0.889  0.00  0.00     0.078 C 
ATOM      3  C1  OXE d   1       0.017  -1.084   0.248  0.00  0.00    -0.078 A 
ATOM      4  C2  OXE d   1       1.081  -1.360   1.073  0.00  0.00    -0.078 A 
ATOM      5  C3  OXE d   1       2.347  -1.548   0.526  0.00  0.00     0.003 A 
ATOM      6  C4  OXE d   1       2.574  -1.307  -0.835  0.00  0.00    -0.002 A 
ATOM      7  C5  OXE d   1       1.511  -0.986  -1.686  0.00  0.00    -0.002 A 
ATOM      8  C6  OXE d   1       0.222  -0.913  -1.169  0.00  0.00     0.003 A 
ENDROOT
TORSDOF 0
ENDMDL
