MODEL 1
REMARK minimizedAffinity -2.65910053
REMARK minimizedRMSD -1
REMARK  1 active torsions:
REMARK  status: ('A' for Active; 'I' for Inactive)
REMARK    1  A    between atoms: C1_2  and  C2_3 
ROOT
ATOM      1  C2  UNL d   1      -1.263   0.742   0.114  0.00  0.00    -0.077 A 
ATOM      2  C3  UNL d   1      -0.445  -0.258   0.658  0.00  0.00     0.002 A 
ATOM      3  C4  UNL d   1       0.855   0.040   1.071  0.00  0.00     0.002 A 
ATOM      4  C5  UNL d   1       1.346   1.338   0.947  0.00  0.00    -0.004 A 
ATOM      5  C6  UNL d   1       0.541   2.339   0.406  0.00  0.00     0.002 A 
ATOM      6  C7  UNL d   1      -0.758   2.042  -0.008  0.00  0.00     0.002 A 
ENDROOT
BRANCH   1   7
ATOM      7  C1  UNL d   1      -2.683   0.433  -0.286  0.00  0.00     0.055 C 
ATOM      8  C   UNL d   1      -3.673   0.939   0.753  0.00  0.00     0.019 C 
ENDBRANCH   1   7
TORSDOF 1
ENDMDL
