MODEL 1
REMARK minimizedAffinity -4.41402817
REMARK minimizedRMSD -1
REMARK  1 active torsions:
REMARK  status: ('A' for Active; 'I' for Inactive)
REMARK    1  A    between atoms: C1_2  and  C2_3 
ROOT
ATOM      1  C2  UNL d   1       0.275  -0.655  -0.096  0.00  0.00    -0.077 A 
ATOM      2  C3  UNL d   1       1.055  -0.083   0.918  0.00  0.00     0.002 A 
ATOM      3  C4  UNL d   1       2.259  -0.677   1.303  0.00  0.00     0.002 A 
ATOM      4  C5  UNL d   1       2.693  -1.843   0.677  0.00  0.00    -0.004 A 
ATOM      5  C6  UNL d   1       1.923  -2.421  -0.331  0.00  0.00     0.002 A 
ATOM      6  C7  UNL d   1       0.720  -1.829  -0.717  0.00  0.00     0.002 A 
ENDROOT
BRANCH   1   7
ATOM      7  C1  UNL d   1      -0.999   0.012  -0.547  0.00  0.00     0.055 C 
ATOM      8  C   UNL d   1      -1.909   0.322   0.632  0.00  0.00     0.019 C 
ENDBRANCH   1   7
TORSDOF 1
ENDMDL
