MODEL 1
REMARK minimizedAffinity -5.11905479
REMARK minimizedRMSD -1
REMARK  1 active torsions:
REMARK  status: ('A' for Active; 'I' for Inactive)
REMARK    1  A    between atoms: C1_2  and  C2_3 
ROOT
ATOM      1  C2  UNL d   1       0.305  -0.073  -0.127  0.00  0.00    -0.077 A 
ATOM      2  C3  UNL d   1       1.056   0.387   0.964  0.00  0.00     0.002 A 
ATOM      3  C4  UNL d   1       2.110  -0.377   1.469  0.00  0.00     0.002 A 
ATOM      4  C5  UNL d   1       2.425  -1.603   0.887  0.00  0.00    -0.004 A 
ATOM      5  C6  UNL d   1       1.682  -2.071  -0.196  0.00  0.00     0.002 A 
ATOM      6  C7  UNL d   1       0.628  -1.309  -0.702  0.00  0.00     0.002 A 
ENDROOT
BRANCH   1   7
ATOM      7  C1  UNL d   1      -0.800   0.772  -0.704  0.00  0.00     0.055 C 
ATOM      8  C   UNL d   1      -2.045   0.727   0.170  0.00  0.00     0.019 C 
ENDBRANCH   1   7
TORSDOF 1
ENDMDL
