MODEL 1
REMARK minimizedAffinity -4.28600311
REMARK minimizedRMSD -1
REMARK  1 active torsions:
REMARK  status: ('A' for Active; 'I' for Inactive)
REMARK    1  A    between atoms: C1_2  and  C2_3 
ROOT
ATOM      1  C2  UNL d   1       0.079  -0.109  -0.274  0.00  0.00    -0.077 A 
ATOM      2  C3  UNL d   1       0.806   0.089   0.908  0.00  0.00     0.002 A 
ATOM      3  C4  UNL d   1       1.883  -0.742   1.222  0.00  0.00     0.002 A 
ATOM      4  C5  UNL d   1       2.244  -1.774   0.359  0.00  0.00    -0.004 A 
ATOM      5  C6  UNL d   1       1.526  -1.980  -0.818  0.00  0.00     0.002 A 
ATOM      6  C7  UNL d   1       0.449  -1.151  -1.134  0.00  0.00     0.002 A 
ENDROOT
BRANCH   1   7
ATOM      7  C1  UNL d   1      -1.052   0.817  -0.640  0.00  0.00     0.055 C 
ATOM      8  C   UNL d   1      -1.991   1.036   0.538  0.00  0.00     0.019 C 
ENDBRANCH   1   7
TORSDOF 1
ENDMDL
