MODEL 1
REMARK minimizedAffinity 13.6594172
REMARK minimizedRMSD -1
REMARK  3 active torsions:
REMARK  status: ('A' for Active; 'I' for Inactive)
REMARK    1  A    between atoms: C3'_2  and  C2'_3 
REMARK    2  A    between atoms: C2'_3  and  C1'_4 
REMARK    3  A    between atoms: C1'_4  and  C1_5 
ROOT
ATOM      1  C1  N4B d   1      -4.883  -2.736  -5.229  0.00  0.00    -0.075 A 
ATOM      2  C2  N4B d   1      -5.865  -3.413  -5.986  0.00  0.00     0.002 A 
ATOM      3  C3  N4B d   1      -5.895  -4.786  -6.000  0.00  0.00     0.002 A 
ATOM      4  C4  N4B d   1      -4.946  -5.500  -5.283  0.00  0.00    -0.004 A 
ATOM      5  C5  N4B d   1      -4.018  -4.838  -4.534  0.00  0.00     0.002 A 
ATOM      6  C6  N4B d   1      -3.978  -3.458  -4.507  0.00  0.00     0.002 A 
ENDROOT
BRANCH   1   7
ATOM      7  C1' N4B d   1      -4.758  -1.237  -5.251  0.00  0.00     0.057 C 
BRANCH   7   8
ATOM      8  C2' N4B d   1      -4.092  -0.771  -3.959  0.00  0.00     0.009 C 
BRANCH   8   9
ATOM      9  C3' N4B d   1      -4.177   0.736  -3.788  0.00  0.00     0.004 C 
ATOM     10  C4' N4B d   1      -3.085   1.284  -2.918  0.00  0.00     0.003 C 
ENDBRANCH   8   9
ENDBRANCH   7   8
ENDBRANCH   1   7
TORSDOF 3
ENDMDL
