MODEL 1
REMARK minimizedAffinity 9.37522221
REMARK minimizedRMSD -1
REMARK  3 active torsions:
REMARK  status: ('A' for Active; 'I' for Inactive)
REMARK    1  A    between atoms: C3'_2  and  C2'_3 
REMARK    2  A    between atoms: C2'_3  and  C1'_4 
REMARK    3  A    between atoms: C1'_4  and  C1_5 
ROOT
ATOM      1  C1  N4B d   1      -4.823  -3.154  -3.940  0.00  0.00    -0.075 A 
ATOM      2  C2  N4B d   1      -4.791  -4.563  -3.861  0.00  0.00     0.002 A 
ATOM      3  C3  N4B d   1      -5.366  -5.320  -4.852  0.00  0.00     0.002 A 
ATOM      4  C4  N4B d   1      -5.994  -4.692  -5.918  0.00  0.00    -0.004 A 
ATOM      5  C5  N4B d   1      -5.998  -3.330  -5.999  0.00  0.00     0.002 A 
ATOM      6  C6  N4B d   1      -5.420  -2.557  -5.012  0.00  0.00     0.002 A 
ENDROOT
BRANCH   1   7
ATOM      7  C1' N4B d   1      -4.283  -2.284  -2.838  0.00  0.00     0.057 C 
BRANCH   7   8
ATOM      8  C2' N4B d   1      -4.158  -0.851  -3.347  0.00  0.00     0.009 C 
BRANCH   8   9
ATOM      9  C3' N4B d   1      -3.212  -0.025  -2.492  0.00  0.00     0.004 C 
ATOM     10  C4' N4B d   1      -3.440   1.450  -2.633  0.00  0.00     0.003 C 
ENDBRANCH   8   9
ENDBRANCH   7   8
ENDBRANCH   1   7
TORSDOF 3
ENDMDL
