MODEL 1
REMARK minimizedAffinity -4.93135691
REMARK minimizedRMSD -1
REMARK  0 active torsions:
REMARK  status: ('A' for Active; 'I' for Inactive)
ROOT
ATOM      1  C   UNL d   1      -1.126   2.982  -1.882  0.00  0.00     0.078 C 
ATOM      2  C1  UNL d   1      -0.904   2.361  -0.536  0.00  0.00    -0.077 A 
ATOM      3  C2  UNL d   1      -0.993   3.125   0.635  0.00  0.00    -0.001 A 
ATOM      4  C3  UNL d   1      -0.775   2.535   1.881  0.00  0.00     0.003 A 
ATOM      5  C4  UNL d   1      -0.465   1.180   1.969  0.00  0.00    -0.005 A 
ATOM      6  C5  UNL d   1      -0.371   0.412   0.810  0.00  0.00     0.003 A 
ATOM      7  C6  UNL d   1      -0.589   1.000  -0.437  0.00  0.00    -0.001 A 
ENDROOT
TORSDOF 0
ENDMDL
