MODEL 1
REMARK minimizedAffinity -4.42452621
REMARK minimizedRMSD -1
REMARK  0 active torsions:
REMARK  status: ('A' for Active; 'I' for Inactive)
ROOT
ATOM      1  C   UNL d   1      -1.762   2.265   1.628  0.00  0.00     0.078 C 
ATOM      2  C1  UNL d   1      -0.781   1.374   0.927  0.00  0.00    -0.077 A 
ATOM      3  C2  UNL d   1       0.234   0.719   1.636  0.00  0.00    -0.001 A 
ATOM      4  C3  UNL d   1       1.146  -0.099   0.968  0.00  0.00     0.003 A 
ATOM      5  C4  UNL d   1       1.054  -0.270  -0.412  0.00  0.00    -0.005 A 
ATOM      6  C5  UNL d   1       0.049   0.379  -1.126  0.00  0.00     0.003 A 
ATOM      7  C6  UNL d   1      -0.865   1.198  -0.460  0.00  0.00    -0.001 A 
ENDROOT
TORSDOF 0
ENDMDL
