MODEL 1
REMARK minimizedAffinity -5.64088392
REMARK minimizedRMSD -1
REMARK  0 active torsions:
REMARK  status: ('A' for Active; 'I' for Inactive)
ROOT
ATOM      1  C   UNL d   1       0.640  -0.510   1.185  0.00  0.00     0.078 C 
ATOM      2  C1  UNL d   1       0.022   0.667   0.492  0.00  0.00    -0.077 A 
ATOM      3  C2  UNL d   1      -0.158   0.674  -0.897  0.00  0.00    -0.001 A 
ATOM      4  C3  UNL d   1      -0.727   1.781  -1.529  0.00  0.00     0.003 A 
ATOM      5  C4  UNL d   1      -1.119   2.889  -0.782  0.00  0.00    -0.005 A 
ATOM      6  C5  UNL d   1      -0.941   2.893   0.600  0.00  0.00     0.003 A 
ATOM      7  C6  UNL d   1      -0.373   1.787   1.235  0.00  0.00    -0.001 A 
ENDROOT
TORSDOF 0
ENDMDL
