MODEL 1
REMARK minimizedAffinity -4.15235758
REMARK minimizedRMSD -1
REMARK  0 active torsions:
REMARK  status: ('A' for Active; 'I' for Inactive)
ROOT
ATOM      1  C   UNL d   1       0.023  -0.735  -0.346  0.00  0.00     0.078 C 
ATOM      2  C1  UNL d   1      -0.424   0.689  -0.206  0.00  0.00    -0.077 A 
ATOM      3  C2  UNL d   1      -0.607   1.267   1.056  0.00  0.00    -0.001 A 
ATOM      4  C3  UNL d   1      -1.033   2.591   1.172  0.00  0.00     0.003 A 
ATOM      5  C4  UNL d   1      -1.281   3.348   0.029  0.00  0.00    -0.005 A 
ATOM      6  C5  UNL d   1      -1.104   2.781  -1.232  0.00  0.00     0.003 A 
ATOM      7  C6  UNL d   1      -0.678   1.457  -1.349  0.00  0.00    -0.001 A 
ENDROOT
TORSDOF 0
ENDMDL
