MODEL 1
REMARK minimizedAffinity -5.48514795
REMARK minimizedRMSD -1
REMARK  0 active torsions:
REMARK  status: ('A' for Active; 'I' for Inactive)
ROOT
ATOM      1  C   UNL d   1       0.239  -0.661  -0.577  0.00  0.00     0.078 C 
ATOM      2  C1  UNL d   1      -0.164   0.615   0.100  0.00  0.00    -0.077 A 
ATOM      3  C2  UNL d   1       0.106   0.828   1.457  0.00  0.00    -0.001 A 
ATOM      4  C3  UNL d   1      -0.284   2.016   2.077  0.00  0.00     0.003 A 
ATOM      5  C4  UNL d   1      -0.948   3.000   1.347  0.00  0.00    -0.005 A 
ATOM      6  C5  UNL d   1      -1.223   2.796  -0.004  0.00  0.00     0.003 A 
ATOM      7  C6  UNL d   1      -0.834   1.609  -0.625  0.00  0.00    -0.001 A 
ENDROOT
TORSDOF 0
ENDMDL
