MODEL 1
REMARK minimizedAffinity -5.84918737
REMARK minimizedRMSD -1
REMARK  0 active torsions:
REMARK  status: ('A' for Active; 'I' for Inactive)
ROOT
ATOM      1  C   UNL d   1       0.074  -0.503  -0.318  0.00  0.00     0.078 C 
ATOM      2  C1  UNL d   1      -0.353   0.833   0.212  0.00  0.00    -0.077 A 
ATOM      3  C2  UNL d   1      -0.698   1.877  -0.655  0.00  0.00    -0.001 A 
ATOM      4  C3  UNL d   1      -1.084   3.118  -0.148  0.00  0.00     0.003 A 
ATOM      5  C4  UNL d   1      -1.128   3.328   1.229  0.00  0.00    -0.005 A 
ATOM      6  C5  UNL d   1      -0.784   2.297   2.100  0.00  0.00     0.003 A 
ATOM      7  C6  UNL d   1      -0.398   1.054   1.594  0.00  0.00    -0.001 A 
ENDROOT
TORSDOF 0
ENDMDL
