MODEL 1
REMARK minimizedAffinity -5.44449425
REMARK minimizedRMSD -1
REMARK  0 active torsions:
REMARK  status: ('A' for Active; 'I' for Inactive)
ROOT
ATOM      1  C   UNL d   1      -1.103  -0.410   0.605  0.00  0.00     0.078 C 
ATOM      2  C1  UNL d   1      -0.958   1.069   0.404  0.00  0.00    -0.077 A 
ATOM      3  C2  UNL d   1      -1.116   1.960   1.472  0.00  0.00    -0.001 A 
ATOM      4  C3  UNL d   1      -0.988   3.335   1.269  0.00  0.00     0.003 A 
ATOM      5  C4  UNL d   1      -0.703   3.831  -0.002  0.00  0.00    -0.005 A 
ATOM      6  C5  UNL d   1      -0.546   2.952  -1.071  0.00  0.00     0.003 A 
ATOM      7  C6  UNL d   1      -0.673   1.576  -0.870  0.00  0.00    -0.001 A 
ENDROOT
TORSDOF 0
ENDMDL
