MODEL 1
REMARK minimizedAffinity -1.32693529
REMARK minimizedRMSD -1
REMARK  0 active torsions:
REMARK  status: ('A' for Active; 'I' for Inactive)
ROOT
ATOM      1  C1  BNZ d   1       0.134  -0.918  -2.613  0.00  0.00     0.000 A 
ATOM      2  C2  BNZ d   1       0.359  -1.336  -1.329  0.00  0.00     0.000 A 
ATOM      3  C3  BNZ d   1       1.429  -0.869  -0.618  0.00  0.00     0.000 A 
ATOM      4  C4  BNZ d   1       2.294  -0.017  -1.205  0.00  0.00     0.000 A 
ATOM      5  C5  BNZ d   1       2.086   0.407  -2.503  0.00  0.00     0.000 A 
ATOM      6  C6  BNZ d   1       0.986  -0.035  -3.202  0.00  0.00     0.000 A 
ENDROOT
TORSDOF 0
ENDMDL
