MODEL 1
REMARK minimizedAffinity 4.86944389
REMARK minimizedRMSD -1
REMARK  0 active torsions:
REMARK  status: ('A' for Active; 'I' for Inactive)
ROOT
ATOM      1  C1  BNZ d   1      -2.819  -1.773   3.722  0.00  0.00     0.000 A 
ATOM      2  C2  BNZ d   1      -3.527  -0.919   2.919  0.00  0.00     0.000 A 
ATOM      3  C3  BNZ d   1      -2.888   0.027   2.167  0.00  0.00     0.000 A 
ATOM      4  C4  BNZ d   1      -1.546   0.143   2.248  0.00  0.00     0.000 A 
ATOM      5  C5  BNZ d   1      -0.819  -0.705   3.060  0.00  0.00     0.000 A 
ATOM      6  C6  BNZ d   1      -1.463  -1.681   3.786  0.00  0.00     0.000 A 
ENDROOT
TORSDOF 0
ENDMDL
