MODEL 1
REMARK minimizedAffinity 0.381925911
REMARK minimizedRMSD -1
REMARK  0 active torsions:
REMARK  status: ('A' for Active; 'I' for Inactive)
ROOT
ATOM      1  C1  BNZ d   1       3.883   4.942   1.261  0.00  0.00     0.000 A 
ATOM      2  C2  BNZ d   1       4.824   5.927   1.122  0.00  0.00     0.000 A 
ATOM      3  C3  BNZ d   1       5.892   6.000   1.972  0.00  0.00     0.000 A 
ATOM      4  C4  BNZ d   1       5.996   5.113   2.983  0.00  0.00     0.000 A 
ATOM      5  C5  BNZ d   1       5.051   4.120   3.143  0.00  0.00     0.000 A 
ATOM      6  C6  BNZ d   1       3.998   4.026   2.261  0.00  0.00     0.000 A 
ENDROOT
TORSDOF 0
ENDMDL
