MODEL 1
REMARK minimizedAffinity -0.0401995629
REMARK minimizedRMSD -1
REMARK  0 active torsions:
REMARK  status: ('A' for Active; 'I' for Inactive)
ROOT
ATOM      1  C1  BNZ d   1      -1.863   0.242   1.475  0.00  0.00     0.000 A 
ATOM      2  C2  BNZ d   1      -1.295   0.319   0.231  0.00  0.00     0.000 A 
ATOM      3  C3  BNZ d   1      -0.061  -0.217  -0.010  0.00  0.00     0.000 A 
ATOM      4  C4  BNZ d   1       0.620  -0.793   1.001  0.00  0.00     0.000 A 
ATOM      5  C5  BNZ d   1       0.066  -0.870   2.263  0.00  0.00     0.000 A 
ATOM      6  C6  BNZ d   1      -1.193  -0.364   2.493  0.00  0.00     0.000 A 
ENDROOT
TORSDOF 0
ENDMDL
