MODEL 1
REMARK minimizedAffinity -1.46357632
REMARK minimizedRMSD -1
REMARK  0 active torsions:
REMARK  status: ('A' for Active; 'I' for Inactive)
ROOT
ATOM      1  C1  BNZ d   1      -0.747  -0.869  -0.362  0.00  0.00     0.000 A 
ATOM      2  C2  BNZ d   1      -2.082  -0.862  -0.055  0.00  0.00     0.000 A 
ATOM      3  C3  BNZ d   1      -2.508  -0.553   1.206  0.00  0.00     0.000 A 
ATOM      4  C4  BNZ d   1      -1.600  -0.291   2.168  0.00  0.00     0.000 A 
ATOM      5  C5  BNZ d   1      -0.250  -0.303   1.876  0.00  0.00     0.000 A 
ATOM      6  C6  BNZ d   1       0.174  -0.576   0.596  0.00  0.00     0.000 A 
ENDROOT
TORSDOF 0
ENDMDL
