MODEL 1
REMARK minimizedAffinity 1.94051087
REMARK minimizedRMSD -1
REMARK  0 active torsions:
REMARK  status: ('A' for Active; 'I' for Inactive)
ROOT
ATOM      1  C1  BNZ d   1       3.818   2.419  -3.360  0.00  0.00     0.000 A 
ATOM      2  C2  BNZ d   1       3.913   1.920  -2.088  0.00  0.00     0.000 A 
ATOM      3  C3  BNZ d   1       3.186   0.827  -1.709  0.00  0.00     0.000 A 
ATOM      4  C4  BNZ d   1       2.336   0.259  -2.588  0.00  0.00     0.000 A 
ATOM      5  C5  BNZ d   1       2.221   0.756  -3.871  0.00  0.00     0.000 A 
ATOM      6  C6  BNZ d   1       2.984   1.833  -4.261  0.00  0.00     0.000 A 
ENDROOT
TORSDOF 0
ENDMDL
