MODEL 1
REMARK minimizedAffinity 1.03799856
REMARK minimizedRMSD -1
REMARK  0 active torsions:
REMARK  status: ('A' for Active; 'I' for Inactive)
ROOT
ATOM      1  C1  BNZ d   1      -1.750  -0.750   2.904  0.00  0.00     0.000 A 
ATOM      2  C2  BNZ d   1      -2.354  -0.396   1.727  0.00  0.00     0.000 A 
ATOM      3  C3  BNZ d   1      -1.656  -0.402   0.552  0.00  0.00     0.000 A 
ATOM      4  C4  BNZ d   1      -0.346  -0.724   0.561  0.00  0.00     0.000 A 
ATOM      5  C5  BNZ d   1       0.280  -1.074   1.741  0.00  0.00     0.000 A 
ATOM      6  C6  BNZ d   1      -0.436  -1.104   2.916  0.00  0.00     0.000 A 
ENDROOT
TORSDOF 0
ENDMDL
