MODEL 1
REMARK minimizedAffinity -1.52795982
REMARK minimizedRMSD -1
REMARK  0 active torsions:
REMARK  status: ('A' for Active; 'I' for Inactive)
ROOT
ATOM      1  C1  BNZ d   1      -0.587  -0.570   0.084  0.00  0.00     0.000 A 
ATOM      2  C2  BNZ d   1      -1.847  -0.133   0.397  0.00  0.00     0.000 A 
ATOM      3  C3  BNZ d   1      -2.235   0.009   1.700  0.00  0.00     0.000 A 
ATOM      4  C4  BNZ d   1      -1.378  -0.323   2.687  0.00  0.00     0.000 A 
ATOM      5  C5  BNZ d   1      -0.108  -0.774   2.387  0.00  0.00     0.000 A 
ATOM      6  C6  BNZ d   1       0.292  -0.879   1.075  0.00  0.00     0.000 A 
ENDROOT
TORSDOF 0
ENDMDL
