MODEL 1
REMARK minimizedAffinity 9.68547535
REMARK minimizedRMSD -1
REMARK  3 active torsions:
REMARK  status: ('A' for Active; 'I' for Inactive)
REMARK    1  A    between atoms: C3'_2  and  C2'_3 
REMARK    2  A    between atoms: C2'_3  and  C1'_4 
REMARK    3  A    between atoms: C1'_4  and  C1_5 
ROOT
ATOM      1  C1  N4B d   1      -1.978  -5.014  -4.205  0.00  0.00    -0.075 A 
ATOM      2  C2  N4B d   1      -2.739  -3.824  -4.168  0.00  0.00     0.002 A 
ATOM      3  C3  N4B d   1      -3.804  -3.664  -5.020  0.00  0.00     0.002 A 
ATOM      4  C4  N4B d   1      -4.114  -4.667  -5.926  0.00  0.00    -0.004 A 
ATOM      5  C5  N4B d   1      -3.391  -5.823  -5.938  0.00  0.00     0.002 A 
ATOM      6  C6  N4B d   1      -2.320  -5.999  -5.085  0.00  0.00     0.002 A 
ENDROOT
BRANCH   1   7
ATOM      7  C1' N4B d   1      -0.752  -5.199  -3.353  0.00  0.00     0.057 C 
BRANCH   7   8
ATOM      8  C2' N4B d   1      -0.611  -4.006  -2.412  0.00  0.00     0.009 C 
BRANCH   8   9
ATOM      9  C3' N4B d   1       0.404  -4.267  -1.313  0.00  0.00     0.004 C 
ATOM     10  C4' N4B d   1       0.819  -5.706  -1.234  0.00  0.00     0.003 C 
ENDBRANCH   8   9
ENDBRANCH   7   8
ENDBRANCH   1   7
TORSDOF 3
ENDMDL
