MODEL 1
REMARK minimizedAffinity 16.1754475
REMARK minimizedRMSD -1
REMARK  3 active torsions:
REMARK  status: ('A' for Active; 'I' for Inactive)
REMARK    1  A    between atoms: C3'_2  and  C2'_3 
REMARK    2  A    between atoms: C2'_3  and  C1'_4 
REMARK    3  A    between atoms: C1'_4  and  C1_5 
ROOT
ATOM      1  C1  N4B d   1      -1.408   4.273  -1.347  0.00  0.00    -0.075 A 
ATOM      2  C2  N4B d   1      -1.572   4.579   0.022  0.00  0.00     0.002 A 
ATOM      3  C3  N4B d   1      -0.882   3.866   0.972  0.00  0.00     0.002 A 
ATOM      4  C4  N4B d   1      -0.041   2.836   0.580  0.00  0.00    -0.004 A 
ATOM      5  C5  N4B d   1       0.132   2.564  -0.746  0.00  0.00     0.002 A 
ATOM      6  C6  N4B d   1      -0.552   3.275  -1.712  0.00  0.00     0.002 A 
ENDROOT
BRANCH   1   7
ATOM      7  C1' N4B d   1      -2.206   4.968  -2.416  0.00  0.00     0.057 C 
BRANCH   7   8
ATOM      8  C2' N4B d   1      -3.451   4.143  -2.727  0.00  0.00     0.009 C 
BRANCH   8   9
ATOM      9  C3' N4B d   1      -4.728   4.932  -2.494  0.00  0.00     0.004 C 
ATOM     10  C4' N4B d   1      -4.931   5.297  -1.053  0.00  0.00     0.003 C 
ENDBRANCH   8   9
ENDBRANCH   7   8
ENDBRANCH   1   7
TORSDOF 3
ENDMDL
