MODEL 1
REMARK minimizedAffinity 10.2550554
REMARK minimizedRMSD -1
REMARK  3 active torsions:
REMARK  status: ('A' for Active; 'I' for Inactive)
REMARK    1  A    between atoms: C3'_2  and  C2'_3 
REMARK    2  A    between atoms: C2'_3  and  C1'_4 
REMARK    3  A    between atoms: C1'_4  and  C1_5 
ROOT
ATOM      1  C1  N4B d   1      -2.024   2.291  -0.255  0.00  0.00    -0.075 A 
ATOM      2  C2  N4B d   1      -2.943   3.114  -0.942  0.00  0.00     0.002 A 
ATOM      3  C3  N4B d   1      -4.012   2.552  -1.596  0.00  0.00     0.002 A 
ATOM      4  C4  N4B d   1      -4.172   1.174  -1.591  0.00  0.00    -0.004 A 
ATOM      5  C5  N4B d   1      -3.294   0.389  -0.904  0.00  0.00     0.002 A 
ATOM      6  C6  N4B d   1      -2.217   0.940  -0.239  0.00  0.00     0.002 A 
ENDROOT
BRANCH   1   7
ATOM      7  C1' N4B d   1      -0.792   2.853   0.402  0.00  0.00     0.057 C 
BRANCH   7   8
ATOM      8  C2' N4B d   1       0.444   2.329  -0.323  0.00  0.00     0.009 C 
BRANCH   8   9
ATOM      9  C3' N4B d   1       1.384   3.453  -0.727  0.00  0.00     0.004 C 
ATOM     10  C4' N4B d   1       1.312   3.772  -2.190  0.00  0.00     0.003 C 
ENDBRANCH   8   9
ENDBRANCH   7   8
ENDBRANCH   1   7
TORSDOF 3
ENDMDL
