MODEL 1
REMARK minimizedAffinity 4.08433771
REMARK minimizedRMSD -1
REMARK  0 active torsions:
REMARK  status: ('A' for Active; 'I' for Inactive)
ROOT
ATOM      1  C   UNL d   1      -4.447   5.982  -2.585  0.00  0.00     0.077 C 
ATOM      2  C1  UNL d   1      -4.994   5.240  -1.402  0.00  0.00    -0.074 A 
ATOM      3  C2  UNL d   1      -5.252   3.867  -1.470  0.00  0.00    -0.005 A 
ATOM      4  C3  UNL d   1      -5.752   3.189  -0.359  0.00  0.00     0.006 A 
ATOM      5  C4  UNL d   1      -5.999   3.875   0.831  0.00  0.00    -0.005 A 
ATOM      6  C5  UNL d   1      -5.746   5.248   0.919  0.00  0.00    -0.074 A 
ATOM      7  C6  UNL d   1      -5.996   5.999   2.193  0.00  0.00     0.077 C 
ATOM      8  C7  UNL d   1      -5.237   5.921  -0.201  0.00  0.00    -0.001 A 
ENDROOT
TORSDOF 0
ENDMDL
