MODEL 1
REMARK minimizedAffinity 2.27453136
REMARK minimizedRMSD -1
REMARK  0 active torsions:
REMARK  status: ('A' for Active; 'I' for Inactive)
ROOT
ATOM      1  C   UNL d   1      -0.826  -0.739   2.353  0.00  0.00     0.077 C 
ATOM      2  C1  UNL d   1      -1.683   0.267   1.644  0.00  0.00    -0.074 A 
ATOM      3  C2  UNL d   1      -1.570   1.632   1.925  0.00  0.00    -0.005 A 
ATOM      4  C3  UNL d   1      -2.367   2.557   1.252  0.00  0.00     0.006 A 
ATOM      5  C4  UNL d   1      -3.284   2.127   0.292  0.00  0.00    -0.005 A 
ATOM      6  C5  UNL d   1      -3.411   0.766  -0.003  0.00  0.00    -0.074 A 
ATOM      7  C6  UNL d   1      -4.385   0.288  -1.039  0.00  0.00     0.077 C 
ATOM      8  C7  UNL d   1      -2.601  -0.157   0.673  0.00  0.00    -0.001 A 
ENDROOT
TORSDOF 0
ENDMDL
