MODEL 1
REMARK minimizedAffinity 3.11111546
REMARK minimizedRMSD -1
REMARK  0 active torsions:
REMARK  status: ('A' for Active; 'I' for Inactive)
ROOT
ATOM      1  C   UNL d   1      -2.555   1.166   0.366  0.00  0.00     0.077 C 
ATOM      2  C1  UNL d   1      -1.692   0.596   1.452  0.00  0.00    -0.074 A 
ATOM      3  C2  UNL d   1      -2.250   0.156   2.657  0.00  0.00    -0.005 A 
ATOM      4  C3  UNL d   1      -1.436  -0.381   3.654  0.00  0.00     0.006 A 
ATOM      5  C4  UNL d   1      -0.058  -0.485   3.457  0.00  0.00    -0.005 A 
ATOM      6  C5  UNL d   1       0.517  -0.051   2.258  0.00  0.00    -0.074 A 
ATOM      7  C6  UNL d   1       1.994  -0.164   2.025  0.00  0.00     0.077 C 
ATOM      8  C7  UNL d   1      -0.309   0.481   1.258  0.00  0.00    -0.001 A 
ENDROOT
TORSDOF 0
ENDMDL
