MODEL 1
REMARK minimizedAffinity 5.19929123
REMARK minimizedRMSD -1
REMARK  0 active torsions:
REMARK  status: ('A' for Active; 'I' for Inactive)
ROOT
ATOM      1  C   UNL d   1      -1.381   0.274   2.084  0.00  0.00     0.077 C 
ATOM      2  C1  UNL d   1      -0.385  -0.423   1.207  0.00  0.00    -0.074 A 
ATOM      3  C2  UNL d   1       0.987  -0.189   1.350  0.00  0.00    -0.005 A 
ATOM      4  C3  UNL d   1       1.902  -0.852   0.533  0.00  0.00     0.006 A 
ATOM      5  C4  UNL d   1       1.457  -1.754  -0.434  0.00  0.00    -0.005 A 
ATOM      6  C5  UNL d   1       0.090  -2.002  -0.591  0.00  0.00    -0.074 A 
ATOM      7  C6  UNL d   1      -0.405  -2.976  -1.619  0.00  0.00     0.077 C 
ATOM      8  C7  UNL d   1      -0.824  -1.337   0.238  0.00  0.00    -0.001 A 
ENDROOT
TORSDOF 0
ENDMDL
