MODEL 1
REMARK minimizedAffinity 2.46662116
REMARK minimizedRMSD -1
REMARK  0 active torsions:
REMARK  status: ('A' for Active; 'I' for Inactive)
ROOT
ATOM      1  C   UNL d   1      -1.030   0.605   2.827  0.00  0.00     0.077 C 
ATOM      2  C1  UNL d   1      -0.129  -0.176   1.917  0.00  0.00    -0.074 A 
ATOM      3  C2  UNL d   1       1.251  -0.220   2.136  0.00  0.00    -0.005 A 
ATOM      4  C3  UNL d   1       2.075  -0.959   1.288  0.00  0.00     0.006 A 
ATOM      5  C4  UNL d   1       1.528  -1.661   0.213  0.00  0.00    -0.005 A 
ATOM      6  C5  UNL d   1       0.150  -1.630  -0.021  0.00  0.00    -0.074 A 
ATOM      7  C6  UNL d   1      -0.456  -2.387  -1.166  0.00  0.00     0.077 C 
ATOM      8  C7  UNL d   1      -0.673  -0.891   0.840  0.00  0.00    -0.001 A 
ENDROOT
TORSDOF 0
ENDMDL
