MODEL 1
REMARK minimizedAffinity 10.9784622
REMARK minimizedRMSD -1
REMARK  0 active torsions:
REMARK  status: ('A' for Active; 'I' for Inactive)
ROOT
ATOM      1  C   UNL d   1      -1.459  -2.121   0.422  0.00  0.00     0.077 C 
ATOM      2  C1  UNL d   1      -1.904  -0.757   0.860  0.00  0.00    -0.074 A 
ATOM      3  C2  UNL d   1      -1.300  -0.118   1.947  0.00  0.00    -0.005 A 
ATOM      4  C3  UNL d   1      -1.718   1.154   2.336  0.00  0.00     0.006 A 
ATOM      5  C4  UNL d   1      -2.744   1.799   1.644  0.00  0.00    -0.005 A 
ATOM      6  C5  UNL d   1      -3.360   1.176   0.554  0.00  0.00    -0.074 A 
ATOM      7  C6  UNL d   1      -4.457   1.859  -0.207  0.00  0.00     0.077 C 
ATOM      8  C7  UNL d   1      -2.929  -0.100   0.164  0.00  0.00    -0.001 A 
ENDROOT
TORSDOF 0
ENDMDL
