MODEL 1
REMARK minimizedAffinity 14.2116985
REMARK minimizedRMSD -1
REMARK  1 active torsions:
REMARK  status: ('A' for Active; 'I' for Inactive)
REMARK    1  A    between atoms: C1_2  and  C2_3 
ROOT
ATOM      1  C2  UNL d   1      -3.999  -3.513  -2.869  0.00  0.00    -0.073 A 
ATOM      2  C3  UNL d   1      -2.913  -3.529  -3.751  0.00  0.00    -0.002 A 
ATOM      3  C4  UNL d   1      -1.634  -3.198  -3.301  0.00  0.00     0.004 A 
ATOM      4  C5  UNL d   1      -1.428  -2.854  -1.965  0.00  0.00    -0.004 A 
ATOM      5  C6  UNL d   1      -2.498  -2.843  -1.065  0.00  0.00    -0.075 A 
ATOM      6  C7  UNL d   1      -2.293  -2.474   0.374  0.00  0.00     0.076 C 
ATOM      7  C8  UNL d   1      -3.780  -3.175  -1.526  0.00  0.00     0.001 A 
ENDROOT
BRANCH   1   8
ATOM      8  C1  UNL d   1      -5.380  -3.876  -3.349  0.00  0.00     0.053 C 
ATOM      9  C   UNL d   1      -5.806  -3.041  -4.546  0.00  0.00     0.018 C 
ENDBRANCH   1   8
TORSDOF 1
ENDMDL
