MODEL 1
REMARK minimizedAffinity 6.98123741
REMARK minimizedRMSD -1
REMARK  1 active torsions:
REMARK  status: ('A' for Active; 'I' for Inactive)
REMARK    1  A    between atoms: C1_2  and  C2_3 
ROOT
ATOM      1  C2  UNL d   1       3.020   3.475  -4.663  0.00  0.00    -0.073 A 
ATOM      2  C3  UNL d   1       3.440   3.642  -3.338  0.00  0.00    -0.002 A 
ATOM      3  C4  UNL d   1       4.117   2.615  -2.679  0.00  0.00     0.004 A 
ATOM      4  C5  UNL d   1       4.387   1.416  -3.338  0.00  0.00    -0.004 A 
ATOM      5  C6  UNL d   1       3.986   1.235  -4.666  0.00  0.00    -0.075 A 
ATOM      6  C7  UNL d   1       4.267  -0.050  -5.388  0.00  0.00     0.076 C 
ATOM      7  C8  UNL d   1       3.304   2.270  -5.320  0.00  0.00     0.001 A 
ENDROOT
BRANCH   1   8
ATOM      8  C1  UNL d   1       2.294   4.583  -5.381  0.00  0.00     0.053 C 
ATOM      9  C   UNL d   1       3.255   5.586  -6.000  0.00  0.00     0.018 C 
ENDBRANCH   1   8
TORSDOF 1
ENDMDL
