MODEL 1
REMARK minimizedAffinity 11.2070465
REMARK minimizedRMSD -1
REMARK  1 active torsions:
REMARK  status: ('A' for Active; 'I' for Inactive)
REMARK    1  A    between atoms: C1_2  and  C2_3 
ROOT
ATOM      1  C2  UNL d   1      -1.562  -2.659  -1.025  0.00  0.00    -0.073 A 
ATOM      2  C3  UNL d   1      -0.568  -2.863  -1.989  0.00  0.00    -0.002 A 
ATOM      3  C4  UNL d   1      -0.913  -3.214  -3.295  0.00  0.00     0.004 A 
ATOM      4  C5  UNL d   1      -2.254  -3.357  -3.651  0.00  0.00    -0.004 A 
ATOM      5  C6  UNL d   1      -3.262  -3.145  -2.705  0.00  0.00    -0.075 A 
ATOM      6  C7  UNL d   1      -4.709  -3.297  -3.072  0.00  0.00     0.076 C 
ATOM      7  C8  UNL d   1      -2.907  -2.796  -1.395  0.00  0.00     0.001 A 
ENDROOT
BRANCH   1   8
ATOM      8  C1  UNL d   1      -1.193  -2.274   0.385  0.00  0.00     0.053 C 
ATOM      9  C   UNL d   1      -1.551  -3.363   1.385  0.00  0.00     0.018 C 
ENDBRANCH   1   8
TORSDOF 1
ENDMDL
