MODEL 1
REMARK minimizedAffinity 15.4937315
REMARK minimizedRMSD -1
REMARK  1 active torsions:
REMARK  status: ('A' for Active; 'I' for Inactive)
REMARK    1  A    between atoms: C1_2  and  C2_3 
ROOT
ATOM      1  C2  UNL d   1      -3.545  -3.790  -3.008  0.00  0.00    -0.073 A 
ATOM      2  C3  UNL d   1      -3.065  -4.002  -4.305  0.00  0.00    -0.002 A 
ATOM      3  C4  UNL d   1      -1.873  -3.406  -4.721  0.00  0.00     0.004 A 
ATOM      4  C5  UNL d   1      -1.148  -2.600  -3.845  0.00  0.00    -0.004 A 
ATOM      5  C6  UNL d   1      -1.606  -2.385  -2.541  0.00  0.00    -0.075 A 
ATOM      6  C7  UNL d   1      -0.838  -1.518  -1.587  0.00  0.00     0.076 C 
ATOM      7  C8  UNL d   1      -2.804  -2.984  -2.131  0.00  0.00     0.001 A 
ENDROOT
BRANCH   1   8
ATOM      8  C1  UNL d   1      -4.828  -4.436  -2.552  0.00  0.00     0.053 C 
ATOM      9  C   UNL d   1      -5.999  -4.074  -3.451  0.00  0.00     0.018 C 
ENDBRANCH   1   8
TORSDOF 1
ENDMDL
