MODEL 1
REMARK minimizedAffinity 12.1614428
REMARK minimizedRMSD -1
REMARK  1 active torsions:
REMARK  status: ('A' for Active; 'I' for Inactive)
REMARK    1  A    between atoms: C1_2  and  C2_3 
ROOT
ATOM      1  C2  UNL d   1      -3.442  -4.034  -3.303  0.00  0.00    -0.073 A 
ATOM      2  C3  UNL d   1      -2.903  -4.036  -4.594  0.00  0.00    -0.002 A 
ATOM      3  C4  UNL d   1      -1.688  -3.400  -4.852  0.00  0.00     0.004 A 
ATOM      4  C5  UNL d   1      -0.996  -2.763  -3.822  0.00  0.00    -0.004 A 
ATOM      5  C6  UNL d   1      -1.513  -2.760  -2.522  0.00  0.00    -0.075 A 
ATOM      6  C7  UNL d   1      -0.783  -2.077  -1.403  0.00  0.00     0.076 C 
ATOM      7  C8  UNL d   1      -2.735  -3.399  -2.272  0.00  0.00     0.001 A 
ENDROOT
BRANCH   1   8
ATOM      8  C1  UNL d   1      -4.750  -4.725  -3.018  0.00  0.00     0.053 C 
ATOM      9  C   UNL d   1      -4.558  -6.000  -2.212  0.00  0.00     0.018 C 
ENDBRANCH   1   8
TORSDOF 1
ENDMDL
