MODEL 1
REMARK minimizedAffinity 8.76806545
REMARK minimizedRMSD -1
REMARK  1 active torsions:
REMARK  status: ('A' for Active; 'I' for Inactive)
REMARK    1  A    between atoms: C1_2  and  C2_3 
ROOT
ATOM      1  C2  UNL d   1      -3.386  -5.007  -2.253  0.00  0.00    -0.073 A 
ATOM      2  C3  UNL d   1      -3.516  -3.617  -2.162  0.00  0.00    -0.002 A 
ATOM      3  C4  UNL d   1      -2.506  -2.781  -2.640  0.00  0.00     0.004 A 
ATOM      4  C5  UNL d   1      -1.361  -3.326  -3.221  0.00  0.00    -0.004 A 
ATOM      5  C6  UNL d   1      -1.217  -4.712  -3.332  0.00  0.00    -0.075 A 
ATOM      6  C7  UNL d   1       0.010  -5.314  -3.952  0.00  0.00     0.076 C 
ATOM      7  C8  UNL d   1      -2.235  -5.545  -2.847  0.00  0.00     0.001 A 
ENDROOT
BRANCH   1   8
ATOM      8  C1  UNL d   1      -4.476  -5.913  -1.744  0.00  0.00     0.053 C 
ATOM      9  C   UNL d   1      -5.845  -5.507  -2.266  0.00  0.00     0.018 C 
ENDBRANCH   1   8
TORSDOF 1
ENDMDL
