MODEL 1
REMARK minimizedAffinity 8.39936447
REMARK minimizedRMSD -1
REMARK  1 active torsions:
REMARK  status: ('A' for Active; 'I' for Inactive)
REMARK    1  A    between atoms: C1_2  and  C2_3 
ROOT
ATOM      1  C2  UNL d   1      -3.297  -4.469  -3.216  0.00  0.00    -0.073 A 
ATOM      2  C3  UNL d   1      -2.404  -4.133  -4.239  0.00  0.00    -0.002 A 
ATOM      3  C4  UNL d   1      -1.379  -3.215  -4.007  0.00  0.00     0.004 A 
ATOM      4  C5  UNL d   1      -1.232  -2.629  -2.750  0.00  0.00    -0.004 A 
ATOM      5  C6  UNL d   1      -2.108  -2.960  -1.711  0.00  0.00    -0.075 A 
ATOM      6  C7  UNL d   1      -1.966  -2.337  -0.353  0.00  0.00     0.076 C 
ATOM      7  C8  UNL d   1      -3.137  -3.881  -1.952  0.00  0.00     0.001 A 
ENDROOT
BRANCH   1   8
ATOM      8  C1  UNL d   1      -4.402  -5.464  -3.459  0.00  0.00     0.053 C 
ATOM      9  C   UNL d   1      -5.602  -4.828  -4.143  0.00  0.00     0.018 C 
ENDBRANCH   1   8
TORSDOF 1
ENDMDL
