MODEL 1
REMARK minimizedAffinity 6.65402985
REMARK minimizedRMSD -1
REMARK  1 active torsions:
REMARK  status: ('A' for Active; 'I' for Inactive)
REMARK    1  A    between atoms: C1_2  and  C2_3 
ROOT
ATOM      1  C2  UNL d   1      -1.678  -3.307   1.763  0.00  0.00    -0.073 A 
ATOM      2  C3  UNL d   1      -1.029  -4.012   2.783  0.00  0.00    -0.002 A 
ATOM      3  C4  UNL d   1      -1.341  -5.351   3.023  0.00  0.00     0.004 A 
ATOM      4  C5  UNL d   1      -2.298  -6.000   2.243  0.00  0.00    -0.004 A 
ATOM      5  C6  UNL d   1      -2.949  -5.316   1.211  0.00  0.00    -0.075 A 
ATOM      6  C7  UNL d   1      -3.982  -5.999   0.364  0.00  0.00     0.076 C 
ATOM      7  C8  UNL d   1      -2.632  -3.971   0.978  0.00  0.00     0.001 A 
ENDROOT
BRANCH   1   8
ATOM      8  C1  UNL d   1      -1.340  -1.863   1.495  0.00  0.00     0.053 C 
ATOM      9  C   UNL d   1      -0.086  -1.719   0.647  0.00  0.00     0.018 C 
ENDBRANCH   1   8
TORSDOF 1
ENDMDL
