MODEL 1
REMARK minimizedAffinity 11.9856138
REMARK minimizedRMSD -1
REMARK  1 active torsions:
REMARK  status: ('A' for Active; 'I' for Inactive)
REMARK    1  A    between atoms: C1_2  and  C2_3 
ROOT
ATOM      1  C2  UNL d   1      -3.204  -5.420   1.390  0.00  0.00    -0.073 A 
ATOM      2  C3  UNL d   1      -2.580  -5.999   2.500  0.00  0.00    -0.002 A 
ATOM      3  C4  UNL d   1      -1.400  -5.455   3.010  0.00  0.00     0.004 A 
ATOM      4  C5  UNL d   1      -0.837  -4.323   2.420  0.00  0.00    -0.004 A 
ATOM      5  C6  UNL d   1      -1.453  -3.722   1.318  0.00  0.00    -0.075 A 
ATOM      6  C7  UNL d   1      -0.859  -2.506   0.670  0.00  0.00     0.076 C 
ATOM      7  C8  UNL d   1      -2.636  -4.277   0.810  0.00  0.00     0.001 A 
ENDROOT
BRANCH   1   8
ATOM      8  C1  UNL d   1      -4.481  -6.000   0.841  0.00  0.00     0.053 C 
ATOM      9  C   UNL d   1      -5.599  -5.998   1.872  0.00  0.00     0.018 C 
ENDBRANCH   1   8
TORSDOF 1
ENDMDL
