MODEL 1
REMARK minimizedAffinity 1.03840911
REMARK minimizedRMSD -1
REMARK  1 active torsions:
REMARK  status: ('A' for Active; 'I' for Inactive)
REMARK    1  A    between atoms: C1_2  and  C2_3 
ROOT
ATOM      1  C2  UNL d   1      -4.043  -4.116  -2.912  0.00  0.00    -0.073 A 
ATOM      2  C3  UNL d   1      -3.308  -4.966  -3.746  0.00  0.00    -0.002 A 
ATOM      3  C4  UNL d   1      -1.956  -4.719  -3.990  0.00  0.00     0.004 A 
ATOM      4  C5  UNL d   1      -1.325  -3.625  -3.398  0.00  0.00    -0.004 A 
ATOM      5  C6  UNL d   1      -2.039  -2.771  -2.553  0.00  0.00    -0.075 A 
ATOM      6  C7  UNL d   1      -1.375  -1.589  -1.910  0.00  0.00     0.076 C 
ATOM      7  C8  UNL d   1      -3.397  -3.024  -2.314  0.00  0.00     0.001 A 
ENDROOT
BRANCH   1   8
ATOM      8  C1  UNL d   1      -5.501  -4.382  -2.640  0.00  0.00     0.053 C 
ATOM      9  C   UNL d   1      -5.999  -5.622  -3.366  0.00  0.00     0.018 C 
ENDBRANCH   1   8
TORSDOF 1
ENDMDL
