MODEL 1
REMARK minimizedAffinity 20.3416271
REMARK minimizedRMSD -1
REMARK  1 active torsions:
REMARK  status: ('A' for Active; 'I' for Inactive)
REMARK    1  A    between atoms: C1_2  and  C2_3 
ROOT
ATOM      1  C2  UNL d   1      -0.903  -3.094  -1.160  0.00  0.00    -0.073 A 
ATOM      2  C3  UNL d   1      -1.962  -2.387  -1.740  0.00  0.00    -0.002 A 
ATOM      3  C4  UNL d   1      -2.402  -2.705  -3.025  0.00  0.00     0.004 A 
ATOM      4  C5  UNL d   1      -1.795  -3.737  -3.740  0.00  0.00    -0.004 A 
ATOM      5  C6  UNL d   1      -0.743  -4.464  -3.173  0.00  0.00    -0.075 A 
ATOM      6  C7  UNL d   1      -0.077  -5.576  -3.929  0.00  0.00     0.076 C 
ATOM      7  C8  UNL d   1      -0.304  -4.136  -1.883  0.00  0.00     0.001 A 
ENDROOT
BRANCH   1   8
ATOM      8  C1  UNL d   1      -0.428  -2.758   0.230  0.00  0.00     0.053 C 
ATOM      9  C   UNL d   1      -1.083  -3.637   1.284  0.00  0.00     0.018 C 
ENDBRANCH   1   8
TORSDOF 1
ENDMDL
