MODEL 1
REMARK minimizedAffinity 16.6782951
REMARK minimizedRMSD -1
REMARK  1 active torsions:
REMARK  status: ('A' for Active; 'I' for Inactive)
REMARK    1  A    between atoms: C1_2  and  C2_3 
ROOT
ATOM      1  C2  UNL d   1      -1.446  -5.279   3.689  0.00  0.00    -0.073 A 
ATOM      2  C3  UNL d   1      -1.025  -3.968   3.442  0.00  0.00    -0.002 A 
ATOM      3  C4  UNL d   1      -1.392  -3.320   2.262  0.00  0.00     0.004 A 
ATOM      4  C5  UNL d   1      -2.188  -3.974   1.321  0.00  0.00    -0.004 A 
ATOM      5  C6  UNL d   1      -2.629  -5.280   1.555  0.00  0.00    -0.075 A 
ATOM      6  C7  UNL d   1      -3.484  -5.997   0.552  0.00  0.00     0.076 C 
ATOM      7  C8  UNL d   1      -2.254  -5.925   2.742  0.00  0.00     0.001 A 
ENDROOT
BRANCH   1   8
ATOM      8  C1  UNL d   1      -1.058  -5.980   4.966  0.00  0.00     0.053 C 
ATOM      9  C   UNL d   1      -2.173  -5.942   5.999  0.00  0.00     0.018 C 
ENDBRANCH   1   8
TORSDOF 1
ENDMDL
