MODEL 1
REMARK minimizedAffinity 9.63445759
REMARK minimizedRMSD -1
REMARK  1 active torsions:
REMARK  status: ('A' for Active; 'I' for Inactive)
REMARK    1  A    between atoms: C1_2  and  C2_3 
ROOT
ATOM      1  C2  UNL d   1      -3.730  -3.397  -1.922  0.00  0.00    -0.073 A 
ATOM      2  C3  UNL d   1      -4.932  -3.389  -2.639  0.00  0.00    -0.002 A 
ATOM      3  C4  UNL d   1      -5.982  -4.228  -2.263  0.00  0.00     0.004 A 
ATOM      4  C5  UNL d   1      -5.844  -5.077  -1.165  0.00  0.00    -0.004 A 
ATOM      5  C6  UNL d   1      -4.655  -5.091  -0.429  0.00  0.00    -0.075 A 
ATOM      6  C7  UNL d   1      -4.489  -6.000   0.753  0.00  0.00     0.076 C 
ATOM      7  C8  UNL d   1      -3.604  -4.247  -0.814  0.00  0.00     0.001 A 
ENDROOT
BRANCH   1   8
ATOM      8  C1  UNL d   1      -2.596  -2.488  -2.320  0.00  0.00     0.053 C 
ATOM      9  C   UNL d   1      -1.336  -3.265  -2.663  0.00  0.00     0.018 C 
ENDBRANCH   1   8
TORSDOF 1
ENDMDL
