MODEL 1
REMARK minimizedAffinity 2.73193264
REMARK minimizedRMSD -1
REMARK  0 active torsions:
REMARK  status: ('A' for Active; 'I' for Inactive)
ROOT
ATOM      1  C   UNL d   1      -2.827  -2.465   0.394  0.00  0.00     0.172 C 
ATOM      2  N   UNL d   1      -1.711  -2.503  -0.521  0.00  0.00    -0.070 N 
ATOM      3  C1  UNL d   1      -1.799  -2.609  -1.883  0.00  0.00    -0.004 A 
ATOM      4  C2  UNL d   1      -0.517  -2.610  -2.390  0.00  0.00    -0.047 A 
ATOM      5  C3  UNL d   1       0.372  -2.502  -1.294  0.00  0.00    -0.047 A 
ATOM      6  C4  UNL d   1      -0.394  -2.437  -0.149  0.00  0.00    -0.004 A 
ENDROOT
TORSDOF 0
ENDMDL
