MODEL 1
REMARK minimizedAffinity 3.42569137
REMARK minimizedRMSD -1
REMARK  0 active torsions:
REMARK  status: ('A' for Active; 'I' for Inactive)
ROOT
ATOM      1  C   UNL d   1      -1.445  -2.353   0.518  0.00  0.00     0.172 C 
ATOM      2  N   UNL d   1      -1.053  -2.607  -0.848  0.00  0.00    -0.070 N 
ATOM      3  C1  UNL d   1       0.171  -2.324  -1.394  0.00  0.00    -0.004 A 
ATOM      4  C2  UNL d   1       0.145  -2.716  -2.715  0.00  0.00    -0.047 A 
ATOM      5  C3  UNL d   1      -1.138  -3.253  -2.972  0.00  0.00    -0.047 A 
ATOM      6  C4  UNL d   1      -1.860  -3.173  -1.800  0.00  0.00    -0.004 A 
ENDROOT
TORSDOF 0
ENDMDL
