MODEL 1
REMARK minimizedAffinity -0.273454338
REMARK minimizedRMSD -1
REMARK  0 active torsions:
REMARK  status: ('A' for Active; 'I' for Inactive)
ROOT
ATOM      1  C   UNL d   1       4.409  -5.879   5.856  0.00  0.00     0.172 C 
ATOM      2  N   UNL d   1       4.735  -4.473   5.904  0.00  0.00    -0.070 N 
ATOM      3  C1  UNL d   1       5.998  -3.948   5.968  0.00  0.00    -0.004 A 
ATOM      4  C2  UNL d   1       5.884  -2.575   5.997  0.00  0.00    -0.047 A 
ATOM      5  C3  UNL d   1       4.504  -2.264   5.950  0.00  0.00    -0.047 A 
ATOM      6  C4  UNL d   1       3.816  -3.457   5.893  0.00  0.00    -0.004 A 
ENDROOT
TORSDOF 0
ENDMDL
