MODEL 1
REMARK minimizedAffinity 4.38348866
REMARK minimizedRMSD -1
REMARK  0 active torsions:
REMARK  status: ('A' for Active; 'I' for Inactive)
ROOT
ATOM      1  C   UNL d   1       2.810   4.569  -0.775  0.00  0.00     0.172 C 
ATOM      2  N   UNL d   1       4.107   4.841  -1.350  0.00  0.00    -0.070 N 
ATOM      3  C1  UNL d   1       4.821   5.999  -1.196  0.00  0.00    -0.004 A 
ATOM      4  C2  UNL d   1       6.000   5.864  -1.896  0.00  0.00    -0.047 A 
ATOM      5  C3  UNL d   1       5.994   4.581  -2.492  0.00  0.00    -0.047 A 
ATOM      6  C4  UNL d   1       4.811   3.969  -2.137  0.00  0.00    -0.004 A 
ENDROOT
TORSDOF 0
ENDMDL
