MODEL 1
REMARK minimizedAffinity 5.42002487
REMARK minimizedRMSD -1
REMARK  0 active torsions:
REMARK  status: ('A' for Active; 'I' for Inactive)
ROOT
ATOM      1  C   UNL d   1       3.631  -2.980   3.380  0.00  0.00     0.172 C 
ATOM      2  N   UNL d   1       4.425  -3.543   4.446  0.00  0.00    -0.070 N 
ATOM      3  C1  UNL d   1       4.226  -4.765   5.030  0.00  0.00    -0.004 A 
ATOM      4  C2  UNL d   1       5.190  -4.932   6.000  0.00  0.00    -0.047 A 
ATOM      5  C3  UNL d   1       5.996  -3.769   6.000  0.00  0.00    -0.047 A 
ATOM      6  C4  UNL d   1       5.501  -2.926   5.028  0.00  0.00    -0.004 A 
ENDROOT
TORSDOF 0
ENDMDL
