MODEL 1
REMARK minimizedAffinity 0.519384265
REMARK minimizedRMSD -1
REMARK  0 active torsions:
REMARK  status: ('A' for Active; 'I' for Inactive)
ROOT
ATOM      1  C   UNL d   1      -3.745   1.196   5.975  0.00  0.00     0.172 C 
ATOM      2  N   UNL d   1      -2.926   0.006   5.981  0.00  0.00    -0.070 N 
ATOM      3  C1  UNL d   1      -3.390  -1.282   5.987  0.00  0.00    -0.004 A 
ATOM      4  C2  UNL d   1      -2.299  -2.124   5.991  0.00  0.00    -0.047 A 
ATOM      5  C3  UNL d   1      -1.139  -1.313   5.989  0.00  0.00    -0.047 A 
ATOM      6  C4  UNL d   1      -1.556   0.001   5.983  0.00  0.00    -0.004 A 
ENDROOT
TORSDOF 0
ENDMDL
