MODEL 1
REMARK minimizedAffinity 11.0675726
REMARK minimizedRMSD -1
REMARK  0 active torsions:
REMARK  status: ('A' for Active; 'I' for Inactive)
ROOT
ATOM      1  C   UNL d   1      -0.274  -2.533  -2.426  0.00  0.00     0.172 C 
ATOM      2  N   UNL d   1       1.101  -2.779  -2.791  0.00  0.00    -0.070 N 
ATOM      3  C1  UNL d   1       1.533  -3.718  -3.689  0.00  0.00    -0.004 A 
ATOM      4  C2  UNL d   1       2.907  -3.636  -3.757  0.00  0.00    -0.047 A 
ATOM      5  C3  UNL d   1       3.315  -2.614  -2.867  0.00  0.00    -0.047 A 
ATOM      6  C4  UNL d   1       2.177  -2.100  -2.283  0.00  0.00    -0.004 A 
ENDROOT
TORSDOF 0
ENDMDL
