MODEL 1
REMARK minimizedAffinity 3.49032283
REMARK minimizedRMSD -1
REMARK  0 active torsions:
REMARK  status: ('A' for Active; 'I' for Inactive)
ROOT
ATOM      1  C   UNL d   1      -2.573  -2.135   0.323  0.00  0.00     0.172 C 
ATOM      2  N   UNL d   1      -1.708  -2.246  -0.828  0.00  0.00    -0.070 N 
ATOM      3  C1  UNL d   1      -0.357  -2.026  -0.835  0.00  0.00    -0.004 A 
ATOM      4  C2  UNL d   1       0.098  -2.234  -2.119  0.00  0.00    -0.047 A 
ATOM      5  C3  UNL d   1      -1.019  -2.590  -2.912  0.00  0.00    -0.047 A 
ATOM      6  C4  UNL d   1      -2.124  -2.590  -2.087  0.00  0.00    -0.004 A 
ENDROOT
TORSDOF 0
ENDMDL
