MODEL 1
REMARK minimizedAffinity 11.4923115
REMARK minimizedRMSD -1
REMARK  0 active torsions:
REMARK  status: ('A' for Active; 'I' for Inactive)
ROOT
ATOM      1  C   UNL d   1      -1.031  -2.567  -3.282  0.00  0.00     0.172 C 
ATOM      2  N   UNL d   1      -0.704  -2.396  -1.886  0.00  0.00    -0.070 N 
ATOM      3  C1  UNL d   1      -1.043  -1.317  -1.113  0.00  0.00    -0.004 A 
ATOM      4  C2  UNL d   1      -0.551  -1.535   0.155  0.00  0.00    -0.047 A 
ATOM      5  C3  UNL d   1       0.108  -2.788   0.144  0.00  0.00    -0.047 A 
ATOM      6  C4  UNL d   1      -0.002  -3.299  -1.132  0.00  0.00    -0.004 A 
ENDROOT
TORSDOF 0
ENDMDL
