MODEL 1
REMARK minimizedAffinity 4.25671005
REMARK minimizedRMSD -1
REMARK  0 active torsions:
REMARK  status: ('A' for Active; 'I' for Inactive)
ROOT
ATOM      1  C   UNL d   1      -2.645  -1.319   5.523  0.00  0.00     0.172 C 
ATOM      2  N   UNL d   1      -3.200   0.010   5.639  0.00  0.00    -0.070 N 
ATOM      3  C1  UNL d   1      -4.486   0.309   6.000  0.00  0.00    -0.004 A 
ATOM      4  C2  UNL d   1      -4.618   1.681   5.994  0.00  0.00    -0.047 A 
ATOM      5  C3  UNL d   1      -3.367   2.225   5.616  0.00  0.00    -0.047 A 
ATOM      6  C4  UNL d   1      -2.507   1.168   5.402  0.00  0.00    -0.004 A 
ENDROOT
TORSDOF 0
ENDMDL
