MODEL 1
REMARK minimizedAffinity -4.1618495
REMARK minimizedRMSD -1
REMARK  3 active torsions:
REMARK  status: ('A' for Active; 'I' for Inactive)
REMARK    1  A    between atoms: C3'_2  and  C2'_3 
REMARK    2  A    between atoms: C2'_3  and  C1'_4 
REMARK    3  A    between atoms: C1'_4  and  C1_5 
ROOT
ATOM      1  C1  N4B d   1       0.307   0.067   0.190  0.00  0.00    -0.075 A 
ATOM      2  C2  N4B d   1      -0.241   1.364   0.296  0.00  0.00     0.002 A 
ATOM      3  C3  N4B d   1      -1.128   1.655   1.303  0.00  0.00     0.002 A 
ATOM      4  C4  N4B d   1      -1.496   0.664   2.200  0.00  0.00    -0.004 A 
ATOM      5  C5  N4B d   1      -0.943  -0.580   2.107  0.00  0.00     0.002 A 
ATOM      6  C6  N4B d   1      -0.047  -0.885   1.102  0.00  0.00     0.002 A 
ENDROOT
BRANCH   1   7
ATOM      7  C1' N4B d   1       1.214  -0.322  -0.945  0.00  0.00     0.057 C 
BRANCH   7   8
ATOM      8  C2' N4B d   1       1.187  -1.838  -1.111  0.00  0.00     0.009 C 
BRANCH   8   9
ATOM      9  C3' N4B d   1       0.464  -2.258  -2.379  0.00  0.00     0.004 C 
ATOM     10  C4' N4B d   1      -0.245  -3.572  -2.237  0.00  0.00     0.003 C 
ENDBRANCH   8   9
ENDBRANCH   7   8
ENDBRANCH   1   7
TORSDOF 3
ENDMDL
