MODEL 1
REMARK minimizedAffinity -5.0762248
REMARK minimizedRMSD -1
REMARK  3 active torsions:
REMARK  status: ('A' for Active; 'I' for Inactive)
REMARK    1  A    between atoms: C3'_2  and  C2'_3 
REMARK    2  A    between atoms: C2'_3  and  C1'_4 
REMARK    3  A    between atoms: C1'_4  and  C1_5 
ROOT
ATOM      1  C1  N4B d   1       0.374   0.300   0.204  0.00  0.00    -0.075 A 
ATOM      2  C2  N4B d   1      -0.362  -0.398   1.186  0.00  0.00     0.002 A 
ATOM      3  C3  N4B d   1      -1.211   0.285   2.022  0.00  0.00     0.002 A 
ATOM      4  C4  N4B d   1      -1.326   1.663   1.907  0.00  0.00    -0.004 A 
ATOM      5  C5  N4B d   1      -0.631   2.326   0.939  0.00  0.00     0.002 A 
ATOM      6  C6  N4B d   1       0.223   1.651   0.089  0.00  0.00     0.002 A 
ENDROOT
BRANCH   1   7
ATOM      7  C1' N4B d   1       1.378  -0.392  -0.676  0.00  0.00     0.057 C 
BRANCH   7   8
ATOM      8  C2' N4B d   1       1.116  -1.895  -0.650  0.00  0.00     0.009 C 
BRANCH   8   9
ATOM      9  C3' N4B d   1       0.510  -2.389  -1.953  0.00  0.00     0.004 C 
ATOM     10  C4' N4B d   1       0.085  -3.826  -1.888  0.00  0.00     0.003 C 
ENDBRANCH   8   9
ENDBRANCH   7   8
ENDBRANCH   1   7
TORSDOF 3
ENDMDL
