MODEL 1
REMARK minimizedAffinity -6.22073507
REMARK minimizedRMSD -1
REMARK  3 active torsions:
REMARK  status: ('A' for Active; 'I' for Inactive)
REMARK    1  A    between atoms: C3'_2  and  C2'_3 
REMARK    2  A    between atoms: C2'_3  and  C1'_4 
REMARK    3  A    between atoms: C1'_4  and  C1_5 
ROOT
ATOM      1  C1  N4B d   1      -0.543   0.665   0.603  0.00  0.00    -0.075 A 
ATOM      2  C2  N4B d   1      -1.553   0.752   1.586  0.00  0.00     0.002 A 
ATOM      3  C3  N4B d   1      -2.326   1.883   1.677  0.00  0.00     0.002 A 
ATOM      4  C4  N4B d   1      -2.096   2.943   0.813  0.00  0.00    -0.004 A 
ATOM      5  C5  N4B d   1      -1.134   2.841  -0.150  0.00  0.00     0.002 A 
ATOM      6  C6  N4B d   1      -0.353   1.708  -0.256  0.00  0.00     0.002 A 
ENDROOT
BRANCH   1   7
ATOM      7  C1' N4B d   1       0.385  -0.517   0.520  0.00  0.00     0.057 C 
BRANCH   7   8
ATOM      8  C2' N4B d   1       0.924  -0.631  -0.902  0.00  0.00     0.009 C 
BRANCH   8   9
ATOM      9  C3' N4B d   1       1.077  -2.078  -1.338  0.00  0.00     0.004 C 
ATOM     10  C4' N4B d   1       0.312  -2.392  -2.589  0.00  0.00     0.003 C 
ENDBRANCH   8   9
ENDBRANCH   7   8
ENDBRANCH   1   7
TORSDOF 3
ENDMDL
