MODEL 1
REMARK minimizedAffinity -5.2776742
REMARK minimizedRMSD -1
REMARK  3 active torsions:
REMARK  status: ('A' for Active; 'I' for Inactive)
REMARK    1  A    between atoms: C3'_2  and  C2'_3 
REMARK    2  A    between atoms: C2'_3  and  C1'_4 
REMARK    3  A    between atoms: C1'_4  and  C1_5 
ROOT
ATOM      1  C1  N4B d   1      -0.090   0.130   0.652  0.00  0.00    -0.075 A 
ATOM      2  C2  N4B d   1      -0.515   0.303   1.988  0.00  0.00     0.002 A 
ATOM      3  C3  N4B d   1      -1.145   1.463   2.363  0.00  0.00     0.002 A 
ATOM      4  C4  N4B d   1      -1.344   2.469   1.428  0.00  0.00    -0.004 A 
ATOM      5  C5  N4B d   1      -0.954   2.284   0.135  0.00  0.00     0.002 A 
ATOM      6  C6  N4B d   1      -0.322   1.121  -0.258  0.00  0.00     0.002 A 
ENDROOT
BRANCH   1   7
ATOM      7  C1' N4B d   1       0.680  -1.086   0.214  0.00  0.00     0.057 C 
BRANCH   7   8
ATOM      8  C2' N4B d   1       1.234  -0.850  -1.188  0.00  0.00     0.009 C 
BRANCH   8   9
ATOM      9  C3' N4B d   1       1.307  -2.136  -1.993  0.00  0.00     0.004 C 
ATOM     10  C4' N4B d   1       1.077  -3.360  -1.156  0.00  0.00     0.003 C 
ENDBRANCH   8   9
ENDBRANCH   7   8
ENDBRANCH   1   7
TORSDOF 3
ENDMDL
