MODEL 1
REMARK minimizedAffinity -6.37427568
REMARK minimizedRMSD -1
REMARK  3 active torsions:
REMARK  status: ('A' for Active; 'I' for Inactive)
REMARK    1  A    between atoms: C3'_2  and  C2'_3 
REMARK    2  A    between atoms: C2'_3  and  C1'_4 
REMARK    3  A    between atoms: C1'_4  and  C1_5 
ROOT
ATOM      1  C1  N4B d   1      -0.655   0.774   0.297  0.00  0.00    -0.075 A 
ATOM      2  C2  N4B d   1      -1.744   1.096   1.136  0.00  0.00     0.002 A 
ATOM      3  C3  N4B d   1      -2.249   2.373   1.145  0.00  0.00     0.002 A 
ATOM      4  C4  N4B d   1      -1.671   3.345   0.342  0.00  0.00    -0.004 A 
ATOM      5  C5  N4B d   1      -0.636   3.020  -0.484  0.00  0.00     0.002 A 
ATOM      6  C6  N4B d   1      -0.121   1.739  -0.507  0.00  0.00     0.002 A 
ENDROOT
BRANCH   1   7
ATOM      7  C1' N4B d   1      -0.013  -0.587   0.315  0.00  0.00     0.057 C 
BRANCH   7   8
ATOM      8  C2' N4B d   1       1.059  -0.650  -0.768  0.00  0.00     0.009 C 
BRANCH   8   9
ATOM      9  C3' N4B d   1       1.163  -2.033  -1.386  0.00  0.00     0.004 C 
ATOM     10  C4' N4B d   1       0.251  -2.214  -2.563  0.00  0.00     0.003 C 
ENDBRANCH   8   9
ENDBRANCH   7   8
ENDBRANCH   1   7
TORSDOF 3
ENDMDL
