MODEL 1
REMARK minimizedAffinity -4.83343506
REMARK minimizedRMSD -1
REMARK  3 active torsions:
REMARK  status: ('A' for Active; 'I' for Inactive)
REMARK    1  A    between atoms: C3'_2  and  C2'_3 
REMARK    2  A    between atoms: C2'_3  and  C1'_4 
REMARK    3  A    between atoms: C1'_4  and  C1_5 
ROOT
ATOM      1  C1  N4B d   1      -0.530   0.319   0.601  0.00  0.00    -0.075 A 
ATOM      2  C2  N4B d   1      -1.224   0.781   1.742  0.00  0.00     0.002 A 
ATOM      3  C3  N4B d   1      -1.792   2.031   1.740  0.00  0.00     0.002 A 
ATOM      4  C4  N4B d   1      -1.663   2.842   0.623  0.00  0.00    -0.004 A 
ATOM      5  C5  N4B d   1      -1.013   2.379  -0.484  0.00  0.00     0.002 A 
ATOM      6  C6  N4B d   1      -0.441   1.123  -0.498  0.00  0.00     0.002 A 
ENDROOT
BRANCH   1   7
ATOM      7  C1' N4B d   1       0.180  -1.007   0.587  0.00  0.00     0.057 C 
BRANCH   7   8
ATOM      8  C2' N4B d   1       0.740  -1.260  -0.810  0.00  0.00     0.009 C 
BRANCH   8   9
ATOM      9  C3' N4B d   1       0.866  -2.743  -1.112  0.00  0.00     0.004 C 
ATOM     10  C4' N4B d   1       0.224  -3.128  -2.411  0.00  0.00     0.003 C 
ENDBRANCH   8   9
ENDBRANCH   7   8
ENDBRANCH   1   7
TORSDOF 3
ENDMDL
