MODEL 1
REMARK minimizedAffinity -4.12230682
REMARK minimizedRMSD -1
REMARK  1 active torsions:
REMARK  status: ('A' for Active; 'I' for Inactive)
REMARK    1  A    between atoms: C1_2  and  C2_3 
ROOT
ATOM      1  C2  UNL d   1       0.266  -0.404  -0.607  0.00  0.00    -0.081 A 
ATOM      2  C3  UNL d   1      -0.996   0.187  -0.469  0.00  0.00     0.006 A 
ATOM      3  C4  UNL d   1      -1.347   0.840   0.715  0.00  0.00     0.002 A 
ATOM      4  C5  UNL d   1      -0.439   0.920   1.776  0.00  0.00    -0.080 A 
ATOM      5  C6  UNL d   1      -0.792   1.645   3.041  0.00  0.00     0.076 C 
ATOM      6  C7  UNL d   1       0.816   0.316   1.645  0.00  0.00     0.002 A 
ATOM      7  C8  UNL d   1       1.166  -0.338   0.462  0.00  0.00     0.006 A 
ENDROOT
BRANCH   1   8
ATOM      8  C1  UNL d   1       0.670  -1.053  -1.906  0.00  0.00     0.054 C 
ATOM      9  C   UNL d   1       1.063  -0.012  -2.946  0.00  0.00     0.018 C 
ENDBRANCH   1   8
TORSDOF 1
ENDMDL
