MODEL 1
REMARK minimizedAffinity -2.13103747
REMARK minimizedRMSD -1
REMARK  1 active torsions:
REMARK  status: ('A' for Active; 'I' for Inactive)
REMARK    1  A    between atoms: C1_2  and  C2_3 
ROOT
ATOM      1  C2  UNL d   1      -1.108  -1.164  -0.305  0.00  0.00    -0.081 A 
ATOM      2  C3  UNL d   1      -1.705  -0.846   0.921  0.00  0.00     0.006 A 
ATOM      3  C4  UNL d   1      -1.301   0.285   1.634  0.00  0.00     0.002 A 
ATOM      4  C5  UNL d   1      -0.298   1.121   1.129  0.00  0.00    -0.080 A 
ATOM      5  C6  UNL d   1       0.124   2.354   1.870  0.00  0.00     0.076 C 
ATOM      6  C7  UNL d   1       0.310   0.794  -0.087  0.00  0.00     0.002 A 
ATOM      7  C8  UNL d   1      -0.094  -0.337  -0.800  0.00  0.00     0.006 A 
ENDROOT
BRANCH   1   8
ATOM      8  C1  UNL d   1      -1.588  -2.346  -1.108  0.00  0.00     0.054 C 
ATOM      9  C   UNL d   1      -2.793  -3.007  -0.454  0.00  0.00     0.018 C 
ENDBRANCH   1   8
TORSDOF 1
ENDMDL
