MODEL 1
REMARK minimizedAffinity -2.28698778
REMARK minimizedRMSD -1
REMARK  1 active torsions:
REMARK  status: ('A' for Active; 'I' for Inactive)
REMARK    1  A    between atoms: C1_2  and  C2_3 
ROOT
ATOM      1  C2  UNL d   1       0.391   0.144   0.062  0.00  0.00    -0.081 A 
ATOM      2  C3  UNL d   1      -0.891   0.529   0.471  0.00  0.00     0.006 A 
ATOM      3  C4  UNL d   1      -1.121   0.945   1.784  0.00  0.00     0.002 A 
ATOM      4  C5  UNL d   1      -0.072   0.990   2.709  0.00  0.00    -0.080 A 
ATOM      5  C6  UNL d   1      -0.299   1.464   4.113  0.00  0.00     0.076 C 
ATOM      6  C7  UNL d   1       1.206   0.589   2.305  0.00  0.00     0.002 A 
ATOM      7  C8  UNL d   1       1.437   0.172   0.992  0.00  0.00     0.006 A 
ENDROOT
BRANCH   1   8
ATOM      8  C1  UNL d   1       0.656  -0.243  -1.370  0.00  0.00     0.054 C 
ATOM      9  C   UNL d   1       0.518   0.953  -2.301  0.00  0.00     0.018 C 
ENDBRANCH   1   8
TORSDOF 1
ENDMDL
