MODEL 1
REMARK minimizedAffinity 0.702655971
REMARK minimizedRMSD -1
REMARK  1 active torsions:
REMARK  status: ('A' for Active; 'I' for Inactive)
REMARK    1  A    between atoms: C1_2  and  C2_3 
ROOT
ATOM      1  C2  UNL d   1       1.320   0.081  -0.546  0.00  0.00    -0.081 A 
ATOM      2  C3  UNL d   1      -0.042   0.318  -0.765  0.00  0.00     0.006 A 
ATOM      3  C4  UNL d   1      -0.907   0.528   0.312  0.00  0.00     0.002 A 
ATOM      4  C5  UNL d   1      -0.422   0.512   1.625  0.00  0.00    -0.080 A 
ATOM      5  C6  UNL d   1      -1.334   0.766   2.788  0.00  0.00     0.076 C 
ATOM      6  C7  UNL d   1       0.936   0.258   1.844  0.00  0.00     0.002 A 
ATOM      7  C8  UNL d   1       1.800   0.047   0.768  0.00  0.00     0.006 A 
ENDROOT
BRANCH   1   8
ATOM      8  C1  UNL d   1       2.266  -0.082  -1.708  0.00  0.00     0.054 C 
ATOM      9  C   UNL d   1       1.638   0.408  -3.005  0.00  0.00     0.018 C 
ENDBRANCH   1   8
TORSDOF 1
ENDMDL
