MODEL 1
REMARK minimizedAffinity -3.34585667
REMARK minimizedRMSD -1
REMARK  1 active torsions:
REMARK  status: ('A' for Active; 'I' for Inactive)
REMARK    1  A    between atoms: C1_2  and  C2_3 
ROOT
ATOM      1  C2  UNL d   1       0.657  -0.548  -1.953  0.00  0.00    -0.081 A 
ATOM      2  C3  UNL d   1       1.241   0.305  -2.896  0.00  0.00     0.006 A 
ATOM      3  C4  UNL d   1       0.766   0.340  -4.210  0.00  0.00     0.002 A 
ATOM      4  C5  UNL d   1      -0.305  -0.472  -4.599  0.00  0.00    -0.080 A 
ATOM      5  C6  UNL d   1      -0.844  -0.422  -5.998  0.00  0.00     0.076 C 
ATOM      6  C7  UNL d   1      -0.877  -1.337  -3.661  0.00  0.00     0.002 A 
ATOM      7  C8  UNL d   1      -0.402  -1.373  -2.348  0.00  0.00     0.006 A 
ENDROOT
BRANCH   1   8
ATOM      8  C1  UNL d   1       1.124  -0.541  -0.520  0.00  0.00     0.054 C 
ATOM      9  C   UNL d   1       0.061   0.031   0.406  0.00  0.00     0.018 C 
ENDBRANCH   1   8
TORSDOF 1
ENDMDL
