MODEL 1
REMARK minimizedAffinity -3.71347904
REMARK minimizedRMSD -1
REMARK  1 active torsions:
REMARK  status: ('A' for Active; 'I' for Inactive)
REMARK    1  A    between atoms: C1_2  and  C2_3 
ROOT
ATOM      1  C2  UNL d   1       0.143  -0.318  -0.112  0.00  0.00    -0.081 A 
ATOM      2  C3  UNL d   1      -1.149   0.119   0.205  0.00  0.00     0.006 A 
ATOM      3  C4  UNL d   1      -1.415   0.699   1.448  0.00  0.00     0.002 A 
ATOM      4  C5  UNL d   1      -0.394   0.860   2.390  0.00  0.00    -0.080 A 
ATOM      5  C6  UNL d   1      -0.660   1.509   3.715  0.00  0.00     0.076 C 
ATOM      6  C7  UNL d   1       0.894   0.408   2.080  0.00  0.00     0.002 A 
ATOM      7  C8  UNL d   1       1.160  -0.173   0.838  0.00  0.00     0.006 A 
ENDROOT
BRANCH   1   8
ATOM      8  C1  UNL d   1       0.448  -0.886  -1.474  0.00  0.00     0.054 C 
ATOM      9  C   UNL d   1       0.046   0.082  -2.579  0.00  0.00     0.018 C 
ENDBRANCH   1   8
TORSDOF 1
ENDMDL
