MODEL 1
REMARK minimizedAffinity -3.49029994
REMARK minimizedRMSD -1
REMARK  1 active torsions:
REMARK  status: ('A' for Active; 'I' for Inactive)
REMARK    1  A    between atoms: C1_2  and  C2_3 
ROOT
ATOM      1  C2  UNL d   1       0.713   0.222  -1.226  0.00  0.00    -0.081 A 
ATOM      2  C3  UNL d   1       1.173  -0.489  -0.111  0.00  0.00     0.006 A 
ATOM      3  C4  UNL d   1       0.779  -0.120   1.177  0.00  0.00     0.002 A 
ATOM      4  C5  UNL d   1      -0.088   0.961   1.371  0.00  0.00    -0.080 A 
ATOM      5  C6  UNL d   1      -0.543   1.350   2.746  0.00  0.00     0.076 C 
ATOM      6  C7  UNL d   1      -0.533   1.683   0.259  0.00  0.00     0.002 A 
ATOM      7  C8  UNL d   1      -0.139   1.315  -1.029  0.00  0.00     0.006 A 
ENDROOT
BRANCH   1   8
ATOM      8  C1  UNL d   1       1.085  -0.214  -2.620  0.00  0.00     0.054 C 
ATOM      9  C   UNL d   1       0.954   0.934  -3.612  0.00  0.00     0.018 C 
ENDBRANCH   1   8
TORSDOF 1
ENDMDL
