MODEL 1
REMARK minimizedAffinity 4.73182106
REMARK minimizedRMSD -1
REMARK  1 active torsions:
REMARK  status: ('A' for Active; 'I' for Inactive)
REMARK    1  A    between atoms: C1_2  and  C2_3 
ROOT
ATOM      1  C2  UNL d   1       3.484   4.600  -2.595  0.00  0.00    -0.073 A 
ATOM      2  C3  UNL d   1       4.179   5.543  -1.829  0.00  0.00    -0.002 A 
ATOM      3  C4  UNL d   1       5.432   6.000  -2.239  0.00  0.00     0.004 A 
ATOM      4  C5  UNL d   1       6.000   5.525  -3.421  0.00  0.00    -0.004 A 
ATOM      5  C6  UNL d   1       5.317   4.592  -4.207  0.00  0.00    -0.075 A 
ATOM      6  C7  UNL d   1       5.915   4.070  -5.480  0.00  0.00     0.076 C 
ATOM      7  C8  UNL d   1       4.060   4.136  -3.787  0.00  0.00     0.001 A 
ENDROOT
BRANCH   1   8
ATOM      8  C1  UNL d   1       2.128   4.109  -2.160  0.00  0.00     0.053 C 
ATOM      9  C   UNL d   1       1.974   4.127  -0.648  0.00  0.00     0.018 C 
ENDBRANCH   1   8
TORSDOF 1
ENDMDL
