MODEL 1
REMARK minimizedAffinity 3.50131202
REMARK minimizedRMSD -1
REMARK  1 active torsions:
REMARK  status: ('A' for Active; 'I' for Inactive)
REMARK    1  A    between atoms: C1_2  and  C2_3 
ROOT
ATOM      1  C2  UNL d   1       3.628  -2.400   3.260  0.00  0.00    -0.073 A 
ATOM      2  C3  UNL d   1       2.934  -1.509   4.088  0.00  0.00    -0.002 A 
ATOM      3  C4  UNL d   1       3.223  -1.444   5.452  0.00  0.00     0.004 A 
ATOM      4  C5  UNL d   1       4.211  -2.262   6.000  0.00  0.00    -0.004 A 
ATOM      5  C6  UNL d   1       4.923  -3.150   5.187  0.00  0.00    -0.075 A 
ATOM      6  C7  UNL d   1       5.987  -4.038   5.761  0.00  0.00     0.076 C 
ATOM      7  C8  UNL d   1       4.625  -3.211   3.819  0.00  0.00     0.001 A 
ENDROOT
BRANCH   1   8
ATOM      8  C1  UNL d   1       3.324  -2.469   1.786  0.00  0.00     0.053 C 
ATOM      9  C   UNL d   1       3.351  -1.096   1.133  0.00  0.00     0.018 C 
ENDBRANCH   1   8
TORSDOF 1
ENDMDL
