MODEL 1
REMARK minimizedAffinity 1.40577161
REMARK minimizedRMSD -1
REMARK  1 active torsions:
REMARK  status: ('A' for Active; 'I' for Inactive)
REMARK    1  A    between atoms: C1_2  and  C2_3 
ROOT
ATOM      1  C2  UNL d   1       4.275  -3.339   2.676  0.00  0.00    -0.073 A 
ATOM      2  C3  UNL d   1       2.972  -3.063   3.107  0.00  0.00    -0.002 A 
ATOM      3  C4  UNL d   1       2.650  -3.130   4.463  0.00  0.00     0.004 A 
ATOM      4  C5  UNL d   1       3.626  -3.467   5.401  0.00  0.00    -0.004 A 
ATOM      5  C6  UNL d   1       4.936  -3.735   4.991  0.00  0.00    -0.075 A 
ATOM      6  C7  UNL d   1       5.997  -4.100   5.987  0.00  0.00     0.076 C 
ATOM      7  C8  UNL d   1       5.251  -3.668   3.627  0.00  0.00     0.001 A 
ENDROOT
BRANCH   1   8
ATOM      8  C1  UNL d   1       4.629  -3.262   1.213  0.00  0.00     0.053 C 
ATOM      9  C   UNL d   1       3.629  -2.429   0.427  0.00  0.00     0.018 C 
ENDBRANCH   1   8
TORSDOF 1
ENDMDL
