MODEL 1
REMARK minimizedAffinity 5.76809692
REMARK minimizedRMSD -1
REMARK  1 active torsions:
REMARK  status: ('A' for Active; 'I' for Inactive)
REMARK    1  A    between atoms: C1_2  and  C2_3 
ROOT
ATOM      1  C2  UNL d   1       3.421  -1.938   3.276  0.00  0.00    -0.073 A 
ATOM      2  C3  UNL d   1       2.709  -1.079   4.121  0.00  0.00    -0.002 A 
ATOM      3  C4  UNL d   1       3.030  -0.999   5.477  0.00  0.00     0.004 A 
ATOM      4  C5  UNL d   1       4.069  -1.769   5.999  0.00  0.00    -0.004 A 
ATOM      5  C6  UNL d   1       4.800  -2.625   5.168  0.00  0.00    -0.075 A 
ATOM      6  C7  UNL d   1       5.918  -3.462   5.715  0.00  0.00     0.076 C 
ATOM      7  C8  UNL d   1       4.470  -2.702   3.808  0.00  0.00     0.001 A 
ENDROOT
BRANCH   1   8
ATOM      8  C1  UNL d   1       3.083  -2.023   1.810  0.00  0.00     0.053 C 
ATOM      9  C   UNL d   1       3.527  -0.783   1.049  0.00  0.00     0.018 C 
ENDBRANCH   1   8
TORSDOF 1
ENDMDL
