MODEL 1
REMARK minimizedAffinity 19.1751003
REMARK minimizedRMSD -1
REMARK  1 active torsions:
REMARK  status: ('A' for Active; 'I' for Inactive)
REMARK    1  A    between atoms: C1_2  and  C2_3 
ROOT
ATOM      1  C2  UNL d   1       5.276   4.446  -1.988  0.00  0.00    -0.073 A 
ATOM      2  C3  UNL d   1       3.933   4.643  -2.328  0.00  0.00    -0.002 A 
ATOM      3  C4  UNL d   1       3.265   3.716  -3.129  0.00  0.00     0.004 A 
ATOM      4  C5  UNL d   1       3.930   2.581  -3.591  0.00  0.00    -0.004 A 
ATOM      5  C6  UNL d   1       5.269   2.360  -3.253  0.00  0.00    -0.075 A 
ATOM      6  C7  UNL d   1       5.999   1.145  -3.744  0.00  0.00     0.076 C 
ATOM      7  C8  UNL d   1       5.933   3.297  -2.450  0.00  0.00     0.001 A 
ENDROOT
BRANCH   1   8
ATOM      8  C1  UNL d   1       6.000   5.442  -1.118  0.00  0.00     0.053 C 
ATOM      9  C   UNL d   1       5.999   5.026   0.345  0.00  0.00     0.018 C 
ENDBRANCH   1   8
TORSDOF 1
ENDMDL
