MODEL 1
REMARK minimizedAffinity 3.40289426
REMARK minimizedRMSD -1
REMARK  1 active torsions:
REMARK  status: ('A' for Active; 'I' for Inactive)
REMARK    1  A    between atoms: C1_2  and  C2_3 
ROOT
ATOM      1  C2  UNL d   1       5.259   4.085  -3.968  0.00  0.00    -0.073 A 
ATOM      2  C3  UNL d   1       3.971   4.545  -4.265  0.00  0.00    -0.002 A 
ATOM      3  C4  UNL d   1       3.341   5.465  -3.427  0.00  0.00     0.004 A 
ATOM      4  C5  UNL d   1       3.993   5.939  -2.288  0.00  0.00    -0.004 A 
ATOM      5  C6  UNL d   1       5.285   5.500  -1.981  0.00  0.00    -0.075 A 
ATOM      6  C7  UNL d   1       5.999   5.998  -0.759  0.00  0.00     0.076 C 
ATOM      7  C8  UNL d   1       5.910   4.574  -2.826  0.00  0.00     0.001 A 
ENDROOT
BRANCH   1   8
ATOM      8  C1  UNL d   1       5.946   3.096  -4.874  0.00  0.00     0.053 C 
ATOM      9  C   UNL d   1       5.964   1.696  -4.282  0.00  0.00     0.018 C 
ENDBRANCH   1   8
TORSDOF 1
ENDMDL
