MODEL 1
REMARK minimizedAffinity 5.02892256
REMARK minimizedRMSD -1
REMARK  1 active torsions:
REMARK  status: ('A' for Active; 'I' for Inactive)
REMARK    1  A    between atoms: C1_2  and  C2_3 
ROOT
ATOM      1  C2  UNL d   1      -0.514  -4.497  -4.020  0.00  0.00    -0.073 A 
ATOM      2  C3  UNL d   1      -0.261  -3.519  -4.989  0.00  0.00    -0.002 A 
ATOM      3  C4  UNL d   1       0.095  -2.224  -4.607  0.00  0.00     0.004 A 
ATOM      4  C5  UNL d   1       0.208  -1.897  -3.256  0.00  0.00    -0.004 A 
ATOM      5  C6  UNL d   1      -0.030  -2.863  -2.274  0.00  0.00    -0.075 A 
ATOM      6  C7  UNL d   1       0.085  -2.526  -0.816  0.00  0.00     0.076 C 
ATOM      7  C8  UNL d   1      -0.390  -4.160  -2.664  0.00  0.00     0.001 A 
ENDROOT
BRANCH   1   8
ATOM      8  C1  UNL d   1      -0.893  -5.897  -4.427  0.00  0.00     0.053 C 
ATOM      9  C   UNL d   1      -1.191  -5.997  -5.914  0.00  0.00     0.018 C 
ENDBRANCH   1   8
TORSDOF 1
ENDMDL
