MODEL 1
REMARK minimizedAffinity 4.39465761
REMARK minimizedRMSD -1
REMARK  1 active torsions:
REMARK  status: ('A' for Active; 'I' for Inactive)
REMARK    1  A    between atoms: C1_2  and  C2_3 
ROOT
ATOM      1  C2  UNL d   1      -0.420  -2.237  -1.437  0.00  0.00    -0.073 A 
ATOM      2  C3  UNL d   1      -1.161  -3.092  -2.261  0.00  0.00    -0.002 A 
ATOM      3  C4  UNL d   1      -0.560  -3.708  -3.359  0.00  0.00     0.004 A 
ATOM      4  C5  UNL d   1       0.787  -3.482  -3.641  0.00  0.00    -0.004 A 
ATOM      5  C6  UNL d   1       1.547  -2.641  -2.822  0.00  0.00    -0.075 A 
ATOM      6  C7  UNL d   1       2.997  -2.386  -3.112  0.00  0.00     0.076 C 
ATOM      7  C8  UNL d   1       0.936  -2.024  -1.722  0.00  0.00     0.001 A 
ENDROOT
BRANCH   1   8
ATOM      8  C1  UNL d   1      -1.063  -1.575  -0.246  0.00  0.00     0.053 C 
ATOM      9  C   UNL d   1      -1.819  -2.569   0.621  0.00  0.00     0.018 C 
ENDBRANCH   1   8
TORSDOF 1
ENDMDL
