MODEL 1
REMARK minimizedAffinity 2.34720588
REMARK minimizedRMSD -1
REMARK  1 active torsions:
REMARK  status: ('A' for Active; 'I' for Inactive)
REMARK    1  A    between atoms: C1_2  and  C2_3 
ROOT
ATOM      1  C2  UNL d   1      -2.187  -1.584   1.644  0.00  0.00    -0.073 A 
ATOM      2  C3  UNL d   1      -3.340  -2.316   1.336  0.00  0.00    -0.002 A 
ATOM      3  C4  UNL d   1      -3.506  -2.867   0.065  0.00  0.00     0.004 A 
ATOM      4  C5  UNL d   1      -2.521  -2.698  -0.908  0.00  0.00    -0.004 A 
ATOM      5  C6  UNL d   1      -1.357  -1.980  -0.616  0.00  0.00    -0.075 A 
ATOM      6  C7  UNL d   1      -0.289  -1.788  -1.652  0.00  0.00     0.076 C 
ATOM      7  C8  UNL d   1      -1.198  -1.428   0.662  0.00  0.00     0.001 A 
ENDROOT
BRANCH   1   8
ATOM      8  C1  UNL d   1      -2.000  -0.993   3.017  0.00  0.00     0.053 C 
ATOM      9  C   UNL d   1      -1.813   0.516   2.967  0.00  0.00     0.018 C 
ENDBRANCH   1   8
TORSDOF 1
ENDMDL
