MODEL 1
REMARK minimizedAffinity 3.78588986
REMARK minimizedRMSD -1
REMARK  1 active torsions:
REMARK  status: ('A' for Active; 'I' for Inactive)
REMARK    1  A    between atoms: C1_2  and  C2_3 
ROOT
ATOM      1  C2  UNL d   1      -0.639  -2.801  -0.907  0.00  0.00    -0.073 A 
ATOM      2  C3  UNL d   1      -0.124  -1.603  -1.413  0.00  0.00    -0.002 A 
ATOM      3  C4  UNL d   1       0.194  -1.489  -2.767  0.00  0.00     0.004 A 
ATOM      4  C5  UNL d   1      -0.006  -2.568  -3.629  0.00  0.00    -0.004 A 
ATOM      5  C6  UNL d   1      -0.531  -3.770  -3.143  0.00  0.00    -0.075 A 
ATOM      6  C7  UNL d   1      -0.750  -4.940  -4.056  0.00  0.00     0.076 C 
ATOM      7  C8  UNL d   1      -0.845  -3.877  -1.782  0.00  0.00     0.001 A 
ENDROOT
BRANCH   1   8
ATOM      8  C1  UNL d   1      -0.990  -2.927   0.553  0.00  0.00     0.053 C 
ATOM      9  C   UNL d   1      -2.432  -2.532   0.829  0.00  0.00     0.018 C 
ENDBRANCH   1   8
TORSDOF 1
ENDMDL
