MODEL 1
REMARK minimizedAffinity 7.32942295
REMARK minimizedRMSD -1
REMARK  1 active torsions:
REMARK  status: ('A' for Active; 'I' for Inactive)
REMARK    1  A    between atoms: C1_2  and  C2_3 
ROOT
ATOM      1  C2  UNL d   1       1.625  -2.187  -2.812  0.00  0.00    -0.073 A 
ATOM      2  C3  UNL d   1       0.840  -1.466  -1.906  0.00  0.00    -0.002 A 
ATOM      3  C4  UNL d   1      -0.410  -1.950  -1.516  0.00  0.00     0.004 A 
ATOM      4  C5  UNL d   1      -0.883  -3.161  -2.022  0.00  0.00    -0.004 A 
ATOM      5  C6  UNL d   1      -0.107  -3.902  -2.919  0.00  0.00    -0.075 A 
ATOM      6  C7  UNL d   1      -0.602  -5.205  -3.473  0.00  0.00     0.076 C 
ATOM      7  C8  UNL d   1       1.145  -3.408  -3.308  0.00  0.00     0.001 A 
ENDROOT
BRANCH   1   8
ATOM      8  C1  UNL d   1       2.978  -1.672  -3.231  0.00  0.00     0.053 C 
ATOM      9  C   UNL d   1       3.942  -1.582  -2.059  0.00  0.00     0.018 C 
ENDBRANCH   1   8
TORSDOF 1
ENDMDL
