MODEL 1
REMARK minimizedAffinity 4.76527834
REMARK minimizedRMSD -1
REMARK  1 active torsions:
REMARK  status: ('A' for Active; 'I' for Inactive)
REMARK    1  A    between atoms: C1_2  and  C2_3 
ROOT
ATOM      1  C2  UNL d   1      -0.757  -3.940  -3.478  0.00  0.00    -0.073 A 
ATOM      2  C3  UNL d   1       0.179  -2.988  -3.896  0.00  0.00    -0.002 A 
ATOM      3  C4  UNL d   1       0.591  -1.976  -3.028  0.00  0.00     0.004 A 
ATOM      4  C5  UNL d   1       0.077  -1.909  -1.733  0.00  0.00    -0.004 A 
ATOM      5  C6  UNL d   1      -0.851  -2.858  -1.293  0.00  0.00    -0.075 A 
ATOM      6  C7  UNL d   1      -1.415  -2.799   0.096  0.00  0.00     0.076 C 
ATOM      7  C8  UNL d   1      -1.262  -3.870  -2.171  0.00  0.00     0.001 A 
ENDROOT
BRANCH   1   8
ATOM      8  C1  UNL d   1      -1.201  -5.038  -4.409  0.00  0.00     0.053 C 
ATOM      9  C   UNL d   1      -0.575  -4.903  -5.789  0.00  0.00     0.018 C 
ENDBRANCH   1   8
TORSDOF 1
ENDMDL
