MODEL 1
REMARK minimizedAffinity -2.28775191
REMARK minimizedRMSD -1
REMARK  0 active torsions:
REMARK  status: ('A' for Active; 'I' for Inactive)
ROOT
ATOM      1  C   UNL d   1      -0.847  -0.732   1.010  0.00  0.00    -0.002 A 
ATOM      2  C1  UNL d   1       0.398  -0.122   1.069  0.00  0.00     0.010 A 
ATOM      3  C2  UNL d   1       0.795   0.780   0.080  0.00  0.00     0.041 A 
ATOM      4  C3  UNL d   1      -0.090   1.064  -0.979  0.00  0.00    -0.075 A 
ATOM      5  S   UNL d   1       0.181   2.136  -2.301  0.00  0.00     0.015 SA
ATOM      6  C4  UNL d   1      -1.351   1.811  -2.975  0.00  0.00     0.022 A 
ATOM      7  C5  UNL d   1      -2.064   0.908  -2.223  0.00  0.00     0.026 A 
ATOM      8  C6  UNL d   1      -1.350   0.463  -1.059  0.00  0.00    -0.082 A 
ATOM      9  C7  UNL d   1      -1.722  -0.448  -0.042  0.00  0.00     0.045 A 
ENDROOT
TORSDOF 0
ENDMDL
