MODEL 1
REMARK minimizedAffinity -0.619537652
REMARK minimizedRMSD -1
REMARK  0 active torsions:
REMARK  status: ('A' for Active; 'I' for Inactive)
ROOT
ATOM      1  C   UNL d   1       0.007  -1.288   2.255  0.00  0.00    -0.002 A 
ATOM      2  C1  UNL d   1      -1.201  -0.624   2.101  0.00  0.00     0.010 A 
ATOM      3  C2  UNL d   1      -1.594  -0.145   0.850  0.00  0.00     0.041 A 
ATOM      4  C3  UNL d   1      -0.744  -0.348  -0.255  0.00  0.00    -0.075 A 
ATOM      5  S   UNL d   1      -1.017   0.150  -1.883  0.00  0.00     0.015 SA
ATOM      6  C4  UNL d   1       0.463  -0.509  -2.412  0.00  0.00     0.022 A 
ATOM      7  C5  UNL d   1       1.162  -1.098  -1.385  0.00  0.00     0.026 A 
ATOM      8  C6  UNL d   1       0.478  -1.016  -0.125  0.00  0.00    -0.082 A 
ATOM      9  C7  UNL d   1       0.848  -1.488   1.157  0.00  0.00     0.045 A 
ENDROOT
TORSDOF 0
ENDMDL
