MODEL 1
REMARK minimizedAffinity -4.83917475
REMARK minimizedRMSD -1
REMARK  0 active torsions:
REMARK  status: ('A' for Active; 'I' for Inactive)
ROOT
ATOM      1  O1  BZF d   1      -0.527   0.905  -0.011  0.00  0.00    -0.204 OA
ATOM      2  C2  BZF d   1       0.549   0.473  -0.762  0.00  0.00     0.174 A 
ATOM      3  C3  BZF d   1       0.792  -0.835  -0.542  0.00  0.00    -0.012 A 
ATOM      4  C3A BZF d   1      -0.252  -1.269   0.336  0.00  0.00    -0.107 A 
ATOM      5  C4  BZF d   1      -0.563  -2.472   0.902  0.00  0.00     0.055 A 
ATOM      6  C5  BZF d   1      -1.606  -2.543   1.771  0.00  0.00    -0.016 A 
ATOM      7  C6  BZF d   1      -2.354  -1.432   2.099  0.00  0.00     0.022 A 
ATOM      8  C7  BZF d   1      -2.087  -0.218   1.559  0.00  0.00     0.029 A 
ATOM      9  C7A BZF d   1      -1.054  -0.149   0.656  0.00  0.00     0.058 A 
ENDROOT
TORSDOF 0
ENDMDL
