MODEL 1
REMARK minimizedAffinity -2.51491642
REMARK minimizedRMSD -1
REMARK  0 active torsions:
REMARK  status: ('A' for Active; 'I' for Inactive)
ROOT
ATOM      1  O1  BZF d   1       1.199   0.924  -3.170  0.00  0.00    -0.204 OA
ATOM      2  C2  BZF d   1       1.561   2.205  -3.539  0.00  0.00     0.174 A 
ATOM      3  C3  BZF d   1       1.349   3.072  -2.528  0.00  0.00    -0.012 A 
ATOM      4  C3A BZF d   1       0.908   2.269  -1.430  0.00  0.00    -0.107 A 
ATOM      5  C4  BZF d   1       0.555   2.552  -0.141  0.00  0.00     0.055 A 
ATOM      6  C5  BZF d   1       0.101   1.549   0.655  0.00  0.00    -0.016 A 
ATOM      7  C6  BZF d   1      -0.018   0.254   0.195  0.00  0.00     0.022 A 
ATOM      8  C7  BZF d   1       0.325  -0.077  -1.073  0.00  0.00     0.029 A 
ATOM      9  C7A BZF d   1       0.816   0.928  -1.871  0.00  0.00     0.058 A 
ENDROOT
TORSDOF 0
ENDMDL
