MODEL 1
REMARK minimizedAffinity -2.01650739
REMARK minimizedRMSD -1
REMARK  0 active torsions:
REMARK  status: ('A' for Active; 'I' for Inactive)
ROOT
ATOM      1  O1  BZF d   1       3.712   1.542  -4.245  0.00  0.00    -0.204 OA
ATOM      2  C2  BZF d   1       4.764   1.706  -3.365  0.00  0.00     0.174 A 
ATOM      3  C3  BZF d   1       4.329   2.189  -2.183  0.00  0.00    -0.012 A 
ATOM      4  C3A BZF d   1       2.904   2.250  -2.303  0.00  0.00    -0.107 A 
ATOM      5  C4  BZF d   1       1.906   2.632  -1.454  0.00  0.00     0.055 A 
ATOM      6  C5  BZF d   1       0.624   2.642  -1.903  0.00  0.00    -0.016 A 
ATOM      7  C6  BZF d   1       0.305   2.280  -3.196  0.00  0.00     0.022 A 
ATOM      8  C7  BZF d   1       1.260   1.888  -4.073  0.00  0.00     0.029 A 
ATOM      9  C7A BZF d   1       2.553   1.846  -3.612  0.00  0.00     0.058 A 
ENDROOT
TORSDOF 0
ENDMDL
