MODEL 1
REMARK minimizedAffinity -2.26185179
REMARK minimizedRMSD -1
REMARK  0 active torsions:
REMARK  status: ('A' for Active; 'I' for Inactive)
ROOT
ATOM      1  O1  BZF d   1      -2.154   0.700   1.601  0.00  0.00    -0.204 OA
ATOM      2  C2  BZF d   1      -2.730  -0.109   2.562  0.00  0.00     0.174 A 
ATOM      3  C3  BZF d   1      -2.142  -1.322   2.581  0.00  0.00    -0.012 A 
ATOM      4  C3A BZF d   1      -1.075  -1.239   1.631  0.00  0.00    -0.107 A 
ATOM      5  C4  BZF d   1      -0.120  -2.120   1.212  0.00  0.00     0.055 A 
ATOM      6  C5  BZF d   1       0.728  -1.751   0.217  0.00  0.00    -0.016 A 
ATOM      7  C6  BZF d   1       0.647  -0.512  -0.384  0.00  0.00     0.022 A 
ATOM      8  C7  BZF d   1      -0.281   0.398   0.001  0.00  0.00     0.029 A 
ATOM      9  C7A BZF d   1      -1.119   0.040   1.029  0.00  0.00     0.058 A 
ENDROOT
TORSDOF 0
ENDMDL
