MODEL 1
REMARK minimizedAffinity -4.4750042
REMARK minimizedRMSD -1
REMARK  0 active torsions:
REMARK  status: ('A' for Active; 'I' for Inactive)
ROOT
ATOM      1  O1  BZF d   1      -1.141   0.560   1.219  0.00  0.00    -0.204 OA
ATOM      2  C2  BZF d   1      -0.275   1.383   0.526  0.00  0.00     0.174 A 
ATOM      3  C3  BZF d   1       0.791   0.689   0.079  0.00  0.00    -0.012 A 
ATOM      4  C3A BZF d   1       0.532  -0.671   0.440  0.00  0.00    -0.107 A 
ATOM      5  C4  BZF d   1       1.217  -1.838   0.255  0.00  0.00     0.055 A 
ATOM      6  C5  BZF d   1       0.726  -2.985   0.795  0.00  0.00    -0.016 A 
ATOM      7  C6  BZF d   1      -0.442  -3.000   1.529  0.00  0.00     0.022 A 
ATOM      8  C7  BZF d   1      -1.159  -1.868   1.735  0.00  0.00     0.029 A 
ATOM      9  C7A BZF d   1      -0.682  -0.714   1.163  0.00  0.00     0.058 A 
ENDROOT
TORSDOF 0
ENDMDL
