MODEL 1
REMARK minimizedAffinity -3.37073469
REMARK minimizedRMSD -1
REMARK  0 active torsions:
REMARK  status: ('A' for Active; 'I' for Inactive)
ROOT
ATOM      1  O1  BZF d   1      -0.934   0.908   0.289  0.00  0.00    -0.204 OA
ATOM      2  C2  BZF d   1       0.089   0.501  -0.545  0.00  0.00     0.174 A 
ATOM      3  C3  BZF d   1       0.370  -0.805  -0.356  0.00  0.00    -0.012 A 
ATOM      4  C3A BZF d   1      -0.596  -1.263   0.595  0.00  0.00    -0.107 A 
ATOM      5  C4  BZF d   1      -0.842  -2.476   1.173  0.00  0.00     0.055 A 
ATOM      6  C5  BZF d   1      -1.814  -2.573   2.118  0.00  0.00    -0.016 A 
ATOM      7  C6  BZF d   1      -2.554  -1.477   2.512  0.00  0.00     0.022 A 
ATOM      8  C7  BZF d   1      -2.349  -0.255   1.964  0.00  0.00     0.029 A 
ATOM      9  C7A BZF d   1      -1.390  -0.161   0.985  0.00  0.00     0.058 A 
ENDROOT
TORSDOF 0
ENDMDL
