MODEL 1
REMARK minimizedAffinity -4.6882987
REMARK minimizedRMSD -1
REMARK  0 active torsions:
REMARK  status: ('A' for Active; 'I' for Inactive)
ROOT
ATOM      1  O1  BZF d   1       0.894   0.595  -3.801  0.00  0.00    -0.204 OA
ATOM      2  C2  BZF d   1       1.080   1.963  -3.865  0.00  0.00     0.174 A 
ATOM      3  C3  BZF d   1       1.070   2.505  -2.630  0.00  0.00    -0.012 A 
ATOM      4  C3A BZF d   1       0.957   1.395  -1.733  0.00  0.00    -0.107 A 
ATOM      5  C4  BZF d   1       0.911   1.289  -0.372  0.00  0.00     0.055 A 
ATOM      6  C5  BZF d   1       0.723   0.065   0.189  0.00  0.00    -0.016 A 
ATOM      7  C6  BZF d   1       0.573  -1.070  -0.580  0.00  0.00     0.022 A 
ATOM      8  C7  BZF d   1       0.616  -1.015  -1.933  0.00  0.00     0.029 A 
ATOM      9  C7A BZF d   1       0.839   0.215  -2.502  0.00  0.00     0.058 A 
ENDROOT
TORSDOF 0
ENDMDL
