MODEL 1
REMARK minimizedAffinity -2.98961329
REMARK minimizedRMSD -1
REMARK  0 active torsions:
REMARK  status: ('A' for Active; 'I' for Inactive)
ROOT
ATOM      1  O1  BZF d   1      -0.188   0.311  -1.844  0.00  0.00    -0.204 OA
ATOM      2  C2  BZF d   1       0.418   1.415  -1.278  0.00  0.00     0.174 A 
ATOM      3  C3  BZF d   1       0.465   1.299   0.065  0.00  0.00    -0.012 A 
ATOM      4  C3A BZF d   1      -0.068   0.002   0.349  0.00  0.00    -0.107 A 
ATOM      5  C4  BZF d   1      -0.269  -0.698   1.505  0.00  0.00     0.055 A 
ATOM      6  C5  BZF d   1      -0.877  -1.912   1.444  0.00  0.00    -0.016 A 
ATOM      7  C6  BZF d   1      -1.303  -2.452   0.248  0.00  0.00     0.022 A 
ATOM      8  C7  BZF d   1      -1.121  -1.797  -0.924  0.00  0.00     0.029 A 
ATOM      9  C7A BZF d   1      -0.477  -0.585  -0.870  0.00  0.00     0.058 A 
ENDROOT
TORSDOF 0
ENDMDL
