MODEL 1
REMARK minimizedAffinity -3.46427822
REMARK minimizedRMSD -1
REMARK  0 active torsions:
REMARK  status: ('A' for Active; 'I' for Inactive)
ROOT
ATOM      1  O1  BZF d   1      -0.151  -2.730   1.545  0.00  0.00    -0.204 OA
ATOM      2  C2  BZF d   1       0.839  -2.547   0.599  0.00  0.00     0.174 A 
ATOM      3  C3  BZF d   1       0.706  -1.350  -0.008  0.00  0.00    -0.012 A 
ATOM      4  C3A BZF d   1      -0.385  -0.709   0.660  0.00  0.00    -0.107 A 
ATOM      5  C4  BZF d   1      -0.987   0.509   0.519  0.00  0.00     0.055 A 
ATOM      6  C5  BZF d   1      -2.075   0.800   1.279  0.00  0.00    -0.016 A 
ATOM      7  C6  BZF d   1      -2.590  -0.104   2.185  0.00  0.00     0.022 A 
ATOM      8  C7  BZF d   1      -2.024  -1.322   2.364  0.00  0.00     0.029 A 
ATOM      9  C7A BZF d   1      -0.904  -1.607   1.621  0.00  0.00     0.058 A 
ENDROOT
TORSDOF 0
ENDMDL
