MODEL 1
REMARK minimizedAffinity -2.6293602
REMARK minimizedRMSD -1
REMARK  0 active torsions:
REMARK  status: ('A' for Active; 'I' for Inactive)
ROOT
ATOM      1  O1  BZF d   1       0.020   1.660  -0.597  0.00  0.00    -0.204 OA
ATOM      2  C2  BZF d   1       0.926   1.613  -1.640  0.00  0.00     0.174 A 
ATOM      3  C3  BZF d   1       1.545   0.415  -1.682  0.00  0.00    -0.012 A 
ATOM      4  C3A BZF d   1       0.925  -0.365  -0.655  0.00  0.00    -0.107 A 
ATOM      5  C4  BZF d   1       1.097  -1.647  -0.217  0.00  0.00     0.055 A 
ATOM      6  C5  BZF d   1       0.383  -2.080   0.855  0.00  0.00    -0.016 A 
ATOM      7  C6  BZF d   1      -0.506  -1.258   1.515  0.00  0.00     0.022 A 
ATOM      8  C7  BZF d   1      -0.715   0.020   1.115  0.00  0.00     0.029 A 
ATOM      9  C7A BZF d   1      -0.019   0.450   0.011  0.00  0.00     0.058 A 
ENDROOT
TORSDOF 0
ENDMDL
