MODEL 1
REMARK minimizedAffinity -4.27450323
REMARK minimizedRMSD -1
REMARK  0 active torsions:
REMARK  status: ('A' for Active; 'I' for Inactive)
ROOT
ATOM      1  O1  BZF d   1       1.125   0.343  -3.430  0.00  0.00    -0.204 OA
ATOM      2  C2  BZF d   1       1.323   1.706  -3.542  0.00  0.00     0.174 A 
ATOM      3  C3  BZF d   1       0.986   2.334  -2.397  0.00  0.00    -0.012 A 
ATOM      4  C3A BZF d   1       0.637   1.289  -1.483  0.00  0.00    -0.107 A 
ATOM      5  C4  BZF d   1       0.232   1.279  -0.179  0.00  0.00     0.055 A 
ATOM      6  C5  BZF d   1      -0.100   0.095   0.400  0.00  0.00    -0.016 A 
ATOM      7  C6  BZF d   1      -0.043  -1.095  -0.296  0.00  0.00     0.022 A 
ATOM      8  C7  BZF d   1       0.358  -1.135  -1.590  0.00  0.00     0.029 A 
ATOM      9  C7A BZF d   1       0.726   0.055  -2.168  0.00  0.00     0.058 A 
ENDROOT
TORSDOF 0
ENDMDL
