MODEL 1
REMARK minimizedAffinity -4.42850161
REMARK minimizedRMSD -1
REMARK  0 active torsions:
REMARK  status: ('A' for Active; 'I' for Inactive)
ROOT
ATOM      1  O1  BZF d   1      -1.464   0.972   0.934  0.00  0.00    -0.204 OA
ATOM      2  C2  BZF d   1      -0.715   2.095   0.639  0.00  0.00     0.174 A 
ATOM      3  C3  BZF d   1       0.541   1.753   0.285  0.00  0.00    -0.012 A 
ATOM      4  C3A BZF d   1       0.553   0.323   0.274  0.00  0.00    -0.107 A 
ATOM      5  C4  BZF d   1       1.511  -0.606  -0.015  0.00  0.00     0.055 A 
ATOM      6  C5  BZF d   1       1.222  -1.924   0.142  0.00  0.00    -0.016 A 
ATOM      7  C6  BZF d   1      -0.011  -2.349   0.590  0.00  0.00     0.022 A 
ATOM      8  C7  BZF d   1      -0.996  -1.465   0.885  0.00  0.00     0.029 A 
ATOM      9  C7A BZF d   1      -0.717  -0.134   0.696  0.00  0.00     0.058 A 
ENDROOT
TORSDOF 0
ENDMDL
