MODEL 1
REMARK minimizedAffinity -5.37259245
REMARK minimizedRMSD -1
REMARK  0 active torsions:
REMARK  status: ('A' for Active; 'I' for Inactive)
ROOT
ATOM      1  O1  BZF d   1      -0.309   1.400   0.601  0.00  0.00    -0.204 OA
ATOM      2  C2  BZF d   1       0.310   1.814  -0.563  0.00  0.00     0.174 A 
ATOM      3  C3  BZF d   1       0.825   0.762  -1.231  0.00  0.00    -0.012 A 
ATOM      4  C3A BZF d   1       0.427  -0.390  -0.483  0.00  0.00    -0.107 A 
ATOM      5  C4  BZF d   1       0.622  -1.732  -0.651  0.00  0.00     0.055 A 
ATOM      6  C5  BZF d   1       0.166  -2.589   0.300  0.00  0.00    -0.016 A 
ATOM      7  C6  BZF d   1      -0.483  -2.140   1.432  0.00  0.00     0.022 A 
ATOM      8  C7  BZF d   1      -0.704  -0.819   1.640  0.00  0.00     0.029 A 
ATOM      9  C7A BZF d   1      -0.273   0.047   0.665  0.00  0.00     0.058 A 
ENDROOT
TORSDOF 0
ENDMDL
