MODEL 1
REMARK minimizedAffinity -1.39309645
REMARK minimizedRMSD -1
REMARK  0 active torsions:
REMARK  status: ('A' for Active; 'I' for Inactive)
ROOT
ATOM      1  O1  BZF d   1      -0.575   1.651  -1.836  0.00  0.00    -0.204 OA
ATOM      2  C2  BZF d   1       0.697   1.936  -2.294  0.00  0.00     0.174 A 
ATOM      3  C3  BZF d   1       1.617   1.195  -1.643  0.00  0.00    -0.012 A 
ATOM      4  C3A BZF d   1       0.866   0.331  -0.785  0.00  0.00    -0.107 A 
ATOM      5  C4  BZF d   1       1.215  -0.648   0.100  0.00  0.00     0.055 A 
ATOM      6  C5  BZF d   1       0.244  -1.253   0.834  0.00  0.00    -0.016 A 
ATOM      7  C6  BZF d   1      -1.084  -0.900   0.711  0.00  0.00     0.022 A 
ATOM      8  C7  BZF d   1      -1.480   0.061  -0.158  0.00  0.00     0.029 A 
ATOM      9  C7A BZF d   1      -0.504   0.651  -0.925  0.00  0.00     0.058 A 
ENDROOT
TORSDOF 0
ENDMDL
