MODEL 1
REMARK minimizedAffinity -3.59344339
REMARK minimizedRMSD -1
REMARK  0 active torsions:
REMARK  status: ('A' for Active; 'I' for Inactive)
ROOT
ATOM      1  O1  BZF d   1      -0.290  -0.558   1.291  0.00  0.00    -0.204 OA
ATOM      2  C2  BZF d   1      -0.709  -1.764   0.762  0.00  0.00     0.174 A 
ATOM      3  C3  BZF d   1      -0.700  -1.723  -0.586  0.00  0.00    -0.012 A 
ATOM      4  C3A BZF d   1      -0.158  -0.442  -0.920  0.00  0.00    -0.107 A 
ATOM      5  C4  BZF d   1       0.116   0.182  -2.104  0.00  0.00     0.055 A 
ATOM      6  C5  BZF d   1       0.572   1.462  -2.086  0.00  0.00    -0.016 A 
ATOM      7  C6  BZF d   1       0.761   2.149  -0.904  0.00  0.00     0.022 A 
ATOM      8  C7  BZF d   1       0.507   1.570   0.295  0.00  0.00     0.029 A 
ATOM      9  C7A BZF d   1       0.078   0.266   0.281  0.00  0.00     0.058 A 
ENDROOT
TORSDOF 0
ENDMDL
