MODEL 1
REMARK minimizedAffinity -5.54528618
REMARK minimizedRMSD -1
REMARK  0 active torsions:
REMARK  status: ('A' for Active; 'I' for Inactive)
ROOT
ATOM      1  O1  BZF d   1      -1.121   0.080  -1.154  0.00  0.00    -0.204 OA
ATOM      2  C2  BZF d   1       0.051   0.777  -1.377  0.00  0.00     0.174 A 
ATOM      3  C3  BZF d   1       1.022   0.362  -0.538  0.00  0.00    -0.012 A 
ATOM      4  C3A BZF d   1       0.446  -0.721   0.198  0.00  0.00    -0.107 A 
ATOM      5  C4  BZF d   1       0.921  -1.553   1.171  0.00  0.00     0.055 A 
ATOM      6  C5  BZF d   1       0.080  -2.460   1.734  0.00  0.00    -0.016 A 
ATOM      7  C6  BZF d   1      -1.242  -2.558   1.352  0.00  0.00     0.022 A 
ATOM      8  C7  BZF d   1      -1.758  -1.758   0.387  0.00  0.00     0.029 A 
ATOM      9  C7A BZF d   1      -0.902  -0.863  -0.207  0.00  0.00     0.058 A 
ENDROOT
TORSDOF 0
ENDMDL
