MODEL 1
REMARK minimizedAffinity -3.70631051
REMARK minimizedRMSD -1
REMARK  1 active torsions:
REMARK  status: ('A' for Active; 'I' for Inactive)
REMARK    1  A    between atoms: C1_2  and  C2_3 
ROOT
ATOM      1  C2  UNL d   1       0.292  -0.040   0.254  0.00  0.00    -0.073 A 
ATOM      2  C3  UNL d   1       1.299  -0.066   1.226  0.00  0.00    -0.002 A 
ATOM      3  C4  UNL d   1       1.244   0.796   2.322  0.00  0.00     0.004 A 
ATOM      4  C5  UNL d   1       0.180   1.687   2.461  0.00  0.00    -0.004 A 
ATOM      5  C6  UNL d   1      -0.842   1.720   1.507  0.00  0.00    -0.075 A 
ATOM      6  C7  UNL d   1      -1.992   2.674   1.641  0.00  0.00     0.076 C 
ATOM      7  C8  UNL d   1      -0.778   0.853   0.408  0.00  0.00     0.001 A 
ENDROOT
BRANCH   1   8
ATOM      8  C1  UNL d   1       0.344  -0.973  -0.927  0.00  0.00     0.053 C 
ATOM      9  C   UNL d   1       0.240  -2.431  -0.507  0.00  0.00     0.018 C 
ENDBRANCH   1   8
TORSDOF 1
ENDMDL
