MODEL 1
REMARK minimizedAffinity -6.00498915
REMARK minimizedRMSD -1
REMARK  1 active torsions:
REMARK  status: ('A' for Active; 'I' for Inactive)
REMARK    1  A    between atoms: C1_2  and  C2_3 
ROOT
ATOM      1  C2  UNL d   1      -0.126  -0.406  -0.603  0.00  0.00    -0.073 A 
ATOM      2  C3  UNL d   1      -0.251   0.667  -1.493  0.00  0.00    -0.002 A 
ATOM      3  C4  UNL d   1      -0.428   1.965  -1.011  0.00  0.00     0.004 A 
ATOM      4  C5  UNL d   1      -0.473   2.203   0.363  0.00  0.00    -0.004 A 
ATOM      5  C6  UNL d   1      -0.337   1.145   1.267  0.00  0.00    -0.075 A 
ATOM      6  C7  UNL d   1      -0.386   1.385   2.748  0.00  0.00     0.076 C 
ATOM      7  C8  UNL d   1      -0.163  -0.155   0.776  0.00  0.00     0.001 A 
ENDROOT
BRANCH   1   8
ATOM      8  C1  UNL d   1       0.071  -1.809  -1.119  0.00  0.00     0.053 C 
ATOM      9  C   UNL d   1      -1.137  -2.305  -1.896  0.00  0.00     0.018 C 
ENDBRANCH   1   8
TORSDOF 1
ENDMDL
