MODEL 1
REMARK minimizedAffinity -2.42447615
REMARK minimizedRMSD -1
REMARK  1 active torsions:
REMARK  status: ('A' for Active; 'I' for Inactive)
REMARK    1  A    between atoms: C1_2  and  C2_3 
ROOT
ATOM      1  C2  UNL d   1       0.051  -0.243   0.145  0.00  0.00    -0.073 A 
ATOM      2  C3  UNL d   1       0.394  -0.683   1.429  0.00  0.00    -0.002 A 
ATOM      3  C4  UNL d   1       0.632   0.238   2.449  0.00  0.00     0.004 A 
ATOM      4  C5  UNL d   1       0.523   1.606   2.200  0.00  0.00    -0.004 A 
ATOM      5  C6  UNL d   1       0.170   2.065   0.927  0.00  0.00    -0.075 A 
ATOM      6  C7  UNL d   1       0.051   3.533   0.641  0.00  0.00     0.076 C 
ATOM      7  C8  UNL d   1      -0.065   1.134  -0.094  0.00  0.00     0.001 A 
ENDROOT
BRANCH   1   8
ATOM      8  C1  UNL d   1      -0.213  -1.234  -0.959  0.00  0.00     0.053 C 
ATOM      9  C   UNL d   1       0.404  -2.593  -0.665  0.00  0.00     0.018 C 
ENDBRANCH   1   8
TORSDOF 1
ENDMDL
