MODEL 1
REMARK minimizedAffinity -4.27450943
REMARK minimizedRMSD -1
REMARK  1 active torsions:
REMARK  status: ('A' for Active; 'I' for Inactive)
REMARK    1  A    between atoms: C1_2  and  C2_3 
ROOT
ATOM      1  C2  UNL d   1       0.793  -0.676   0.341  0.00  0.00    -0.073 A 
ATOM      2  C3  UNL d   1       0.994  -1.264   1.595  0.00  0.00    -0.002 A 
ATOM      3  C4  UNL d   1       0.672  -0.567   2.760  0.00  0.00     0.004 A 
ATOM      4  C5  UNL d   1       0.140   0.720   2.684  0.00  0.00    -0.004 A 
ATOM      5  C6  UNL d   1      -0.080   1.320   1.440  0.00  0.00    -0.075 A 
ATOM      6  C7  UNL d   1      -0.649   2.704   1.340  0.00  0.00     0.076 C 
ATOM      7  C8  UNL d   1       0.249   0.614   0.274  0.00  0.00     0.001 A 
ENDROOT
BRANCH   1   8
ATOM      8  C1  UNL d   1       1.133  -1.428  -0.920  0.00  0.00     0.053 C 
ATOM      9  C   UNL d   1       0.453  -2.787  -0.975  0.00  0.00     0.018 C 
ENDBRANCH   1   8
TORSDOF 1
ENDMDL
