MODEL 1
REMARK minimizedAffinity -5.85525084
REMARK minimizedRMSD -1
REMARK  1 active torsions:
REMARK  status: ('A' for Active; 'I' for Inactive)
REMARK    1  A    between atoms: C1_2  and  C2_3 
ROOT
ATOM      1  C2  UNL d   1       0.085   0.938   1.187  0.00  0.00    -0.073 A 
ATOM      2  C3  UNL d   1      -0.849   1.812   0.617  0.00  0.00    -0.002 A 
ATOM      3  C4  UNL d   1      -0.768   3.184   0.858  0.00  0.00     0.004 A 
ATOM      4  C5  UNL d   1       0.248   3.697   1.664  0.00  0.00    -0.004 A 
ATOM      5  C6  UNL d   1       1.197   2.842   2.233  0.00  0.00    -0.075 A 
ATOM      6  C7  UNL d   1       2.295   3.378   3.104  0.00  0.00     0.076 C 
ATOM      7  C8  UNL d   1       1.108   1.465   1.988  0.00  0.00     0.001 A 
ENDROOT
BRANCH   1   8
ATOM      8  C1  UNL d   1       0.006  -0.544   0.925  0.00  0.00     0.053 C 
ATOM      9  C   UNL d   1       0.731  -0.936  -0.353  0.00  0.00     0.018 C 
ENDBRANCH   1   8
TORSDOF 1
ENDMDL
