MODEL 1
REMARK minimizedAffinity -3.89832211
REMARK minimizedRMSD -1
REMARK  1 active torsions:
REMARK  status: ('A' for Active; 'I' for Inactive)
REMARK    1  A    between atoms: C1_2  and  C2_3 
ROOT
ATOM      1  C2  UNL d   1      -0.021  -0.739  -0.125  0.00  0.00    -0.073 A 
ATOM      2  C3  UNL d   1       0.714  -1.300   0.925  0.00  0.00    -0.002 A 
ATOM      3  C4  UNL d   1       0.827  -0.628   2.144  0.00  0.00     0.004 A 
ATOM      4  C5  UNL d   1       0.202   0.605   2.326  0.00  0.00    -0.004 A 
ATOM      5  C6  UNL d   1      -0.547   1.177   1.292  0.00  0.00    -0.075 A 
ATOM      6  C7  UNL d   1      -1.223   2.504   1.471  0.00  0.00     0.076 C 
ATOM      7  C8  UNL d   1      -0.653   0.498   0.071  0.00  0.00     0.001 A 
ENDROOT
BRANCH   1   8
ATOM      8  C1  UNL d   1      -0.151  -1.463  -1.440  0.00  0.00     0.053 C 
ATOM      9  C   UNL d   1       0.045  -2.963  -1.287  0.00  0.00     0.018 C 
ENDBRANCH   1   8
TORSDOF 1
ENDMDL
