MODEL 1
REMARK minimizedAffinity 12.646678
REMARK minimizedRMSD -1
REMARK  0 active torsions:
REMARK  status: ('A' for Active; 'I' for Inactive)
ROOT
ATOM      1  C1  DEN d   1      -5.999   5.450   2.145  0.00  0.00     0.130 A 
ATOM      2  C2  DEN d   1      -5.989   5.709   3.582  0.00  0.00    -0.031 A 
ATOM      3  C3  DEN d   1      -4.593   5.967   3.989  0.00  0.00     0.027 A 
ATOM      4  C4  DEN d   1      -2.459   5.993   2.541  0.00  0.00     0.027 A 
ATOM      5  C5  DEN d   1      -1.964   5.818   1.267  0.00  0.00    -0.003 A 
ATOM      6  C6  DEN d   1      -2.768   5.477   0.212  0.00  0.00     0.001 A 
ATOM      7  C7  DEN d   1      -4.118   5.345   0.403  0.00  0.00     0.017 A 
ATOM      8  C8  DEN d   1      -4.623   5.513   1.685  0.00  0.00    -0.094 A 
ATOM      9  C9  DEN d   1      -3.796   5.869   2.737  0.00  0.00    -0.072 A 
ENDROOT
TORSDOF 0
ENDMDL
