MODEL 1
REMARK minimizedAffinity 2.31434655
REMARK minimizedRMSD -1
REMARK  0 active torsions:
REMARK  status: ('A' for Active; 'I' for Inactive)
ROOT
ATOM      1  C1  DEN d   1      -5.315   2.172   3.710  0.00  0.00     0.130 A 
ATOM      2  C2  DEN d   1      -5.634   1.371   4.888  0.00  0.00    -0.031 A 
ATOM      3  C3  DEN d   1      -5.955   2.294   5.995  0.00  0.00     0.027 A 
ATOM      4  C4  DEN d   1      -5.993   4.873   5.998  0.00  0.00     0.027 A 
ATOM      5  C5  DEN d   1      -5.782   5.999   5.234  0.00  0.00    -0.003 A 
ATOM      6  C6  DEN d   1      -5.371   5.931   3.929  0.00  0.00     0.001 A 
ATOM      7  C7  DEN d   1      -5.202   4.708   3.334  0.00  0.00     0.017 A 
ATOM      8  C8  DEN d   1      -5.405   3.568   4.100  0.00  0.00    -0.094 A 
ATOM      9  C9  DEN d   1      -5.832   3.658   5.414  0.00  0.00    -0.072 A 
ENDROOT
TORSDOF 0
ENDMDL
