MODEL 1
REMARK minimizedAffinity 4.86355257
REMARK minimizedRMSD -1
REMARK  0 active torsions:
REMARK  status: ('A' for Active; 'I' for Inactive)
ROOT
ATOM      1  C1  DEN d   1       1.897  -1.310  -1.611  0.00  0.00     0.130 A 
ATOM      2  C2  DEN d   1       2.777  -0.756  -0.585  0.00  0.00    -0.031 A 
ATOM      3  C3  DEN d   1       2.685  -1.619   0.610  0.00  0.00     0.027 A 
ATOM      4  C4  DEN d   1       1.277  -3.751   0.967  0.00  0.00     0.027 A 
ATOM      5  C5  DEN d   1       0.365  -4.604   0.387  0.00  0.00    -0.003 A 
ATOM      6  C6  DEN d   1      -0.122  -4.402  -0.877  0.00  0.00     0.001 A 
ATOM      7  C7  DEN d   1       0.335  -3.345  -1.620  0.00  0.00     0.017 A 
ATOM      8  C8  DEN d   1       1.249  -2.476  -1.039  0.00  0.00    -0.094 A 
ATOM      9  C9  DEN d   1       1.739  -2.705   0.236  0.00  0.00    -0.072 A 
ENDROOT
TORSDOF 0
ENDMDL
