MODEL 1
REMARK minimizedAffinity -5.01275492
REMARK minimizedRMSD -1
REMARK  0 active torsions:
REMARK  status: ('A' for Active; 'I' for Inactive)
ROOT
ATOM      1  C   UNL d   1       0.764  -0.323   1.878  0.00  0.00     0.077 C 
ATOM      2  C1  UNL d   1       0.237   0.964   1.316  0.00  0.00    -0.074 A 
ATOM      3  C2  UNL d   1      -0.059   2.046   2.151  0.00  0.00    -0.005 A 
ATOM      4  C3  UNL d   1      -0.540   3.239   1.613  0.00  0.00     0.006 A 
ATOM      5  C4  UNL d   1      -0.728   3.363   0.236  0.00  0.00    -0.005 A 
ATOM      6  C5  UNL d   1      -0.436   2.292  -0.616  0.00  0.00    -0.074 A 
ATOM      7  C6  UNL d   1      -0.624   2.412  -2.099  0.00  0.00     0.077 C 
ATOM      8  C7  UNL d   1       0.053   1.099  -0.068  0.00  0.00    -0.001 A 
ENDROOT
TORSDOF 0
ENDMDL
