MODEL 1
REMARK minimizedAffinity -2.67778754
REMARK minimizedRMSD -1
REMARK  0 active torsions:
REMARK  status: ('A' for Active; 'I' for Inactive)
ROOT
ATOM      1  C   UNL d   1      -0.025   1.477  -2.343  0.00  0.00     0.077 C 
ATOM      2  C1  UNL d   1      -0.026   0.647  -1.095  0.00  0.00    -0.074 A 
ATOM      3  C2  UNL d   1      -0.316  -0.721  -1.141  0.00  0.00    -0.005 A 
ATOM      4  C3  UNL d   1      -0.304  -1.482   0.027  0.00  0.00     0.006 A 
ATOM      5  C4  UNL d   1      -0.002  -0.885   1.252  0.00  0.00    -0.005 A 
ATOM      6  C5  UNL d   1       0.291   0.480   1.318  0.00  0.00    -0.074 A 
ATOM      7  C6  UNL d   1       0.627   1.136   2.625  0.00  0.00     0.077 C 
ATOM      8  C7  UNL d   1       0.284   1.238   0.138  0.00  0.00    -0.001 A 
ENDROOT
TORSDOF 0
ENDMDL
