MODEL 1
REMARK minimizedAffinity -3.92551422
REMARK minimizedRMSD -1
REMARK  0 active torsions:
REMARK  status: ('A' for Active; 'I' for Inactive)
ROOT
ATOM      1  C   UNL d   1       0.128  -1.064  -0.785  0.00  0.00     0.077 C 
ATOM      2  C1  UNL d   1       0.040   0.191   0.031  0.00  0.00    -0.074 A 
ATOM      3  C2  UNL d   1       0.136   0.150   1.426  0.00  0.00    -0.005 A 
ATOM      4  C3  UNL d   1       0.062   1.327   2.171  0.00  0.00     0.006 A 
ATOM      5  C4  UNL d   1      -0.110   2.555   1.530  0.00  0.00    -0.005 A 
ATOM      6  C5  UNL d   1      -0.207   2.616   0.137  0.00  0.00    -0.074 A 
ATOM      7  C6  UNL d   1      -0.381   3.928  -0.568  0.00  0.00     0.077 C 
ATOM      8  C7  UNL d   1      -0.124   1.430  -0.606  0.00  0.00    -0.001 A 
ENDROOT
TORSDOF 0
ENDMDL
