MODEL 1
REMARK minimizedAffinity -3.62675452
REMARK minimizedRMSD -1
REMARK  0 active torsions:
REMARK  status: ('A' for Active; 'I' for Inactive)
ROOT
ATOM      1  C   UNL d   1      -1.208   2.635   1.662  0.00  0.00     0.077 C 
ATOM      2  C1  UNL d   1      -0.409   1.394   1.394  0.00  0.00    -0.074 A 
ATOM      3  C2  UNL d   1       0.292   0.755   2.421  0.00  0.00    -0.005 A 
ATOM      4  C3  UNL d   1       1.023  -0.404   2.158  0.00  0.00     0.006 A 
ATOM      5  C4  UNL d   1       1.060  -0.934   0.868  0.00  0.00    -0.005 A 
ATOM      6  C5  UNL d   1       0.364  -0.309  -0.172  0.00  0.00    -0.074 A 
ATOM      7  C6  UNL d   1       0.384  -0.871  -1.562  0.00  0.00     0.077 C 
ATOM      8  C7  UNL d   1      -0.374   0.851   0.102  0.00  0.00    -0.001 A 
ENDROOT
TORSDOF 0
ENDMDL
