MODEL 1
REMARK minimizedAffinity -5.34734058
REMARK minimizedRMSD -1
REMARK  0 active torsions:
REMARK  status: ('A' for Active; 'I' for Inactive)
ROOT
ATOM      1  C   UNL d   1      -0.147  -0.415   1.575  0.00  0.00     0.077 C 
ATOM      2  C1  UNL d   1      -0.166   1.066   1.338  0.00  0.00    -0.074 A 
ATOM      3  C2  UNL d   1       0.274   1.957   2.322  0.00  0.00    -0.005 A 
ATOM      4  C3  UNL d   1       0.259   3.331   2.083  0.00  0.00     0.006 A 
ATOM      5  C4  UNL d   1      -0.194   3.827   0.860  0.00  0.00    -0.005 A 
ATOM      6  C5  UNL d   1      -0.637   2.951  -0.136  0.00  0.00    -0.074 A 
ATOM      7  C6  UNL d   1      -1.118   3.467  -1.459  0.00  0.00     0.077 C 
ATOM      8  C7  UNL d   1      -0.613   1.571   0.109  0.00  0.00    -0.001 A 
ENDROOT
TORSDOF 0
ENDMDL
