MODEL 1
REMARK minimizedAffinity -5.00677109
REMARK minimizedRMSD -1
REMARK  0 active torsions:
REMARK  status: ('A' for Active; 'I' for Inactive)
ROOT
ATOM      1  C   UNL d   1       0.154  -1.325  -0.267  0.00  0.00     0.077 C 
ATOM      2  C1  UNL d   1      -0.022   0.072   0.249  0.00  0.00    -0.074 A 
ATOM      3  C2  UNL d   1       0.224   0.378   1.591  0.00  0.00    -0.005 A 
ATOM      4  C3  UNL d   1       0.066   1.684   2.055  0.00  0.00     0.006 A 
ATOM      5  C4  UNL d   1      -0.340   2.695   1.183  0.00  0.00    -0.005 A 
ATOM      6  C5  UNL d   1      -0.590   2.408  -0.163  0.00  0.00    -0.074 A 
ATOM      7  C6  UNL d   1      -1.017   3.484  -1.116  0.00  0.00     0.077 C 
ATOM      8  C7  UNL d   1      -0.422   1.094  -0.623  0.00  0.00    -0.001 A 
ENDROOT
TORSDOF 0
ENDMDL
