MODEL 1
REMARK minimizedAffinity -4.46185541
REMARK minimizedRMSD -1
REMARK  0 active torsions:
REMARK  status: ('A' for Active; 'I' for Inactive)
ROOT
ATOM      1  C   UNL d   1       0.314   1.152  -2.830  0.00  0.00     0.077 C 
ATOM      2  C1  UNL d   1       0.346   1.063  -1.334  0.00  0.00    -0.074 A 
ATOM      3  C2  UNL d   1       1.238   0.204  -0.683  0.00  0.00    -0.005 A 
ATOM      4  C3  UNL d   1       1.262   0.139   0.710  0.00  0.00     0.006 A 
ATOM      5  C4  UNL d   1       0.397   0.931   1.465  0.00  0.00    -0.005 A 
ATOM      6  C5  UNL d   1      -0.501   1.797   0.833  0.00  0.00    -0.074 A 
ATOM      7  C6  UNL d   1      -1.431   2.662   1.630  0.00  0.00     0.077 C 
ATOM      8  C7  UNL d   1      -0.515   1.862  -0.567  0.00  0.00    -0.001 A 
ENDROOT
TORSDOF 0
ENDMDL
