MODEL 1
REMARK minimizedAffinity 4.20725632
REMARK minimizedRMSD -1
REMARK  2 active torsions:
REMARK  status: ('A' for Active; 'I' for Inactive)
REMARK    1  A    between atoms: C2'_3  and  C1'_4 
REMARK    2  A    between atoms: C1'_4  and  C1_5 
ROOT
ATOM      1  C1  I4B d   1       1.415  -1.184   0.302  0.00  0.00    -0.075 A 
ATOM      2  C2  I4B d   1       0.841   0.057   0.426  0.00  0.00     0.003 A 
ATOM      3  C3  I4B d   1      -0.316   0.385  -0.320  0.00  0.00     0.002 A 
ATOM      4  C4  I4B d   1      -0.833  -0.534  -1.211  0.00  0.00    -0.004 A 
ATOM      5  C5  I4B d   1      -0.263  -1.799  -1.319  0.00  0.00     0.002 A 
ATOM      6  C6  I4B d   1       0.861  -2.131  -0.549  0.00  0.00     0.003 A 
ENDROOT
BRANCH   1   7
ATOM      7  C1' I4B d   1       2.656  -1.485   1.081  0.00  0.00     0.060 C 
BRANCH   7   8
ATOM      8  C2' I4B d   1       3.841  -0.973   0.288  0.00  0.00    -0.013 C 
ATOM      9  C4' I4B d   1       3.536   0.356  -0.352  0.00  0.00     0.013 C 
ATOM     10  C3' I4B d   1       5.012  -0.869   1.220  0.00  0.00     0.013 C 
ENDBRANCH   7   8
ENDBRANCH   1   7
TORSDOF 2
ENDMDL
