MODEL 1
REMARK minimizedAffinity -3.52377892
REMARK minimizedRMSD -1
REMARK  2 active torsions:
REMARK  status: ('A' for Active; 'I' for Inactive)
REMARK    1  A    between atoms: C2'_3  and  C1'_4 
REMARK    2  A    between atoms: C1'_4  and  C1_5 
ROOT
ATOM      1  C1  I4B d   1      -0.325   0.158  -0.247  0.00  0.00    -0.075 A 
ATOM      2  C2  I4B d   1      -0.659  -1.094  -0.702  0.00  0.00     0.003 A 
ATOM      3  C3  I4B d   1       0.316  -2.119  -0.747  0.00  0.00     0.002 A 
ATOM      4  C4  I4B d   1       1.616  -1.839  -0.378  0.00  0.00    -0.004 A 
ATOM      5  C5  I4B d   1       1.948  -0.576   0.104  0.00  0.00     0.002 A 
ATOM      6  C6  I4B d   1       0.969   0.426   0.182  0.00  0.00     0.003 A 
ENDROOT
BRANCH   1   7
ATOM      7  C1' I4B d   1      -1.371   1.227  -0.244  0.00  0.00     0.060 C 
BRANCH   7   8
ATOM      8  C2' I4B d   1      -2.555   0.719   0.554  0.00  0.00    -0.013 C 
ATOM      9  C4' I4B d   1      -2.925   1.680   1.653  0.00  0.00     0.013 C 
ATOM     10  C3' I4B d   1      -3.698   0.514  -0.395  0.00  0.00     0.013 C 
ENDBRANCH   7   8
ENDBRANCH   1   7
TORSDOF 2
ENDMDL
