MODEL 1
REMARK minimizedAffinity 0.407447785
REMARK minimizedRMSD -1
REMARK  2 active torsions:
REMARK  status: ('A' for Active; 'I' for Inactive)
REMARK    1  A    between atoms: C2'_3  and  C1'_4 
REMARK    2  A    between atoms: C1'_4  and  C1_5 
ROOT
ATOM      1  C1  I4B d   1      -0.771   0.227  -0.120  0.00  0.00    -0.075 A 
ATOM      2  C2  I4B d   1      -2.122   0.031   0.018  0.00  0.00     0.003 A 
ATOM      3  C3  I4B d   1      -2.861   0.795   0.954  0.00  0.00     0.002 A 
ATOM      4  C4  I4B d   1      -2.204   1.702   1.760  0.00  0.00    -0.004 A 
ATOM      5  C5  I4B d   1      -0.838   1.915   1.603  0.00  0.00     0.002 A 
ATOM      6  C6  I4B d   1      -0.118   1.182   0.648  0.00  0.00     0.003 A 
ENDROOT
BRANCH   1   7
ATOM      7  C1' I4B d   1      -0.016  -0.620  -1.095  0.00  0.00     0.060 C 
BRANCH   7   8
ATOM      8  C2' I4B d   1       0.685  -1.715  -0.317  0.00  0.00    -0.013 C 
ATOM      9  C4' I4B d   1      -0.075  -3.013  -0.396  0.00  0.00     0.013 C 
ATOM     10  C3' I4B d   1       2.070  -1.864  -0.872  0.00  0.00     0.013 C 
ENDBRANCH   7   8
ENDBRANCH   1   7
TORSDOF 2
ENDMDL
