MODEL 1
REMARK minimizedAffinity 2.86911511
REMARK minimizedRMSD -1
REMARK  2 active torsions:
REMARK  status: ('A' for Active; 'I' for Inactive)
REMARK    1  A    between atoms: C2'_3  and  C1'_4 
REMARK    2  A    between atoms: C1'_4  and  C1_5 
ROOT
ATOM      1  C1  I4B d   1      -1.347   0.090  -0.312  0.00  0.00    -0.075 A 
ATOM      2  C2  I4B d   1      -1.165  -1.240  -0.596  0.00  0.00     0.003 A 
ATOM      3  C3  I4B d   1       0.132  -1.807  -0.560  0.00  0.00     0.002 A 
ATOM      4  C4  I4B d   1       1.218  -1.001  -0.285  0.00  0.00    -0.004 A 
ATOM      5  C5  I4B d   1       1.029   0.343   0.026  0.00  0.00     0.002 A 
ATOM      6  C6  I4B d   1      -0.262   0.889   0.025  0.00  0.00     0.003 A 
ENDROOT
BRANCH   1   7
ATOM      7  C1' I4B d   1      -2.726   0.662  -0.392  0.00  0.00     0.060 C 
BRANCH   7   8
ATOM      8  C2' I4B d   1      -3.580  -0.029   0.652  0.00  0.00    -0.013 C 
ATOM      9  C4' I4B d   1      -3.833   0.871   1.832  0.00  0.00     0.013 C 
ATOM     10  C3' I4B d   1      -4.866  -0.440  -0.001  0.00  0.00     0.013 C 
ENDBRANCH   7   8
ENDBRANCH   1   7
TORSDOF 2
ENDMDL
