MODEL 1
REMARK minimizedAffinity -5.99643898
REMARK minimizedRMSD -1
REMARK  2 active torsions:
REMARK  status: ('A' for Active; 'I' for Inactive)
REMARK    1  A    between atoms: C2'_3  and  C1'_4 
REMARK    2  A    between atoms: C1'_4  and  C1_5 
ROOT
ATOM      1  C1  I4B d   1       2.101  -0.030   0.856  0.00  0.00    -0.075 A 
ATOM      2  C2  I4B d   1       3.193  -0.854   0.963  0.00  0.00     0.003 A 
ATOM      3  C3  I4B d   1       4.493  -0.352   0.710  0.00  0.00     0.002 A 
ATOM      4  C4  I4B d   1       4.649   0.958   0.305  0.00  0.00    -0.004 A 
ATOM      5  C5  I4B d   1       3.542   1.798   0.218  0.00  0.00     0.002 A 
ATOM      6  C6  I4B d   1       2.262   1.305   0.507  0.00  0.00     0.003 A 
ENDROOT
BRANCH   1   7
ATOM      7  C1' I4B d   1       0.740  -0.601   1.099  0.00  0.00     0.060 C 
BRANCH   7   8
ATOM      8  C2' I4B d   1      -0.114  -0.305  -0.117  0.00  0.00    -0.013 C 
ATOM      9  C4' I4B d   1      -0.582  -1.576  -0.777  0.00  0.00     0.013 C 
ATOM     10  C3' I4B d   1      -1.275   0.534   0.326  0.00  0.00     0.013 C 
ENDBRANCH   7   8
ENDBRANCH   1   7
TORSDOF 2
ENDMDL
