MODEL 1
REMARK minimizedAffinity -2.77343297
REMARK minimizedRMSD -1
REMARK  2 active torsions:
REMARK  status: ('A' for Active; 'I' for Inactive)
REMARK    1  A    between atoms: C2'_3  and  C1'_4 
REMARK    2  A    between atoms: C1'_4  and  C1_5 
ROOT
ATOM      1  C1  I4B d   1      -0.681   0.264   0.116  0.00  0.00    -0.075 A 
ATOM      2  C2  I4B d   1      -0.528  -1.080   0.349  0.00  0.00     0.003 A 
ATOM      3  C3  I4B d   1       0.767  -1.648   0.416  0.00  0.00     0.002 A 
ATOM      4  C4  I4B d   1       1.872  -0.851   0.195  0.00  0.00    -0.004 A 
ATOM      5  C5  I4B d   1       1.715   0.516  -0.018  0.00  0.00     0.002 A 
ATOM      6  C6  I4B d   1       0.431   1.079  -0.046  0.00  0.00     0.003 A 
ENDROOT
BRANCH   1   7
ATOM      7  C1' I4B d   1      -2.065   0.825   0.019  0.00  0.00     0.060 C 
BRANCH   7   8
ATOM      8  C2' I4B d   1      -2.920   0.142   1.066  0.00  0.00    -0.013 C 
ATOM      9  C4' I4B d   1      -3.236   1.074   2.205  0.00  0.00     0.013 C 
ATOM     10  C3' I4B d   1      -4.173  -0.341   0.397  0.00  0.00     0.013 C 
ENDBRANCH   7   8
ENDBRANCH   1   7
TORSDOF 2
ENDMDL
