MODEL 1
REMARK minimizedAffinity -2.31358933
REMARK minimizedRMSD -1
REMARK  0 active torsions:
REMARK  status: ('A' for Active; 'I' for Inactive)
ROOT
ATOM      1  C4' PXY d   1       3.197  -4.872   0.344  0.00  0.00     0.077 C 
ATOM      2  C1' PXY d   1      -0.674  -0.776   1.631  0.00  0.00     0.077 C 
ATOM      3  C1  PXY d   1       0.337  -1.857   1.304  0.00  0.00    -0.082 A 
ATOM      4  C2  PXY d   1       1.408  -1.556   0.588  0.00  0.00     0.003 A 
ATOM      5  C3  PXY d   1       2.317  -2.528   0.256  0.00  0.00     0.003 A 
ATOM      6  C4  PXY d   1       2.154  -3.811   0.706  0.00  0.00    -0.082 A 
ATOM      7  C5  PXY d   1       1.069  -4.124   1.446  0.00  0.00     0.003 A 
ATOM      8  C6  PXY d   1       0.138  -3.131   1.737  0.00  0.00     0.003 A 
ENDROOT
TORSDOF 0
ENDMDL
