MODEL 1
REMARK minimizedAffinity 9.71208
REMARK minimizedRMSD -1
REMARK  0 active torsions:
REMARK  status: ('A' for Active; 'I' for Inactive)
ROOT
ATOM      1  C4' PXY d   1      -4.814  -3.252  -5.765  0.00  0.00     0.077 C 
ATOM      2  C1' PXY d   1      -3.592   1.787  -3.210  0.00  0.00     0.077 C 
ATOM      3  C1  PXY d   1      -3.901   0.460  -3.875  0.00  0.00    -0.082 A 
ATOM      4  C2  PXY d   1      -4.713   0.426  -4.920  0.00  0.00     0.003 A 
ATOM      5  C3  PXY d   1      -5.028  -0.769  -5.514  0.00  0.00     0.003 A 
ATOM      6  C4  PXY d   1      -4.466  -1.934  -5.067  0.00  0.00    -0.082 A 
ATOM      7  C5  PXY d   1      -3.629  -1.906  -4.008  0.00  0.00     0.003 A 
ATOM      8  C6  PXY d   1      -3.353  -0.688  -3.394  0.00  0.00     0.003 A 
ENDROOT
TORSDOF 0
ENDMDL
