MODEL 1
REMARK minimizedAffinity 4.09030104
REMARK minimizedRMSD -1
REMARK  0 active torsions:
REMARK  status: ('A' for Active; 'I' for Inactive)
ROOT
ATOM      1  C4' PXY d   1      -0.330  -0.309   1.515  0.00  0.00     0.077 C 
ATOM      2  C1' PXY d   1       3.144  -4.540  -0.341  0.00  0.00     0.077 C 
ATOM      3  C1  PXY d   1       2.242  -3.422   0.142  0.00  0.00    -0.082 A 
ATOM      4  C2  PXY d   1       1.339  -3.667   1.078  0.00  0.00     0.003 A 
ATOM      5  C3  PXY d   1       0.493  -2.675   1.503  0.00  0.00     0.003 A 
ATOM      6  C4  PXY d   1       0.608  -1.406   1.004  0.00  0.00    -0.082 A 
ATOM      7  C5  PXY d   1       1.534  -1.144   0.056  0.00  0.00     0.003 A 
ATOM      8  C6  PXY d   1       2.355  -2.175  -0.392  0.00  0.00     0.003 A 
ENDROOT
TORSDOF 0
ENDMDL
