MODEL 1
REMARK minimizedAffinity 16.456358
REMARK minimizedRMSD -1
REMARK  0 active torsions:
REMARK  status: ('A' for Active; 'I' for Inactive)
ROOT
ATOM      1  C4' PXY d   1       1.041  -3.030   0.069  0.00  0.00     0.077 C 
ATOM      2  C1' PXY d   1       6.000  -6.000   0.053  0.00  0.00     0.077 C 
ATOM      3  C1  PXY d   1       4.697  -5.225   0.045  0.00  0.00    -0.082 A 
ATOM      4  C2  PXY d   1       4.556  -4.174   0.836  0.00  0.00     0.003 A 
ATOM      5  C3  PXY d   1       3.373  -3.481   0.865  0.00  0.00     0.003 A 
ATOM      6  C4  PXY d   1       2.342  -3.836   0.037  0.00  0.00    -0.082 A 
ATOM      7  C5  PXY d   1       2.482  -4.901  -0.781  0.00  0.00     0.003 A 
ATOM      8  C6  PXY d   1       3.676  -5.616  -0.765  0.00  0.00     0.003 A 
ENDROOT
TORSDOF 0
ENDMDL
