MODEL 1
REMARK minimizedAffinity -0.182451144
REMARK minimizedRMSD -1
REMARK  0 active torsions:
REMARK  status: ('A' for Active; 'I' for Inactive)
ROOT
ATOM      1  C4' PXY d   1      -1.698   0.004   0.382  0.00  0.00     0.077 C 
ATOM      2  C1' PXY d   1       2.677  -3.719   1.024  0.00  0.00     0.077 C 
ATOM      3  C1  PXY d   1       1.537  -2.736   0.847  0.00  0.00    -0.082 A 
ATOM      4  C2  PXY d   1       0.650  -2.582   1.816  0.00  0.00     0.003 A 
ATOM      5  C3  PXY d   1      -0.406  -1.721   1.660  0.00  0.00     0.003 A 
ATOM      6  C4  PXY d   1      -0.525  -0.970   0.521  0.00  0.00    -0.082 A 
ATOM      7  C5  PXY d   1       0.382  -1.114  -0.469  0.00  0.00     0.003 A 
ATOM      8  C6  PXY d   1       1.423  -2.023  -0.307  0.00  0.00     0.003 A 
ENDROOT
TORSDOF 0
ENDMDL
