MODEL 1
REMARK minimizedAffinity -0.260496706
REMARK minimizedRMSD -1
REMARK  0 active torsions:
REMARK  status: ('A' for Active; 'I' for Inactive)
ROOT
ATOM      1  C4' PXY d   1       2.761  -4.461  -0.131  0.00  0.00     0.077 C 
ATOM      2  C1' PXY d   1      -0.192   0.298   1.299  0.00  0.00     0.077 C 
ATOM      3  C1  PXY d   1       0.588  -0.943   0.914  0.00  0.00    -0.082 A 
ATOM      4  C2  PXY d   1       0.118  -2.137   1.238  0.00  0.00     0.003 A 
ATOM      5  C3  PXY d   1       0.827  -3.269   0.926  0.00  0.00     0.003 A 
ATOM      6  C4  PXY d   1       2.002  -3.180   0.229  0.00  0.00    -0.082 A 
ATOM      7  C5  PXY d   1       2.482  -1.966  -0.114  0.00  0.00     0.003 A 
ATOM      8  C6  PXY d   1       1.769  -0.828   0.248  0.00  0.00     0.003 A 
ENDROOT
TORSDOF 0
ENDMDL
