MODEL 1
REMARK minimizedAffinity 0.202578619
REMARK minimizedRMSD -1
REMARK  0 active torsions:
REMARK  status: ('A' for Active; 'I' for Inactive)
ROOT
ATOM      1  C4' PXY d   1       3.366  -4.179   0.154  0.00  0.00     0.077 C 
ATOM      2  C1' PXY d   1      -0.763  -0.429   1.672  0.00  0.00     0.077 C 
ATOM      3  C1  PXY d   1       0.319  -1.408   1.262  0.00  0.00    -0.082 A 
ATOM      4  C2  PXY d   1       0.548  -2.479   2.005  0.00  0.00     0.003 A 
ATOM      5  C3  PXY d   1       1.544  -3.358   1.665  0.00  0.00     0.003 A 
ATOM      6  C4  PXY d   1       2.277  -3.168   0.525  0.00  0.00    -0.082 A 
ATOM      7  C5  PXY d   1       2.042  -2.083  -0.244  0.00  0.00     0.003 A 
ATOM      8  C6  PXY d   1       1.055  -1.181   0.140  0.00  0.00     0.003 A 
ENDROOT
TORSDOF 0
ENDMDL
