MODEL 1
REMARK minimizedAffinity 2.1846416
REMARK minimizedRMSD -1
REMARK  0 active torsions:
REMARK  status: ('A' for Active; 'I' for Inactive)
ROOT
ATOM      1  C4' PXY d   1      -1.596  -2.602   2.796  0.00  0.00     0.077 C 
ATOM      2  C1' PXY d   1       3.121  -4.463   0.021  0.00  0.00     0.077 C 
ATOM      3  C1  PXY d   1       1.890  -3.964   0.750  0.00  0.00    -0.082 A 
ATOM      4  C2  PXY d   1       1.064  -4.832   1.312  0.00  0.00     0.003 A 
ATOM      5  C3  PXY d   1      -0.071  -4.400   1.948  0.00  0.00     0.003 A 
ATOM      6  C4  PXY d   1      -0.336  -3.061   2.057  0.00  0.00    -0.082 A 
ATOM      7  C5  PXY d   1       0.507  -2.168   1.496  0.00  0.00     0.003 A 
ATOM      8  C6  PXY d   1       1.632  -2.629   0.819  0.00  0.00     0.003 A 
ENDROOT
TORSDOF 0
ENDMDL
