MODEL 1
REMARK minimizedAffinity 1.3749125
REMARK minimizedRMSD -1
REMARK  0 active torsions:
REMARK  status: ('A' for Active; 'I' for Inactive)
ROOT
ATOM      1  C4' PXY d   1       2.378  -3.793   0.431  0.00  0.00     0.077 C 
ATOM      2  C1' PXY d   1      -1.387   0.352   1.864  0.00  0.00     0.077 C 
ATOM      3  C1  PXY d   1      -0.405  -0.743   1.498  0.00  0.00    -0.082 A 
ATOM      4  C2  PXY d   1       0.742  -0.426   0.919  0.00  0.00     0.003 A 
ATOM      5  C3  PXY d   1       1.628  -1.406   0.551  0.00  0.00     0.003 A 
ATOM      6  C4  PXY d   1       1.360  -2.720   0.827  0.00  0.00    -0.082 A 
ATOM      7  C5  PXY d   1       0.197  -3.051   1.428  0.00  0.00     0.003 A 
ATOM      8  C6  PXY d   1      -0.707  -2.044   1.755  0.00  0.00     0.003 A 
ENDROOT
TORSDOF 0
ENDMDL
