MODEL 1
REMARK minimizedAffinity -3.17721891
REMARK minimizedRMSD -1
REMARK  0 active torsions:
REMARK  status: ('A' for Active; 'I' for Inactive)
ROOT
ATOM      1  C4' PXY d   1       3.210  -4.405  -0.024  0.00  0.00     0.077 C 
ATOM      2  C1' PXY d   1      -0.646  -0.362   1.457  0.00  0.00     0.077 C 
ATOM      3  C1  PXY d   1       0.364  -1.419   1.056  0.00  0.00    -0.082 A 
ATOM      4  C2  PXY d   1       0.574  -2.457   1.849  0.00  0.00     0.003 A 
ATOM      5  C3  PXY d   1       1.507  -3.406   1.517  0.00  0.00     0.003 A 
ATOM      6  C4  PXY d   1       2.194  -3.319   0.336  0.00  0.00    -0.082 A 
ATOM      7  C5  PXY d   1       1.977  -2.268  -0.484  0.00  0.00     0.003 A 
ATOM      8  C6  PXY d   1       1.056  -1.294  -0.109  0.00  0.00     0.003 A 
ENDROOT
TORSDOF 0
ENDMDL
