MODEL 1
REMARK minimizedAffinity 0.771427095
REMARK minimizedRMSD -1
REMARK  0 active torsions:
REMARK  status: ('A' for Active; 'I' for Inactive)
ROOT
ATOM      1  C4' PXY d   1      -1.511  -0.086   1.135  0.00  0.00     0.077 C 
ATOM      2  C1' PXY d   1       2.779  -3.957   1.310  0.00  0.00     0.077 C 
ATOM      3  C1  PXY d   1       1.647  -2.949   1.272  0.00  0.00    -0.082 A 
ATOM      4  C2  PXY d   1       1.544  -2.120   0.247  0.00  0.00     0.003 A 
ATOM      5  C3  PXY d   1       0.545  -1.181   0.212  0.00  0.00     0.003 A 
ATOM      6  C4  PXY d   1      -0.389  -1.126   1.211  0.00  0.00    -0.082 A 
ATOM      7  C5  PXY d   1      -0.297  -1.976   2.256  0.00  0.00     0.003 A 
ATOM      8  C6  PXY d   1       0.748  -2.894   2.293  0.00  0.00     0.003 A 
ENDROOT
TORSDOF 0
ENDMDL
