MODEL 1
REMARK minimizedAffinity 4.33667612
REMARK minimizedRMSD -1
REMARK  0 active torsions:
REMARK  status: ('A' for Active; 'I' for Inactive)
ROOT
ATOM      1  O1  BZF d   1       4.369   6.000  -1.523  0.00  0.00    -0.204 OA
ATOM      2  C2  BZF d   1       3.073   5.590  -1.771  0.00  0.00     0.174 A 
ATOM      3  C3  BZF d   1       2.602   4.848  -0.748  0.00  0.00    -0.012 A 
ATOM      4  C3A BZF d   1       3.637   4.867   0.239  0.00  0.00    -0.107 A 
ATOM      5  C4  BZF d   1       3.756   4.323   1.485  0.00  0.00     0.055 A 
ATOM      6  C5  BZF d   1       4.927   4.467   2.160  0.00  0.00    -0.016 A 
ATOM      7  C6  BZF d   1       5.999   5.144   1.617  0.00  0.00     0.022 A 
ATOM      8  C7  BZF d   1       5.927   5.705   0.386  0.00  0.00     0.029 A 
ATOM      9  C7A BZF d   1       4.734   5.590  -0.285  0.00  0.00     0.058 A 
ENDROOT
TORSDOF 0
ENDMDL
