MODEL 1
REMARK minimizedAffinity -1.26341462
REMARK minimizedRMSD -1
REMARK  0 active torsions:
REMARK  status: ('A' for Active; 'I' for Inactive)
ROOT
ATOM      1  O1  BZF d   1       0.965   0.414  -2.247  0.00  0.00    -0.204 OA
ATOM      2  C2  BZF d   1       2.339   0.302  -2.338  0.00  0.00     0.174 A 
ATOM      3  C3  BZF d   1       2.946   1.278  -1.632  0.00  0.00    -0.012 A 
ATOM      4  C3A BZF d   1       1.885   1.993  -0.990  0.00  0.00    -0.107 A 
ATOM      5  C4  BZF d   1       1.853   3.062  -0.141  0.00  0.00     0.055 A 
ATOM      6  C5  BZF d   1       0.650   3.563   0.246  0.00  0.00    -0.016 A 
ATOM      7  C6  BZF d   1      -0.538   3.023  -0.201  0.00  0.00     0.022 A 
ATOM      8  C7  BZF d   1      -0.557   1.959  -1.040  0.00  0.00     0.029 A 
ATOM      9  C7A BZF d   1       0.657   1.430  -1.407  0.00  0.00     0.058 A 
ENDROOT
TORSDOF 0
ENDMDL
