MODEL 1
REMARK minimizedAffinity 8.79474163
REMARK minimizedRMSD -1
REMARK  0 active torsions:
REMARK  status: ('A' for Active; 'I' for Inactive)
ROOT
ATOM      1  O1  BZF d   1       2.629   0.789  -1.589  0.00  0.00    -0.204 OA
ATOM      2  C2  BZF d   1       1.894  -0.379  -1.524  0.00  0.00     0.174 A 
ATOM      3  C3  BZF d   1       0.917  -0.381  -2.454  0.00  0.00    -0.012 A 
ATOM      4  C3A BZF d   1       1.107   0.822  -3.203  0.00  0.00    -0.107 A 
ATOM      5  C4  BZF d   1       0.460   1.376  -4.271  0.00  0.00     0.055 A 
ATOM      6  C5  BZF d   1       0.850   2.598  -4.719  0.00  0.00    -0.016 A 
ATOM      7  C6  BZF d   1       1.878   3.297  -4.120  0.00  0.00     0.022 A 
ATOM      8  C7  BZF d   1       2.553   2.786  -3.061  0.00  0.00     0.029 A 
ATOM      9  C7A BZF d   1       2.183   1.537  -2.627  0.00  0.00     0.058 A 
ENDROOT
TORSDOF 0
ENDMDL
