MODEL 1
REMARK minimizedAffinity 4.82050943
REMARK minimizedRMSD -1
REMARK  0 active torsions:
REMARK  status: ('A' for Active; 'I' for Inactive)
ROOT
ATOM      1  O1  BZF d   1       3.538  -1.978   3.937  0.00  0.00    -0.204 OA
ATOM      2  C2  BZF d   1       4.525  -1.015   4.027  0.00  0.00     0.174 A 
ATOM      3  C3  BZF d   1       5.602  -1.494   4.683  0.00  0.00    -0.012 A 
ATOM      4  C3A BZF d   1       5.303  -2.869   4.944  0.00  0.00    -0.107 A 
ATOM      5  C4  BZF d   1       5.990  -3.880   5.552  0.00  0.00     0.055 A 
ATOM      6  C5  BZF d   1       5.387  -5.088   5.709  0.00  0.00    -0.016 A 
ATOM      7  C6  BZF d   1       4.098  -5.318   5.274  0.00  0.00     0.022 A 
ATOM      8  C7  BZF d   1       3.379  -4.347   4.660  0.00  0.00     0.029 A 
ATOM      9  C7A BZF d   1       3.997  -3.135   4.471  0.00  0.00     0.058 A 
ENDROOT
TORSDOF 0
ENDMDL
