MODEL 1
REMARK minimizedAffinity 20.4778957
REMARK minimizedRMSD -1
REMARK  0 active torsions:
REMARK  status: ('A' for Active; 'I' for Inactive)
ROOT
ATOM      1  O1  BZF d   1       0.344   0.146  -4.087  0.00  0.00    -0.204 OA
ATOM      2  C2  BZF d   1       0.907   1.116  -3.280  0.00  0.00     0.174 A 
ATOM      3  C3  BZF d   1       1.549   0.556  -2.235  0.00  0.00    -0.012 A 
ATOM      4  C3A BZF d   1       1.455  -0.856  -2.449  0.00  0.00    -0.107 A 
ATOM      5  C4  BZF d   1       1.913  -1.943  -1.760  0.00  0.00     0.055 A 
ATOM      6  C5  BZF d   1       1.587  -3.187  -2.197  0.00  0.00    -0.016 A 
ATOM      7  C6  BZF d   1       0.803  -3.382  -3.315  0.00  0.00     0.022 A 
ATOM      8  C7  BZF d   1       0.329  -2.335  -4.034  0.00  0.00     0.029 A 
ATOM      9  C7A BZF d   1       0.684  -1.077  -3.614  0.00  0.00     0.058 A 
ENDROOT
TORSDOF 0
ENDMDL
