MODEL 1
REMARK minimizedAffinity 18.715353
REMARK minimizedRMSD -1
REMARK  0 active torsions:
REMARK  status: ('A' for Active; 'I' for Inactive)
ROOT
ATOM      1  O1  BZF d   1      -1.948   1.643  -1.599  0.00  0.00    -0.204 OA
ATOM      2  C2  BZF d   1      -2.300   0.714  -0.639  0.00  0.00     0.174 A 
ATOM      3  C3  BZF d   1      -1.283  -0.139  -0.403  0.00  0.00    -0.012 A 
ATOM      4  C3A BZF d   1      -0.197   0.340  -1.202  0.00  0.00    -0.107 A 
ATOM      5  C4  BZF d   1       1.090  -0.078  -1.383  0.00  0.00     0.055 A 
ATOM      6  C5  BZF d   1       1.872   0.565  -2.290  0.00  0.00    -0.016 A 
ATOM      7  C6  BZF d   1       1.398   1.626  -3.034  0.00  0.00     0.022 A 
ATOM      8  C7  BZF d   1       0.130   2.080  -2.885  0.00  0.00     0.029 A 
ATOM      9  C7A BZF d   1      -0.652   1.452  -1.946  0.00  0.00     0.058 A 
ENDROOT
TORSDOF 0
ENDMDL
