MODEL 1
REMARK minimizedAffinity 5.20630455
REMARK minimizedRMSD -1
REMARK  0 active torsions:
REMARK  status: ('A' for Active; 'I' for Inactive)
ROOT
ATOM      1  O1  BZF d   1       0.724   2.573  -2.794  0.00  0.00    -0.204 OA
ATOM      2  C2  BZF d   1       1.847   3.378  -2.774  0.00  0.00     0.174 A 
ATOM      3  C3  BZF d   1       2.898   2.720  -2.246  0.00  0.00    -0.012 A 
ATOM      4  C3A BZF d   1       2.425   1.392  -1.999  0.00  0.00    -0.107 A 
ATOM      5  C4  BZF d   1       3.010   0.266  -1.494  0.00  0.00     0.055 A 
ATOM      6  C5  BZF d   1       2.252  -0.848  -1.314  0.00  0.00    -0.016 A 
ATOM      7  C6  BZF d   1       0.908  -0.869  -1.623  0.00  0.00     0.022 A 
ATOM      8  C7  BZF d   1       0.285   0.222  -2.131  0.00  0.00     0.029 A 
ATOM      9  C7A BZF d   1       1.055   1.339  -2.345  0.00  0.00     0.058 A 
ENDROOT
TORSDOF 0
ENDMDL
