MODEL 1
REMARK minimizedAffinity 13.4520407
REMARK minimizedRMSD -1
REMARK  0 active torsions:
REMARK  status: ('A' for Active; 'I' for Inactive)
ROOT
ATOM      1  O1  BZF d   1       1.676   1.178  -3.092  0.00  0.00    -0.204 OA
ATOM      2  C2  BZF d   1       0.529   0.689  -2.497  0.00  0.00     0.174 A 
ATOM      3  C3  BZF d   1       0.830  -0.264  -1.591  0.00  0.00    -0.012 A 
ATOM      4  C3A BZF d   1       2.259  -0.312  -1.556  0.00  0.00    -0.107 A 
ATOM      5  C4  BZF d   1       3.156  -1.051  -0.838  0.00  0.00     0.055 A 
ATOM      6  C5  BZF d   1       4.483  -0.909  -1.094  0.00  0.00    -0.016 A 
ATOM      7  C6  BZF d   1       4.947  -0.043  -2.062  0.00  0.00     0.022 A 
ATOM      8  C7  BZF d   1       4.096   0.715  -2.796  0.00  0.00     0.029 A 
ATOM      9  C7A BZF d   1       2.756   0.598  -2.517  0.00  0.00     0.058 A 
ENDROOT
TORSDOF 0
ENDMDL
