MODEL 1
REMARK minimizedAffinity 14.9080935
REMARK minimizedRMSD -1
REMARK  0 active torsions:
REMARK  status: ('A' for Active; 'I' for Inactive)
ROOT
ATOM      1  O1  BZF d   1      -5.868   5.002   3.708  0.00  0.00    -0.204 OA
ATOM      2  C2  BZF d   1      -5.606   4.128   2.671  0.00  0.00     0.174 A 
ATOM      3  C3  BZF d   1      -4.300   3.793   2.646  0.00  0.00    -0.012 A 
ATOM      4  C3A BZF d   1      -3.726   4.430   3.791  0.00  0.00    -0.107 A 
ATOM      5  C4  BZF d   1      -2.465   4.461   4.315  0.00  0.00     0.055 A 
ATOM      6  C5  BZF d   1      -2.221   5.237   5.403  0.00  0.00    -0.016 A 
ATOM      7  C6  BZF d   1      -3.211   5.998   5.989  0.00  0.00     0.022 A 
ATOM      8  C7  BZF d   1      -4.478   5.997   5.508  0.00  0.00     0.029 A 
ATOM      9  C7A BZF d   1      -4.735   5.188   4.428  0.00  0.00     0.058 A 
ENDROOT
TORSDOF 0
ENDMDL
