MODEL 1
REMARK minimizedAffinity 19.0162315
REMARK minimizedRMSD -1
REMARK  0 active torsions:
REMARK  status: ('A' for Active; 'I' for Inactive)
ROOT
ATOM      1  O1  BZF d   1      -5.001   5.210   5.345  0.00  0.00    -0.204 OA
ATOM      2  C2  BZF d   1      -4.070   5.998   5.993  0.00  0.00     0.174 A 
ATOM      3  C3  BZF d   1      -2.817   5.584   5.715  0.00  0.00    -0.012 A 
ATOM      4  C3A BZF d   1      -2.972   4.525   4.766  0.00  0.00    -0.107 A 
ATOM      5  C4  BZF d   1      -2.090   3.724   4.099  0.00  0.00     0.055 A 
ATOM      6  C5  BZF d   1      -2.569   2.736   3.298  0.00  0.00    -0.016 A 
ATOM      7  C6  BZF d   1      -3.922   2.519   3.144  0.00  0.00     0.022 A 
ATOM      8  C7  BZF d   1      -4.836   3.291   3.780  0.00  0.00     0.029 A 
ATOM      9  C7A BZF d   1      -4.356   4.310   4.565  0.00  0.00     0.058 A 
ENDROOT
TORSDOF 0
ENDMDL
