MODEL 1
REMARK minimizedAffinity 16.5545845
REMARK minimizedRMSD -1
REMARK  0 active torsions:
REMARK  status: ('A' for Active; 'I' for Inactive)
ROOT
ATOM      1  O1  BZF d   1      -3.324  -0.353   4.030  0.00  0.00    -0.204 OA
ATOM      2  C2  BZF d   1      -4.541  -0.964   3.796  0.00  0.00     0.174 A 
ATOM      3  C3  BZF d   1      -5.389  -0.119   3.175  0.00  0.00    -0.012 A 
ATOM      4  C3A BZF d   1      -4.626   1.066   2.927  0.00  0.00    -0.107 A 
ATOM      5  C4  BZF d   1      -4.912   2.258   2.325  0.00  0.00     0.055 A 
ATOM      6  C5  BZF d   1      -3.967   3.234   2.312  0.00  0.00    -0.016 A 
ATOM      7  C6  BZF d   1      -2.729   3.055   2.895  0.00  0.00     0.022 A 
ATOM      8  C7  BZF d   1      -2.398   1.888   3.499  0.00  0.00     0.029 A 
ATOM      9  C7A BZF d   1      -3.339   0.888   3.486  0.00  0.00     0.058 A 
ENDROOT
TORSDOF 0
ENDMDL
