MODEL 1
REMARK minimizedAffinity 6.18030787
REMARK minimizedRMSD -1
REMARK  0 active torsions:
REMARK  status: ('A' for Active; 'I' for Inactive)
ROOT
ATOM      1  O1  BZF d   1       4.587   5.835  -1.485  0.00  0.00    -0.204 OA
ATOM      2  C2  BZF d   1       3.366   5.268  -1.796  0.00  0.00     0.174 A 
ATOM      3  C3  BZF d   1       2.876   4.579  -0.745  0.00  0.00    -0.012 A 
ATOM      4  C3A BZF d   1       3.808   4.802   0.318  0.00  0.00    -0.107 A 
ATOM      5  C4  BZF d   1       3.863   4.393   1.620  0.00  0.00     0.055 A 
ATOM      6  C5  BZF d   1       4.945   4.725   2.371  0.00  0.00    -0.016 A 
ATOM      7  C6  BZF d   1       5.992   5.458   1.853  0.00  0.00     0.022 A 
ATOM      8  C7  BZF d   1       5.981   5.891   0.568  0.00  0.00     0.029 A 
ATOM      9  C7A BZF d   1       4.873   5.585  -0.184  0.00  0.00     0.058 A 
ENDROOT
TORSDOF 0
ENDMDL
