MODEL 1
REMARK minimizedAffinity 8.77354145
REMARK minimizedRMSD -1
REMARK  0 active torsions:
REMARK  status: ('A' for Active; 'I' for Inactive)
ROOT
ATOM      1  O1  BZF d   1       2.386   4.176  -1.813  0.00  0.00    -0.204 OA
ATOM      2  C2  BZF d   1       2.050   4.185  -0.473  0.00  0.00     0.174 A 
ATOM      3  C3  BZF d   1       1.240   3.148  -0.176  0.00  0.00    -0.012 A 
ATOM      4  C3A BZF d   1       1.133   2.395  -1.388  0.00  0.00    -0.107 A 
ATOM      5  C4  BZF d   1       0.477   1.246  -1.725  0.00  0.00     0.055 A 
ATOM      6  C5  BZF d   1       0.517   0.816  -3.013  0.00  0.00    -0.016 A 
ATOM      7  C6  BZF d   1       1.197   1.512  -3.991  0.00  0.00     0.022 A 
ATOM      8  C7  BZF d   1       1.867   2.655  -3.704  0.00  0.00     0.029 A 
ATOM      9  C7A BZF d   1       1.856   3.075  -2.396  0.00  0.00     0.058 A 
ENDROOT
TORSDOF 0
ENDMDL
