MODEL 1
REMARK minimizedAffinity 3.3615303
REMARK minimizedRMSD -1
REMARK  0 active torsions:
REMARK  status: ('A' for Active; 'I' for Inactive)
ROOT
ATOM      1  O1  BZF d   1      -5.570   0.411   2.850  0.00  0.00    -0.204 OA
ATOM      2  C2  BZF d   1      -6.000  -0.744   2.225  0.00  0.00     0.174 A 
ATOM      3  C3  BZF d   1      -5.029  -1.680   2.232  0.00  0.00    -0.012 A 
ATOM      4  C3A BZF d   1      -3.956  -1.105   2.983  0.00  0.00    -0.107 A 
ATOM      5  C4  BZF d   1      -2.721  -1.555   3.351  0.00  0.00     0.055 A 
ATOM      6  C5  BZF d   1      -1.885  -0.719   4.021  0.00  0.00    -0.016 A 
ATOM      7  C6  BZF d   1      -2.250   0.574   4.334  0.00  0.00     0.022 A 
ATOM      8  C7  BZF d   1      -3.467   1.065   3.994  0.00  0.00     0.029 A 
ATOM      9  C7A BZF d   1      -4.326   0.211   3.346  0.00  0.00     0.058 A 
ENDROOT
TORSDOF 0
ENDMDL
