MODEL 1
REMARK minimizedAffinity 2.51244617
REMARK minimizedRMSD -1
REMARK  0 active torsions:
REMARK  status: ('A' for Active; 'I' for Inactive)
ROOT
ATOM      1  O1  BZF d   1       2.354   3.428  -3.548  0.00  0.00    -0.204 OA
ATOM      2  C2  BZF d   1       2.352   2.702  -4.724  0.00  0.00     0.174 A 
ATOM      3  C3  BZF d   1       1.682   1.542  -4.569  0.00  0.00    -0.012 A 
ATOM      4  C3A BZF d   1       1.158   1.585  -3.238  0.00  0.00    -0.107 A 
ATOM      5  C4  BZF d   1       0.389   0.728  -2.503  0.00  0.00     0.055 A 
ATOM      6  C5  BZF d   1       0.112   1.034  -1.208  0.00  0.00    -0.016 A 
ATOM      7  C6  BZF d   1       0.591   2.184  -0.616  0.00  0.00     0.022 A 
ATOM      8  C7  BZF d   1       1.353   3.068  -1.306  0.00  0.00     0.029 A 
ATOM      9  C7A BZF d   1       1.607   2.777  -2.624  0.00  0.00     0.058 A 
ENDROOT
TORSDOF 0
ENDMDL
