MODEL 1
REMARK minimizedAffinity 5.68797779
REMARK minimizedRMSD -1
REMARK  0 active torsions:
REMARK  status: ('A' for Active; 'I' for Inactive)
ROOT
ATOM      1  O1  BZF d   1       0.907   2.635  -2.248  0.00  0.00    -0.204 OA
ATOM      2  C2  BZF d   1       0.571   1.295  -2.229  0.00  0.00     0.174 A 
ATOM      3  C3  BZF d   1       1.102   0.653  -3.290  0.00  0.00    -0.012 A 
ATOM      4  C3A BZF d   1       1.891   1.635  -3.968  0.00  0.00    -0.107 A 
ATOM      5  C4  BZF d   1       2.676   1.601  -5.085  0.00  0.00     0.055 A 
ATOM      6  C5  BZF d   1       3.252   2.752  -5.523  0.00  0.00    -0.016 A 
ATOM      7  C6  BZF d   1       3.060   3.953  -4.872  0.00  0.00     0.022 A 
ATOM      8  C7  BZF d   1       2.294   4.035  -3.757  0.00  0.00     0.029 A 
ATOM      9  C7A BZF d   1       1.738   2.869  -3.293  0.00  0.00     0.058 A 
ENDROOT
TORSDOF 0
ENDMDL
