MODEL 1
REMARK minimizedAffinity 4.48865843
REMARK minimizedRMSD -1
REMARK  0 active torsions:
REMARK  status: ('A' for Active; 'I' for Inactive)
ROOT
ATOM      1  O1  BZF d   1       2.525   4.120  -1.762  0.00  0.00    -0.204 OA
ATOM      2  C2  BZF d   1       3.540   4.652  -2.534  0.00  0.00     0.174 A 
ATOM      3  C3  BZF d   1       3.852   3.823  -3.551  0.00  0.00    -0.012 A 
ATOM      4  C3A BZF d   1       2.915   2.745  -3.459  0.00  0.00    -0.107 A 
ATOM      5  C4  BZF d   1       2.706   1.617  -4.200  0.00  0.00     0.055 A 
ATOM      6  C5  BZF d   1       1.756   0.731  -3.800  0.00  0.00    -0.016 A 
ATOM      7  C6  BZF d   1       1.001   0.939  -2.665  0.00  0.00     0.022 A 
ATOM      8  C7  BZF d   1       1.169   2.046  -1.901  0.00  0.00     0.029 A 
ATOM      9  C7A BZF d   1       2.105   2.959  -2.320  0.00  0.00     0.058 A 
ENDROOT
TORSDOF 0
ENDMDL
