MODEL 1
REMARK minimizedAffinity 5.75359821
REMARK minimizedRMSD -1
REMARK  0 active torsions:
REMARK  status: ('A' for Active; 'I' for Inactive)
ROOT
ATOM      1  O1  BZF d   1       2.414   3.169  -3.465  0.00  0.00    -0.204 OA
ATOM      2  C2  BZF d   1       3.011   2.577  -4.561  0.00  0.00     0.174 A 
ATOM      3  C3  BZF d   1       2.780   1.249  -4.573  0.00  0.00    -0.012 A 
ATOM      4  C3A BZF d   1       1.912   1.008  -3.462  0.00  0.00    -0.107 A 
ATOM      5  C4  BZF d   1       1.318  -0.115  -2.960  0.00  0.00     0.055 A 
ATOM      6  C5  BZF d   1       0.588  -0.022  -1.818  0.00  0.00    -0.016 A 
ATOM      7  C6  BZF d   1       0.435   1.175  -1.150  0.00  0.00     0.022 A 
ATOM      8  C7  BZF d   1       1.000   2.316  -1.612  0.00  0.00     0.029 A 
ATOM      9  C7A BZF d   1       1.712   2.232  -2.783  0.00  0.00     0.058 A 
ENDROOT
TORSDOF 0
ENDMDL
