MODEL 1
REMARK minimizedAffinity 13.7921686
REMARK minimizedRMSD -1
REMARK  0 active torsions:
REMARK  status: ('A' for Active; 'I' for Inactive)
ROOT
ATOM      1  O1  BZF d   1      -0.793  -1.435  -2.202  0.00  0.00    -0.204 OA
ATOM      2  C2  BZF d   1      -0.252  -2.512  -2.878  0.00  0.00     0.174 A 
ATOM      3  C3  BZF d   1       0.793  -2.123  -3.637  0.00  0.00    -0.012 A 
ATOM      4  C3A BZF d   1       0.970  -0.733  -3.350  0.00  0.00    -0.107 A 
ATOM      5  C4  BZF d   1       1.859   0.209  -3.783  0.00  0.00     0.055 A 
ATOM      6  C5  BZF d   1       1.715   1.494  -3.366  0.00  0.00    -0.016 A 
ATOM      7  C6  BZF d   1       0.692   1.873  -2.521  0.00  0.00     0.022 A 
ATOM      8  C7  BZF d   1      -0.210   0.973  -2.061  0.00  0.00     0.029 A 
ATOM      9  C7A BZF d   1      -0.048  -0.333  -2.454  0.00  0.00     0.058 A 
ENDROOT
TORSDOF 0
ENDMDL
