MODEL 1
REMARK minimizedAffinity 1.43188262
REMARK minimizedRMSD -1
REMARK  1 active torsions:
REMARK  status: ('A' for Active; 'I' for Inactive)
REMARK    1  A    between atoms: C1_2  and  C2_3 
ROOT
ATOM      1  C2  UNL d   1       0.360  -2.747   1.841  0.00  0.00    -0.073 A 
ATOM      2  C3  UNL d   1       1.073  -3.474   0.882  0.00  0.00    -0.002 A 
ATOM      3  C4  UNL d   1       0.411  -4.367   0.038  0.00  0.00     0.004 A 
ATOM      4  C5  UNL d   1      -0.969  -4.537   0.140  0.00  0.00    -0.004 A 
ATOM      5  C6  UNL d   1      -1.702  -3.811   1.085  0.00  0.00    -0.075 A 
ATOM      6  C7  UNL d   1      -3.187  -3.984   1.208  0.00  0.00     0.076 C 
ATOM      7  C8  UNL d   1      -1.029  -2.918   1.930  0.00  0.00     0.001 A 
ENDROOT
BRANCH   1   8
ATOM      8  C1  UNL d   1       1.069  -1.777   2.751  0.00  0.00     0.053 C 
ATOM      9  C   UNL d   1       2.550  -2.095   2.879  0.00  0.00     0.018 C 
ENDBRANCH   1   8
TORSDOF 1
ENDMDL
