MODEL 1
REMARK minimizedAffinity 6.09272766
REMARK minimizedRMSD -1
REMARK  1 active torsions:
REMARK  status: ('A' for Active; 'I' for Inactive)
REMARK    1  A    between atoms: C1_2  and  C2_3 
ROOT
ATOM      1  C2  UNL d   1       0.905   4.084  -3.353  0.00  0.00    -0.073 A 
ATOM      2  C3  UNL d   1       2.071   4.435  -4.044  0.00  0.00    -0.002 A 
ATOM      3  C4  UNL d   1       1.995   5.175  -5.224  0.00  0.00     0.004 A 
ATOM      4  C5  UNL d   1       0.756   5.578  -5.722  0.00  0.00    -0.004 A 
ATOM      5  C6  UNL d   1      -0.419   5.248  -5.040  0.00  0.00    -0.075 A 
ATOM      6  C7  UNL d   1      -1.760   5.672  -5.564  0.00  0.00     0.076 C 
ATOM      7  C8  UNL d   1      -0.336   4.501  -3.857  0.00  0.00     0.001 A 
ENDROOT
BRANCH   1   8
ATOM      8  C1  UNL d   1       0.982   3.289  -2.075  0.00  0.00     0.053 C 
ATOM      9  C   UNL d   1       1.372   1.842  -2.327  0.00  0.00     0.018 C 
ENDBRANCH   1   8
TORSDOF 1
ENDMDL
