MODEL 1
REMARK minimizedAffinity -0.624110281
REMARK minimizedRMSD -1
REMARK  1 active torsions:
REMARK  status: ('A' for Active; 'I' for Inactive)
REMARK    1  A    between atoms: C1_2  and  C2_3 
ROOT
ATOM      1  C2  UNL d   1      -5.951   0.570  -3.548  0.00  0.00    -0.073 A 
ATOM      2  C3  UNL d   1      -5.997   1.958  -3.373  0.00  0.00    -0.002 A 
ATOM      3  C4  UNL d   1      -5.987   2.507  -2.090  0.00  0.00     0.004 A 
ATOM      4  C5  UNL d   1      -5.924   1.676  -0.971  0.00  0.00    -0.004 A 
ATOM      5  C6  UNL d   1      -5.866   0.288  -1.126  0.00  0.00    -0.075 A 
ATOM      6  C7  UNL d   1      -5.800  -0.620   0.067  0.00  0.00     0.076 C 
ATOM      7  C8  UNL d   1      -5.879  -0.257  -2.418  0.00  0.00     0.001 A 
ENDROOT
BRANCH   1   8
ATOM      8  C1  UNL d   1      -5.954  -0.028  -4.932  0.00  0.00     0.053 C 
ATOM      9  C   UNL d   1      -5.576   0.992  -5.994  0.00  0.00     0.018 C 
ENDBRANCH   1   8
TORSDOF 1
ENDMDL
