MODEL 1
REMARK minimizedAffinity -0.253779948
REMARK minimizedRMSD -1
REMARK  1 active torsions:
REMARK  status: ('A' for Active; 'I' for Inactive)
REMARK    1  A    between atoms: C1_2  and  C2_3 
ROOT
ATOM      1  C2  UNL d   1      -3.907  -5.730  -5.054  0.00  0.00    -0.073 A 
ATOM      2  C3  UNL d   1      -2.911  -5.999  -5.999  0.00  0.00    -0.002 A 
ATOM      3  C4  UNL d   1      -1.565  -5.815  -5.677  0.00  0.00     0.004 A 
ATOM      4  C5  UNL d   1      -1.202  -5.369  -4.406  0.00  0.00    -0.004 A 
ATOM      5  C6  UNL d   1      -2.183  -5.107  -3.444  0.00  0.00    -0.075 A 
ATOM      6  C7  UNL d   1      -1.809  -4.625  -2.073  0.00  0.00     0.076 C 
ATOM      7  C8  UNL d   1      -3.532  -5.291  -3.776  0.00  0.00     0.001 A 
ENDROOT
BRANCH   1   8
ATOM      8  C1  UNL d   1      -5.361  -5.933  -5.395  0.00  0.00     0.053 C 
ATOM      9  C   UNL d   1      -6.000  -4.666  -5.942  0.00  0.00     0.018 C 
ENDBRANCH   1   8
TORSDOF 1
ENDMDL
