MODEL 1
REMARK minimizedAffinity 7.47640419
REMARK minimizedRMSD -1
REMARK  1 active torsions:
REMARK  status: ('A' for Active; 'I' for Inactive)
REMARK    1  A    between atoms: C1_2  and  C2_3 
ROOT
ATOM      1  C2  UNL d   1       0.702   3.285  -3.420  0.00  0.00    -0.073 A 
ATOM      2  C3  UNL d   1       1.860   4.055  -3.575  0.00  0.00    -0.002 A 
ATOM      3  C4  UNL d   1       1.876   5.135  -4.458  0.00  0.00     0.004 A 
ATOM      4  C5  UNL d   1       0.733   5.460  -5.189  0.00  0.00    -0.004 A 
ATOM      5  C6  UNL d   1      -0.437   4.710  -5.040  0.00  0.00    -0.075 A 
ATOM      6  C7  UNL d   1      -1.674   5.045  -5.821  0.00  0.00     0.076 C 
ATOM      7  C8  UNL d   1      -0.444   3.625  -4.153  0.00  0.00     0.001 A 
ENDROOT
BRANCH   1   8
ATOM      8  C1  UNL d   1       0.679   2.121  -2.463  0.00  0.00     0.053 C 
ATOM      9  C   UNL d   1       1.521   2.385  -1.224  0.00  0.00     0.018 C 
ENDBRANCH   1   8
TORSDOF 1
ENDMDL
