MODEL 1
REMARK minimizedAffinity 3.25967741
REMARK minimizedRMSD -1
REMARK  1 active torsions:
REMARK  status: ('A' for Active; 'I' for Inactive)
REMARK    1  A    between atoms: C1_2  and  C2_3 
ROOT
ATOM      1  C2  UNL d   1       0.924   3.402  -3.395  0.00  0.00    -0.073 A 
ATOM      2  C3  UNL d   1       2.193   3.944  -3.632  0.00  0.00    -0.002 A 
ATOM      3  C4  UNL d   1       2.375   4.903  -4.629  0.00  0.00     0.004 A 
ATOM      4  C5  UNL d   1       1.291   5.336  -5.393  0.00  0.00    -0.004 A 
ATOM      5  C6  UNL d   1       0.013   4.815  -5.164  0.00  0.00    -0.075 A 
ATOM      6  C7  UNL d   1      -1.162   5.269  -5.978  0.00  0.00     0.076 C 
ATOM      7  C8  UNL d   1      -0.161   3.850  -4.163  0.00  0.00     0.001 A 
ENDROOT
BRANCH   1   8
ATOM      8  C1  UNL d   1       0.721   2.370  -2.316  0.00  0.00     0.053 C 
ATOM      9  C   UNL d   1       1.805   1.304  -2.336  0.00  0.00     0.018 C 
ENDBRANCH   1   8
TORSDOF 1
ENDMDL
