MODEL 1
REMARK minimizedAffinity 1.87156534
REMARK minimizedRMSD -1
REMARK  1 active torsions:
REMARK  status: ('A' for Active; 'I' for Inactive)
REMARK    1  A    between atoms: C1_2  and  C2_3 
ROOT
ATOM      1  C2  UNL d   1       0.852   3.296  -2.738  0.00  0.00    -0.073 A 
ATOM      2  C3  UNL d   1       1.878   4.211  -3.000  0.00  0.00    -0.002 A 
ATOM      3  C4  UNL d   1       1.725   5.175  -3.998  0.00  0.00     0.004 A 
ATOM      4  C5  UNL d   1       0.544   5.239  -4.737  0.00  0.00    -0.004 A 
ATOM      5  C6  UNL d   1      -0.498   4.341  -4.481  0.00  0.00    -0.075 A 
ATOM      6  C7  UNL d   1      -1.774   4.396  -5.269  0.00  0.00     0.076 C 
ATOM      7  C8  UNL d   1      -0.336   3.374  -3.480  0.00  0.00     0.001 A 
ENDROOT
BRANCH   1   8
ATOM      8  C1  UNL d   1       1.010   2.257  -1.658  0.00  0.00     0.053 C 
ATOM      9  C   UNL d   1       1.188   2.886  -0.285  0.00  0.00     0.018 C 
ENDBRANCH   1   8
TORSDOF 1
ENDMDL
