MODEL 1
REMARK minimizedAffinity 8.1997757
REMARK minimizedRMSD -1
REMARK  1 active torsions:
REMARK  status: ('A' for Active; 'I' for Inactive)
REMARK    1  A    between atoms: C1_2  and  C2_3 
ROOT
ATOM      1  C2  UNL d   1       0.776   4.097  -3.582  0.00  0.00    -0.073 A 
ATOM      2  C3  UNL d   1       1.996   4.391  -4.201  0.00  0.00    -0.002 A 
ATOM      3  C4  UNL d   1       2.025   5.105  -5.400  0.00  0.00     0.004 A 
ATOM      4  C5  UNL d   1       0.836   5.538  -5.987  0.00  0.00    -0.004 A 
ATOM      5  C6  UNL d   1      -0.392   5.265  -5.378  0.00  0.00    -0.075 A 
ATOM      6  C7  UNL d   1      -1.680   5.722  -5.998  0.00  0.00     0.076 C 
ATOM      7  C8  UNL d   1      -0.413   4.544  -4.176  0.00  0.00     0.001 A 
ENDROOT
BRANCH   1   8
ATOM      8  C1  UNL d   1       0.741   3.331  -2.285  0.00  0.00     0.053 C 
ATOM      9  C   UNL d   1       1.371   1.954  -2.418  0.00  0.00     0.018 C 
ENDBRANCH   1   8
TORSDOF 1
ENDMDL
