MODEL 1
REMARK minimizedAffinity 3.43789935
REMARK minimizedRMSD -1
REMARK  1 active torsions:
REMARK  status: ('A' for Active; 'I' for Inactive)
REMARK    1  A    between atoms: C1_2  and  C2_3 
ROOT
ATOM      1  C2  UNL d   1       0.998   4.030  -3.615  0.00  0.00    -0.073 A 
ATOM      2  C3  UNL d   1       2.068   4.192  -4.503  0.00  0.00    -0.002 A 
ATOM      3  C4  UNL d   1       1.897   4.905  -5.691  0.00  0.00     0.004 A 
ATOM      4  C5  UNL d   1       0.659   5.468  -5.999  0.00  0.00    -0.004 A 
ATOM      5  C6  UNL d   1      -0.419   5.328  -5.119  0.00  0.00    -0.075 A 
ATOM      6  C7  UNL d   1      -1.758   5.926  -5.436  0.00  0.00     0.076 C 
ATOM      7  C8  UNL d   1      -0.240   4.608  -3.929  0.00  0.00     0.001 A 
ENDROOT
BRANCH   1   8
ATOM      8  C1  UNL d   1       1.180   3.267  -2.329  0.00  0.00     0.053 C 
ATOM      9  C   UNL d   1       1.600   1.827  -2.575  0.00  0.00     0.018 C 
ENDBRANCH   1   8
TORSDOF 1
ENDMDL
