MODEL 1
REMARK minimizedAffinity 8.54923344
REMARK minimizedRMSD -1
REMARK  1 active torsions:
REMARK  status: ('A' for Active; 'I' for Inactive)
REMARK    1  A    between atoms: C1_2  and  C2_3 
ROOT
ATOM      1  C2  UNL d   1       0.311   5.102  -5.285  0.00  0.00    -0.073 A 
ATOM      2  C3  UNL d   1       1.512   5.034  -5.999  0.00  0.00    -0.002 A 
ATOM      3  C4  UNL d   1       2.656   4.499  -5.406  0.00  0.00     0.004 A 
ATOM      4  C5  UNL d   1       2.609   4.019  -4.097  0.00  0.00    -0.004 A 
ATOM      5  C6  UNL d   1       1.415   4.067  -3.371  0.00  0.00    -0.075 A 
ATOM      6  C7  UNL d   1       1.348   3.557  -1.961  0.00  0.00     0.076 C 
ATOM      7  C8  UNL d   1       0.271   4.609  -3.973  0.00  0.00     0.001 A 
ENDROOT
BRANCH   1   8
ATOM      8  C1  UNL d   1      -0.929   5.673  -5.924  0.00  0.00     0.053 C 
ATOM      9  C   UNL d   1      -2.001   5.998  -4.896  0.00  0.00     0.018 C 
ENDBRANCH   1   8
TORSDOF 1
ENDMDL
