MODEL 1
REMARK minimizedAffinity 10.5336685
REMARK minimizedRMSD -1
REMARK  1 active torsions:
REMARK  status: ('A' for Active; 'I' for Inactive)
REMARK    1  A    between atoms: C1_2  and  C2_3 
ROOT
ATOM      1  C2  UNL d   1       1.233   4.263  -3.376  0.00  0.00    -0.073 A 
ATOM      2  C3  UNL d   1       2.206   4.149  -4.376  0.00  0.00    -0.002 A 
ATOM      3  C4  UNL d   1       1.926   4.554  -5.681  0.00  0.00     0.004 A 
ATOM      4  C5  UNL d   1       0.675   5.083  -6.000  0.00  0.00    -0.004 A 
ATOM      5  C6  UNL d   1      -0.306   5.216  -5.012  0.00  0.00    -0.075 A 
ATOM      6  C7  UNL d   1      -1.657   5.781  -5.339  0.00  0.00     0.076 C 
ATOM      7  C8  UNL d   1      -0.018   4.805  -3.704  0.00  0.00     0.001 A 
ENDROOT
BRANCH   1   8
ATOM      8  C1  UNL d   1       1.532   3.834  -1.963  0.00  0.00     0.053 C 
ATOM      9  C   UNL d   1       1.774   2.336  -1.862  0.00  0.00     0.018 C 
ENDBRANCH   1   8
TORSDOF 1
ENDMDL
