MODEL 1
REMARK minimizedAffinity 3.89194059
REMARK minimizedRMSD -1
REMARK  1 active torsions:
REMARK  status: ('A' for Active; 'I' for Inactive)
REMARK    1  A    between atoms: C1_2  and  C2_3 
ROOT
ATOM      1  C2  UNL d   1       0.964   3.350  -2.828  0.00  0.00    -0.073 A 
ATOM      2  C3  UNL d   1       2.132   4.102  -2.658  0.00  0.00    -0.002 A 
ATOM      3  C4  UNL d   1       2.364   5.232  -3.443  0.00  0.00     0.004 A 
ATOM      4  C5  UNL d   1       1.428   5.626  -4.400  0.00  0.00    -0.004 A 
ATOM      5  C6  UNL d   1       0.250   4.895  -4.577  0.00  0.00    -0.075 A 
ATOM      6  C7  UNL d   1      -0.766   5.304  -5.603  0.00  0.00     0.076 C 
ATOM      7  C8  UNL d   1       0.026   3.759  -3.787  0.00  0.00     0.001 A 
ENDROOT
BRANCH   1   8
ATOM      8  C1  UNL d   1       0.707   2.133  -1.979  0.00  0.00     0.053 C 
ATOM      9  C   UNL d   1       1.992   1.400  -1.629  0.00  0.00     0.018 C 
ENDBRANCH   1   8
TORSDOF 1
ENDMDL
