MODEL 1
REMARK minimizedAffinity 6.52457571
REMARK minimizedRMSD -1
REMARK  1 active torsions:
REMARK  status: ('A' for Active; 'I' for Inactive)
REMARK    1  A    between atoms: C1_2  and  C2_3 
ROOT
ATOM      1  C2  UNL d   1      -0.001   4.117  -3.783  0.00  0.00    -0.073 A 
ATOM      2  C3  UNL d   1       1.312   4.600  -3.763  0.00  0.00    -0.002 A 
ATOM      3  C4  UNL d   1       2.290   3.952  -3.007  0.00  0.00     0.004 A 
ATOM      4  C5  UNL d   1       1.967   2.812  -2.271  0.00  0.00    -0.004 A 
ATOM      5  C6  UNL d   1       0.663   2.307  -2.288  0.00  0.00    -0.075 A 
ATOM      6  C7  UNL d   1       0.300   1.083  -1.500  0.00  0.00     0.076 C 
ATOM      7  C8  UNL d   1      -0.314   2.965  -3.047  0.00  0.00     0.001 A 
ENDROOT
BRANCH   1   8
ATOM      8  C1  UNL d   1      -1.059   4.809  -4.603  0.00  0.00     0.053 C 
ATOM      9  C   UNL d   1      -0.552   5.187  -5.986  0.00  0.00     0.018 C 
ENDBRANCH   1   8
TORSDOF 1
ENDMDL
