MODEL 1
REMARK minimizedAffinity 0.491973519
REMARK minimizedRMSD -1
REMARK  3 active torsions:
REMARK  status: ('A' for Active; 'I' for Inactive)
REMARK    1  A    between atoms: C3'_2  and  C2'_3 
REMARK    2  A    between atoms: C2'_3  and  C1'_4 
REMARK    3  A    between atoms: C1'_4  and  C1_5 
ROOT
ATOM      1  C1  N4B d   1      -1.626  -5.881  -3.622  0.00  0.00    -0.075 A 
ATOM      2  C2  N4B d   1      -0.218  -5.813  -3.542  0.00  0.00     0.002 A 
ATOM      3  C3  N4B d   1       0.537  -5.822  -4.689  0.00  0.00     0.002 A 
ATOM      4  C4  N4B d   1      -0.091  -5.918  -5.922  0.00  0.00    -0.004 A 
ATOM      5  C5  N4B d   1      -1.453  -5.957  -5.992  0.00  0.00     0.002 A 
ATOM      6  C6  N4B d   1      -2.224  -5.945  -4.848  0.00  0.00     0.002 A 
ENDROOT
BRANCH   1   7
ATOM      7  C1' N4B d   1      -2.489  -5.960  -2.393  0.00  0.00     0.057 C 
BRANCH   7   8
ATOM      8  C2' N4B d   1      -3.941  -5.702  -2.782  0.00  0.00     0.009 C 
BRANCH   8   9
ATOM      9  C3' N4B d   1      -4.897  -5.996  -1.639  0.00  0.00     0.004 C 
ATOM     10  C4' N4B d   1      -4.239  -5.910  -0.295  0.00  0.00     0.003 C 
ENDBRANCH   8   9
ENDBRANCH   7   8
ENDBRANCH   1   7
TORSDOF 3
ENDMDL
