MODEL 1
REMARK minimizedAffinity 6.41353416
REMARK minimizedRMSD -1
REMARK  3 active torsions:
REMARK  status: ('A' for Active; 'I' for Inactive)
REMARK    1  A    between atoms: C3'_2  and  C2'_3 
REMARK    2  A    between atoms: C2'_3  and  C1'_4 
REMARK    3  A    between atoms: C1'_4  and  C1_5 
ROOT
ATOM      1  C1  N4B d   1      -1.581  -5.990  -3.317  0.00  0.00    -0.075 A 
ATOM      2  C2  N4B d   1      -2.588  -5.995  -4.307  0.00  0.00     0.002 A 
ATOM      3  C3  N4B d   1      -2.244  -5.998  -5.636  0.00  0.00     0.002 A 
ATOM      4  C4  N4B d   1      -0.905  -5.977  -5.998  0.00  0.00    -0.004 A 
ATOM      5  C5  N4B d   1       0.062  -5.998  -5.036  0.00  0.00     0.002 A 
ATOM      6  C6  N4B d   1      -0.270  -5.999  -3.696  0.00  0.00     0.002 A 
ENDROOT
BRANCH   1   7
ATOM      7  C1' N4B d   1      -1.908  -5.900  -1.851  0.00  0.00     0.057 C 
BRANCH   7   8
ATOM      8  C2' N4B d   1      -2.484  -4.519  -1.551  0.00  0.00     0.009 C 
BRANCH   8   9
ATOM      9  C3' N4B d   1      -1.499  -3.646  -0.794  0.00  0.00     0.004 C 
ATOM     10  C4' N4B d   1      -2.171  -2.711   0.167  0.00  0.00     0.003 C 
ENDBRANCH   8   9
ENDBRANCH   7   8
ENDBRANCH   1   7
TORSDOF 3
ENDMDL
