MODEL 1
REMARK minimizedAffinity 14.0946817
REMARK minimizedRMSD -1
REMARK  3 active torsions:
REMARK  status: ('A' for Active; 'I' for Inactive)
REMARK    1  A    between atoms: C3'_2  and  C2'_3 
REMARK    2  A    between atoms: C2'_3  and  C1'_4 
REMARK    3  A    between atoms: C1'_4  and  C1_5 
ROOT
ATOM      1  C1  N4B d   1      -2.194   2.695  -3.652  0.00  0.00    -0.075 A 
ATOM      2  C2  N4B d   1      -1.960   4.012  -4.105  0.00  0.00     0.002 A 
ATOM      3  C3  N4B d   1      -0.676   4.491  -4.191  0.00  0.00     0.002 A 
ATOM      4  C4  N4B d   1       0.385   3.681  -3.813  0.00  0.00    -0.004 A 
ATOM      5  C5  N4B d   1       0.153   2.401  -3.401  0.00  0.00     0.002 A 
ATOM      6  C6  N4B d   1      -1.133   1.906  -3.314  0.00  0.00     0.002 A 
ENDROOT
BRANCH   1   7
ATOM      7  C1' N4B d   1      -3.585   2.156  -3.460  0.00  0.00     0.057 C 
BRANCH   7   8
ATOM      8  C2' N4B d   1      -3.522   0.636  -3.343  0.00  0.00     0.009 C 
BRANCH   8   9
ATOM      9  C3' N4B d   1      -4.869   0.038  -2.976  0.00  0.00     0.004 C 
ATOM     10  C4' N4B d   1      -4.925  -1.445  -3.194  0.00  0.00     0.003 C 
ENDBRANCH   8   9
ENDBRANCH   7   8
ENDBRANCH   1   7
TORSDOF 3
ENDMDL
