MODEL 1
REMARK minimizedAffinity -2.00379252
REMARK minimizedRMSD -1
REMARK  3 active torsions:
REMARK  status: ('A' for Active; 'I' for Inactive)
REMARK    1  A    between atoms: C3'_2  and  C2'_3 
REMARK    2  A    between atoms: C2'_3  and  C1'_4 
REMARK    3  A    between atoms: C1'_4  and  C1_5 
ROOT
ATOM      1  C1  N4B d   1      -0.932  -5.623  -3.652  0.00  0.00    -0.075 A 
ATOM      2  C2  N4B d   1       0.433  -5.982  -3.601  0.00  0.00     0.002 A 
ATOM      3  C3  N4B d   1       1.181  -5.999  -4.752  0.00  0.00     0.002 A 
ATOM      4  C4  N4B d   1       0.585  -5.680  -5.963  0.00  0.00    -0.004 A 
ATOM      5  C5  N4B d   1      -0.728  -5.310  -6.000  0.00  0.00     0.002 A 
ATOM      6  C6  N4B d   1      -1.491  -5.285  -4.850  0.00  0.00     0.002 A 
ENDROOT
BRANCH   1   7
ATOM      7  C1' N4B d   1      -1.812  -5.673  -2.433  0.00  0.00     0.057 C 
BRANCH   7   8
ATOM      8  C2' N4B d   1      -0.966  -5.404  -1.192  0.00  0.00     0.009 C 
BRANCH   8   9
ATOM      9  C3' N4B d   1      -1.138  -3.982  -0.685  0.00  0.00     0.004 C 
ATOM     10  C4' N4B d   1      -0.399  -3.730   0.596  0.00  0.00     0.003 C 
ENDBRANCH   8   9
ENDBRANCH   7   8
ENDBRANCH   1   7
TORSDOF 3
ENDMDL
