MODEL 1
REMARK minimizedAffinity 0.375571251
REMARK minimizedRMSD -1
REMARK  3 active torsions:
REMARK  status: ('A' for Active; 'I' for Inactive)
REMARK    1  A    between atoms: C3'_2  and  C2'_3 
REMARK    2  A    between atoms: C2'_3  and  C1'_4 
REMARK    3  A    between atoms: C1'_4  and  C1_5 
ROOT
ATOM      1  C1  N4B d   1      -2.831   1.995  -3.396  0.00  0.00    -0.075 A 
ATOM      2  C2  N4B d   1      -1.476   1.747  -3.083  0.00  0.00     0.002 A 
ATOM      3  C3  N4B d   1      -0.506   2.634  -3.481  0.00  0.00     0.002 A 
ATOM      4  C4  N4B d   1      -0.863   3.760  -4.207  0.00  0.00    -0.004 A 
ATOM      5  C5  N4B d   1      -2.176   4.005  -4.484  0.00  0.00     0.002 A 
ATOM      6  C6  N4B d   1      -3.162   3.125  -4.086  0.00  0.00     0.002 A 
ENDROOT
BRANCH   1   7
ATOM      7  C1' N4B d   1      -3.917   1.011  -3.056  0.00  0.00     0.057 C 
BRANCH   7   8
ATOM      8  C2' N4B d   1      -4.737   1.554  -1.890  0.00  0.00     0.009 C 
BRANCH   8   9
ATOM      9  C3' N4B d   1      -5.377   0.441  -1.078  0.00  0.00     0.004 C 
ATOM     10  C4' N4B d   1      -4.489  -0.059   0.022  0.00  0.00     0.003 C 
ENDBRANCH   8   9
ENDBRANCH   7   8
ENDBRANCH   1   7
TORSDOF 3
ENDMDL
