MODEL 1
REMARK minimizedAffinity 3.17026997
REMARK minimizedRMSD -1
REMARK  3 active torsions:
REMARK  status: ('A' for Active; 'I' for Inactive)
REMARK    1  A    between atoms: C3'_2  and  C2'_3 
REMARK    2  A    between atoms: C2'_3  and  C1'_4 
REMARK    3  A    between atoms: C1'_4  and  C1_5 
ROOT
ATOM      1  C1  N4B d   1       0.353  -2.299   1.645  0.00  0.00    -0.075 A 
ATOM      2  C2  N4B d   1       0.163  -3.034   2.835  0.00  0.00     0.002 A 
ATOM      3  C3  N4B d   1      -1.017  -3.706   3.046  0.00  0.00     0.002 A 
ATOM      4  C4  N4B d   1      -2.022  -3.641   2.093  0.00  0.00    -0.004 A 
ATOM      5  C5  N4B d   1      -1.821  -2.950   0.935  0.00  0.00     0.002 A 
ATOM      6  C6  N4B d   1      -0.639  -2.274   0.708  0.00  0.00     0.002 A 
ENDROOT
BRANCH   1   7
ATOM      7  C1' N4B d   1       1.592  -1.479   1.408  0.00  0.00     0.057 C 
BRANCH   7   8
ATOM      8  C2' N4B d   1       1.282  -0.011   1.689  0.00  0.00     0.009 C 
BRANCH   8   9
ATOM      9  C3' N4B d   1       1.062   0.778   0.410  0.00  0.00     0.004 C 
ATOM     10  C4' N4B d   1       2.331   1.363  -0.136  0.00  0.00     0.003 C 
ENDBRANCH   8   9
ENDBRANCH   7   8
ENDBRANCH   1   7
TORSDOF 3
ENDMDL
