MODEL 1
REMARK minimizedAffinity 0.308156788
REMARK minimizedRMSD -1
REMARK  3 active torsions:
REMARK  status: ('A' for Active; 'I' for Inactive)
REMARK    1  A    between atoms: C3'_2  and  C2'_3 
REMARK    2  A    between atoms: C2'_3  and  C1'_4 
REMARK    3  A    between atoms: C1'_4  and  C1_5 
ROOT
ATOM      1  C1  N4B d   1      -0.030   3.122  -1.570  0.00  0.00    -0.075 A 
ATOM      2  C2  N4B d   1      -1.411   3.070  -1.864  0.00  0.00     0.002 A 
ATOM      3  C3  N4B d   1      -1.844   3.246  -3.155  0.00  0.00     0.002 A 
ATOM      4  C4  N4B d   1      -0.922   3.493  -4.161  0.00  0.00    -0.004 A 
ATOM      5  C5  N4B d   1       0.411   3.516  -3.872  0.00  0.00     0.002 A 
ATOM      6  C6  N4B d   1       0.862   3.337  -2.580  0.00  0.00     0.002 A 
ENDROOT
BRANCH   1   7
ATOM      7  C1' N4B d   1       0.485   3.020  -0.160  0.00  0.00     0.057 C 
BRANCH   7   8
ATOM      8  C2' N4B d   1       0.059   1.681   0.434  0.00  0.00     0.009 C 
BRANCH   8   9
ATOM      9  C3' N4B d   1       1.158   0.638   0.330  0.00  0.00     0.004 C 
ATOM     10  C4' N4B d   1       0.628  -0.738   0.052  0.00  0.00     0.003 C 
ENDBRANCH   8   9
ENDBRANCH   7   8
ENDBRANCH   1   7
TORSDOF 3
ENDMDL
