MODEL 1
REMARK minimizedAffinity -0.465497434
REMARK minimizedRMSD -1
REMARK  3 active torsions:
REMARK  status: ('A' for Active; 'I' for Inactive)
REMARK    1  A    between atoms: C3'_2  and  C2'_3 
REMARK    2  A    between atoms: C2'_3  and  C1'_4 
REMARK    3  A    between atoms: C1'_4  and  C1_5 
ROOT
ATOM      1  C1  N4B d   1      -1.564  -5.707  -4.627  0.00  0.00    -0.075 A 
ATOM      2  C2  N4B d   1      -0.775  -5.851  -3.465  0.00  0.00     0.002 A 
ATOM      3  C3  N4B d   1      -1.378  -6.000  -2.240  0.00  0.00     0.002 A 
ATOM      4  C4  N4B d   1      -2.762  -5.988  -2.151  0.00  0.00    -0.004 A 
ATOM      5  C5  N4B d   1      -3.517  -5.873  -3.281  0.00  0.00     0.002 A 
ATOM      6  C6  N4B d   1      -2.924  -5.728  -4.520  0.00  0.00     0.002 A 
ENDROOT
BRANCH   1   7
ATOM      7  C1' N4B d   1      -0.950  -5.456  -5.977  0.00  0.00     0.057 C 
BRANCH   7   8
ATOM      8  C2' N4B d   1       0.476  -6.000  -5.988  0.00  0.00     0.009 C 
BRANCH   8   9
ATOM      9  C3' N4B d   1       1.503  -4.906  -5.755  0.00  0.00     0.004 C 
ATOM     10  C4' N4B d   1       1.652  -4.548  -4.306  0.00  0.00     0.003 C 
ENDBRANCH   8   9
ENDBRANCH   7   8
ENDBRANCH   1   7
TORSDOF 3
ENDMDL
