MODEL 1
REMARK minimizedAffinity 4.36256981
REMARK minimizedRMSD -1
REMARK  3 active torsions:
REMARK  status: ('A' for Active; 'I' for Inactive)
REMARK    1  A    between atoms: C3'_2  and  C2'_3 
REMARK    2  A    between atoms: C2'_3  and  C1'_4 
REMARK    3  A    between atoms: C1'_4  and  C1_5 
ROOT
ATOM      1  C1  N4B d   1      -1.749  -5.920  -3.787  0.00  0.00    -0.075 A 
ATOM      2  C2  N4B d   1      -3.005  -5.963  -3.143  0.00  0.00     0.002 A 
ATOM      3  C3  N4B d   1      -3.073  -5.991  -1.771  0.00  0.00     0.002 A 
ATOM      4  C4  N4B d   1      -1.903  -5.996  -1.027  0.00  0.00    -0.004 A 
ATOM      5  C5  N4B d   1      -0.694  -5.929  -1.656  0.00  0.00     0.002 A 
ATOM      6  C6  N4B d   1      -0.611  -5.897  -3.033  0.00  0.00     0.002 A 
ENDROOT
BRANCH   1   7
ATOM      7  C1' N4B d   1      -1.622  -5.975  -5.285  0.00  0.00     0.057 C 
BRANCH   7   8
ATOM      8  C2' N4B d   1      -0.469  -5.077  -5.723  0.00  0.00     0.009 C 
BRANCH   8   9
ATOM      9  C3' N4B d   1       0.882  -5.726  -5.478  0.00  0.00     0.004 C 
ATOM     10  C4' N4B d   1       1.859  -4.801  -4.815  0.00  0.00     0.003 C 
ENDBRANCH   8   9
ENDBRANCH   7   8
ENDBRANCH   1   7
TORSDOF 3
ENDMDL
