MODEL 1
REMARK minimizedAffinity -0.748589993
REMARK minimizedRMSD -1
REMARK  3 active torsions:
REMARK  status: ('A' for Active; 'I' for Inactive)
REMARK    1  A    between atoms: C3'_2  and  C2'_3 
REMARK    2  A    between atoms: C2'_3  and  C1'_4 
REMARK    3  A    between atoms: C1'_4  and  C1_5 
ROOT
ATOM      1  C1  N4B d   1      -1.752  -5.868  -4.622  0.00  0.00    -0.075 A 
ATOM      2  C2  N4B d   1      -1.317  -5.915  -3.279  0.00  0.00     0.002 A 
ATOM      3  C3  N4B d   1      -2.236  -5.988  -2.261  0.00  0.00     0.002 A 
ATOM      4  C4  N4B d   1      -3.590  -5.997  -2.559  0.00  0.00    -0.004 A 
ATOM      5  C5  N4B d   1      -4.002  -5.977  -3.860  0.00  0.00     0.002 A 
ATOM      6  C6  N4B d   1      -3.089  -5.908  -4.893  0.00  0.00     0.002 A 
ENDROOT
BRANCH   1   7
ATOM      7  C1' N4B d   1      -0.788  -5.701  -5.764  0.00  0.00     0.057 C 
BRANCH   7   8
ATOM      8  C2' N4B d   1       0.634  -5.915  -5.254  0.00  0.00     0.009 C 
BRANCH   8   9
ATOM      9  C3' N4B d   1       0.843  -5.301  -3.881  0.00  0.00     0.004 C 
ATOM     10  C4' N4B d   1       1.910  -5.997  -3.090  0.00  0.00     0.003 C 
ENDBRANCH   8   9
ENDBRANCH   7   8
ENDBRANCH   1   7
TORSDOF 3
ENDMDL
