MODEL 1
REMARK minimizedAffinity 4.0486412
REMARK minimizedRMSD -1
REMARK  1 active torsions:
REMARK  status: ('A' for Active; 'I' for Inactive)
REMARK    1  A    between atoms: C1_2  and  C2_3 
ROOT
ATOM      1  C2  UNL d   1       2.284   0.450  -3.836  0.00  0.00    -0.073 A 
ATOM      2  C3  UNL d   1       3.661   0.229  -3.942  0.00  0.00    -0.002 A 
ATOM      3  C4  UNL d   1       4.398  -0.179  -2.829  0.00  0.00     0.004 A 
ATOM      4  C5  UNL d   1       3.764  -0.376  -1.602  0.00  0.00    -0.004 A 
ATOM      5  C6  UNL d   1       2.386  -0.171  -1.479  0.00  0.00    -0.075 A 
ATOM      6  C7  UNL d   1       1.690  -0.377  -0.166  0.00  0.00     0.076 C 
ATOM      7  C8  UNL d   1       1.654   0.241  -2.600  0.00  0.00     0.001 A 
ENDROOT
BRANCH   1   8
ATOM      8  C1  UNL d   1       1.483   0.885  -5.037  0.00  0.00     0.053 C 
ATOM      9  C   UNL d   1       0.225   0.050  -5.215  0.00  0.00     0.018 C 
ENDBRANCH   1   8
TORSDOF 1
ENDMDL
