MODEL 1
REMARK minimizedAffinity 0.8351686
REMARK minimizedRMSD -1
REMARK  1 active torsions:
REMARK  status: ('A' for Active; 'I' for Inactive)
REMARK    1  A    between atoms: C1_2  and  C2_3 
ROOT
ATOM      1  C2  UNL d   1       2.246  -1.280  -1.810  0.00  0.00    -0.073 A 
ATOM      2  C3  UNL d   1       3.626  -1.350  -2.033  0.00  0.00    -0.002 A 
ATOM      3  C4  UNL d   1       4.200  -0.677  -3.113  0.00  0.00     0.004 A 
ATOM      4  C5  UNL d   1       3.404   0.078  -3.974  0.00  0.00    -0.004 A 
ATOM      5  C6  UNL d   1       2.025   0.170  -3.760  0.00  0.00    -0.075 A 
ATOM      6  C7  UNL d   1       1.154   0.976  -4.678  0.00  0.00     0.076 C 
ATOM      7  C8  UNL d   1       1.455  -0.511  -2.675  0.00  0.00     0.001 A 
ENDROOT
BRANCH   1   8
ATOM      8  C1  UNL d   1       1.622  -1.999  -0.642  0.00  0.00     0.053 C 
ATOM      9  C   UNL d   1       0.387  -2.786  -1.051  0.00  0.00     0.018 C 
ENDBRANCH   1   8
TORSDOF 1
ENDMDL
