MODEL 1
REMARK minimizedAffinity 9.32920456
REMARK minimizedRMSD -1
REMARK  1 active torsions:
REMARK  status: ('A' for Active; 'I' for Inactive)
REMARK    1  A    between atoms: C1_2  and  C2_3 
ROOT
ATOM      1  C2  UNL d   1       1.108  -0.351  -1.728  0.00  0.00    -0.073 A 
ATOM      2  C3  UNL d   1       2.055   0.677  -1.789  0.00  0.00    -0.002 A 
ATOM      3  C4  UNL d   1       2.365   1.278  -3.010  0.00  0.00     0.004 A 
ATOM      4  C5  UNL d   1       1.728   0.861  -4.179  0.00  0.00    -0.004 A 
ATOM      5  C6  UNL d   1       0.771  -0.157  -4.136  0.00  0.00    -0.075 A 
ATOM      6  C7  UNL d   1       0.078  -0.618  -5.385  0.00  0.00     0.076 C 
ATOM      7  C8  UNL d   1       0.467  -0.757  -2.907  0.00  0.00     0.001 A 
ENDROOT
BRANCH   1   8
ATOM      8  C1  UNL d   1       0.766  -0.998  -0.411  0.00  0.00     0.053 C 
ATOM      9  C   UNL d   1       1.800  -0.693   0.661  0.00  0.00     0.018 C 
ENDBRANCH   1   8
TORSDOF 1
ENDMDL
