MODEL 1
REMARK minimizedAffinity 8.52440929
REMARK minimizedRMSD -1
REMARK  1 active torsions:
REMARK  status: ('A' for Active; 'I' for Inactive)
REMARK    1  A    between atoms: C1_2  and  C2_3 
ROOT
ATOM      1  C2  UNL d   1       1.175  -0.439  -2.026  0.00  0.00    -0.073 A 
ATOM      2  C3  UNL d   1       0.227  -1.437  -2.280  0.00  0.00    -0.002 A 
ATOM      3  C4  UNL d   1      -0.034  -2.420  -1.325  0.00  0.00     0.004 A 
ATOM      4  C5  UNL d   1       0.643  -2.412  -0.106  0.00  0.00    -0.004 A 
ATOM      5  C6  UNL d   1       1.585  -1.417   0.172  0.00  0.00    -0.075 A 
ATOM      6  C7  UNL d   1       2.323  -1.396   1.478  0.00  0.00     0.076 C 
ATOM      7  C8  UNL d   1       1.844  -0.434  -0.793  0.00  0.00     0.001 A 
ENDROOT
BRANCH   1   8
ATOM      8  C1  UNL d   1       1.456   0.629  -3.051  0.00  0.00     0.053 C 
ATOM      9  C   UNL d   1       2.269   1.776  -2.471  0.00  0.00     0.018 C 
ENDBRANCH   1   8
TORSDOF 1
ENDMDL
