MODEL 1
REMARK minimizedAffinity 3.49740744
REMARK minimizedRMSD -1
REMARK  1 active torsions:
REMARK  status: ('A' for Active; 'I' for Inactive)
REMARK    1  A    between atoms: C1_2  and  C2_3 
ROOT
ATOM      1  C2  UNL d   1       1.826   0.260  -0.078  0.00  0.00    -0.073 A 
ATOM      2  C3  UNL d   1       2.098   1.575   0.315  0.00  0.00    -0.002 A 
ATOM      3  C4  UNL d   1       2.165   2.596  -0.634  0.00  0.00     0.004 A 
ATOM      4  C5  UNL d   1       1.954   2.313  -1.984  0.00  0.00    -0.004 A 
ATOM      5  C6  UNL d   1       1.669   1.008  -2.395  0.00  0.00    -0.075 A 
ATOM      6  C7  UNL d   1       1.442   0.687  -3.844  0.00  0.00     0.076 C 
ATOM      7  C8  UNL d   1       1.606  -0.012  -1.436  0.00  0.00     0.001 A 
ENDROOT
BRANCH   1   8
ATOM      8  C1  UNL d   1       1.746  -0.844   0.945  0.00  0.00     0.053 C 
ATOM      9  C   UNL d   1       2.640  -0.574   2.145  0.00  0.00     0.018 C 
ENDBRANCH   1   8
TORSDOF 1
ENDMDL
