MODEL 1
REMARK minimizedAffinity 0.789375484
REMARK minimizedRMSD -1
REMARK  1 active torsions:
REMARK  status: ('A' for Active; 'I' for Inactive)
REMARK    1  A    between atoms: C1_2  and  C2_3 
ROOT
ATOM      1  C2  UNL d   1       3.609  -0.872  -3.809  0.00  0.00    -0.073 A 
ATOM      2  C3  UNL d   1       4.074   0.205  -3.047  0.00  0.00    -0.002 A 
ATOM      3  C4  UNL d   1       3.201   1.221  -2.656  0.00  0.00     0.004 A 
ATOM      4  C5  UNL d   1       1.854   1.167  -3.016  0.00  0.00    -0.004 A 
ATOM      5  C6  UNL d   1       1.368   0.092  -3.767  0.00  0.00    -0.075 A 
ATOM      6  C7  UNL d   1      -0.077   0.020  -4.165  0.00  0.00     0.076 C 
ATOM      7  C8  UNL d   1       2.252  -0.923  -4.159  0.00  0.00     0.001 A 
ENDROOT
BRANCH   1   8
ATOM      8  C1  UNL d   1       4.546  -1.975  -4.229  0.00  0.00     0.053 C 
ATOM      9  C   UNL d   1       5.393  -2.475  -3.069  0.00  0.00     0.018 C 
ENDBRANCH   1   8
TORSDOF 1
ENDMDL
