MODEL 1
REMARK minimizedAffinity 0.659010351
REMARK minimizedRMSD -1
REMARK  1 active torsions:
REMARK  status: ('A' for Active; 'I' for Inactive)
REMARK    1  A    between atoms: C1_2  and  C2_3 
ROOT
ATOM      1  C2  UNL d   1       1.701  -0.538  -1.744  0.00  0.00    -0.073 A 
ATOM      2  C3  UNL d   1       3.062  -0.265  -1.918  0.00  0.00    -0.002 A 
ATOM      3  C4  UNL d   1       3.527   0.260  -3.125  0.00  0.00     0.004 A 
ATOM      4  C5  UNL d   1       2.636   0.524  -4.165  0.00  0.00    -0.004 A 
ATOM      5  C6  UNL d   1       1.270   0.268  -4.006  0.00  0.00    -0.075 A 
ATOM      6  C7  UNL d   1       0.298   0.544  -5.116  0.00  0.00     0.076 C 
ATOM      7  C8  UNL d   1       0.812  -0.261  -2.792  0.00  0.00     0.001 A 
ENDROOT
BRANCH   1   8
ATOM      8  C1  UNL d   1       1.194  -1.099  -0.440  0.00  0.00     0.053 C 
ATOM      9  C   UNL d   1       2.292  -1.186   0.608  0.00  0.00     0.018 C 
ENDBRANCH   1   8
TORSDOF 1
ENDMDL
