MODEL 1
REMARK minimizedAffinity 7.08108854
REMARK minimizedRMSD -1
REMARK  1 active torsions:
REMARK  status: ('A' for Active; 'I' for Inactive)
REMARK    1  A    between atoms: C1_2  and  C2_3 
ROOT
ATOM      1  C2  UNL d   1       3.672  -0.215  -3.517  0.00  0.00    -0.073 A 
ATOM      2  C3  UNL d   1       3.948   1.082  -3.070  0.00  0.00    -0.002 A 
ATOM      3  C4  UNL d   1       2.953   2.061  -3.087  0.00  0.00     0.004 A 
ATOM      4  C5  UNL d   1       1.672   1.751  -3.543  0.00  0.00    -0.004 A 
ATOM      5  C6  UNL d   1       1.373   0.457  -3.982  0.00  0.00    -0.075 A 
ATOM      6  C7  UNL d   1       0.000   0.109  -4.478  0.00  0.00     0.076 C 
ATOM      7  C8  UNL d   1       2.378  -0.519  -3.965  0.00  0.00     0.001 A 
ENDROOT
BRANCH   1   8
ATOM      8  C1  UNL d   1       4.741  -1.276  -3.496  0.00  0.00     0.053 C 
ATOM      9  C   UNL d   1       5.004  -1.849  -4.879  0.00  0.00     0.018 C 
ENDBRANCH   1   8
TORSDOF 1
ENDMDL
