MODEL 1
REMARK minimizedAffinity -2.61372709
REMARK minimizedRMSD -1
REMARK  0 active torsions:
REMARK  status: ('A' for Active; 'I' for Inactive)
ROOT
ATOM      1  C   UNL d   1      -0.001   3.742  -0.003  0.00  0.00     0.077 C 
ATOM      2  C1  UNL d   1      -0.285   2.374   0.543  0.00  0.00    -0.074 A 
ATOM      3  C2  UNL d   1      -1.038   2.209   1.710  0.00  0.00    -0.005 A 
ATOM      4  C3  UNL d   1      -1.303   0.930   2.201  0.00  0.00     0.006 A 
ATOM      5  C4  UNL d   1      -0.818  -0.194   1.530  0.00  0.00    -0.005 A 
ATOM      6  C5  UNL d   1      -0.064  -0.048   0.362  0.00  0.00    -0.074 A 
ATOM      7  C6  UNL d   1       0.456  -1.245  -0.376  0.00  0.00     0.077 C 
ATOM      8  C7  UNL d   1       0.192   1.240  -0.129  0.00  0.00    -0.001 A 
ENDROOT
TORSDOF 0
ENDMDL
