MODEL 1
REMARK minimizedAffinity -2.49230123
REMARK minimizedRMSD -1
REMARK  0 active torsions:
REMARK  status: ('A' for Active; 'I' for Inactive)
ROOT
ATOM      1  C   UNL d   1       1.071  -0.157  -0.611  0.00  0.00     0.077 C 
ATOM      2  C1  UNL d   1       0.698  -1.379  -1.396  0.00  0.00    -0.074 A 
ATOM      3  C2  UNL d   1       0.247  -1.276  -2.716  0.00  0.00    -0.005 A 
ATOM      4  C3  UNL d   1      -0.088  -2.422  -3.436  0.00  0.00     0.006 A 
ATOM      5  C4  UNL d   1       0.026  -3.682  -2.846  0.00  0.00    -0.005 A 
ATOM      6  C5  UNL d   1       0.476  -3.805  -1.528  0.00  0.00    -0.074 A 
ATOM      7  C6  UNL d   1       0.613  -5.151  -0.881  0.00  0.00     0.077 C 
ATOM      8  C7  UNL d   1       0.817  -2.649  -0.812  0.00  0.00    -0.001 A 
ENDROOT
TORSDOF 0
ENDMDL
