MODEL 1
REMARK minimizedAffinity -2.59719467
REMARK minimizedRMSD -1
REMARK  0 active torsions:
REMARK  status: ('A' for Active; 'I' for Inactive)
ROOT
ATOM      1  C   UNL d   1       0.290   4.188  -1.331  0.00  0.00     0.077 C 
ATOM      2  C1  UNL d   1      -0.231   3.239  -0.293  0.00  0.00    -0.074 A 
ATOM      3  C2  UNL d   1      -0.938   3.708   0.819  0.00  0.00    -0.005 A 
ATOM      4  C3  UNL d   1      -1.425   2.812   1.771  0.00  0.00     0.006 A 
ATOM      5  C4  UNL d   1      -1.210   1.442   1.622  0.00  0.00    -0.005 A 
ATOM      6  C5  UNL d   1      -0.506   0.954   0.516  0.00  0.00    -0.074 A 
ATOM      7  C6  UNL d   1      -0.275  -0.516   0.335  0.00  0.00     0.077 C 
ATOM      8  C7  UNL d   1      -0.026   1.860  -0.441  0.00  0.00    -0.001 A 
ENDROOT
TORSDOF 0
ENDMDL
