MODEL 1
REMARK minimizedAffinity -3.87678027
REMARK minimizedRMSD -1
REMARK  0 active torsions:
REMARK  status: ('A' for Active; 'I' for Inactive)
ROOT
ATOM      1  C   UNL d   1       0.901  -0.879  -0.750  0.00  0.00     0.077 C 
ATOM      2  C1  UNL d   1       0.260   0.196   0.077  0.00  0.00    -0.074 A 
ATOM      3  C2  UNL d   1      -0.483  -0.122   1.218  0.00  0.00    -0.005 A 
ATOM      4  C3  UNL d   1      -1.066   0.888   1.982  0.00  0.00     0.006 A 
ATOM      5  C4  UNL d   1      -0.913   2.225   1.614  0.00  0.00    -0.005 A 
ATOM      6  C5  UNL d   1      -0.173   2.563   0.476  0.00  0.00    -0.074 A 
ATOM      7  C6  UNL d   1       0.010   3.995   0.071  0.00  0.00     0.077 C 
ATOM      8  C7  UNL d   1       0.416   1.542  -0.283  0.00  0.00    -0.001 A 
ENDROOT
TORSDOF 0
ENDMDL
