MODEL 1
REMARK minimizedAffinity -1.76802921
REMARK minimizedRMSD -1
REMARK  0 active torsions:
REMARK  status: ('A' for Active; 'I' for Inactive)
ROOT
ATOM      1  C   UNL d   1       0.314  -1.119  -1.018  0.00  0.00     0.077 C 
ATOM      2  C1  UNL d   1      -0.063  -0.037  -0.051  0.00  0.00    -0.074 A 
ATOM      3  C2  UNL d   1      -0.666  -0.345   1.173  0.00  0.00    -0.005 A 
ATOM      4  C3  UNL d   1      -1.003   0.671   2.067  0.00  0.00     0.006 A 
ATOM      5  C4  UNL d   1      -0.741   2.004   1.746  0.00  0.00    -0.005 A 
ATOM      6  C5  UNL d   1      -0.138   2.331   0.528  0.00  0.00    -0.074 A 
ATOM      7  C6  UNL d   1       0.159   3.758   0.172  0.00  0.00     0.077 C 
ATOM      8  C7  UNL d   1       0.204   1.304  -0.362  0.00  0.00    -0.001 A 
ENDROOT
TORSDOF 0
ENDMDL
