MODEL 1
REMARK minimizedAffinity -2.62433386
REMARK minimizedRMSD -1
REMARK  0 active torsions:
REMARK  status: ('A' for Active; 'I' for Inactive)
ROOT
ATOM      1  C   UNL d   1       0.575   0.078  -0.966  0.00  0.00     0.077 C 
ATOM      2  C1  UNL d   1       0.583  -1.298  -1.564  0.00  0.00    -0.074 A 
ATOM      3  C2  UNL d   1       0.033  -1.536  -2.827  0.00  0.00    -0.005 A 
ATOM      4  C3  UNL d   1       0.057  -2.819  -3.374  0.00  0.00     0.006 A 
ATOM      5  C4  UNL d   1       0.630  -3.875  -2.664  0.00  0.00    -0.005 A 
ATOM      6  C5  UNL d   1       1.185  -3.655  -1.400  0.00  0.00    -0.074 A 
ATOM      7  C6  UNL d   1       1.813  -4.777  -0.627  0.00  0.00     0.077 C 
ATOM      8  C7  UNL d   1       1.164  -2.362  -0.860  0.00  0.00    -0.001 A 
ENDROOT
TORSDOF 0
ENDMDL
