MODEL 1
REMARK minimizedAffinity -3.25179529
REMARK minimizedRMSD -1
REMARK  0 active torsions:
REMARK  status: ('A' for Active; 'I' for Inactive)
ROOT
ATOM      1  C   UNL d   1      -0.410   3.235   0.608  0.00  0.00     0.077 C 
ATOM      2  C1  UNL d   1      -0.507   1.749   0.784  0.00  0.00    -0.074 A 
ATOM      3  C2  UNL d   1      -1.229   1.197   1.848  0.00  0.00    -0.005 A 
ATOM      4  C3  UNL d   1      -1.319  -0.187   1.994  0.00  0.00     0.006 A 
ATOM      5  C4  UNL d   1      -0.690  -1.032   1.079  0.00  0.00    -0.005 A 
ATOM      6  C5  UNL d   1       0.035  -0.499   0.008  0.00  0.00    -0.074 A 
ATOM      7  C6  UNL d   1       0.709  -1.393  -0.990  0.00  0.00     0.077 C 
ATOM      8  C7  UNL d   1       0.115   0.893  -0.135  0.00  0.00    -0.001 A 
ENDROOT
TORSDOF 0
ENDMDL
