MODEL 1
REMARK minimizedAffinity -3.67288303
REMARK minimizedRMSD -1
REMARK  0 active torsions:
REMARK  status: ('A' for Active; 'I' for Inactive)
ROOT
ATOM      1  C   UNL d   1       0.683  -1.092  -0.750  0.00  0.00     0.077 C 
ATOM      2  C1  UNL d   1       0.157   0.112  -0.027  0.00  0.00    -0.074 A 
ATOM      3  C2  UNL d   1      -0.443  -0.009   1.230  0.00  0.00    -0.005 A 
ATOM      4  C3  UNL d   1      -0.920   1.121   1.895  0.00  0.00     0.006 A 
ATOM      5  C4  UNL d   1      -0.801   2.382   1.309  0.00  0.00    -0.005 A 
ATOM      6  C5  UNL d   1      -0.203   2.523   0.053  0.00  0.00    -0.074 A 
ATOM      7  C6  UNL d   1      -0.059   3.873  -0.586  0.00  0.00     0.077 C 
ATOM      8  C7  UNL d   1       0.279   1.384  -0.605  0.00  0.00    -0.001 A 
ENDROOT
TORSDOF 0
ENDMDL
