MODEL 1
REMARK minimizedAffinity -2.49733186
REMARK minimizedRMSD -1
REMARK  0 active torsions:
REMARK  status: ('A' for Active; 'I' for Inactive)
ROOT
ATOM      1  C   UNL d   1      -0.251  -0.315   1.744  0.00  0.00     0.077 C 
ATOM      2  C1  UNL d   1       0.422  -0.467   0.412  0.00  0.00    -0.074 A 
ATOM      3  C2  UNL d   1       0.906   0.649  -0.279  0.00  0.00    -0.005 A 
ATOM      4  C3  UNL d   1       1.539   0.491  -1.512  0.00  0.00     0.006 A 
ATOM      5  C4  UNL d   1       1.694  -0.780  -2.065  0.00  0.00    -0.005 A 
ATOM      6  C5  UNL d   1       1.217  -1.907  -1.388  0.00  0.00    -0.074 A 
ATOM      7  C6  UNL d   1       1.384  -3.282  -1.964  0.00  0.00     0.077 C 
ATOM      8  C7  UNL d   1       0.589  -1.742  -0.146  0.00  0.00    -0.001 A 
ENDROOT
TORSDOF 0
ENDMDL
