MODEL 1
REMARK minimizedAffinity -2.12347221
REMARK minimizedRMSD -1
REMARK  0 active torsions:
REMARK  status: ('A' for Active; 'I' for Inactive)
ROOT
ATOM      1  C   UNL d   1       0.710  -0.729  -0.741  0.00  0.00     0.077 C 
ATOM      2  C1  UNL d   1       0.154   0.295   0.205  0.00  0.00    -0.074 A 
ATOM      3  C2  UNL d   1      -0.386  -0.084   1.438  0.00  0.00    -0.005 A 
ATOM      4  C3  UNL d   1      -0.891   0.880   2.310  0.00  0.00     0.006 A 
ATOM      5  C4  UNL d   1      -0.859   2.230   1.960  0.00  0.00    -0.005 A 
ATOM      6  C5  UNL d   1      -0.322   2.628   0.732  0.00  0.00    -0.074 A 
ATOM      7  C6  UNL d   1      -0.271   4.076   0.344  0.00  0.00     0.077 C 
ATOM      8  C7  UNL d   1       0.189   1.654  -0.137  0.00  0.00    -0.001 A 
ENDROOT
TORSDOF 0
ENDMDL
