MODEL 1
REMARK minimizedAffinity -3.91422701
REMARK minimizedRMSD -1
REMARK  0 active torsions:
REMARK  status: ('A' for Active; 'I' for Inactive)
ROOT
ATOM      1  C   UNL d   1       0.682  -1.339  -0.891  0.00  0.00     0.077 C 
ATOM      2  C1  UNL d   1       0.063  -0.344   0.045  0.00  0.00    -0.074 A 
ATOM      3  C2  UNL d   1      -0.538  -0.757   1.239  0.00  0.00    -0.005 A 
ATOM      4  C3  UNL d   1      -1.100   0.181   2.104  0.00  0.00     0.006 A 
ATOM      5  C4  UNL d   1      -1.068   1.540   1.785  0.00  0.00    -0.005 A 
ATOM      6  C5  UNL d   1      -0.471   1.971   0.597  0.00  0.00    -0.074 A 
ATOM      7  C6  UNL d   1      -0.418   3.428   0.244  0.00  0.00     0.077 C 
ATOM      8  C7  UNL d   1       0.099   1.023  -0.264  0.00  0.00    -0.001 A 
ENDROOT
TORSDOF 0
ENDMDL
