MODEL 1
REMARK minimizedAffinity -3.81642962
REMARK minimizedRMSD -1
REMARK  0 active torsions:
REMARK  status: ('A' for Active; 'I' for Inactive)
ROOT
ATOM      1  C   UNL d   1       1.002  -1.846  -0.653  0.00  0.00     0.077 C 
ATOM      2  C1  UNL d   1       0.378  -0.599  -0.101  0.00  0.00    -0.074 A 
ATOM      3  C2  UNL d   1      -0.286  -0.611   1.130  0.00  0.00    -0.005 A 
ATOM      4  C3  UNL d   1      -0.853   0.558   1.634  0.00  0.00     0.006 A 
ATOM      5  C4  UNL d   1      -0.763   1.751   0.915  0.00  0.00    -0.005 A 
ATOM      6  C5  UNL d   1      -0.102   1.783  -0.317  0.00  0.00    -0.074 A 
ATOM      7  C6  UNL d   1       0.013   3.058  -1.099  0.00  0.00     0.077 C 
ATOM      8  C7  UNL d   1       0.471   0.604  -0.815  0.00  0.00    -0.001 A 
ENDROOT
TORSDOF 0
ENDMDL
