MODEL 1
REMARK minimizedAffinity -4.13285398
REMARK minimizedRMSD -1
REMARK  0 active torsions:
REMARK  status: ('A' for Active; 'I' for Inactive)
ROOT
ATOM      1  C   UNL d   1       0.432  -1.259  -1.028  0.00  0.00     0.077 C 
ATOM      2  C1  UNL d   1       0.006  -0.153  -0.109  0.00  0.00    -0.074 A 
ATOM      3  C2  UNL d   1      -0.611  -0.433   1.115  0.00  0.00    -0.005 A 
ATOM      4  C3  UNL d   1      -0.994   0.606   1.963  0.00  0.00     0.006 A 
ATOM      5  C4  UNL d   1      -0.764   1.933   1.597  0.00  0.00    -0.005 A 
ATOM      6  C5  UNL d   1      -0.147   2.232   0.378  0.00  0.00    -0.074 A 
ATOM      7  C6  UNL d   1       0.117   3.652  -0.026  0.00  0.00     0.077 C 
ATOM      8  C7  UNL d   1       0.241   1.182  -0.466  0.00  0.00    -0.001 A 
ENDROOT
TORSDOF 0
ENDMDL
