MODEL 1
REMARK minimizedAffinity -4.22401571
REMARK minimizedRMSD -1
REMARK  0 active torsions:
REMARK  status: ('A' for Active; 'I' for Inactive)
ROOT
ATOM      1  C   UNL d   1      -0.684   3.152  -0.459  0.00  0.00     0.077 C 
ATOM      2  C1  UNL d   1      -0.594   1.764   0.102  0.00  0.00    -0.074 A 
ATOM      3  C2  UNL d   1      -1.177   1.447   1.334  0.00  0.00    -0.005 A 
ATOM      4  C3  UNL d   1      -1.093   0.149   1.838  0.00  0.00     0.006 A 
ATOM      5  C4  UNL d   1      -0.427  -0.843   1.118  0.00  0.00    -0.005 A 
ATOM      6  C5  UNL d   1       0.161  -0.545  -0.115  0.00  0.00    -0.074 A 
ATOM      7  C6  UNL d   1       0.872  -1.603  -0.907  0.00  0.00     0.077 C 
ATOM      8  C7  UNL d   1       0.067   0.759  -0.619  0.00  0.00    -0.001 A 
ENDROOT
TORSDOF 0
ENDMDL
