MODEL 1
REMARK minimizedAffinity -5.42251635
REMARK minimizedRMSD -1
REMARK  0 active torsions:
REMARK  status: ('A' for Active; 'I' for Inactive)
ROOT
ATOM      1  C   UNL d   1      -1.139   0.095   0.043  0.00  0.00     0.078 C 
ATOM      2  C1  UNL d   1       0.327   0.063   0.358  0.00  0.00    -0.077 A 
ATOM      3  C2  UNL d   1       0.871  -0.951   1.156  0.00  0.00    -0.001 A 
ATOM      4  C3  UNL d   1       2.236  -0.963   1.448  0.00  0.00     0.003 A 
ATOM      5  C4  UNL d   1       3.067   0.037   0.948  0.00  0.00    -0.005 A 
ATOM      6  C5  UNL d   1       2.534   1.051   0.155  0.00  0.00     0.003 A 
ATOM      7  C6  UNL d   1       1.170   1.065  -0.138  0.00  0.00    -0.001 A 
ENDROOT
TORSDOF 0
ENDMDL
