MODEL 1
REMARK minimizedAffinity -5.1531353
REMARK minimizedRMSD -1
REMARK  0 active torsions:
REMARK  status: ('A' for Active; 'I' for Inactive)
ROOT
ATOM      1  C   UNL d   1       2.873  -0.301   0.730  0.00  0.00     0.078 C 
ATOM      2  C1  UNL d   1       1.434  -0.053   0.390  0.00  0.00    -0.077 A 
ATOM      3  C2  UNL d   1       0.517  -1.108   0.319  0.00  0.00    -0.001 A 
ATOM      4  C3  UNL d   1      -0.818  -0.863  -0.009  0.00  0.00     0.003 A 
ATOM      5  C4  UNL d   1      -1.247   0.437  -0.270  0.00  0.00    -0.005 A 
ATOM      6  C5  UNL d   1      -0.341   1.493  -0.205  0.00  0.00     0.003 A 
ATOM      7  C6  UNL d   1       0.994   1.250   0.123  0.00  0.00    -0.001 A 
ENDROOT
TORSDOF 0
ENDMDL
