MODEL 1
REMARK minimizedAffinity -2.96934485
REMARK minimizedRMSD -1
REMARK  0 active torsions:
REMARK  status: ('A' for Active; 'I' for Inactive)
ROOT
ATOM      1  C   UNL d   1       3.009  -0.015   0.401  0.00  0.00     0.078 C 
ATOM      2  C1  UNL d   1       1.525   0.195   0.363  0.00  0.00    -0.077 A 
ATOM      3  C2  UNL d   1       0.974   1.474   0.512  0.00  0.00    -0.001 A 
ATOM      4  C3  UNL d   1      -0.410   1.653   0.484  0.00  0.00     0.003 A 
ATOM      5  C4  UNL d   1      -1.254   0.558   0.309  0.00  0.00    -0.005 A 
ATOM      6  C5  UNL d   1      -0.715  -0.718   0.163  0.00  0.00     0.003 A 
ATOM      7  C6  UNL d   1       0.669  -0.899   0.190  0.00  0.00    -0.001 A 
ENDROOT
TORSDOF 0
ENDMDL
