MODEL 1
REMARK minimizedAffinity -6.00167608
REMARK minimizedRMSD -1
REMARK  0 active torsions:
REMARK  status: ('A' for Active; 'I' for Inactive)
ROOT
ATOM      1  C   UNL d   1       0.759   1.682  -0.041  0.00  0.00     0.078 C 
ATOM      2  C1  UNL d   1       1.270   0.370   0.472  0.00  0.00    -0.077 A 
ATOM      3  C2  UNL d   1       0.401  -0.704   0.700  0.00  0.00    -0.001 A 
ATOM      4  C3  UNL d   1       0.889  -1.917   1.188  0.00  0.00     0.003 A 
ATOM      5  C4  UNL d   1       2.249  -2.068   1.453  0.00  0.00    -0.005 A 
ATOM      6  C5  UNL d   1       3.122  -1.005   1.231  0.00  0.00     0.003 A 
ATOM      7  C6  UNL d   1       2.635   0.209   0.744  0.00  0.00    -0.001 A 
ENDROOT
TORSDOF 0
ENDMDL
