MODEL 1
REMARK minimizedAffinity -4.21791172
REMARK minimizedRMSD -1
REMARK  0 active torsions:
REMARK  status: ('A' for Active; 'I' for Inactive)
ROOT
ATOM      1  C   UNL d   1       3.208  -0.108   0.629  0.00  0.00     0.078 C 
ATOM      2  C1  UNL d   1       1.727  -0.006   0.421  0.00  0.00    -0.077 A 
ATOM      3  C2  UNL d   1       0.918  -1.149   0.417  0.00  0.00    -0.001 A 
ATOM      4  C3  UNL d   1      -0.458  -1.040   0.213  0.00  0.00     0.003 A 
ATOM      5  C4  UNL d   1      -1.038   0.210   0.009  0.00  0.00    -0.005 A 
ATOM      6  C5  UNL d   1      -0.242   1.354   0.009  0.00  0.00     0.003 A 
ATOM      7  C6  UNL d   1       1.135   1.246   0.213  0.00  0.00    -0.001 A 
ENDROOT
TORSDOF 0
ENDMDL
