MODEL 1
REMARK minimizedAffinity -3.67406726
REMARK minimizedRMSD -1
REMARK  0 active torsions:
REMARK  status: ('A' for Active; 'I' for Inactive)
ROOT
ATOM      1  C   UNL d   1      -1.227   0.199  -0.223  0.00  0.00     0.078 C 
ATOM      2  C1  UNL d   1      -2.043   0.023  -1.468  0.00  0.00    -0.077 A 
ATOM      3  C2  UNL d   1      -2.322  -1.253  -1.973  0.00  0.00    -0.001 A 
ATOM      4  C3  UNL d   1      -3.075  -1.401  -3.139  0.00  0.00     0.003 A 
ATOM      5  C4  UNL d   1      -3.555  -0.278  -3.810  0.00  0.00    -0.005 A 
ATOM      6  C5  UNL d   1      -3.280   0.996  -3.317  0.00  0.00     0.003 A 
ATOM      7  C6  UNL d   1      -2.527   1.146  -2.151  0.00  0.00    -0.001 A 
ENDROOT
TORSDOF 0
ENDMDL
