MODEL 1
REMARK minimizedAffinity -5.37529993
REMARK minimizedRMSD -1
REMARK  0 active torsions:
REMARK  status: ('A' for Active; 'I' for Inactive)
ROOT
ATOM      1  C   UNL d   1       3.388  -0.446   0.997  0.00  0.00     0.078 C 
ATOM      2  C1  UNL d   1       1.961  -0.049   0.764  0.00  0.00    -0.077 A 
ATOM      3  C2  UNL d   1       0.922  -0.979   0.897  0.00  0.00    -0.001 A 
ATOM      4  C3  UNL d   1      -0.401  -0.597   0.668  0.00  0.00     0.003 A 
ATOM      5  C4  UNL d   1      -0.698   0.714   0.303  0.00  0.00    -0.005 A 
ATOM      6  C5  UNL d   1       0.329   1.646   0.166  0.00  0.00     0.003 A 
ATOM      7  C6  UNL d   1       1.653   1.267   0.395  0.00  0.00    -0.001 A 
ENDROOT
TORSDOF 0
ENDMDL
