MODEL 1
REMARK minimizedAffinity -3.78318238
REMARK minimizedRMSD -1
REMARK  0 active torsions:
REMARK  status: ('A' for Active; 'I' for Inactive)
ROOT
ATOM      1  C   UNL d   1      -1.027  -0.153  -0.137  0.00  0.00     0.078 C 
ATOM      2  C1  UNL d   1      -1.729  -0.103  -1.461  0.00  0.00    -0.077 A 
ATOM      3  C2  UNL d   1      -2.260  -1.262  -2.041  0.00  0.00    -0.001 A 
ATOM      4  C3  UNL d   1      -2.902  -1.202  -3.279  0.00  0.00     0.003 A 
ATOM      5  C4  UNL d   1      -3.018   0.015  -3.948  0.00  0.00    -0.005 A 
ATOM      6  C5  UNL d   1      -2.491   1.173  -3.380  0.00  0.00     0.003 A 
ATOM      7  C6  UNL d   1      -1.849   1.115  -2.142  0.00  0.00    -0.001 A 
ENDROOT
TORSDOF 0
ENDMDL
