MODEL 1
REMARK minimizedAffinity -1.60596454
REMARK minimizedRMSD -1
REMARK  0 active torsions:
REMARK  status: ('A' for Active; 'I' for Inactive)
ROOT
ATOM      1  C   UNL d   1       0.772  -1.820  -0.047  0.00  0.00     0.020 A 
ATOM      2  C1  UNL d   1       0.815  -1.045   1.112  0.00  0.00     0.020 A 
ATOM      3  C2  UNL d   1       0.770   0.348   1.023  0.00  0.00     0.034 A 
ATOM      4  C3  UNL d   1       0.682   0.971  -0.227  0.00  0.00     0.017 A 
ATOM      5  C4  UNL d   1       0.639   0.193  -1.390  0.00  0.00     0.017 A 
ATOM      6  C5  UNL d   1       0.684  -1.202  -1.295  0.00  0.00     0.034 A 
ATOM      7 Cl   UNL d   1       0.530   0.889  -2.968  0.00  0.00    -0.070 Cl
ATOM      8 Cl1  UNL d   1       0.630   2.697  -0.263  0.00  0.00    -0.070 Cl
ENDROOT
TORSDOF 0
ENDMDL
