MODEL 1
REMARK minimizedAffinity -3.9470613
REMARK minimizedRMSD -1
REMARK  0 active torsions:
REMARK  status: ('A' for Active; 'I' for Inactive)
ROOT
ATOM      1  C   UNL d   1       0.621   0.202  -1.133  0.00  0.00     0.020 A 
ATOM      2  C1  UNL d   1       0.081   1.175  -0.292  0.00  0.00     0.020 A 
ATOM      3  C2  UNL d   1      -0.480   0.805   0.933  0.00  0.00     0.034 A 
ATOM      4  C3  UNL d   1      -0.503  -0.540   1.319  0.00  0.00     0.017 A 
ATOM      5  C4  UNL d   1       0.039  -1.515   0.474  0.00  0.00     0.017 A 
ATOM      6  C5  UNL d   1       0.600  -1.139  -0.750  0.00  0.00     0.034 A 
ATOM      7 Cl   UNL d   1       0.047  -3.194   0.883  0.00  0.00    -0.070 Cl
ATOM      8 Cl1  UNL d   1      -1.213  -0.924   2.847  0.00  0.00    -0.070 Cl
ENDROOT
TORSDOF 0
ENDMDL
