MODEL 1
REMARK minimizedAffinity -2.15739846
REMARK minimizedRMSD -1
REMARK  0 active torsions:
REMARK  status: ('A' for Active; 'I' for Inactive)
ROOT
ATOM      1  C   UNL d   1      -0.432  -2.509   1.681  0.00  0.00     0.020 A 
ATOM      2  C1  UNL d   1      -0.648  -1.245   2.227  0.00  0.00     0.020 A 
ATOM      3  C2  UNL d   1      -0.571  -0.111   1.415  0.00  0.00     0.034 A 
ATOM      4  C3  UNL d   1      -0.278  -0.239   0.053  0.00  0.00     0.017 A 
ATOM      5  C4  UNL d   1      -0.061  -1.509  -0.495  0.00  0.00     0.017 A 
ATOM      6  C5  UNL d   1      -0.139  -2.641   0.323  0.00  0.00     0.034 A 
ATOM      7 Cl   UNL d   1       0.306  -1.747  -2.167  0.00  0.00    -0.070 Cl
ATOM      8 Cl1  UNL d   1      -0.199   1.205  -0.892  0.00  0.00    -0.070 Cl
ENDROOT
TORSDOF 0
ENDMDL
