MODEL 1
REMARK minimizedAffinity -4.36187601
REMARK minimizedRMSD -1
REMARK  0 active torsions:
REMARK  status: ('A' for Active; 'I' for Inactive)
ROOT
ATOM      1  C   UNL d   1       0.012   0.681  -1.554  0.00  0.00     0.020 A 
ATOM      2  C1  UNL d   1       0.484  -0.477  -2.171  0.00  0.00     0.020 A 
ATOM      3  C2  UNL d   1       0.535  -1.677  -1.458  0.00  0.00     0.034 A 
ATOM      4  C3  UNL d   1       0.114  -1.722  -0.124  0.00  0.00     0.017 A 
ATOM      5  C4  UNL d   1      -0.359  -0.559   0.495  0.00  0.00     0.017 A 
ATOM      6  C5  UNL d   1      -0.408   0.640  -0.224  0.00  0.00     0.034 A 
ATOM      7 Cl   UNL d   1      -0.895  -0.535   2.138  0.00  0.00    -0.070 Cl
ATOM      8 Cl1  UNL d   1       0.205  -3.239   0.697  0.00  0.00    -0.070 Cl
ENDROOT
TORSDOF 0
ENDMDL
