MODEL 1
REMARK minimizedAffinity -4.63116026
REMARK minimizedRMSD -1
REMARK  0 active torsions:
REMARK  status: ('A' for Active; 'I' for Inactive)
ROOT
ATOM      1  C   UNL d   1      -0.805  -2.759   0.662  0.00  0.00     0.020 A 
ATOM      2  C1  UNL d   1      -0.552  -3.456  -0.519  0.00  0.00     0.020 A 
ATOM      3  C2  UNL d   1      -0.095  -2.774  -1.648  0.00  0.00     0.034 A 
ATOM      4  C3  UNL d   1       0.111  -1.391  -1.600  0.00  0.00     0.017 A 
ATOM      5  C4  UNL d   1      -0.142  -0.691  -0.414  0.00  0.00     0.017 A 
ATOM      6  C5  UNL d   1      -0.600  -1.379   0.714  0.00  0.00     0.034 A 
ATOM      7 Cl   UNL d   1       0.089   1.016  -0.277  0.00  0.00    -0.070 Cl
ATOM      8 Cl1  UNL d   1       0.678  -0.612  -3.034  0.00  0.00    -0.070 Cl
ENDROOT
TORSDOF 0
ENDMDL
