MODEL 1
REMARK minimizedAffinity -3.82968545
REMARK minimizedRMSD -1
REMARK  0 active torsions:
REMARK  status: ('A' for Active; 'I' for Inactive)
ROOT
ATOM      1  C   UNL d   1       0.810   1.706   0.405  0.00  0.00     0.020 A 
ATOM      2  C1  UNL d   1       0.774   1.009   1.612  0.00  0.00     0.020 A 
ATOM      3  C2  UNL d   1       0.542  -0.369   1.615  0.00  0.00     0.034 A 
ATOM      4  C3  UNL d   1       0.345  -1.052   0.410  0.00  0.00     0.017 A 
ATOM      5  C4  UNL d   1       0.381  -0.351  -0.801  0.00  0.00     0.017 A 
ATOM      6  C5  UNL d   1       0.614   1.028  -0.798  0.00  0.00     0.034 A 
ATOM      7 Cl   UNL d   1       0.147  -1.125  -2.328  0.00  0.00    -0.070 Cl
ATOM      8 Cl1  UNL d   1       0.064  -2.755   0.489  0.00  0.00    -0.070 Cl
ENDROOT
TORSDOF 0
ENDMDL
