MODEL 1
REMARK minimizedAffinity -1.7931397
REMARK minimizedRMSD -1
REMARK  0 active torsions:
REMARK  status: ('A' for Active; 'I' for Inactive)
ROOT
ATOM      1  C   UNL d   1       0.977  -0.209   0.156  0.00  0.00     0.020 A 
ATOM      2  C1  UNL d   1      -0.252   0.283   0.595  0.00  0.00     0.020 A 
ATOM      3  C2  UNL d   1      -1.311  -0.596   0.835  0.00  0.00     0.034 A 
ATOM      4  C3  UNL d   1      -1.142  -1.971   0.637  0.00  0.00     0.017 A 
ATOM      5  C4  UNL d   1       0.091  -2.464   0.197  0.00  0.00     0.017 A 
ATOM      6  C5  UNL d   1       1.148  -1.580  -0.042  0.00  0.00     0.034 A 
ATOM      7 Cl   UNL d   1       0.375  -4.148  -0.070  0.00  0.00    -0.070 Cl
ATOM      8 Cl1  UNL d   1      -2.494  -3.000   0.954  0.00  0.00    -0.070 Cl
ENDROOT
TORSDOF 0
ENDMDL
