MODEL 1
REMARK minimizedAffinity 0.512490153
REMARK minimizedRMSD -1
REMARK  0 active torsions:
REMARK  status: ('A' for Active; 'I' for Inactive)
ROOT
ATOM      1  C   UNL d   1      -1.524   0.262   1.396  0.00  0.00     0.020 A 
ATOM      2  C1  UNL d   1      -1.752  -0.867   2.181  0.00  0.00     0.020 A 
ATOM      3  C2  UNL d   1      -1.268  -2.112   1.772  0.00  0.00     0.034 A 
ATOM      4  C3  UNL d   1      -0.554  -2.230   0.574  0.00  0.00     0.017 A 
ATOM      5  C4  UNL d   1      -0.326  -1.095  -0.214  0.00  0.00     0.017 A 
ATOM      6  C5  UNL d   1      -0.813   0.148   0.201  0.00  0.00     0.034 A 
ATOM      7 Cl   UNL d   1       0.547  -1.162  -1.704  0.00  0.00    -0.070 Cl
ATOM      8 Cl1  UNL d   1       0.016  -3.799   0.130  0.00  0.00    -0.070 Cl
ENDROOT
TORSDOF 0
ENDMDL
