MODEL 1
REMARK minimizedAffinity -4.64777279
REMARK minimizedRMSD -1
REMARK  0 active torsions:
REMARK  status: ('A' for Active; 'I' for Inactive)
ROOT
ATOM      1  C   UNL d   1       0.478  -2.247  -1.995  0.00  0.00     0.020 A 
ATOM      2  C1  UNL d   1      -0.179  -3.139  -1.148  0.00  0.00     0.020 A 
ATOM      3  C2  UNL d   1      -0.628  -2.711   0.103  0.00  0.00     0.034 A 
ATOM      4  C3  UNL d   1      -0.420  -1.388   0.511  0.00  0.00     0.017 A 
ATOM      5  C4  UNL d   1       0.239  -0.494  -0.341  0.00  0.00     0.017 A 
ATOM      6  C5  UNL d   1       0.686  -0.928  -1.593  0.00  0.00     0.034 A 
ATOM      7 Cl   UNL d   1       0.532   1.154   0.092  0.00  0.00    -0.070 Cl
ATOM      8 Cl1  UNL d   1      -1.002  -0.927   2.071  0.00  0.00    -0.070 Cl
ENDROOT
TORSDOF 0
ENDMDL
