MODEL 1
REMARK minimizedAffinity -2.72377038
REMARK minimizedRMSD -1
REMARK  0 active torsions:
REMARK  status: ('A' for Active; 'I' for Inactive)
ROOT
ATOM      1  C   UNL d   1      -0.984  -3.005   0.751  0.00  0.00     0.020 A 
ATOM      2  C1  UNL d   1      -1.119  -1.898   1.589  0.00  0.00     0.020 A 
ATOM      3  C2  UNL d   1      -0.864  -0.616   1.097  0.00  0.00     0.034 A 
ATOM      4  C3  UNL d   1      -0.473  -0.437  -0.235  0.00  0.00     0.017 A 
ATOM      5  C4  UNL d   1      -0.338  -1.549  -1.074  0.00  0.00     0.017 A 
ATOM      6  C5  UNL d   1      -0.594  -2.831  -0.577  0.00  0.00     0.034 A 
ATOM      7 Cl   UNL d   1       0.141  -1.408  -2.729  0.00  0.00    -0.070 Cl
ATOM      8 Cl1  UNL d   1      -0.174   1.177  -0.775  0.00  0.00    -0.070 Cl
ENDROOT
TORSDOF 0
ENDMDL
