MODEL 1
REMARK minimizedAffinity -4.16361284
REMARK minimizedRMSD -1
REMARK  0 active torsions:
REMARK  status: ('A' for Active; 'I' for Inactive)
ROOT
ATOM      1  C   UNL d   1       0.169  -2.240   1.665  0.00  0.00     0.020 A 
ATOM      2  C1  UNL d   1       0.206  -3.352   0.824  0.00  0.00     0.020 A 
ATOM      3  C2  UNL d   1       0.142  -3.184  -0.560  0.00  0.00     0.034 A 
ATOM      4  C3  UNL d   1       0.040  -1.900  -1.109  0.00  0.00     0.017 A 
ATOM      5  C4  UNL d   1       0.002  -0.785  -0.265  0.00  0.00     0.017 A 
ATOM      6  C5  UNL d   1       0.067  -0.959   1.121  0.00  0.00     0.034 A 
ATOM      7 Cl   UNL d   1      -0.122   0.830  -0.868  0.00  0.00    -0.070 Cl
ATOM      8 Cl1  UNL d   1      -0.036  -1.766  -2.830  0.00  0.00    -0.070 Cl
ENDROOT
TORSDOF 0
ENDMDL
