MODEL 1
REMARK minimizedAffinity -2.87702537
REMARK minimizedRMSD -1
REMARK  0 active torsions:
REMARK  status: ('A' for Active; 'I' for Inactive)
ROOT
ATOM      1  C   UNL d   1      -0.404   1.446   1.223  0.00  0.00     0.020 A 
ATOM      2  C1  UNL d   1       0.059   1.977   0.020  0.00  0.00     0.020 A 
ATOM      3  C2  UNL d   1       0.244   1.144  -1.086  0.00  0.00     0.034 A 
ATOM      4  C3  UNL d   1      -0.034  -0.224  -0.990  0.00  0.00     0.017 A 
ATOM      5  C4  UNL d   1      -0.499  -0.756   0.218  0.00  0.00     0.017 A 
ATOM      6  C5  UNL d   1      -0.683   0.082   1.321  0.00  0.00     0.034 A 
ATOM      7 Cl   UNL d   1      -0.864  -2.435   0.412  0.00  0.00    -0.070 Cl
ATOM      8 Cl1  UNL d   1       0.217  -1.195  -2.398  0.00  0.00    -0.070 Cl
ENDROOT
TORSDOF 0
ENDMDL
