MODEL 1
REMARK minimizedAffinity -2.52418375
REMARK minimizedRMSD -1
REMARK  0 active torsions:
REMARK  status: ('A' for Active; 'I' for Inactive)
ROOT
ATOM      1  C   UNL d   1       0.719  -2.545   0.288  0.00  0.00     0.020 A 
ATOM      2  C1  UNL d   1      -0.589  -2.888   0.628  0.00  0.00     0.020 A 
ATOM      3  C2  UNL d   1      -1.520  -1.889   0.919  0.00  0.00     0.034 A 
ATOM      4  C3  UNL d   1      -1.145  -0.541   0.870  0.00  0.00     0.017 A 
ATOM      5  C4  UNL d   1       0.168  -0.198   0.529  0.00  0.00     0.017 A 
ATOM      6  C5  UNL d   1       1.096  -1.202   0.239  0.00  0.00     0.034 A 
ATOM      7 Cl   UNL d   1       0.705   1.443   0.447  0.00  0.00    -0.070 Cl
ATOM      8 Cl1  UNL d   1      -2.349   0.642   1.241  0.00  0.00    -0.070 Cl
ENDROOT
TORSDOF 0
ENDMDL
