MODEL 1
REMARK minimizedAffinity -3.59934282
REMARK minimizedRMSD -1
REMARK  0 active torsions:
REMARK  status: ('A' for Active; 'I' for Inactive)
ROOT
ATOM      1  C   UNL d   1       0.065  -3.284   0.192  0.00  0.00     0.020 A 
ATOM      2  C1  UNL d   1      -0.066  -2.665  -1.050  0.00  0.00     0.020 A 
ATOM      3  C2  UNL d   1       0.143  -1.289  -1.170  0.00  0.00     0.034 A 
ATOM      4  C3  UNL d   1       0.484  -0.529  -0.045  0.00  0.00     0.017 A 
ATOM      5  C4  UNL d   1       0.615  -1.152   1.201  0.00  0.00     0.017 A 
ATOM      6  C5  UNL d   1       0.405  -2.529   1.315  0.00  0.00     0.034 A 
ATOM      7 Cl   UNL d   1       1.033  -0.280   2.634  0.00  0.00    -0.070 Cl
ATOM      8 Cl1  UNL d   1       0.728   1.167  -0.266  0.00  0.00    -0.070 Cl
ENDROOT
TORSDOF 0
ENDMDL
