MODEL 1
REMARK minimizedAffinity -3.35615993
REMARK minimizedRMSD -1
REMARK  0 active torsions:
REMARK  status: ('A' for Active; 'I' for Inactive)
ROOT
ATOM      1  C   UNL d   1       0.721  -0.718   1.381  0.00  0.00     0.020 A 
ATOM      2  C1  UNL d   1      -0.146  -1.231   0.417  0.00  0.00     0.020 A 
ATOM      3  C2  UNL d   1      -0.564  -0.426  -0.645  0.00  0.00     0.034 A 
ATOM      4  C3  UNL d   1      -0.113   0.896  -0.746  0.00  0.00     0.017 A 
ATOM      5  C4  UNL d   1       0.758   1.409   0.222  0.00  0.00     0.017 A 
ATOM      6  C5  UNL d   1       1.172   0.598   1.283  0.00  0.00     0.034 A 
ATOM      7 Cl   UNL d   1       1.356   3.029   0.164  0.00  0.00    -0.070 Cl
ATOM      8 Cl1  UNL d   1      -0.670   1.834  -2.086  0.00  0.00    -0.070 Cl
ENDROOT
TORSDOF 0
ENDMDL
