MODEL 1
REMARK minimizedAffinity -2.92042947
REMARK minimizedRMSD -1
REMARK  1 active torsions:
REMARK  status: ('A' for Active; 'I' for Inactive)
REMARK    1  A    between atoms: N_2  and  C1_3 
ROOT
ATOM      1  C1  UNL d   1       5.354   4.924  -2.904  0.00  0.00     0.143 A 
ATOM      2  C2  UNL d   1       4.407   5.891  -3.259  0.00  0.00    -0.057 A 
ATOM      3  C3  UNL d   1       3.938   6.000  -4.574  0.00  0.00     0.033 A 
ATOM      4  C4  UNL d   1       4.433   5.160  -5.566  0.00  0.00    -0.042 A 
ATOM      5  C5  UNL d   1       5.393   4.208  -5.241  0.00  0.00     0.033 A 
ATOM      6  C6  UNL d   1       5.851   4.100  -3.925  0.00  0.00    -0.057 A 
ENDROOT
BRANCH   1   7
ATOM      7  N   UNL d   1       5.931   4.831  -1.635  0.00  0.00    -0.732 N 
ATOM      8  C   UNL d   1       6.000   5.988  -0.769  0.00  0.00     0.284 C 
ATOM      9  H3  UNL d   1       5.680   3.968  -1.157  0.00  0.00     0.395 HD
ENDBRANCH   1   7
TORSDOF 1
ENDMDL
