MODEL 1
REMARK minimizedAffinity 0.663655698
REMARK minimizedRMSD -1
REMARK  1 active torsions:
REMARK  status: ('A' for Active; 'I' for Inactive)
REMARK    1  A    between atoms: N_2  and  C1_3 
ROOT
ATOM      1  C1  UNL d   1       5.135   5.033  -1.655  0.00  0.00     0.143 A 
ATOM      2  C2  UNL d   1       4.082   4.114  -1.723  0.00  0.00    -0.057 A 
ATOM      3  C3  UNL d   1       3.186   4.117  -2.798  0.00  0.00     0.033 A 
ATOM      4  C4  UNL d   1       3.309   5.060  -3.813  0.00  0.00    -0.042 A 
ATOM      5  C5  UNL d   1       4.333   5.999  -3.753  0.00  0.00     0.033 A 
ATOM      6  C6  UNL d   1       5.229   5.987  -2.680  0.00  0.00    -0.057 A 
ENDROOT
BRANCH   1   7
ATOM      7  N   UNL d   1       6.000   5.145  -0.563  0.00  0.00    -0.732 N 
ATOM      8  C   UNL d   1       5.996   4.148   0.486  0.00  0.00     0.284 C 
ATOM      9  H3  UNL d   1       6.929   5.460  -0.834  0.00  0.00     0.395 HD
ENDBRANCH   1   7
TORSDOF 1
ENDMDL
