MODEL 1
REMARK minimizedAffinity 2.28818059
REMARK minimizedRMSD -1
REMARK  1 active torsions:
REMARK  status: ('A' for Active; 'I' for Inactive)
REMARK    1  A    between atoms: N_2  and  C1_3 
ROOT
ATOM      1  C1  UNL d   1       5.449   4.877  -3.023  0.00  0.00     0.143 A 
ATOM      2  C2  UNL d   1       5.994   4.213  -4.128  0.00  0.00    -0.057 A 
ATOM      3  C3  UNL d   1       5.348   4.219  -5.370  0.00  0.00     0.033 A 
ATOM      4  C4  UNL d   1       4.127   4.867  -5.523  0.00  0.00    -0.042 A 
ATOM      5  C5  UNL d   1       3.554   5.512  -4.433  0.00  0.00     0.033 A 
ATOM      6  C6  UNL d   1       4.207   5.509  -3.196  0.00  0.00    -0.057 A 
ENDROOT
BRANCH   1   7
ATOM      7  N   UNL d   1       5.993   4.825  -1.738  0.00  0.00    -0.732 N 
ATOM      8  C   UNL d   1       5.999   5.999  -0.892  0.00  0.00     0.284 C 
ATOM      9  H3  UNL d   1       5.758   3.963  -1.251  0.00  0.00     0.395 HD
ENDBRANCH   1   7
TORSDOF 1
ENDMDL
