MODEL 1
REMARK minimizedAffinity 6.14941025
REMARK minimizedRMSD -1
REMARK  1 active torsions:
REMARK  status: ('A' for Active; 'I' for Inactive)
REMARK    1  A    between atoms: N_2  and  C1_3 
ROOT
ATOM      1  C1  UNL d   1       3.620   5.338  -3.447  0.00  0.00     0.143 A 
ATOM      2  C2  UNL d   1       4.801   5.968  -3.041  0.00  0.00    -0.057 A 
ATOM      3  C3  UNL d   1       5.984   5.243  -2.856  0.00  0.00     0.033 A 
ATOM      4  C4  UNL d   1       6.000   3.865  -3.048  0.00  0.00    -0.042 A 
ATOM      5  C5  UNL d   1       4.831   3.214  -3.428  0.00  0.00     0.033 A 
ATOM      6  C6  UNL d   1       3.654   3.945  -3.617  0.00  0.00    -0.057 A 
ENDROOT
BRANCH   1   7
ATOM      7  N   UNL d   1       2.388   5.988  -3.552  0.00  0.00    -0.732 N 
ATOM      8  C   UNL d   1       1.373   5.814  -2.535  0.00  0.00     0.284 C 
ATOM      9  H3  UNL d   1       2.480   6.944  -3.888  0.00  0.00     0.395 HD
ENDBRANCH   1   7
TORSDOF 1
ENDMDL
