MODEL 1
REMARK minimizedAffinity 1.7803849
REMARK minimizedRMSD -1
REMARK  1 active torsions:
REMARK  status: ('A' for Active; 'I' for Inactive)
REMARK    1  A    between atoms: N_2  and  C1_3 
ROOT
ATOM      1  C1  UNL d   1       4.612   3.867  -3.775  0.00  0.00     0.143 A 
ATOM      2  C2  UNL d   1       3.520   4.660  -3.406  0.00  0.00    -0.057 A 
ATOM      3  C3  UNL d   1       3.665   5.725  -2.509  0.00  0.00     0.033 A 
ATOM      4  C4  UNL d   1       4.904   5.999  -1.940  0.00  0.00    -0.042 A 
ATOM      5  C5  UNL d   1       5.999   5.208  -2.273  0.00  0.00     0.033 A 
ATOM      6  C6  UNL d   1       5.849   4.150  -3.174  0.00  0.00    -0.057 A 
ENDROOT
BRANCH   1   7
ATOM      7  N   UNL d   1       4.512   2.734  -4.585  0.00  0.00    -0.732 N 
ATOM      8  C   UNL d   1       4.808   2.811  -6.000  0.00  0.00     0.284 C 
ATOM      9  H3  UNL d   1       4.872   1.898  -4.130  0.00  0.00     0.395 HD
ENDBRANCH   1   7
TORSDOF 1
ENDMDL
