MODEL 1
REMARK minimizedAffinity 7.78565502
REMARK minimizedRMSD -1
REMARK  1 active torsions:
REMARK  status: ('A' for Active; 'I' for Inactive)
REMARK    1  A    between atoms: N_2  and  C1_3 
ROOT
ATOM      1  C1  UNL d   1       1.557  -2.538  -2.896  0.00  0.00     0.143 A 
ATOM      2  C2  UNL d   1       1.201  -2.745  -1.559  0.00  0.00    -0.057 A 
ATOM      3  C3  UNL d   1      -0.069  -2.397  -1.083  0.00  0.00     0.033 A 
ATOM      4  C4  UNL d   1      -0.999  -1.808  -1.933  0.00  0.00    -0.042 A 
ATOM      5  C5  UNL d   1      -0.659  -1.570  -3.260  0.00  0.00     0.033 A 
ATOM      6  C6  UNL d   1       0.609  -1.925  -3.730  0.00  0.00    -0.057 A 
ENDROOT
BRANCH   1   7
ATOM      7  N   UNL d   1       2.837  -2.771  -3.405  0.00  0.00    -0.732 N 
ATOM      8  C   UNL d   1       3.650  -1.675  -3.886  0.00  0.00     0.284 C 
ATOM      9  H3  UNL d   1       3.350  -3.463  -2.864  0.00  0.00     0.395 HD
ENDBRANCH   1   7
TORSDOF 1
ENDMDL
