MODEL 1
REMARK minimizedAffinity 3.58151412
REMARK minimizedRMSD -1
REMARK  1 active torsions:
REMARK  status: ('A' for Active; 'I' for Inactive)
REMARK    1  A    between atoms: N_2  and  C1_3 
ROOT
ATOM      1  C1  UNL d   1       3.561   5.559  -4.032  0.00  0.00     0.143 A 
ATOM      2  C2  UNL d   1       3.796   5.997  -5.340  0.00  0.00    -0.057 A 
ATOM      3  C3  UNL d   1       4.997   5.707  -5.999  0.00  0.00     0.033 A 
ATOM      4  C4  UNL d   1       6.000   4.996  -5.348  0.00  0.00    -0.042 A 
ATOM      5  C5  UNL d   1       5.799   4.572  -4.039  0.00  0.00     0.033 A 
ATOM      6  C6  UNL d   1       4.595   4.859  -3.389  0.00  0.00    -0.057 A 
ENDROOT
BRANCH   1   7
ATOM      7  N   UNL d   1       2.429   5.899  -3.289  0.00  0.00    -0.732 N 
ATOM      8  C   UNL d   1       2.342   5.567  -1.883  0.00  0.00     0.284 C 
ATOM      9  H3  UNL d   1       2.077   6.826  -3.519  0.00  0.00     0.395 HD
ENDBRANCH   1   7
TORSDOF 1
ENDMDL
