MODEL 1
REMARK minimizedAffinity 15.6372519
REMARK minimizedRMSD -1
REMARK  1 active torsions:
REMARK  status: ('A' for Active; 'I' for Inactive)
REMARK    1  A    between atoms: N_2  and  C1_3 
ROOT
ATOM      1  C1  UNL d   1      -3.442   0.450   5.283  0.00  0.00     0.143 A 
ATOM      2  C2  UNL d   1      -3.647   1.808   5.554  0.00  0.00    -0.057 A 
ATOM      3  C3  UNL d   1      -4.907   2.292   5.923  0.00  0.00     0.033 A 
ATOM      4  C4  UNL d   1      -5.996   1.429   6.000  0.00  0.00    -0.042 A 
ATOM      5  C5  UNL d   1      -5.821   0.081   5.710  0.00  0.00     0.033 A 
ATOM      6  C6  UNL d   1      -4.558  -0.398   5.348  0.00  0.00    -0.057 A 
ENDROOT
BRANCH   1   7
ATOM      7  N   UNL d   1      -2.235  -0.076   4.815  0.00  0.00    -0.732 N 
ATOM      8  C   UNL d   1      -1.903  -1.467   5.036  0.00  0.00     0.284 C 
ATOM      9  H3  UNL d   1      -1.995   0.267   3.888  0.00  0.00     0.395 HD
ENDBRANCH   1   7
TORSDOF 1
ENDMDL
