MODEL 1
REMARK minimizedAffinity -0.770049632
REMARK minimizedRMSD -1
REMARK  1 active torsions:
REMARK  status: ('A' for Active; 'I' for Inactive)
REMARK    1  A    between atoms: N_2  and  C1_3 
ROOT
ATOM      1  C1  UNL d   1       5.276   4.033  -3.723  0.00  0.00     0.143 A 
ATOM      2  C2  UNL d   1       3.879   4.036  -3.639  0.00  0.00    -0.057 A 
ATOM      3  C3  UNL d   1       3.220   4.583  -2.532  0.00  0.00     0.033 A 
ATOM      4  C4  UNL d   1       3.949   5.113  -1.472  0.00  0.00    -0.042 A 
ATOM      5  C5  UNL d   1       5.338   5.098  -1.523  0.00  0.00     0.033 A 
ATOM      6  C6  UNL d   1       5.991   4.555  -2.634  0.00  0.00    -0.057 A 
ENDROOT
BRANCH   1   7
ATOM      7  N   UNL d   1       5.992   3.415  -4.752  0.00  0.00    -0.732 N 
ATOM      8  C   UNL d   1       5.448   2.264  -5.440  0.00  0.00     0.284 C 
ATOM      9  H3  UNL d   1       6.451   4.086  -5.363  0.00  0.00     0.395 HD
ENDBRANCH   1   7
TORSDOF 1
ENDMDL
