MODEL 1
REMARK minimizedAffinity 10.134861
REMARK minimizedRMSD -1
REMARK  1 active torsions:
REMARK  status: ('A' for Active; 'I' for Inactive)
REMARK    1  A    between atoms: N_2  and  C1_3 
ROOT
ATOM      1  C1  UNL d   1       1.465  -2.288  -2.749  0.00  0.00     0.143 A 
ATOM      2  C2  UNL d   1       1.312  -2.883  -1.493  0.00  0.00    -0.057 A 
ATOM      3  C3  UNL d   1       0.047  -3.043  -0.914  0.00  0.00     0.033 A 
ATOM      4  C4  UNL d   1      -1.089  -2.583  -1.571  0.00  0.00    -0.042 A 
ATOM      5  C5  UNL d   1      -0.958  -1.965  -2.810  0.00  0.00     0.033 A 
ATOM      6  C6  UNL d   1       0.307  -1.814  -3.386  0.00  0.00    -0.057 A 
ENDROOT
BRANCH   1   7
ATOM      7  N   UNL d   1       2.703  -2.011  -3.334  0.00  0.00    -0.732 N 
ATOM      8  C   UNL d   1       3.255  -2.890  -4.342  0.00  0.00     0.284 C 
ATOM      9  H3  UNL d   1       2.826  -1.021  -3.533  0.00  0.00     0.395 HD
ENDBRANCH   1   7
TORSDOF 1
ENDMDL
