MODEL 1
REMARK minimizedAffinity -3.84550786
REMARK minimizedRMSD -1
REMARK  1 active torsions:
REMARK  status: ('A' for Active; 'I' for Inactive)
REMARK    1  A    between atoms: N_2  and  C1_3 
ROOT
ATOM      1  C1  UNL d   1       4.603   3.612  -4.819  0.00  0.00     0.143 A 
ATOM      2  C2  UNL d   1       3.488   4.142  -4.162  0.00  0.00    -0.057 A 
ATOM      3  C3  UNL d   1       3.623   4.875  -2.977  0.00  0.00     0.033 A 
ATOM      4  C4  UNL d   1       4.879   5.067  -2.411  0.00  0.00    -0.042 A 
ATOM      5  C5  UNL d   1       6.000   4.528  -3.033  0.00  0.00     0.033 A 
ATOM      6  C6  UNL d   1       5.858   3.803  -4.220  0.00  0.00    -0.057 A 
ENDROOT
BRANCH   1   7
ATOM      7  N   UNL d   1       4.524   2.791  -5.947  0.00  0.00    -0.732 N 
ATOM      8  C   UNL d   1       5.243   1.536  -5.996  0.00  0.00     0.284 C 
ATOM      9  H3  UNL d   1       3.583   2.746  -6.330  0.00  0.00     0.395 HD
ENDBRANCH   1   7
TORSDOF 1
ENDMDL
