MODEL 1
REMARK minimizedAffinity -2.16100812
REMARK minimizedRMSD -1
REMARK  1 active torsions:
REMARK  status: ('A' for Active; 'I' for Inactive)
REMARK    1  A    between atoms: N_2  and  C1_3 
ROOT
ATOM      1  C1  UNL d   1       5.206   3.792  -3.807  0.00  0.00     0.143 A 
ATOM      2  C2  UNL d   1       3.845   3.878  -4.118  0.00  0.00    -0.057 A 
ATOM      3  C3  UNL d   1       3.077   4.978  -3.715  0.00  0.00     0.033 A 
ATOM      4  C4  UNL d   1       3.652   6.000  -2.968  0.00  0.00    -0.042 A 
ATOM      5  C5  UNL d   1       4.998   5.922  -2.626  0.00  0.00     0.033 A 
ATOM      6  C6  UNL d   1       5.761   4.825  -3.036  0.00  0.00    -0.057 A 
ENDROOT
BRANCH   1   7
ATOM      7  N   UNL d   1       6.000   2.678  -4.093  0.00  0.00    -0.732 N 
ATOM      8  C   UNL d   1       5.998   2.093  -5.417  0.00  0.00     0.284 C 
ATOM      9  H3  UNL d   1       6.921   2.738  -3.666  0.00  0.00     0.395 HD
ENDBRANCH   1   7
TORSDOF 1
ENDMDL
