MODEL 1
REMARK minimizedAffinity -0.818181276
REMARK minimizedRMSD -1
REMARK  1 active torsions:
REMARK  status: ('A' for Active; 'I' for Inactive)
REMARK    1  A    between atoms: N_2  and  C1_3 
ROOT
ATOM      1  C1  UNL d   1       5.987   3.577  -5.309  0.00  0.00     0.143 A 
ATOM      2  C2  UNL d   1       5.817   4.804  -5.960  0.00  0.00    -0.057 A 
ATOM      3  C3  UNL d   1       5.711   6.000  -5.240  0.00  0.00     0.033 A 
ATOM      4  C4  UNL d   1       5.745   5.986  -3.849  0.00  0.00    -0.042 A 
ATOM      5  C5  UNL d   1       5.888   4.776  -3.180  0.00  0.00     0.033 A 
ATOM      6  C6  UNL d   1       6.000   3.586  -3.906  0.00  0.00    -0.057 A 
ENDROOT
BRANCH   1   7
ATOM      7  N   UNL d   1       5.999   2.344  -5.965  0.00  0.00    -0.732 N 
ATOM      8  C   UNL d   1       5.984   1.108  -5.212  0.00  0.00     0.284 C 
ATOM      9  H3  UNL d   1       5.402   2.336  -6.789  0.00  0.00     0.395 HD
ENDBRANCH   1   7
TORSDOF 1
ENDMDL
