MODEL 1
REMARK minimizedAffinity -4.30147886
REMARK minimizedRMSD -1
REMARK  1 active torsions:
REMARK  status: ('A' for Active; 'I' for Inactive)
REMARK    1  A    between atoms: N_2  and  C1_3 
ROOT
ATOM      1  C1  UNL d   1       5.316   3.487  -5.348  0.00  0.00     0.143 A 
ATOM      2  C2  UNL d   1       4.456   4.378  -5.999  0.00  0.00    -0.057 A 
ATOM      3  C3  UNL d   1       3.719   5.329  -5.283  0.00  0.00     0.033 A 
ATOM      4  C4  UNL d   1       3.807   5.387  -3.896  0.00  0.00    -0.042 A 
ATOM      5  C5  UNL d   1       4.637   4.494  -3.226  0.00  0.00     0.033 A 
ATOM      6  C6  UNL d   1       5.375   3.551  -3.947  0.00  0.00    -0.057 A 
ENDROOT
BRANCH   1   7
ATOM      7  N   UNL d   1       6.000   2.454  -5.994  0.00  0.00    -0.732 N 
ATOM      8  C   UNL d   1       5.786   1.075  -5.611  0.00  0.00     0.284 C 
ATOM      9  H3  UNL d   1       6.066   2.601  -6.999  0.00  0.00     0.395 HD
ENDBRANCH   1   7
TORSDOF 1
ENDMDL
