MODEL 1
REMARK minimizedAffinity -3.50003839
REMARK minimizedRMSD -1
REMARK  3 active torsions:
REMARK  status: ('A' for Active; 'I' for Inactive)
REMARK    1  A    between atoms: C3'_2  and  C2'_3 
REMARK    2  A    between atoms: C2'_3  and  C1'_4 
REMARK    3  A    between atoms: C1'_4  and  C1_5 
ROOT
ATOM      1  C1  N4B d   1       0.086  -0.209   0.136  0.00  0.00    -0.075 A 
ATOM      2  C2  N4B d   1       0.682  -1.486   0.043  0.00  0.00     0.002 A 
ATOM      3  C3  N4B d   1       0.173  -2.536   0.769  0.00  0.00     0.002 A 
ATOM      4  C4  N4B d   1      -0.914  -2.328   1.604  0.00  0.00    -0.004 A 
ATOM      5  C5  N4B d   1      -1.500  -1.098   1.669  0.00  0.00     0.002 A 
ATOM      6  C6  N4B d   1      -1.001  -0.035   0.942  0.00  0.00     0.002 A 
ENDROOT
BRANCH   1   7
ATOM      7  C1' N4B d   1       0.660   0.988  -0.571  0.00  0.00     0.057 C 
BRANCH   7   8
ATOM      8  C2' N4B d   1       0.091   1.054  -1.985  0.00  0.00     0.009 C 
BRANCH   8   9
ATOM      9  C3' N4B d   1       0.732   2.161  -2.805  0.00  0.00     0.004 C 
ATOM     10  C4' N4B d   1       1.662   1.640  -3.859  0.00  0.00     0.003 C 
ENDBRANCH   8   9
ENDBRANCH   7   8
ENDBRANCH   1   7
TORSDOF 3
ENDMDL
