MODEL 1
REMARK minimizedAffinity -4.06127405
REMARK minimizedRMSD -1
REMARK  3 active torsions:
REMARK  status: ('A' for Active; 'I' for Inactive)
REMARK    1  A    between atoms: C3'_2  and  C2'_3 
REMARK    2  A    between atoms: C2'_3  and  C1'_4 
REMARK    3  A    between atoms: C1'_4  and  C1_5 
ROOT
ATOM      1  C1  N4B d   1       0.626   0.431  -0.452  0.00  0.00    -0.075 A 
ATOM      2  C2  N4B d   1      -0.736   0.737  -0.238  0.00  0.00     0.002 A 
ATOM      3  C3  N4B d   1      -1.555  -0.173   0.383  0.00  0.00     0.002 A 
ATOM      4  C4  N4B d   1      -1.042  -1.398   0.781  0.00  0.00    -0.004 A 
ATOM      5  C5  N4B d   1       0.281  -1.677   0.594  0.00  0.00     0.002 A 
ATOM      6  C6  N4B d   1       1.117  -0.770  -0.026  0.00  0.00     0.002 A 
ENDROOT
BRANCH   1   7
ATOM      7  C1' N4B d   1       1.541   1.359  -1.203  0.00  0.00     0.057 C 
BRANCH   7   8
ATOM      8  C2' N4B d   1       0.811   1.895  -2.432  0.00  0.00     0.009 C 
BRANCH   8   9
ATOM      9  C3' N4B d   1       1.696   1.889  -3.666  0.00  0.00     0.004 C 
ATOM     10  C4' N4B d   1       2.936   1.064  -3.488  0.00  0.00     0.003 C 
ENDBRANCH   8   9
ENDBRANCH   7   8
ENDBRANCH   1   7
TORSDOF 3
ENDMDL
