MODEL 1
REMARK minimizedAffinity -5.17300415
REMARK minimizedRMSD -1
REMARK  0 active torsions:
REMARK  status: ('A' for Active; 'I' for Inactive)
ROOT
ATOM      1  C   UNL d   1      -0.630   0.103  -0.494  0.00  0.00     0.078 C 
ATOM      2  C1  UNL d   1       0.067  -0.923   0.349  0.00  0.00    -0.077 A 
ATOM      3  C2  UNL d   1      -0.525  -1.422   1.515  0.00  0.00    -0.001 A 
ATOM      4  C3  UNL d   1       0.139  -2.369   2.295  0.00  0.00     0.003 A 
ATOM      5  C4  UNL d   1       1.401  -2.825   1.917  0.00  0.00    -0.005 A 
ATOM      6  C5  UNL d   1       1.999  -2.333   0.759  0.00  0.00     0.003 A 
ATOM      7  C6  UNL d   1       1.336  -1.385  -0.022  0.00  0.00    -0.001 A 
ENDROOT
TORSDOF 0
ENDMDL
