MODEL 1
REMARK minimizedAffinity -3.0088284
REMARK minimizedRMSD -1
REMARK  0 active torsions:
REMARK  status: ('A' for Active; 'I' for Inactive)
ROOT
ATOM      1  C   UNL d   1       2.130   0.198  -0.589  0.00  0.00     0.078 C 
ATOM      2  C1  UNL d   1       1.104  -0.686   0.055  0.00  0.00    -0.077 A 
ATOM      3  C2  UNL d   1      -0.183  -0.212   0.335  0.00  0.00    -0.001 A 
ATOM      4  C3  UNL d   1      -1.125  -1.044   0.944  0.00  0.00     0.003 A 
ATOM      5  C4  UNL d   1      -0.789  -2.354   1.278  0.00  0.00    -0.005 A 
ATOM      6  C5  UNL d   1       0.491  -2.834   1.005  0.00  0.00     0.003 A 
ATOM      7  C6  UNL d   1       1.434  -2.004   0.397  0.00  0.00    -0.001 A 
ENDROOT
TORSDOF 0
ENDMDL
