MODEL 1
REMARK minimizedAffinity -5.20014811
REMARK minimizedRMSD -1
REMARK  0 active torsions:
REMARK  status: ('A' for Active; 'I' for Inactive)
ROOT
ATOM      1  C   UNL d   1       2.886   0.721  -0.642  0.00  0.00     0.078 C 
ATOM      2  C1  UNL d   1       1.973  -0.317  -0.060  0.00  0.00    -0.077 A 
ATOM      3  C2  UNL d   1       2.483  -1.398   0.670  0.00  0.00    -0.001 A 
ATOM      4  C3  UNL d   1       1.623  -2.362   1.197  0.00  0.00     0.003 A 
ATOM      5  C4  UNL d   1       0.248  -2.256   0.999  0.00  0.00    -0.005 A 
ATOM      6  C5  UNL d   1      -0.269  -1.186   0.271  0.00  0.00     0.003 A 
ATOM      7  C6  UNL d   1       0.590  -0.221  -0.257  0.00  0.00    -0.001 A 
ENDROOT
TORSDOF 0
ENDMDL
