MODEL 1
REMARK minimizedAffinity -3.72627091
REMARK minimizedRMSD -1
REMARK  0 active torsions:
REMARK  status: ('A' for Active; 'I' for Inactive)
ROOT
ATOM      1  C   UNL d   1      -0.716   1.019  -0.576  0.00  0.00     0.078 C 
ATOM      2  C1  UNL d   1       0.253  -0.026  -0.109  0.00  0.00    -0.077 A 
ATOM      3  C2  UNL d   1      -0.192  -1.188   0.531  0.00  0.00    -0.001 A 
ATOM      4  C3  UNL d   1       0.722  -2.148   0.969  0.00  0.00     0.003 A 
ATOM      5  C4  UNL d   1       2.088  -1.954   0.772  0.00  0.00    -0.005 A 
ATOM      6  C5  UNL d   1       2.541  -0.799   0.138  0.00  0.00     0.003 A 
ATOM      7  C6  UNL d   1       1.628   0.162  -0.301  0.00  0.00    -0.001 A 
ENDROOT
TORSDOF 0
ENDMDL
