MODEL 1
REMARK minimizedAffinity -4.48016977
REMARK minimizedRMSD -1
REMARK  0 active torsions:
REMARK  status: ('A' for Active; 'I' for Inactive)
ROOT
ATOM      1  C   UNL d   1       1.488  -2.636   1.066  0.00  0.00     0.078 C 
ATOM      2  C1  UNL d   1       1.089  -1.302   0.511  0.00  0.00    -0.077 A 
ATOM      3  C2  UNL d   1      -0.248  -0.884   0.530  0.00  0.00    -0.001 A 
ATOM      4  C3  UNL d   1      -0.607   0.357   0.001  0.00  0.00     0.003 A 
ATOM      5  C4  UNL d   1       0.364   1.188  -0.554  0.00  0.00    -0.005 A 
ATOM      6  C5  UNL d   1       1.696   0.780  -0.580  0.00  0.00     0.003 A 
ATOM      7  C6  UNL d   1       2.057  -0.460  -0.051  0.00  0.00    -0.001 A 
ENDROOT
TORSDOF 0
ENDMDL
