MODEL 1
REMARK minimizedAffinity -2.95912862
REMARK minimizedRMSD -1
REMARK  0 active torsions:
REMARK  status: ('A' for Active; 'I' for Inactive)
ROOT
ATOM      1  C   UNL d   1       0.704  -2.909   1.058  0.00  0.00     0.078 C 
ATOM      2  C1  UNL d   1      -0.008  -1.621   0.767  0.00  0.00    -0.077 A 
ATOM      3  C2  UNL d   1       0.432  -0.767  -0.251  0.00  0.00    -0.001 A 
ATOM      4  C3  UNL d   1      -0.234   0.433  -0.504  0.00  0.00     0.003 A 
ATOM      5  C4  UNL d   1      -1.345   0.790   0.258  0.00  0.00    -0.005 A 
ATOM      6  C5  UNL d   1      -1.790  -0.052   1.275  0.00  0.00     0.003 A 
ATOM      7  C6  UNL d   1      -1.124  -1.253   1.529  0.00  0.00    -0.001 A 
ENDROOT
TORSDOF 0
ENDMDL
