MODEL 1
REMARK minimizedAffinity -4.67208338
REMARK minimizedRMSD -1
REMARK  0 active torsions:
REMARK  status: ('A' for Active; 'I' for Inactive)
ROOT
ATOM      1  C   UNL d   1       1.197  -2.845   0.681  0.00  0.00     0.078 C 
ATOM      2  C1  UNL d   1       0.819  -1.431   0.355  0.00  0.00    -0.077 A 
ATOM      3  C2  UNL d   1      -0.499  -0.984   0.504  0.00  0.00    -0.001 A 
ATOM      4  C3  UNL d   1      -0.838   0.333   0.187  0.00  0.00     0.003 A 
ATOM      5  C4  UNL d   1       0.136   1.212  -0.282  0.00  0.00    -0.005 A 
ATOM      6  C5  UNL d   1       1.450   0.776  -0.435  0.00  0.00     0.003 A 
ATOM      7  C6  UNL d   1       1.791  -0.540  -0.119  0.00  0.00    -0.001 A 
ENDROOT
TORSDOF 0
ENDMDL
