MODEL 1
REMARK minimizedAffinity -3.88729739
REMARK minimizedRMSD -1
REMARK  0 active torsions:
REMARK  status: ('A' for Active; 'I' for Inactive)
ROOT
ATOM      1  C   UNL d   1      -0.996   0.678  -0.752  0.00  0.00     0.078 C 
ATOM      2  C1  UNL d   1      -0.187  -0.387  -0.075  0.00  0.00    -0.077 A 
ATOM      3  C2  UNL d   1      -0.791  -1.316   0.782  0.00  0.00    -0.001 A 
ATOM      4  C3  UNL d   1      -0.024  -2.296   1.414  0.00  0.00     0.003 A 
ATOM      5  C4  UNL d   1       1.351  -2.357   1.196  0.00  0.00    -0.005 A 
ATOM      6  C5  UNL d   1       1.961  -1.436   0.347  0.00  0.00     0.003 A 
ATOM      7  C6  UNL d   1       1.195  -0.455  -0.285  0.00  0.00    -0.001 A 
ENDROOT
TORSDOF 0
ENDMDL
