MODEL 1
REMARK minimizedAffinity -2.86148739
REMARK minimizedRMSD -1
REMARK  0 active torsions:
REMARK  status: ('A' for Active; 'I' for Inactive)
ROOT
ATOM      1  C   UNL d   1      -1.123   1.258  -0.766  0.00  0.00     0.078 C 
ATOM      2  C1  UNL d   1      -0.161   0.213  -0.285  0.00  0.00    -0.077 A 
ATOM      3  C2  UNL d   1       1.218   0.358  -0.478  0.00  0.00    -0.001 A 
ATOM      4  C3  UNL d   1       2.100  -0.628  -0.033  0.00  0.00     0.003 A 
ATOM      5  C4  UNL d   1       1.613  -1.766   0.606  0.00  0.00    -0.005 A 
ATOM      6  C5  UNL d   1       0.242  -1.920   0.801  0.00  0.00     0.003 A 
ATOM      7  C6  UNL d   1      -0.642  -0.935   0.357  0.00  0.00    -0.001 A 
ENDROOT
TORSDOF 0
ENDMDL
