MODEL 1
REMARK minimizedAffinity -4.82048368
REMARK minimizedRMSD -1
REMARK  0 active torsions:
REMARK  status: ('A' for Active; 'I' for Inactive)
ROOT
ATOM      1  C   UNL d   1       2.644   0.593  -0.458  0.00  0.00     0.078 C 
ATOM      2  C1  UNL d   1       1.499  -0.248   0.021  0.00  0.00    -0.077 A 
ATOM      3  C2  UNL d   1       1.669  -1.612   0.290  0.00  0.00    -0.001 A 
ATOM      4  C3  UNL d   1       0.592  -2.385   0.725  0.00  0.00     0.003 A 
ATOM      5  C4  UNL d   1      -0.663  -1.804   0.894  0.00  0.00    -0.005 A 
ATOM      6  C5  UNL d   1      -0.843  -0.449   0.627  0.00  0.00     0.003 A 
ATOM      7  C6  UNL d   1       0.233   0.326   0.191  0.00  0.00    -0.001 A 
ENDROOT
TORSDOF 0
ENDMDL
