MODEL 1
REMARK minimizedAffinity -2.11000538
REMARK minimizedRMSD -1
REMARK  0 active torsions:
REMARK  status: ('A' for Active; 'I' for Inactive)
ROOT
ATOM      1  C   UNL d   1      -0.598  -0.008  -0.357  0.00  0.00     0.078 C 
ATOM      2  C1  UNL d   1      -0.341  -0.965   0.768  0.00  0.00    -0.077 A 
ATOM      3  C2  UNL d   1      -1.233  -1.071   1.842  0.00  0.00    -0.001 A 
ATOM      4  C3  UNL d   1      -0.977  -1.959   2.888  0.00  0.00     0.003 A 
ATOM      5  C4  UNL d   1       0.173  -2.746   2.871  0.00  0.00    -0.005 A 
ATOM      6  C5  UNL d   1       1.067  -2.646   1.808  0.00  0.00     0.003 A 
ATOM      7  C6  UNL d   1       0.812  -1.759   0.761  0.00  0.00    -0.001 A 
ENDROOT
TORSDOF 0
ENDMDL
