MODEL 1
REMARK minimizedAffinity -0.725739837
REMARK minimizedRMSD -1
REMARK  1 active torsions:
REMARK  status: ('A' for Active; 'I' for Inactive)
REMARK    1  A    between atoms: C1_2  and  C2_3 
ROOT
ATOM      1  C2  UNL d   1      -0.650  -0.375   2.702  0.00  0.00    -0.073 A 
ATOM      2  C3  UNL d   1      -1.808  -1.099   3.006  0.00  0.00    -0.002 A 
ATOM      3  C4  UNL d   1      -1.729  -2.270   3.761  0.00  0.00     0.004 A 
ATOM      4  C5  UNL d   1      -0.495  -2.725   4.225  0.00  0.00    -0.004 A 
ATOM      5  C6  UNL d   1       0.672  -2.008   3.941  0.00  0.00    -0.075 A 
ATOM      6  C7  UNL d   1       2.008  -2.485   4.430  0.00  0.00     0.076 C 
ATOM      7  C8  UNL d   1       0.585  -0.835   3.180  0.00  0.00     0.001 A 
ENDROOT
BRANCH   1   8
ATOM      8  C1  UNL d   1      -0.731   0.894   1.892  0.00  0.00     0.053 C 
ATOM      9  C   UNL d   1      -1.133   0.625   0.451  0.00  0.00     0.018 C 
ENDBRANCH   1   8
TORSDOF 1
ENDMDL
