MODEL 1
REMARK minimizedAffinity -0.316027075
REMARK minimizedRMSD -1
REMARK  1 active torsions:
REMARK  status: ('A' for Active; 'I' for Inactive)
REMARK    1  A    between atoms: C1_2  and  C2_3 
ROOT
ATOM      1  C2  UNL d   1      -0.322  -0.527   2.579  0.00  0.00    -0.073 A 
ATOM      2  C3  UNL d   1       0.771  -0.399   1.713  0.00  0.00    -0.002 A 
ATOM      3  C4  UNL d   1       2.038  -0.828   2.109  0.00  0.00     0.004 A 
ATOM      4  C5  UNL d   1       2.225  -1.395   3.370  0.00  0.00    -0.004 A 
ATOM      5  C6  UNL d   1       1.143  -1.543   4.244  0.00  0.00    -0.075 A 
ATOM      6  C7  UNL d   1       1.328  -2.149   5.605  0.00  0.00     0.076 C 
ATOM      7  C8  UNL d   1      -0.126  -1.106   3.840  0.00  0.00     0.001 A 
ENDROOT
BRANCH   1   8
ATOM      8  C1  UNL d   1      -1.693  -0.070   2.153  0.00  0.00     0.053 C 
ATOM      9  C   UNL d   1      -2.777  -1.047   2.581  0.00  0.00     0.018 C 
ENDBRANCH   1   8
TORSDOF 1
ENDMDL
