MODEL 1
REMARK minimizedAffinity 0.0852681771
REMARK minimizedRMSD -1
REMARK  1 active torsions:
REMARK  status: ('A' for Active; 'I' for Inactive)
REMARK    1  A    between atoms: C1_2  and  C2_3 
ROOT
ATOM      1  C2  UNL d   1      -0.876  -0.947   2.925  0.00  0.00    -0.073 A 
ATOM      2  C3  UNL d   1       0.101  -0.678   1.959  0.00  0.00    -0.002 A 
ATOM      3  C4  UNL d   1       1.454  -0.835   2.262  0.00  0.00     0.004 A 
ATOM      4  C5  UNL d   1       1.844  -1.269   3.528  0.00  0.00    -0.004 A 
ATOM      5  C6  UNL d   1       0.883  -1.555   4.503  0.00  0.00    -0.075 A 
ATOM      6  C7  UNL d   1       1.287  -2.021   5.871  0.00  0.00     0.076 C 
ATOM      7  C8  UNL d   1      -0.474  -1.392   4.193  0.00  0.00     0.001 A 
ENDROOT
BRANCH   1   8
ATOM      8  C1  UNL d   1      -2.338  -0.785   2.601  0.00  0.00     0.053 C 
ATOM      9  C   UNL d   1      -3.223  -1.577   3.551  0.00  0.00     0.018 C 
ENDBRANCH   1   8
TORSDOF 1
ENDMDL
