MODEL 1
REMARK minimizedAffinity 3.84007931
REMARK minimizedRMSD -1
REMARK  1 active torsions:
REMARK  status: ('A' for Active; 'I' for Inactive)
REMARK    1  A    between atoms: C1_2  and  C2_3 
ROOT
ATOM      1  C2  UNL d   1       0.179  -1.024   2.843  0.00  0.00    -0.073 A 
ATOM      2  C3  UNL d   1      -0.053   0.263   2.346  0.00  0.00    -0.002 A 
ATOM      3  C4  UNL d   1      -1.325   0.630   1.904  0.00  0.00     0.004 A 
ATOM      4  C5  UNL d   1      -2.378  -0.284   1.961  0.00  0.00    -0.004 A 
ATOM      5  C6  UNL d   1      -2.168  -1.571   2.466  0.00  0.00    -0.075 A 
ATOM      6  C7  UNL d   1      -3.290  -2.566   2.532  0.00  0.00     0.076 C 
ATOM      7  C8  UNL d   1      -0.887  -1.932   2.905  0.00  0.00     0.001 A 
ENDROOT
BRANCH   1   8
ATOM      8  C1  UNL d   1       1.550  -1.422   3.328  0.00  0.00     0.053 C 
ATOM      9  C   UNL d   1       1.483  -2.449   4.446  0.00  0.00     0.018 C 
ENDBRANCH   1   8
TORSDOF 1
ENDMDL
