MODEL 1
REMARK minimizedAffinity 0.230382383
REMARK minimizedRMSD -1
REMARK  1 active torsions:
REMARK  status: ('A' for Active; 'I' for Inactive)
REMARK    1  A    between atoms: C1_2  and  C2_3 
ROOT
ATOM      1  C2  UNL d   1       0.392  -0.790   2.696  0.00  0.00    -0.073 A 
ATOM      2  C3  UNL d   1       1.014  -1.343   3.821  0.00  0.00    -0.002 A 
ATOM      3  C4  UNL d   1       0.263  -2.024   4.779  0.00  0.00     0.004 A 
ATOM      4  C5  UNL d   1      -1.116  -2.165   4.620  0.00  0.00    -0.004 A 
ATOM      5  C6  UNL d   1      -1.755  -1.630   3.497  0.00  0.00    -0.075 A 
ATOM      6  C7  UNL d   1      -3.237  -1.771   3.312  0.00  0.00     0.076 C 
ATOM      7  C8  UNL d   1      -0.993  -0.945   2.540  0.00  0.00     0.001 A 
ENDROOT
BRANCH   1   8
ATOM      8  C1  UNL d   1       1.200  -0.059   1.656  0.00  0.00     0.053 C 
ATOM      9  C   UNL d   1       2.255  -0.952   1.022  0.00  0.00     0.018 C 
ENDBRANCH   1   8
TORSDOF 1
ENDMDL
