MODEL 1
REMARK minimizedAffinity 6.85492849
REMARK minimizedRMSD -1
REMARK  1 active torsions:
REMARK  status: ('A' for Active; 'I' for Inactive)
REMARK    1  A    between atoms: C1_2  and  C2_3 
ROOT
ATOM      1  C2  UNL d   1      -0.252   0.174   2.281  0.00  0.00    -0.073 A 
ATOM      2  C3  UNL d   1       0.680  -0.720   1.742  0.00  0.00    -0.002 A 
ATOM      3  C4  UNL d   1       1.560  -1.411   2.577  0.00  0.00     0.004 A 
ATOM      4  C5  UNL d   1       1.511  -1.220   3.958  0.00  0.00    -0.004 A 
ATOM      5  C6  UNL d   1       0.579  -0.340   4.517  0.00  0.00    -0.075 A 
ATOM      6  C7  UNL d   1       0.515  -0.122   6.000  0.00  0.00     0.076 C 
ATOM      7  C8  UNL d   1      -0.299   0.351   3.671  0.00  0.00     0.001 A 
ENDROOT
BRANCH   1   8
ATOM      8  C1  UNL d   1      -1.208   0.916   1.383  0.00  0.00     0.053 C 
ATOM      9  C   UNL d   1      -2.319   0.017   0.865  0.00  0.00     0.018 C 
ENDBRANCH   1   8
TORSDOF 1
ENDMDL
