MODEL 1
REMARK minimizedAffinity 7.27764082
REMARK minimizedRMSD -1
REMARK  1 active torsions:
REMARK  status: ('A' for Active; 'I' for Inactive)
REMARK    1  A    between atoms: C1_2  and  C2_3 
ROOT
ATOM      1  C2  UNL d   1      -0.785  -3.262  -3.730  0.00  0.00    -0.073 A 
ATOM      2  C3  UNL d   1      -0.369  -3.721  -2.475  0.00  0.00    -0.002 A 
ATOM      3  C4  UNL d   1       0.344  -4.915  -2.362  0.00  0.00     0.004 A 
ATOM      4  C5  UNL d   1       0.653  -5.659  -3.501  0.00  0.00    -0.004 A 
ATOM      5  C6  UNL d   1       0.256  -5.211  -4.765  0.00  0.00    -0.075 A 
ATOM      6  C7  UNL d   1       0.579  -6.000  -6.000  0.00  0.00     0.076 C 
ATOM      7  C8  UNL d   1      -0.461  -4.011  -4.870  0.00  0.00     0.001 A 
ENDROOT
BRANCH   1   8
ATOM      8  C1  UNL d   1      -1.548  -1.969  -3.858  0.00  0.00     0.053 C 
ATOM      9  C   UNL d   1      -1.545  -1.444  -5.285  0.00  0.00     0.018 C 
ENDBRANCH   1   8
TORSDOF 1
ENDMDL
