MODEL 1
REMARK minimizedAffinity -2.67923021
REMARK minimizedRMSD -1
REMARK  2 active torsions:
REMARK  status: ('A' for Active; 'I' for Inactive)
REMARK    1  A    between atoms: C1_2  and  C2_3 
REMARK    2  A    between atoms: C2_3  and  C3_4 
ROOT
ATOM      1  C3  UNL d   1       3.110   4.829  -5.692  0.00  0.00    -0.075 A 
ATOM      2  C4  UNL d   1       2.611   3.654  -5.110  0.00  0.00     0.002 A 
ATOM      3  C5  UNL d   1       3.465   2.590  -4.822  0.00  0.00     0.002 A 
ATOM      4  C6  UNL d   1       4.823   2.681  -5.119  0.00  0.00    -0.004 A 
ATOM      5  C7  UNL d   1       5.326   3.837  -5.712  0.00  0.00     0.002 A 
ATOM      6  C8  UNL d   1       4.475   4.906  -5.998  0.00  0.00     0.002 A 
ENDROOT
BRANCH   1   7
ATOM      7  C2  UNL d   1       2.196   5.997  -5.979  0.00  0.00     0.056 C 
BRANCH   7   8
ATOM      8  C1  UNL d   1       0.862   5.945  -5.227  0.00  0.00     0.007 C 
ATOM      9  C   UNL d   1      -0.235   5.224  -5.999  0.00  0.00     0.009 C 
ENDBRANCH   7   8
ENDBRANCH   1   7
TORSDOF 2
ENDMDL
