MODEL 1
REMARK minimizedAffinity -1.18735969
REMARK minimizedRMSD -1
REMARK  2 active torsions:
REMARK  status: ('A' for Active; 'I' for Inactive)
REMARK    1  A    between atoms: C1_2  and  C2_3 
REMARK    2  A    between atoms: C2_3  and  C3_4 
ROOT
ATOM      1  C3  UNL d   1       3.361   3.480  -5.116  0.00  0.00    -0.075 A 
ATOM      2  C4  UNL d   1       3.734   3.266  -3.781  0.00  0.00     0.002 A 
ATOM      3  C5  UNL d   1       4.117   1.997  -3.347  0.00  0.00     0.002 A 
ATOM      4  C6  UNL d   1       4.123   0.925  -4.237  0.00  0.00    -0.004 A 
ATOM      5  C7  UNL d   1       3.738   1.123  -5.562  0.00  0.00     0.002 A 
ATOM      6  C8  UNL d   1       3.359   2.393  -6.000  0.00  0.00     0.002 A 
ENDROOT
BRANCH   1   7
ATOM      7  C2  UNL d   1       2.974   4.858  -5.599  0.00  0.00     0.056 C 
BRANCH   7   8
ATOM      8  C1  UNL d   1       1.538   5.260  -5.248  0.00  0.00     0.007 C 
ATOM      9  C   UNL d   1       0.488   4.453  -6.000  0.00  0.00     0.009 C 
ENDBRANCH   7   8
ENDBRANCH   1   7
TORSDOF 2
ENDMDL
