MODEL 1
REMARK minimizedAffinity -0.998676121
REMARK minimizedRMSD -1
REMARK  2 active torsions:
REMARK  status: ('A' for Active; 'I' for Inactive)
REMARK    1  A    between atoms: C1_2  and  C2_3 
REMARK    2  A    between atoms: C2_3  and  C3_4 
ROOT
ATOM      1  C3  UNL d   1       3.228   3.820  -5.661  0.00  0.00    -0.075 A 
ATOM      2  C4  UNL d   1       3.338   5.211  -5.801  0.00  0.00     0.002 A 
ATOM      3  C5  UNL d   1       2.198   5.999  -5.964  0.00  0.00     0.002 A 
ATOM      4  C6  UNL d   1       0.938   5.407  -5.999  0.00  0.00    -0.004 A 
ATOM      5  C7  UNL d   1       0.818   4.024  -5.878  0.00  0.00     0.002 A 
ATOM      6  C8  UNL d   1       1.957   3.234  -5.710  0.00  0.00     0.002 A 
ENDROOT
BRANCH   1   7
ATOM      7  C2  UNL d   1       4.456   2.965  -5.454  0.00  0.00     0.056 C 
BRANCH   7   8
ATOM      8  C1  UNL d   1       4.148   1.502  -5.121  0.00  0.00     0.007 C 
ATOM      9  C   UNL d   1       4.582   1.102  -3.717  0.00  0.00     0.009 C 
ENDBRANCH   7   8
ENDBRANCH   1   7
TORSDOF 2
ENDMDL
