MODEL 1
REMARK minimizedAffinity 1.28035271
REMARK minimizedRMSD -1
REMARK  2 active torsions:
REMARK  status: ('A' for Active; 'I' for Inactive)
REMARK    1  A    between atoms: C1_2  and  C2_3 
REMARK    2  A    between atoms: C2_3  and  C3_4 
ROOT
ATOM      1  C3  UNL d   1       3.339   4.276  -5.640  0.00  0.00    -0.075 A 
ATOM      2  C4  UNL d   1       3.437   2.877  -5.659  0.00  0.00     0.002 A 
ATOM      3  C5  UNL d   1       4.675   2.257  -5.833  0.00  0.00     0.002 A 
ATOM      4  C6  UNL d   1       5.825   3.025  -6.000  0.00  0.00    -0.004 A 
ATOM      5  C7  UNL d   1       5.736   4.415  -6.000  0.00  0.00     0.002 A 
ATOM      6  C8  UNL d   1       4.500   5.039  -5.822  0.00  0.00     0.002 A 
ENDROOT
BRANCH   1   7
ATOM      7  C2  UNL d   1       2.007   4.954  -5.423  0.00  0.00     0.056 C 
BRANCH   7   8
ATOM      8  C1  UNL d   1       0.802   4.122  -5.877  0.00  0.00     0.007 C 
ATOM      9  C   UNL d   1      -0.479   4.937  -5.998  0.00  0.00     0.009 C 
ENDBRANCH   7   8
ENDBRANCH   1   7
TORSDOF 2
ENDMDL
