MODEL 1
REMARK minimizedAffinity -2.17876601
REMARK minimizedRMSD -1
REMARK  2 active torsions:
REMARK  status: ('A' for Active; 'I' for Inactive)
REMARK    1  A    between atoms: C1_2  and  C2_3 
REMARK    2  A    between atoms: C2_3  and  C3_4 
ROOT
ATOM      1  C3  UNL d   1       3.140   0.884   2.141  0.00  0.00    -0.075 A 
ATOM      2  C4  UNL d   1       4.142  -0.052   2.435  0.00  0.00     0.002 A 
ATOM      3  C5  UNL d   1       5.489   0.284   2.295  0.00  0.00     0.002 A 
ATOM      4  C6  UNL d   1       5.850   1.553   1.849  0.00  0.00    -0.004 A 
ATOM      5  C7  UNL d   1       4.863   2.486   1.538  0.00  0.00     0.002 A 
ATOM      6  C8  UNL d   1       3.515   2.154   1.682  0.00  0.00     0.002 A 
ENDROOT
BRANCH   1   7
ATOM      7  C2  UNL d   1       1.682   0.536   2.319  0.00  0.00     0.056 C 
BRANCH   7   8
ATOM      8  C1  UNL d   1       0.966   1.374   3.384  0.00  0.00     0.007 C 
ATOM      9  C   UNL d   1       0.617   0.581   4.637  0.00  0.00     0.009 C 
ENDBRANCH   7   8
ENDBRANCH   1   7
TORSDOF 2
ENDMDL
