MODEL 1
REMARK minimizedAffinity 0.252943456
REMARK minimizedRMSD -1
REMARK  2 active torsions:
REMARK  status: ('A' for Active; 'I' for Inactive)
REMARK    1  A    between atoms: C1_2  and  C2_3 
REMARK    2  A    between atoms: C2_3  and  C3_4 
ROOT
ATOM      1  C3  UNL d   1       3.240   3.522  -5.948  0.00  0.00    -0.075 A 
ATOM      2  C4  UNL d   1       1.839   3.585  -5.932  0.00  0.00     0.002 A 
ATOM      3  C5  UNL d   1       1.185   4.817  -5.962  0.00  0.00     0.002 A 
ATOM      4  C6  UNL d   1       1.922   5.999  -5.999  0.00  0.00    -0.004 A 
ATOM      5  C7  UNL d   1       3.314   5.949  -5.998  0.00  0.00     0.002 A 
ATOM      6  C8  UNL d   1       3.971   4.717  -5.972  0.00  0.00     0.002 A 
ENDROOT
BRANCH   1   7
ATOM      7  C2  UNL d   1       3.953   2.191  -5.945  0.00  0.00     0.056 C 
BRANCH   7   8
ATOM      8  C1  UNL d   1       4.485   1.771  -4.570  0.00  0.00     0.007 C 
ATOM      9  C   UNL d   1       4.067   2.716  -3.451  0.00  0.00     0.009 C 
ENDBRANCH   7   8
ENDBRANCH   1   7
TORSDOF 2
ENDMDL
