MODEL 1
REMARK minimizedAffinity -1.42737412
REMARK minimizedRMSD -1
REMARK  2 active torsions:
REMARK  status: ('A' for Active; 'I' for Inactive)
REMARK    1  A    between atoms: C1_2  and  C2_3 
REMARK    2  A    between atoms: C2_3  and  C3_4 
ROOT
ATOM      1  C3  UNL d   1       3.140   3.394  -5.427  0.00  0.00    -0.075 A 
ATOM      2  C4  UNL d   1       3.758   4.581  -5.846  0.00  0.00     0.002 A 
ATOM      3  C5  UNL d   1       5.143   4.643  -5.997  0.00  0.00     0.002 A 
ATOM      4  C6  UNL d   1       5.928   3.526  -5.721  0.00  0.00    -0.004 A 
ATOM      5  C7  UNL d   1       5.327   2.346  -5.288  0.00  0.00     0.002 A 
ATOM      6  C8  UNL d   1       3.940   2.279  -5.140  0.00  0.00     0.002 A 
ENDROOT
BRANCH   1   7
ATOM      7  C2  UNL d   1       1.638   3.311  -5.290  0.00  0.00     0.056 C 
BRANCH   7   8
ATOM      8  C1  UNL d   1       0.940   4.674  -5.249  0.00  0.00     0.007 C 
ATOM      9  C   UNL d   1      -0.386   4.691  -5.999  0.00  0.00     0.009 C 
ENDBRANCH   7   8
ENDBRANCH   1   7
TORSDOF 2
ENDMDL
