MODEL 1
REMARK minimizedAffinity 5.39463758
REMARK minimizedRMSD -1
REMARK  2 active torsions:
REMARK  status: ('A' for Active; 'I' for Inactive)
REMARK    1  A    between atoms: C1_2  and  C2_3 
REMARK    2  A    between atoms: C2_3  and  C3_4 
ROOT
ATOM      1  C3  UNL d   1       1.717  -0.252   0.393  0.00  0.00    -0.075 A 
ATOM      2  C4  UNL d   1       1.428   1.032  -0.091  0.00  0.00     0.002 A 
ATOM      3  C5  UNL d   1       2.284   2.100   0.179  0.00  0.00     0.002 A 
ATOM      4  C6  UNL d   1       3.432   1.901   0.942  0.00  0.00    -0.004 A 
ATOM      5  C7  UNL d   1       3.721   0.633   1.442  0.00  0.00     0.002 A 
ATOM      6  C8  UNL d   1       2.868  -0.438   1.170  0.00  0.00     0.002 A 
ENDROOT
BRANCH   1   7
ATOM      7  C2  UNL d   1       0.810  -1.418   0.080  0.00  0.00     0.056 C 
BRANCH   7   8
ATOM      8  C1  UNL d   1       0.437  -2.263   1.302  0.00  0.00     0.007 C 
ATOM      9  C   UNL d   1      -0.906  -1.879   1.911  0.00  0.00     0.009 C 
ENDBRANCH   7   8
ENDBRANCH   1   7
TORSDOF 2
ENDMDL
