MODEL 1
REMARK minimizedAffinity 4.91166592
REMARK minimizedRMSD -1
REMARK  2 active torsions:
REMARK  status: ('A' for Active; 'I' for Inactive)
REMARK    1  A    between atoms: C1_2  and  C2_3 
REMARK    2  A    between atoms: C2_3  and  C3_4 
ROOT
ATOM      1  C3  UNL d   1      -1.650   4.044   0.441  0.00  0.00    -0.075 A 
ATOM      2  C4  UNL d   1      -0.364   3.651   0.840  0.00  0.00     0.002 A 
ATOM      3  C5  UNL d   1      -0.148   3.121   2.113  0.00  0.00     0.002 A 
ATOM      4  C6  UNL d   1      -1.210   2.988   3.004  0.00  0.00    -0.004 A 
ATOM      5  C7  UNL d   1      -2.489   3.391   2.625  0.00  0.00     0.002 A 
ATOM      6  C8  UNL d   1      -2.708   3.917   1.350  0.00  0.00     0.002 A 
ENDROOT
BRANCH   1   7
ATOM      7  C2  UNL d   1      -1.895   4.591  -0.945  0.00  0.00     0.056 C 
BRANCH   7   8
ATOM      8  C1  UNL d   1      -2.498   5.999  -0.962  0.00  0.00     0.007 C 
ATOM      9  C   UNL d   1      -4.019   6.000  -1.049  0.00  0.00     0.009 C 
ENDBRANCH   7   8
ENDBRANCH   1   7
TORSDOF 2
ENDMDL
