MODEL 1
REMARK minimizedAffinity 0.135041431
REMARK minimizedRMSD -1
REMARK  2 active torsions:
REMARK  status: ('A' for Active; 'I' for Inactive)
REMARK    1  A    between atoms: C1_2  and  C2_3 
REMARK    2  A    between atoms: C2_3  and  C3_4 
ROOT
ATOM      1  C3  UNL d   1       0.312  -0.979   1.125  0.00  0.00    -0.075 A 
ATOM      2  C4  UNL d   1       1.528  -1.556   0.731  0.00  0.00     0.002 A 
ATOM      3  C5  UNL d   1       2.731  -0.879   0.932  0.00  0.00     0.002 A 
ATOM      4  C6  UNL d   1       2.734   0.384   1.519  0.00  0.00    -0.004 A 
ATOM      5  C7  UNL d   1       1.530   0.974   1.900  0.00  0.00     0.002 A 
ATOM      6  C8  UNL d   1       0.325   0.297   1.704  0.00  0.00     0.002 A 
ENDROOT
BRANCH   1   7
ATOM      7  C2  UNL d   1      -0.991  -1.718   0.937  0.00  0.00     0.056 C 
BRANCH   7   8
ATOM      8  C1  UNL d   1      -2.039  -0.941   0.134  0.00  0.00     0.007 C 
ATOM      9  C   UNL d   1      -2.004  -1.251  -1.357  0.00  0.00     0.009 C 
ENDBRANCH   7   8
ENDBRANCH   1   7
TORSDOF 2
ENDMDL
