MODEL 1
REMARK minimizedAffinity 2.87710023
REMARK minimizedRMSD -1
REMARK  2 active torsions:
REMARK  status: ('A' for Active; 'I' for Inactive)
REMARK    1  A    between atoms: C1_2  and  C2_3 
REMARK    2  A    between atoms: C2_3  and  C3_4 
ROOT
ATOM      1  C3  UNL d   1       2.299   0.969   1.810  0.00  0.00    -0.075 A 
ATOM      2  C4  UNL d   1       1.338   0.506   2.719  0.00  0.00     0.002 A 
ATOM      3  C5  UNL d   1       0.248   1.305   3.066  0.00  0.00     0.002 A 
ATOM      4  C6  UNL d   1       0.110   2.578   2.517  0.00  0.00    -0.004 A 
ATOM      5  C7  UNL d   1       1.068   3.055   1.625  0.00  0.00     0.002 A 
ATOM      6  C8  UNL d   1       2.158   2.256   1.273  0.00  0.00     0.002 A 
ENDROOT
BRANCH   1   7
ATOM      7  C2  UNL d   1       3.465   0.098   1.408  0.00  0.00     0.056 C 
BRANCH   7   8
ATOM      8  C1  UNL d   1       4.675   0.205   2.342  0.00  0.00     0.007 C 
ATOM      9  C   UNL d   1       5.617   1.345   1.977  0.00  0.00     0.009 C 
ENDBRANCH   7   8
ENDBRANCH   1   7
TORSDOF 2
ENDMDL
