MODEL 1
REMARK minimizedAffinity 9.94821835
REMARK minimizedRMSD -1
REMARK  0 active torsions:
REMARK  status: ('A' for Active; 'I' for Inactive)
ROOT
ATOM      1  C   UNL d   1      -0.432   5.506  -2.801  0.00  0.00     0.020 A 
ATOM      2  C1  UNL d   1       0.323   4.337  -2.704  0.00  0.00     0.020 A 
ATOM      3  C2  UNL d   1       0.413   3.663  -1.485  0.00  0.00     0.034 A 
ATOM      4  C3  UNL d   1      -0.254   4.156  -0.357  0.00  0.00     0.017 A 
ATOM      5  C4  UNL d   1      -1.012   5.329  -0.455  0.00  0.00     0.017 A 
ATOM      6  C5  UNL d   1      -1.098   6.000  -1.679  0.00  0.00     0.034 A 
ATOM      7 Cl   UNL d   1      -1.862   5.998   0.892  0.00  0.00    -0.070 Cl
ATOM      8 Cl1  UNL d   1      -0.100   3.270   1.119  0.00  0.00    -0.070 Cl
ENDROOT
TORSDOF 0
ENDMDL
