MODEL 1
REMARK minimizedAffinity 2.60036302
REMARK minimizedRMSD -1
REMARK  0 active torsions:
REMARK  status: ('A' for Active; 'I' for Inactive)
ROOT
ATOM      1  C   UNL d   1      -5.997  -3.783   5.012  0.00  0.00     0.020 A 
ATOM      2  C1  UNL d   1      -5.074  -4.126   5.999  0.00  0.00     0.020 A 
ATOM      3  C2  UNL d   1      -3.804  -3.544   6.000  0.00  0.00     0.034 A 
ATOM      4  C3  UNL d   1      -3.454  -2.617   5.012  0.00  0.00     0.017 A 
ATOM      5  C4  UNL d   1      -4.382  -2.273   4.022  0.00  0.00     0.017 A 
ATOM      6  C5  UNL d   1      -5.651  -2.858   4.026  0.00  0.00     0.034 A 
ATOM      7 Cl   UNL d   1      -4.023  -1.136   2.770  0.00  0.00    -0.070 Cl
ATOM      8 Cl1  UNL d   1      -1.867  -1.937   5.074  0.00  0.00    -0.070 Cl
ENDROOT
TORSDOF 0
ENDMDL
