MODEL 1
REMARK minimizedAffinity 10.2014494
REMARK minimizedRMSD -1
REMARK  0 active torsions:
REMARK  status: ('A' for Active; 'I' for Inactive)
ROOT
ATOM      1  C   UNL d   1       1.105  -4.372  -2.689  0.00  0.00     0.020 A 
ATOM      2  C1  UNL d   1       0.432  -5.519  -2.271  0.00  0.00     0.020 A 
ATOM      3  C2  UNL d   1      -0.654  -5.999  -3.006  0.00  0.00     0.034 A 
ATOM      4  C3  UNL d   1      -1.070  -5.330  -4.163  0.00  0.00     0.017 A 
ATOM      5  C4  UNL d   1      -0.394  -4.179  -4.582  0.00  0.00     0.017 A 
ATOM      6  C5  UNL d   1       0.693  -3.703  -3.842  0.00  0.00     0.034 A 
ATOM      7 Cl   UNL d   1      -0.850  -3.300  -5.999  0.00  0.00    -0.070 Cl
ATOM      8 Cl1  UNL d   1      -2.421  -5.979  -5.024  0.00  0.00    -0.070 Cl
ENDROOT
TORSDOF 0
ENDMDL
