MODEL 1
REMARK minimizedAffinity 6.51180983
REMARK minimizedRMSD -1
REMARK  0 active torsions:
REMARK  status: ('A' for Active; 'I' for Inactive)
ROOT
ATOM      1  C   UNL d   1      -0.243  -3.343  -5.998  0.00  0.00     0.020 A 
ATOM      2  C1  UNL d   1      -0.216  -4.738  -5.996  0.00  0.00     0.020 A 
ATOM      3  C2  UNL d   1      -1.412  -5.458  -5.994  0.00  0.00     0.034 A 
ATOM      4  C3  UNL d   1      -2.640  -4.786  -5.995  0.00  0.00     0.017 A 
ATOM      5  C4  UNL d   1      -2.665  -3.386  -5.997  0.00  0.00     0.017 A 
ATOM      6  C5  UNL d   1      -1.464  -2.670  -5.998  0.00  0.00     0.034 A 
ATOM      7 Cl   UNL d   1      -4.140  -2.486  -5.997  0.00  0.00    -0.070 Cl
ATOM      8 Cl1  UNL d   1      -4.079  -5.741  -5.993  0.00  0.00    -0.070 Cl
ENDROOT
TORSDOF 0
ENDMDL
