MODEL 1
REMARK minimizedAffinity 1.21436608
REMARK minimizedRMSD -1
REMARK  0 active torsions:
REMARK  status: ('A' for Active; 'I' for Inactive)
ROOT
ATOM      1  C   UNL d   1      -5.242  -3.715   5.955  0.00  0.00     0.020 A 
ATOM      2  C1  UNL d   1      -5.999  -3.202   4.903  0.00  0.00     0.020 A 
ATOM      3  C2  UNL d   1      -5.381  -2.460   3.894  0.00  0.00     0.034 A 
ATOM      4  C3  UNL d   1      -4.001  -2.228   3.936  0.00  0.00     0.017 A 
ATOM      5  C4  UNL d   1      -3.242  -2.744   4.993  0.00  0.00     0.017 A 
ATOM      6  C5  UNL d   1      -3.866  -3.486   6.000  0.00  0.00     0.034 A 
ATOM      7 Cl   UNL d   1      -1.535  -2.499   5.113  0.00  0.00    -0.070 Cl
ATOM      8 Cl1  UNL d   1      -3.303  -1.302   2.655  0.00  0.00    -0.070 Cl
ENDROOT
TORSDOF 0
ENDMDL
