MODEL 1
REMARK minimizedAffinity -2.47786736
REMARK minimizedRMSD -1
REMARK  0 active torsions:
REMARK  status: ('A' for Active; 'I' for Inactive)
ROOT
ATOM      1  C   UNL d   1      -4.291  -4.819  -5.998  0.00  0.00     0.020 A 
ATOM      2  C1  UNL d   1      -3.362  -5.858  -5.994  0.00  0.00     0.020 A 
ATOM      3  C2  UNL d   1      -1.995  -5.573  -5.991  0.00  0.00     0.034 A 
ATOM      4  C3  UNL d   1      -1.553  -4.245  -5.993  0.00  0.00     0.017 A 
ATOM      5  C4  UNL d   1      -2.486  -3.202  -5.997  0.00  0.00     0.017 A 
ATOM      6  C5  UNL d   1      -3.854  -3.493  -6.000  0.00  0.00     0.034 A 
ATOM      7 Cl   UNL d   1      -2.017  -1.539  -6.000  0.00  0.00    -0.070 Cl
ATOM      8 Cl1  UNL d   1       0.152  -3.966  -5.989  0.00  0.00    -0.070 Cl
ENDROOT
TORSDOF 0
ENDMDL
