MODEL 1
REMARK minimizedAffinity 20.9229202
REMARK minimizedRMSD -1
REMARK  0 active torsions:
REMARK  status: ('A' for Active; 'I' for Inactive)
ROOT
ATOM      1  C   UNL d   1       2.804  -1.598   0.016  0.00  0.00     0.020 A 
ATOM      2  C1  UNL d   1       4.096  -2.125   0.013  0.00  0.00     0.020 A 
ATOM      3  C2  UNL d   1       4.316  -3.431  -0.430  0.00  0.00     0.034 A 
ATOM      4  C3  UNL d   1       3.244  -4.215  -0.870  0.00  0.00     0.017 A 
ATOM      5  C4  UNL d   1       1.948  -3.686  -0.866  0.00  0.00     0.017 A 
ATOM      6  C5  UNL d   1       1.733  -2.377  -0.423  0.00  0.00     0.034 A 
ATOM      7 Cl   UNL d   1       0.575  -4.593  -1.395  0.00  0.00    -0.070 Cl
ATOM      8 Cl1  UNL d   1       3.589  -5.822  -1.404  0.00  0.00    -0.070 Cl
ENDROOT
TORSDOF 0
ENDMDL
