MODEL 1
REMARK minimizedAffinity 15.751524
REMARK minimizedRMSD -1
REMARK  0 active torsions:
REMARK  status: ('A' for Active; 'I' for Inactive)
ROOT
ATOM      1  C   UNL d   1       0.189   2.584  -0.054  0.00  0.00     0.020 A 
ATOM      2  C1  UNL d   1      -0.846   1.692   0.227  0.00  0.00     0.020 A 
ATOM      3  C2  UNL d   1      -1.926   1.577  -0.651  0.00  0.00     0.034 A 
ATOM      4  C3  UNL d   1      -1.974   2.356  -1.813  0.00  0.00     0.017 A 
ATOM      5  C4  UNL d   1      -0.936   3.251  -2.094  0.00  0.00     0.017 A 
ATOM      6  C5  UNL d   1       0.144   3.361  -1.212  0.00  0.00     0.034 A 
ATOM      7 Cl   UNL d   1      -0.925   4.245  -3.508  0.00  0.00    -0.070 Cl
ATOM      8 Cl1  UNL d   1      -3.340   2.163  -2.853  0.00  0.00    -0.070 Cl
ENDROOT
TORSDOF 0
ENDMDL
