MODEL 1
REMARK minimizedAffinity 10.2615223
REMARK minimizedRMSD -1
REMARK  0 active torsions:
REMARK  status: ('A' for Active; 'I' for Inactive)
ROOT
ATOM      1  C   UNL d   1      -4.572  -0.960   3.727  0.00  0.00     0.020 A 
ATOM      2  C1  UNL d   1      -5.697  -0.152   3.567  0.00  0.00     0.020 A 
ATOM      3  C2  UNL d   1      -6.000   0.383   2.313  0.00  0.00     0.034 A 
ATOM      4  C3  UNL d   1      -5.177   0.110   1.214  0.00  0.00     0.017 A 
ATOM      5  C4  UNL d   1      -4.048  -0.702   1.376  0.00  0.00     0.017 A 
ATOM      6  C5  UNL d   1      -3.750  -1.235   2.633  0.00  0.00     0.034 A 
ATOM      7 Cl   UNL d   1      -2.986  -1.083   0.067  0.00  0.00    -0.070 Cl
ATOM      8 Cl1  UNL d   1      -5.612   0.804  -0.307  0.00  0.00    -0.070 Cl
ENDROOT
TORSDOF 0
ENDMDL
