MODEL 1
REMARK minimizedAffinity 4.21144485
REMARK minimizedRMSD -1
REMARK  0 active torsions:
REMARK  status: ('A' for Active; 'I' for Inactive)
ROOT
ATOM      1  C4' PXY d   1      -2.509  -4.996  -5.226  0.00  0.00     0.077 C 
ATOM      2  C1' PXY d   1       0.618  -0.193  -4.468  0.00  0.00     0.077 C 
ATOM      3  C1  PXY d   1      -0.200  -1.452  -4.680  0.00  0.00    -0.082 A 
ATOM      4  C2  PXY d   1      -1.085  -1.818  -3.767  0.00  0.00     0.003 A 
ATOM      5  C3  PXY d   1      -1.811  -2.971  -3.927  0.00  0.00     0.003 A 
ATOM      6  C4  PXY d   1      -1.667  -3.728  -5.059  0.00  0.00    -0.082 A 
ATOM      7  C5  PXY d   1      -0.774  -3.355  -6.000  0.00  0.00     0.003 A 
ATOM      8  C6  PXY d   1      -0.018  -2.204  -5.799  0.00  0.00     0.003 A 
ENDROOT
TORSDOF 0
ENDMDL
