MODEL 1
REMARK minimizedAffinity 3.94830751
REMARK minimizedRMSD -1
REMARK  0 active torsions:
REMARK  status: ('A' for Active; 'I' for Inactive)
ROOT
ATOM      1  C4' PXY d   1       0.019  -0.535  -4.495  0.00  0.00     0.077 C 
ATOM      2  C1' PXY d   1      -2.223  -5.857  -4.755  0.00  0.00     0.077 C 
ATOM      3  C1  PXY d   1      -1.641  -4.459  -4.675  0.00  0.00    -0.082 A 
ATOM      4  C2  PXY d   1      -1.242  -3.853  -5.782  0.00  0.00     0.003 A 
ATOM      5  C3  PXY d   1      -0.685  -2.601  -5.725  0.00  0.00     0.003 A 
ATOM      6  C4  PXY d   1      -0.583  -1.942  -4.529  0.00  0.00    -0.082 A 
ATOM      7  C5  PXY d   1      -0.997  -2.550  -3.397  0.00  0.00     0.003 A 
ATOM      8  C6  PXY d   1      -1.522  -3.837  -3.471  0.00  0.00     0.003 A 
ENDROOT
TORSDOF 0
ENDMDL
