MODEL 1
REMARK minimizedAffinity 9.87071896
REMARK minimizedRMSD -1
REMARK  0 active torsions:
REMARK  status: ('A' for Active; 'I' for Inactive)
ROOT
ATOM      1  C4' PXY d   1       0.385  -0.627  -3.869  0.00  0.00     0.077 C 
ATOM      2  C1' PXY d   1      -2.512  -5.379  -5.433  0.00  0.00     0.077 C 
ATOM      3  C1  PXY d   1      -1.762  -4.130  -5.014  0.00  0.00    -0.082 A 
ATOM      4  C2  PXY d   1      -0.875  -3.593  -5.837  0.00  0.00     0.003 A 
ATOM      5  C3  PXY d   1      -0.165  -2.482  -5.462  0.00  0.00     0.003 A 
ATOM      6  C4  PXY d   1      -0.403  -1.883  -4.253  0.00  0.00    -0.082 A 
ATOM      7  C5  PXY d   1      -1.313  -2.419  -3.413  0.00  0.00     0.003 A 
ATOM      8  C6  PXY d   1      -1.994  -3.571  -3.796  0.00  0.00     0.003 A 
ENDROOT
TORSDOF 0
ENDMDL
