MODEL 1
REMARK minimizedAffinity 6.88723803
REMARK minimizedRMSD -1
REMARK  0 active torsions:
REMARK  status: ('A' for Active; 'I' for Inactive)
ROOT
ATOM      1  C4' PXY d   1      -0.276  -0.524  -4.898  0.00  0.00     0.077 C 
ATOM      2  C1' PXY d   1      -2.048  -6.000  -4.359  0.00  0.00     0.077 C 
ATOM      3  C1  PXY d   1      -1.592  -4.560  -4.492  0.00  0.00    -0.082 A 
ATOM      4  C2  PXY d   1      -0.933  -4.179  -5.575  0.00  0.00     0.003 A 
ATOM      5  C3  PXY d   1      -0.487  -2.889  -5.697  0.00  0.00     0.003 A 
ATOM      6  C4  PXY d   1      -0.763  -1.965  -4.725  0.00  0.00    -0.082 A 
ATOM      7  C5  PXY d   1      -1.444  -2.343  -3.623  0.00  0.00     0.003 A 
ATOM      8  C6  PXY d   1      -1.853  -3.667  -3.499  0.00  0.00     0.003 A 
ENDROOT
TORSDOF 0
ENDMDL
