MODEL 1
REMARK minimizedAffinity 16.5471439
REMARK minimizedRMSD -1
REMARK  0 active torsions:
REMARK  status: ('A' for Active; 'I' for Inactive)
ROOT
ATOM      1  C4' PXY d   1       2.996   0.178   4.084  0.00  0.00     0.077 C 
ATOM      2  C1' PXY d   1      -1.706  -1.296   1.062  0.00  0.00     0.077 C 
ATOM      3  C1  PXY d   1      -0.475  -0.897   1.852  0.00  0.00    -0.082 A 
ATOM      4  C2  PXY d   1       0.477  -1.788   2.073  0.00  0.00     0.003 A 
ATOM      5  C3  PXY d   1       1.582  -1.454   2.812  0.00  0.00     0.003 A 
ATOM      6  C4  PXY d   1       1.740  -0.178   3.284  0.00  0.00    -0.082 A 
ATOM      7  C5  PXY d   1       0.778   0.740   3.053  0.00  0.00     0.003 A 
ATOM      8  C6  PXY d   1      -0.356   0.369   2.336  0.00  0.00     0.003 A 
ENDROOT
TORSDOF 0
ENDMDL
