MODEL 1
REMARK minimizedAffinity 7.46457386
REMARK minimizedRMSD -1
REMARK  0 active torsions:
REMARK  status: ('A' for Active; 'I' for Inactive)
ROOT
ATOM      1  C4' PXY d   1      -2.622  -5.626  -5.625  0.00  0.00     0.077 C 
ATOM      2  C1' PXY d   1       0.158  -0.831  -3.984  0.00  0.00     0.077 C 
ATOM      3  C1  PXY d   1      -0.573  -2.092  -4.401  0.00  0.00    -0.082 A 
ATOM      4  C2  PXY d   1      -0.340  -2.619  -5.593  0.00  0.00     0.003 A 
ATOM      5  C3  PXY d   1      -1.016  -3.740  -5.999  0.00  0.00     0.003 A 
ATOM      6  C4  PXY d   1      -1.900  -4.359  -5.157  0.00  0.00    -0.082 A 
ATOM      7  C5  PXY d   1      -2.135  -3.834  -3.936  0.00  0.00     0.003 A 
ATOM      8  C6  PXY d   1      -1.469  -2.672  -3.558  0.00  0.00     0.003 A 
ENDROOT
TORSDOF 0
ENDMDL
