MODEL 1
REMARK minimizedAffinity 18.7324142
REMARK minimizedRMSD -1
REMARK  0 active torsions:
REMARK  status: ('A' for Active; 'I' for Inactive)
ROOT
ATOM      1  C4' PXY d   1      -2.274  -4.124  -5.999  0.00  0.00     0.077 C 
ATOM      2  C1' PXY d   1       0.477  -0.124  -2.861  0.00  0.00     0.077 C 
ATOM      3  C1  PXY d   1      -0.246  -1.180  -3.673  0.00  0.00    -0.082 A 
ATOM      4  C2  PXY d   1      -0.007  -1.286  -4.970  0.00  0.00     0.003 A 
ATOM      5  C3  PXY d   1      -0.675  -2.214  -5.726  0.00  0.00     0.003 A 
ATOM      6  C4  PXY d   1      -1.560  -3.079  -5.138  0.00  0.00    -0.082 A 
ATOM      7  C5  PXY d   1      -1.802  -2.984  -3.813  0.00  0.00     0.003 A 
ATOM      8  C6  PXY d   1      -1.143  -2.007  -3.072  0.00  0.00     0.003 A 
ENDROOT
TORSDOF 0
ENDMDL
