MODEL 1
REMARK minimizedAffinity 10.3054123
REMARK minimizedRMSD -1
REMARK  0 active torsions:
REMARK  status: ('A' for Active; 'I' for Inactive)
ROOT
ATOM      1  C4' PXY d   1       1.112   0.118   4.000  0.00  0.00     0.077 C 
ATOM      2  C1' PXY d   1       4.852  -4.252   4.578  0.00  0.00     0.077 C 
ATOM      3  C1  PXY d   1       3.863  -3.114   4.421  0.00  0.00    -0.082 A 
ATOM      4  C2  PXY d   1       4.300  -1.866   4.395  0.00  0.00     0.003 A 
ATOM      5  C3  PXY d   1       3.416  -0.823   4.286  0.00  0.00     0.003 A 
ATOM      6  C4  PXY d   1       2.075  -1.063   4.148  0.00  0.00    -0.082 A 
ATOM      7  C5  PXY d   1       1.622  -2.335   4.162  0.00  0.00     0.003 A 
ATOM      8  C6  PXY d   1       2.532  -3.377   4.316  0.00  0.00     0.003 A 
ENDROOT
TORSDOF 0
ENDMDL
