MODEL 1
REMARK minimizedAffinity 0.762959719
REMARK minimizedRMSD -1
REMARK  0 active torsions:
REMARK  status: ('A' for Active; 'I' for Inactive)
ROOT
ATOM      1  C4' PXY d   1       4.399  -3.009   5.998  0.00  0.00     0.077 C 
ATOM      2  C1' PXY d   1       0.221  -1.055   2.514  0.00  0.00     0.077 C 
ATOM      3  C1  PXY d   1       1.325  -1.559   3.423  0.00  0.00    -0.082 A 
ATOM      4  C2  PXY d   1       1.275  -2.796   3.888  0.00  0.00     0.003 A 
ATOM      5  C3  PXY d   1       2.249  -3.257   4.737  0.00  0.00     0.003 A 
ATOM      6  C4  PXY d   1       3.311  -2.461   5.070  0.00  0.00    -0.082 A 
ATOM      7  C5  PXY d   1       3.375  -1.201   4.591  0.00  0.00     0.003 A 
ATOM      8  C6  PXY d   1       2.355  -0.738   3.764  0.00  0.00     0.003 A 
ENDROOT
TORSDOF 0
ENDMDL
