MODEL 1
REMARK minimizedAffinity 13.9877863
REMARK minimizedRMSD -1
REMARK  0 active torsions:
REMARK  status: ('A' for Active; 'I' for Inactive)
ROOT
ATOM      1  C4' PXY d   1      -0.451  -5.283   6.000  0.00  0.00     0.077 C 
ATOM      2  C1' PXY d   1       2.502  -1.262   3.080  0.00  0.00     0.077 C 
ATOM      3  C1  PXY d   1       1.739  -2.320   3.852  0.00  0.00    -0.082 A 
ATOM      4  C2  PXY d   1       0.620  -2.816   3.350  0.00  0.00     0.003 A 
ATOM      5  C3  PXY d   1      -0.100  -3.750   4.049  0.00  0.00     0.003 A 
ATOM      6  C4  PXY d   1       0.358  -4.220   5.251  0.00  0.00    -0.082 A 
ATOM      7  C5  PXY d   1       1.504  -3.726   5.765  0.00  0.00     0.003 A 
ATOM      8  C6  PXY d   1       2.199  -2.749   5.058  0.00  0.00     0.003 A 
ENDROOT
TORSDOF 0
ENDMDL
