MODEL 1
REMARK minimizedAffinity -5.40899181
REMARK minimizedRMSD -1
REMARK  1 active torsions:
REMARK  status: ('A' for Active; 'I' for Inactive)
REMARK    1  A    between atoms: C1_2  and  C2_3 
ROOT
ATOM      1  C2  UNL d   1      -2.001  -0.714   0.960  0.00  0.00    -0.077 A 
ATOM      2  C3  UNL d   1      -1.755  -0.793   2.338  0.00  0.00     0.002 A 
ATOM      3  C4  UNL d   1      -0.446  -0.806   2.822  0.00  0.00     0.002 A 
ATOM      4  C5  UNL d   1       0.627  -0.737   1.936  0.00  0.00    -0.004 A 
ATOM      5  C6  UNL d   1       0.393  -0.661   0.564  0.00  0.00     0.002 A 
ATOM      6  C7  UNL d   1      -0.915  -0.648   0.078  0.00  0.00     0.002 A 
ENDROOT
BRANCH   1   7
ATOM      7  C1  UNL d   1      -3.413  -0.649   0.439  0.00  0.00     0.055 C 
ATOM      8  C   UNL d   1      -4.115   0.621   0.896  0.00  0.00     0.019 C 
ENDBRANCH   1   7
TORSDOF 1
ENDMDL
