MODEL 1
REMARK minimizedAffinity -4.55012608
REMARK minimizedRMSD -1
REMARK  1 active torsions:
REMARK  status: ('A' for Active; 'I' for Inactive)
REMARK    1  A    between atoms: C1_2  and  C2_3 
ROOT
ATOM      1  C2  UNL d   1      -0.922  -0.292   0.966  0.00  0.00    -0.077 A 
ATOM      2  C3  UNL d   1      -2.071   0.442   0.639  0.00  0.00     0.002 A 
ATOM      3  C4  UNL d   1      -2.847   1.024   1.644  0.00  0.00     0.002 A 
ATOM      4  C5  UNL d   1      -2.480   0.882   2.980  0.00  0.00    -0.004 A 
ATOM      5  C6  UNL d   1      -1.340   0.153   3.315  0.00  0.00     0.002 A 
ATOM      6  C7  UNL d   1      -0.564  -0.431   2.313  0.00  0.00     0.002 A 
ENDROOT
BRANCH   1   7
ATOM      7  C1  UNL d   1      -0.056  -0.878  -0.119  0.00  0.00     0.055 C 
ATOM      8  C   UNL d   1      -0.755  -2.034  -0.820  0.00  0.00     0.019 C 
ENDBRANCH   1   7
TORSDOF 1
ENDMDL
