MODEL 1
REMARK minimizedAffinity -5.66390276
REMARK minimizedRMSD -1
REMARK  1 active torsions:
REMARK  status: ('A' for Active; 'I' for Inactive)
REMARK    1  A    between atoms: C1_2  and  C2_3 
ROOT
ATOM      1  C2  UNL d   1      -1.041  -0.454   1.291  0.00  0.00    -0.077 A 
ATOM      2  C3  UNL d   1      -0.917  -0.881  -0.039  0.00  0.00     0.002 A 
ATOM      3  C4  UNL d   1       0.241  -1.535  -0.465  0.00  0.00     0.002 A 
ATOM      4  C5  UNL d   1       1.280  -1.772   0.432  0.00  0.00    -0.004 A 
ATOM      5  C6  UNL d   1       1.166  -1.350   1.756  0.00  0.00     0.002 A 
ATOM      6  C7  UNL d   1       0.011  -0.694   2.184  0.00  0.00     0.002 A 
ENDROOT
BRANCH   1   7
ATOM      7  C1  UNL d   1      -2.309   0.208   1.764  0.00  0.00     0.055 C 
ATOM      8  C   UNL d   1      -3.378   0.195   0.682  0.00  0.00     0.019 C 
ENDBRANCH   1   7
TORSDOF 1
ENDMDL
