MODEL 1
REMARK minimizedAffinity -3.24421811
REMARK minimizedRMSD -1
REMARK  1 active torsions:
REMARK  status: ('A' for Active; 'I' for Inactive)
REMARK    1  A    between atoms: C1_2  and  C2_3 
ROOT
ATOM      1  C2  UNL d   1      -0.762  -0.686   1.278  0.00  0.00    -0.077 A 
ATOM      2  C3  UNL d   1      -1.412  -0.821   0.043  0.00  0.00     0.002 A 
ATOM      3  C4  UNL d   1      -2.738  -0.409  -0.105  0.00  0.00     0.002 A 
ATOM      4  C5  UNL d   1      -3.423   0.143   0.975  0.00  0.00    -0.004 A 
ATOM      5  C6  UNL d   1      -2.786   0.280   2.208  0.00  0.00     0.002 A 
ATOM      6  C7  UNL d   1      -1.461  -0.132   2.358  0.00  0.00     0.002 A 
ENDROOT
BRANCH   1   7
ATOM      7  C1  UNL d   1       0.684  -1.083   1.427  0.00  0.00     0.055 C 
ATOM      8  C   UNL d   1       1.074  -1.213   2.892  0.00  0.00     0.019 C 
ENDBRANCH   1   7
TORSDOF 1
ENDMDL
