MODEL 1
REMARK minimizedAffinity 5.3374095
REMARK minimizedRMSD -1
REMARK  0 active torsions:
REMARK  status: ('A' for Active; 'I' for Inactive)
ROOT
ATOM      1  C   UNL d   1      -4.547   1.289  -3.913  0.00  0.00     0.172 C 
ATOM      2  N   UNL d   1      -4.525   2.728  -4.032  0.00  0.00    -0.070 N 
ATOM      3  C1  UNL d   1      -3.402   3.502  -4.157  0.00  0.00    -0.004 A 
ATOM      4  C2  UNL d   1      -3.804   4.817  -4.244  0.00  0.00    -0.047 A 
ATOM      5  C3  UNL d   1      -5.217   4.835  -4.168  0.00  0.00    -0.047 A 
ATOM      6  C4  UNL d   1      -5.637   3.528  -4.037  0.00  0.00    -0.004 A 
ENDROOT
TORSDOF 0
ENDMDL
