MODEL 1
REMARK minimizedAffinity 3.7704556
REMARK minimizedRMSD -1
REMARK  0 active torsions:
REMARK  status: ('A' for Active; 'I' for Inactive)
ROOT
ATOM      1  C   UNL d   1      -3.414  -1.270  -0.793  0.00  0.00     0.172 C 
ATOM      2  N   UNL d   1      -4.049  -1.743  -2.000  0.00  0.00    -0.070 N 
ATOM      3  C1  UNL d   1      -3.545  -1.622  -3.267  0.00  0.00    -0.004 A 
ATOM      4  C2  UNL d   1      -4.446  -2.198  -4.137  0.00  0.00    -0.047 A 
ATOM      5  C3  UNL d   1      -5.529  -2.682  -3.365  0.00  0.00    -0.047 A 
ATOM      6  C4  UNL d   1      -5.257  -2.387  -2.046  0.00  0.00    -0.004 A 
ENDROOT
TORSDOF 0
ENDMDL
