MODEL 1
REMARK minimizedAffinity 4.66108179
REMARK minimizedRMSD -1
REMARK  0 active torsions:
REMARK  status: ('A' for Active; 'I' for Inactive)
ROOT
ATOM      1  C   UNL d   1      -3.357   6.000  -4.739  0.00  0.00     0.172 C 
ATOM      2  N   UNL d   1      -4.218   4.849  -4.878  0.00  0.00    -0.070 N 
ATOM      3  C1  UNL d   1      -5.537   4.879  -5.245  0.00  0.00    -0.004 A 
ATOM      4  C2  UNL d   1      -6.000   3.581  -5.263  0.00  0.00    -0.047 A 
ATOM      5  C3  UNL d   1      -4.922   2.742  -4.894  0.00  0.00    -0.047 A 
ATOM      6  C4  UNL d   1      -3.831   3.553  -4.661  0.00  0.00    -0.004 A 
ENDROOT
TORSDOF 0
ENDMDL
