MODEL 1
REMARK minimizedAffinity 3.16958904
REMARK minimizedRMSD -1
REMARK  0 active torsions:
REMARK  status: ('A' for Active; 'I' for Inactive)
ROOT
ATOM      1  C   UNL d   1       5.505  -4.651  -1.351  0.00  0.00     0.172 C 
ATOM      2  N   UNL d   1       4.720  -4.304  -0.190  0.00  0.00    -0.070 N 
ATOM      3  C1  UNL d   1       5.209  -4.100   1.073  0.00  0.00    -0.004 A 
ATOM      4  C2  UNL d   1       4.145  -3.788   1.892  0.00  0.00    -0.047 A 
ATOM      5  C3  UNL d   1       2.977  -3.807   1.094  0.00  0.00    -0.047 A 
ATOM      6  C4  UNL d   1       3.361  -4.129  -0.190  0.00  0.00    -0.004 A 
ENDROOT
TORSDOF 0
ENDMDL
