MODEL 1
REMARK minimizedAffinity 3.0707891
REMARK minimizedRMSD -1
REMARK  0 active torsions:
REMARK  status: ('A' for Active; 'I' for Inactive)
ROOT
ATOM      1  C   UNL d   1       1.389   2.690   3.891  0.00  0.00     0.172 C 
ATOM      2  N   UNL d   1       1.489   3.907   4.662  0.00  0.00    -0.070 N 
ATOM      3  C1  UNL d   1       2.587   4.315   5.371  0.00  0.00    -0.004 A 
ATOM      4  C2  UNL d   1       2.283   5.521   5.964  0.00  0.00    -0.047 A 
ATOM      5  C3  UNL d   1       0.955   5.849   5.599  0.00  0.00    -0.047 A 
ATOM      6  C4  UNL d   1       0.488   4.832   4.793  0.00  0.00    -0.004 A 
ENDROOT
TORSDOF 0
ENDMDL
