MODEL 1
REMARK minimizedAffinity 3.60309982
REMARK minimizedRMSD -1
REMARK  0 active torsions:
REMARK  status: ('A' for Active; 'I' for Inactive)
ROOT
ATOM      1  C   UNL d   1      -0.658   2.985  -2.317  0.00  0.00     0.172 C 
ATOM      2  N   UNL d   1       0.246   1.859  -2.292  0.00  0.00    -0.070 N 
ATOM      3  C1  UNL d   1       0.442   1.016  -1.231  0.00  0.00    -0.004 A 
ATOM      4  C2  UNL d   1       1.378   0.077  -1.606  0.00  0.00    -0.047 A 
ATOM      5  C3  UNL d   1       1.758   0.366  -2.938  0.00  0.00    -0.047 A 
ATOM      6  C4  UNL d   1       1.042   1.474  -3.338  0.00  0.00    -0.004 A 
ENDROOT
TORSDOF 0
ENDMDL
