MODEL 1
REMARK minimizedAffinity 1.17877328
REMARK minimizedRMSD -1
REMARK  0 active torsions:
REMARK  status: ('A' for Active; 'I' for Inactive)
ROOT
ATOM      1  C   UNL d   1      -0.213   2.428  -0.151  0.00  0.00     0.124 A 
ATOM      2  C1  UNL d   1      -0.073   1.614   0.965  0.00  0.00     0.062 A 
ATOM      3  C2  UNL d   1       0.171   0.252   0.813  0.00  0.00     0.162 A 
ATOM      4  C3  UNL d   1       0.277  -0.305  -0.461  0.00  0.00    -0.034 A 
ATOM      5  C4  UNL d   1       0.134   0.519  -1.579  0.00  0.00     0.162 A 
ATOM      6  C5  UNL d   1      -0.110   1.879  -1.421  0.00  0.00     0.062 A 
ATOM      7  F   UNL d   1      -0.245   2.664  -2.501  0.00  0.00    -0.097 F 
ATOM      8  F1  UNL d   1       0.231   0.016  -2.818  0.00  0.00    -0.096 F 
ATOM      9  I   UNL d   1       0.642  -2.341  -0.693  0.00  0.00    -0.060 I 
ATOM     10  F2  UNL d   1       0.302  -0.510   1.909  0.00  0.00    -0.096 F 
ATOM     11  F3  UNL d   1      -0.174   2.141   2.194  0.00  0.00    -0.097 F 
ATOM     12  F4  UNL d   1      -0.449   3.737  -0.001  0.00  0.00    -0.092 F 
ENDROOT
TORSDOF 0
ENDMDL
