MODEL 1
REMARK minimizedAffinity 2.64040256
REMARK minimizedRMSD -1
REMARK  0 active torsions:
REMARK  status: ('A' for Active; 'I' for Inactive)
ROOT
ATOM      1  C   UNL d   1       0.162   1.140  -0.191  0.00  0.00     0.124 A 
ATOM      2  C1  UNL d   1       0.615   0.259   0.781  0.00  0.00     0.062 A 
ATOM      3  C2  UNL d   1       0.758  -1.094   0.488  0.00  0.00     0.162 A 
ATOM      4  C3  UNL d   1       0.449  -1.575  -0.784  0.00  0.00    -0.034 A 
ATOM      5  C4  UNL d   1      -0.007  -0.683  -1.757  0.00  0.00     0.162 A 
ATOM      6  C5  UNL d   1      -0.148   0.669  -1.459  0.00  0.00     0.062 A 
ATOM      7  F   UNL d   1      -0.585   1.518  -2.399  0.00  0.00    -0.097 F 
ATOM      8  F1  UNL d   1      -0.313  -1.111  -2.990  0.00  0.00    -0.096 F 
ATOM      9  I   UNL d   1       0.662  -3.597  -1.227  0.00  0.00    -0.060 I 
ATOM     10  F2  UNL d   1       1.198  -1.922   1.447  0.00  0.00    -0.096 F 
ATOM     11  F3  UNL d   1       0.915   0.712   2.007  0.00  0.00    -0.097 F 
ATOM     12  F4  UNL d   1       0.025   2.441   0.094  0.00  0.00    -0.092 F 
ENDROOT
TORSDOF 0
ENDMDL
