MODEL 1
REMARK minimizedAffinity -5.14867878
REMARK minimizedRMSD -1
REMARK  0 active torsions:
REMARK  status: ('A' for Active; 'I' for Inactive)
ROOT
ATOM      1  C   UNL d   1      -1.279   3.021   0.683  0.00  0.00     0.124 A 
ATOM      2  C1  UNL d   1      -0.831   2.040   1.556  0.00  0.00     0.062 A 
ATOM      3  C2  UNL d   1      -0.211   0.895   1.064  0.00  0.00     0.162 A 
ATOM      4  C3  UNL d   1      -0.035   0.726  -0.309  0.00  0.00    -0.034 A 
ATOM      5  C4  UNL d   1      -0.489   1.717  -1.181  0.00  0.00     0.162 A 
ATOM      6  C5  UNL d   1      -1.108   2.859  -0.684  0.00  0.00     0.062 A 
ATOM      7  F   UNL d   1      -1.540   3.806  -1.530  0.00  0.00    -0.097 F 
ATOM      8  F1  UNL d   1      -0.335   1.586  -2.507  0.00  0.00    -0.096 F 
ATOM      9  I   UNL d   1       0.892  -0.985  -1.050  0.00  0.00    -0.060 I 
ATOM     10  F2  UNL d   1       0.212  -0.037   1.931  0.00  0.00    -0.096 F 
ATOM     11  F3  UNL d   1      -0.997   2.194   2.878  0.00  0.00    -0.097 F 
ATOM     12  F4  UNL d   1      -1.877   4.121   1.159  0.00  0.00    -0.092 F 
ENDROOT
TORSDOF 0
ENDMDL
