MODEL 1
REMARK minimizedAffinity 14.5250196
REMARK minimizedRMSD -1
REMARK  0 active torsions:
REMARK  status: ('A' for Active; 'I' for Inactive)
ROOT
ATOM      1  C   UNL d   1      -4.431   0.047  -2.713  0.00  0.00     0.124 A 
ATOM      2  C1  UNL d   1      -4.617   1.121  -1.852  0.00  0.00     0.062 A 
ATOM      3  C2  UNL d   1      -4.805   2.402  -2.362  0.00  0.00     0.162 A 
ATOM      4  C3  UNL d   1      -4.809   2.618  -3.740  0.00  0.00    -0.034 A 
ATOM      5  C4  UNL d   1      -4.620   1.534  -4.599  0.00  0.00     0.162 A 
ATOM      6  C5  UNL d   1      -4.432   0.255  -4.085  0.00  0.00     0.062 A 
ATOM      7  F   UNL d   1      -4.252  -0.781  -4.918  0.00  0.00    -0.097 F 
ATOM      8  F1  UNL d   1      -4.618   1.706  -5.929  0.00  0.00    -0.096 F 
ATOM      9  I   UNL d   1      -5.090   4.532  -4.506  0.00  0.00    -0.060 I 
ATOM     10  F2  UNL d   1      -4.983   3.420  -1.507  0.00  0.00    -0.096 F 
ATOM     11  F3  UNL d   1      -4.615   0.923  -0.526  0.00  0.00    -0.097 F 
ATOM     12  F4  UNL d   1      -4.249  -1.184  -2.219  0.00  0.00    -0.092 F 
ENDROOT
TORSDOF 0
ENDMDL
