MODEL 1
REMARK minimizedAffinity 12.1719074
REMARK minimizedRMSD -1
REMARK  0 active torsions:
REMARK  status: ('A' for Active; 'I' for Inactive)
ROOT
ATOM      1  C   UNL d   1       0.134   1.852  -0.112  0.00  0.00     0.124 A 
ATOM      2  C1  UNL d   1       0.523   0.601  -0.568  0.00  0.00     0.062 A 
ATOM      3  C2  UNL d   1       0.938  -0.375   0.334  0.00  0.00     0.162 A 
ATOM      4  C3  UNL d   1       0.964  -0.104   1.702  0.00  0.00    -0.034 A 
ATOM      5  C4  UNL d   1       0.572   1.158   2.153  0.00  0.00     0.162 A 
ATOM      6  C5  UNL d   1       0.159   2.130   1.248  0.00  0.00     0.062 A 
ATOM      7  F   UNL d   1      -0.217   3.339   1.690  0.00  0.00    -0.097 F 
ATOM      8  F1  UNL d   1       0.586   1.452   3.461  0.00  0.00    -0.096 F 
ATOM      9  I   UNL d   1       1.583  -1.561   3.053  0.00  0.00    -0.060 I 
ATOM     10  F2  UNL d   1       1.308  -1.576  -0.135  0.00  0.00    -0.096 F 
ATOM     11  F3  UNL d   1       0.501   0.330  -1.881  0.00  0.00    -0.097 F 
ATOM     12  F4  UNL d   1      -0.263   2.790  -0.982  0.00  0.00    -0.092 F 
ENDROOT
TORSDOF 0
ENDMDL
