MODEL 1
REMARK minimizedAffinity 0.917617798
REMARK minimizedRMSD -1
REMARK  0 active torsions:
REMARK  status: ('A' for Active; 'I' for Inactive)
ROOT
ATOM      1  C   UNL d   1       1.191   2.736   1.946  0.00  0.00     0.124 A 
ATOM      2  C1  UNL d   1       0.335   1.709   2.321  0.00  0.00     0.062 A 
ATOM      3  C2  UNL d   1      -0.789   1.419   1.553  0.00  0.00     0.162 A 
ATOM      4  C3  UNL d   1      -1.064   2.156   0.401  0.00  0.00    -0.034 A 
ATOM      5  C4  UNL d   1      -0.199   3.188   0.031  0.00  0.00     0.162 A 
ATOM      6  C5  UNL d   1       0.923   3.474   0.802  0.00  0.00     0.062 A 
ATOM      7  F   UNL d   1       1.748   4.466   0.438  0.00  0.00    -0.097 F 
ATOM      8  F1  UNL d   1      -0.433   3.916  -1.071  0.00  0.00    -0.096 F 
ATOM      9  I   UNL d   1      -2.743   1.725  -0.749  0.00  0.00    -0.060 I 
ATOM     10  F2  UNL d   1      -1.598   0.422   1.940  0.00  0.00    -0.096 F 
ATOM     11  F3  UNL d   1       0.591   0.996   3.427  0.00  0.00    -0.097 F 
ATOM     12  F4  UNL d   1       2.271   3.014   2.687  0.00  0.00    -0.092 F 
ENDROOT
TORSDOF 0
ENDMDL
