MODEL 1
REMARK minimizedAffinity -2.58731604
REMARK minimizedRMSD -1
REMARK  1 active torsions:
REMARK  status: ('A' for Active; 'I' for Inactive)
REMARK    1  A    between atoms: C1_2  and  C2_3 
ROOT
ATOM      1  C2  UNL d   1      -4.369   3.384   3.484  0.00  0.00    -0.077 A 
ATOM      2  C3  UNL d   1      -2.992   3.377   3.746  0.00  0.00     0.002 A 
ATOM      3  C4  UNL d   1      -2.514   2.993   5.000  0.00  0.00     0.002 A 
ATOM      4  C5  UNL d   1      -3.405   2.609   6.000  0.00  0.00    -0.004 A 
ATOM      5  C6  UNL d   1      -4.777   2.614   5.749  0.00  0.00     0.002 A 
ATOM      6  C7  UNL d   1      -5.256   2.999   4.497  0.00  0.00     0.002 A 
ENDROOT
BRANCH   1   7
ATOM      7  C1  UNL d   1      -4.884   3.750   2.116  0.00  0.00     0.055 C 
ATOM      8  C   UNL d   1      -5.766   4.989   2.171  0.00  0.00     0.019 C 
ENDBRANCH   1   7
TORSDOF 1
ENDMDL
