MODEL 1
REMARK minimizedAffinity -2.85477734
REMARK minimizedRMSD -1
REMARK  1 active torsions:
REMARK  status: ('A' for Active; 'I' for Inactive)
REMARK    1  A    between atoms: C1_2  and  C2_3 
ROOT
ATOM      1  C2  UNL d   1      -5.301   5.116   3.871  0.00  0.00    -0.077 A 
ATOM      2  C3  UNL d   1      -4.564   5.630   4.947  0.00  0.00     0.002 A 
ATOM      3  C4  UNL d   1      -4.178   4.799   6.000  0.00  0.00     0.002 A 
ATOM      4  C5  UNL d   1      -4.520   3.448   5.985  0.00  0.00    -0.004 A 
ATOM      5  C6  UNL d   1      -5.254   2.927   4.920  0.00  0.00     0.002 A 
ATOM      6  C7  UNL d   1      -5.642   3.757   3.867  0.00  0.00     0.002 A 
ENDROOT
BRANCH   1   7
ATOM      7  C1  UNL d   1      -5.676   6.000   2.710  0.00  0.00     0.055 C 
ATOM      8  C   UNL d   1      -5.963   5.181   1.460  0.00  0.00     0.019 C 
ENDBRANCH   1   7
TORSDOF 1
ENDMDL
