MODEL 1
REMARK minimizedAffinity -2.35082865
REMARK minimizedRMSD -1
REMARK  1 active torsions:
REMARK  status: ('A' for Active; 'I' for Inactive)
REMARK    1  A    between atoms: C1_2  and  C2_3 
ROOT
ATOM      1  C2  UNL d   1      -5.489   5.259   3.018  0.00  0.00    -0.077 A 
ATOM      2  C3  UNL d   1      -5.994   5.858   4.181  0.00  0.00     0.002 A 
ATOM      3  C4  UNL d   1      -5.878   5.213   5.414  0.00  0.00     0.002 A 
ATOM      4  C5  UNL d   1      -5.253   3.971   5.497  0.00  0.00    -0.004 A 
ATOM      5  C6  UNL d   1      -4.749   3.367   4.346  0.00  0.00     0.002 A 
ATOM      6  C7  UNL d   1      -4.866   4.008   3.112  0.00  0.00     0.002 A 
ENDROOT
BRANCH   1   7
ATOM      7  C1  UNL d   1      -5.570   5.975   1.695  0.00  0.00     0.055 C 
ATOM      8  C   UNL d   1      -4.239   5.929   0.958  0.00  0.00     0.019 C 
ENDBRANCH   1   7
TORSDOF 1
ENDMDL
