MODEL 1
REMARK minimizedAffinity -3.1452086
REMARK minimizedRMSD -1
REMARK  1 active torsions:
REMARK  status: ('A' for Active; 'I' for Inactive)
REMARK    1  A    between atoms: C1_2  and  C2_3 
ROOT
ATOM      1  C2  UNL d   1      -5.441   4.204   4.524  0.00  0.00    -0.077 A 
ATOM      2  C3  UNL d   1      -5.129   3.383   3.432  0.00  0.00     0.002 A 
ATOM      3  C4  UNL d   1      -5.251   3.866   2.127  0.00  0.00     0.002 A 
ATOM      4  C5  UNL d   1      -5.682   5.172   1.903  0.00  0.00    -0.004 A 
ATOM      5  C6  UNL d   1      -5.998   5.995   2.983  0.00  0.00     0.002 A 
ATOM      6  C7  UNL d   1      -5.877   5.514   4.288  0.00  0.00     0.002 A 
ENDROOT
BRANCH   1   7
ATOM      7  C1  UNL d   1      -5.263   3.701   5.933  0.00  0.00     0.055 C 
ATOM      8  C   UNL d   1      -4.210   2.605   6.000  0.00  0.00     0.019 C 
ENDBRANCH   1   7
TORSDOF 1
ENDMDL
