MODEL 1
REMARK minimizedAffinity -2.62584686
REMARK minimizedRMSD -1
REMARK  1 active torsions:
REMARK  status: ('A' for Active; 'I' for Inactive)
REMARK    1  A    between atoms: C1_2  and  C2_3 
ROOT
ATOM      1  C2  UNL d   1      -4.960   4.804   3.306  0.00  0.00    -0.077 A 
ATOM      2  C3  UNL d   1      -4.878   3.599   4.018  0.00  0.00     0.002 A 
ATOM      3  C4  UNL d   1      -4.454   3.593   5.348  0.00  0.00     0.002 A 
ATOM      4  C5  UNL d   1      -4.114   4.787   5.979  0.00  0.00    -0.004 A 
ATOM      5  C6  UNL d   1      -4.190   5.991   5.279  0.00  0.00     0.002 A 
ATOM      6  C7  UNL d   1      -4.612   5.999   3.949  0.00  0.00     0.002 A 
ENDROOT
BRANCH   1   7
ATOM      7  C1  UNL d   1      -5.464   4.819   1.886  0.00  0.00     0.055 C 
ATOM      8  C   UNL d   1      -4.895   5.998   1.110  0.00  0.00     0.019 C 
ENDBRANCH   1   7
TORSDOF 1
ENDMDL
