MODEL 1
REMARK minimizedAffinity -3.36548734
REMARK minimizedRMSD -1
REMARK  1 active torsions:
REMARK  status: ('A' for Active; 'I' for Inactive)
REMARK    1  A    between atoms: C1_2  and  C2_3 
ROOT
ATOM      1  C2  UNL d   1      -5.253   3.639   4.481  0.00  0.00    -0.077 A 
ATOM      2  C3  UNL d   1      -5.877   4.766   5.034  0.00  0.00     0.002 A 
ATOM      3  C4  UNL d   1      -6.000   5.942   4.290  0.00  0.00     0.002 A 
ATOM      4  C5  UNL d   1      -5.505   6.000   2.989  0.00  0.00    -0.004 A 
ATOM      5  C6  UNL d   1      -4.880   4.885   2.431  0.00  0.00     0.002 A 
ATOM      6  C7  UNL d   1      -4.756   3.710   3.173  0.00  0.00     0.002 A 
ENDROOT
BRANCH   1   7
ATOM      7  C1  UNL d   1      -5.163   2.355   5.264  0.00  0.00     0.055 C 
ATOM      8  C   UNL d   1      -3.836   2.247   6.000  0.00  0.00     0.019 C 
ENDBRANCH   1   7
TORSDOF 1
ENDMDL
