MODEL 1
REMARK minimizedAffinity -2.73289657
REMARK minimizedRMSD -1
REMARK  1 active torsions:
REMARK  status: ('A' for Active; 'I' for Inactive)
REMARK    1  A    between atoms: C1_2  and  C2_3 
ROOT
ATOM      1  C2  UNL d   1      -4.815   4.985   3.308  0.00  0.00    -0.077 A 
ATOM      2  C3  UNL d   1      -4.466   3.832   4.026  0.00  0.00     0.002 A 
ATOM      3  C4  UNL d   1      -4.831   3.698   5.367  0.00  0.00     0.002 A 
ATOM      4  C5  UNL d   1      -5.550   4.710   6.000  0.00  0.00    -0.004 A 
ATOM      5  C6  UNL d   1      -5.899   5.861   5.296  0.00  0.00     0.002 A 
ATOM      6  C7  UNL d   1      -5.534   5.998   3.956  0.00  0.00     0.002 A 
ENDROOT
BRANCH   1   7
ATOM      7  C1  UNL d   1      -4.465   5.111   1.848  0.00  0.00     0.055 C 
ATOM      8  C   UNL d   1      -5.461   5.998   1.115  0.00  0.00     0.019 C 
ENDBRANCH   1   7
TORSDOF 1
ENDMDL
