MODEL 1
REMARK minimizedAffinity 3.98461056
REMARK minimizedRMSD -1
REMARK  1 active torsions:
REMARK  status: ('A' for Active; 'I' for Inactive)
REMARK    1  A    between atoms: C1_2  and  C2_3 
ROOT
ATOM      1  C2  UNL d   1      -5.261   3.815   4.205  0.00  0.00    -0.077 A 
ATOM      2  C3  UNL d   1      -5.336   2.882   3.162  0.00  0.00     0.002 A 
ATOM      3  C4  UNL d   1      -5.565   3.304   1.852  0.00  0.00     0.002 A 
ATOM      4  C5  UNL d   1      -5.717   4.660   1.571  0.00  0.00    -0.004 A 
ATOM      5  C6  UNL d   1      -5.646   5.596   2.602  0.00  0.00     0.002 A 
ATOM      6  C7  UNL d   1      -5.418   5.176   3.913  0.00  0.00     0.002 A 
ENDROOT
BRANCH   1   7
ATOM      7  C1  UNL d   1      -4.964   3.366   5.612  0.00  0.00     0.055 C 
ATOM      8  C   UNL d   1      -4.843   1.852   5.696  0.00  0.00     0.019 C 
ENDBRANCH   1   7
TORSDOF 1
ENDMDL
