MODEL 1
REMARK minimizedAffinity -1.68458247
REMARK minimizedRMSD -1
REMARK  3 active torsions:
REMARK  status: ('A' for Active; 'I' for Inactive)
REMARK    1  A    between atoms: C3'_2  and  C2'_3 
REMARK    2  A    between atoms: C2'_3  and  C1'_4 
REMARK    3  A    between atoms: C1'_4  and  C1_5 
ROOT
ATOM      1  C1  N4B d   1      -0.164  -0.834  -0.364  0.00  0.00    -0.075 A 
ATOM      2  C2  N4B d   1       0.217  -1.704   0.681  0.00  0.00     0.002 A 
ATOM      3  C3  N4B d   1      -0.590  -2.761   1.024  0.00  0.00     0.002 A 
ATOM      4  C4  N4B d   1      -1.787  -2.956   0.351  0.00  0.00    -0.004 A 
ATOM      5  C5  N4B d   1      -2.136  -2.127  -0.675  0.00  0.00     0.002 A 
ATOM      6  C6  N4B d   1      -1.332  -1.063  -1.033  0.00  0.00     0.002 A 
ENDROOT
BRANCH   1   7
ATOM      7  C1' N4B d   1       0.643   0.385  -0.718  0.00  0.00     0.057 C 
BRANCH   7   8
ATOM      8  C2' N4B d   1       1.215   0.993   0.559  0.00  0.00     0.009 C 
BRANCH   8   9
ATOM      9  C3' N4B d   1       2.413   1.885   0.276  0.00  0.00     0.004 C 
ATOM     10  C4' N4B d   1       2.576   2.977   1.291  0.00  0.00     0.003 C 
ENDBRANCH   8   9
ENDBRANCH   7   8
ENDBRANCH   1   7
TORSDOF 3
ENDMDL
