MODEL 1
REMARK minimizedAffinity -4.25970316
REMARK minimizedRMSD -1
REMARK  3 active torsions:
REMARK  status: ('A' for Active; 'I' for Inactive)
REMARK    1  A    between atoms: C3'_2  and  C2'_3 
REMARK    2  A    between atoms: C2'_3  and  C1'_4 
REMARK    3  A    between atoms: C1'_4  and  C1_5 
ROOT
ATOM      1  C1  N4B d   1      -0.057  -0.019  -0.325  0.00  0.00    -0.075 A 
ATOM      2  C2  N4B d   1      -0.801   0.766  -1.233  0.00  0.00     0.002 A 
ATOM      3  C3  N4B d   1      -2.070   0.383  -1.592  0.00  0.00     0.002 A 
ATOM      4  C4  N4B d   1      -2.607  -0.785  -1.071  0.00  0.00    -0.004 A 
ATOM      5  C5  N4B d   1      -1.891  -1.524  -0.175  0.00  0.00     0.002 A 
ATOM      6  C6  N4B d   1      -0.616  -1.149   0.197  0.00  0.00     0.002 A 
ENDROOT
BRANCH   1   7
ATOM      7  C1' N4B d   1       1.367   0.313   0.031  0.00  0.00     0.057 C 
BRANCH   7   8
ATOM      8  C2' N4B d   1       1.463   1.795   0.381  0.00  0.00     0.009 C 
BRANCH   8   9
ATOM      9  C3' N4B d   1       2.873   2.194   0.780  0.00  0.00     0.004 C 
ATOM     10  C4' N4B d   1       2.949   2.742   2.174  0.00  0.00     0.003 C 
ENDBRANCH   8   9
ENDBRANCH   7   8
ENDBRANCH   1   7
TORSDOF 3
ENDMDL
