MODEL 1
REMARK minimizedAffinity -3.46961427
REMARK minimizedRMSD -1
REMARK  3 active torsions:
REMARK  status: ('A' for Active; 'I' for Inactive)
REMARK    1  A    between atoms: C3'_2  and  C2'_3 
REMARK    2  A    between atoms: C2'_3  and  C1'_4 
REMARK    3  A    between atoms: C1'_4  and  C1_5 
ROOT
ATOM      1  C1  N4B d   1      -0.398   0.341  -0.031  0.00  0.00    -0.075 A 
ATOM      2  C2  N4B d   1      -0.975   1.099  -1.073  0.00  0.00     0.002 A 
ATOM      3  C3  N4B d   1      -1.944   0.543  -1.872  0.00  0.00     0.002 A 
ATOM      4  C4  N4B d   1      -2.336  -0.770  -1.661  0.00  0.00    -0.004 A 
ATOM      5  C5  N4B d   1      -1.792  -1.488  -0.637  0.00  0.00     0.002 A 
ATOM      6  C6  N4B d   1      -0.821  -0.940   0.177  0.00  0.00     0.002 A 
ENDROOT
BRANCH   1   7
ATOM      7  C1' N4B d   1       0.725   0.877   0.813  0.00  0.00     0.057 C 
BRANCH   7   8
ATOM      8  C2' N4B d   1       2.056   0.408   0.233  0.00  0.00     0.009 C 
BRANCH   8   9
ATOM      9  C3' N4B d   1       3.191   1.357   0.576  0.00  0.00     0.004 C 
ATOM     10  C4' N4B d   1       2.840   2.307   1.683  0.00  0.00     0.003 C 
ENDBRANCH   8   9
ENDBRANCH   7   8
ENDBRANCH   1   7
TORSDOF 3
ENDMDL
