MODEL 1
REMARK minimizedAffinity -4.03555155
REMARK minimizedRMSD -1
REMARK  3 active torsions:
REMARK  status: ('A' for Active; 'I' for Inactive)
REMARK    1  A    between atoms: C3'_2  and  C2'_3 
REMARK    2  A    between atoms: C2'_3  and  C1'_4 
REMARK    3  A    between atoms: C1'_4  and  C1_5 
ROOT
ATOM      1  C1  N4B d   1       0.441  -0.247  -0.047  0.00  0.00    -0.075 A 
ATOM      2  C2  N4B d   1       0.252   0.513  -1.222  0.00  0.00     0.002 A 
ATOM      3  C3  N4B d   1      -0.895   0.361  -1.961  0.00  0.00     0.002 A 
ATOM      4  C4  N4B d   1      -1.855  -0.555  -1.557  0.00  0.00    -0.004 A 
ATOM      5  C5  N4B d   1      -1.676  -1.268  -0.407  0.00  0.00     0.002 A 
ATOM      6  C6  N4B d   1      -0.529  -1.122   0.347  0.00  0.00     0.002 A 
ENDROOT
BRANCH   1   7
ATOM      7  C1' N4B d   1       1.717  -0.178   0.747  0.00  0.00     0.057 C 
BRANCH   7   8
ATOM      8  C2' N4B d   1       2.434   1.131   0.429  0.00  0.00     0.009 C 
BRANCH   8   9
ATOM      9  C3' N4B d   1       2.539   2.032   1.648  0.00  0.00     0.004 C 
ATOM     10  C4' N4B d   1       2.442   3.488   1.305  0.00  0.00     0.003 C 
ENDBRANCH   8   9
ENDBRANCH   7   8
ENDBRANCH   1   7
TORSDOF 3
ENDMDL
