MODEL 1
REMARK minimizedAffinity -1.54247713
REMARK minimizedRMSD -1
REMARK  3 active torsions:
REMARK  status: ('A' for Active; 'I' for Inactive)
REMARK    1  A    between atoms: C3'_2  and  C2'_3 
REMARK    2  A    between atoms: C2'_3  and  C1'_4 
REMARK    3  A    between atoms: C1'_4  and  C1_5 
ROOT
ATOM      1  C1  N4B d   1       0.123  -0.318  -0.274  0.00  0.00    -0.075 A 
ATOM      2  C2  N4B d   1      -0.748   0.498  -1.029  0.00  0.00     0.002 A 
ATOM      3  C3  N4B d   1      -1.989   0.030  -1.387  0.00  0.00     0.002 A 
ATOM      4  C4  N4B d   1      -2.372  -1.251  -1.019  0.00  0.00    -0.004 A 
ATOM      5  C5  N4B d   1      -1.534  -2.023  -0.268  0.00  0.00     0.002 A 
ATOM      6  C6  N4B d   1      -0.286  -1.564   0.102  0.00  0.00     0.002 A 
ENDROOT
BRANCH   1   7
ATOM      7  C1' N4B d   1       1.522   0.117   0.067  0.00  0.00     0.057 C 
BRANCH   7   8
ATOM      8  C2' N4B d   1       1.504   1.589   0.469  0.00  0.00     0.009 C 
BRANCH   8   9
ATOM      9  C3' N4B d   1       2.863   2.243   0.288  0.00  0.00     0.004 C 
ATOM     10  C4' N4B d   1       2.854   3.705   0.626  0.00  0.00     0.003 C 
ENDBRANCH   8   9
ENDBRANCH   7   8
ENDBRANCH   1   7
TORSDOF 3
ENDMDL
