MODEL 1
REMARK minimizedAffinity -5.26711512
REMARK minimizedRMSD -1
REMARK  3 active torsions:
REMARK  status: ('A' for Active; 'I' for Inactive)
REMARK    1  A    between atoms: C3'_2  and  C2'_3 
REMARK    2  A    between atoms: C2'_3  and  C1'_4 
REMARK    3  A    between atoms: C1'_4  and  C1_5 
ROOT
ATOM      1  C1  N4B d   1      -0.417   0.404  -0.183  0.00  0.00    -0.075 A 
ATOM      2  C2  N4B d   1      -0.469  -0.667   0.737  0.00  0.00     0.002 A 
ATOM      3  C3  N4B d   1      -1.336  -1.711   0.526  0.00  0.00     0.002 A 
ATOM      4  C4  N4B d   1      -2.169  -1.698  -0.583  0.00  0.00    -0.004 A 
ATOM      5  C5  N4B d   1      -2.094  -0.673  -1.480  0.00  0.00     0.002 A 
ATOM      6  C6  N4B d   1      -1.226   0.382  -1.283  0.00  0.00     0.002 A 
ENDROOT
BRANCH   1   7
ATOM      7  C1' N4B d   1       0.452   1.609   0.050  0.00  0.00     0.057 C 
BRANCH   7   8
ATOM      8  C2' N4B d   1       1.722   1.178   0.777  0.00  0.00     0.009 C 
BRANCH   8   9
ATOM      9  C3' N4B d   1       2.354   2.325   1.547  0.00  0.00     0.004 C 
ATOM     10  C4' N4B d   1       2.008   3.668   0.976  0.00  0.00     0.003 C 
ENDBRANCH   8   9
ENDBRANCH   7   8
ENDBRANCH   1   7
TORSDOF 3
ENDMDL
