MODEL 1
REMARK minimizedAffinity -1.6575855
REMARK minimizedRMSD -1
REMARK  3 active torsions:
REMARK  status: ('A' for Active; 'I' for Inactive)
REMARK    1  A    between atoms: C3'_2  and  C2'_3 
REMARK    2  A    between atoms: C2'_3  and  C1'_4 
REMARK    3  A    between atoms: C1'_4  and  C1_5 
ROOT
ATOM      1  C1  N4B d   1       0.165   0.001  -0.207  0.00  0.00    -0.075 A 
ATOM      2  C2  N4B d   1      -0.779   0.608  -1.063  0.00  0.00     0.002 A 
ATOM      3  C3  N4B d   1      -1.981  -0.011  -1.308  0.00  0.00     0.002 A 
ATOM      4  C4  N4B d   1      -2.251  -1.240  -0.726  0.00  0.00    -0.004 A 
ATOM      5  C5  N4B d   1      -1.343  -1.807   0.120  0.00  0.00     0.002 A 
ATOM      6  C6  N4B d   1      -0.134  -1.195   0.379  0.00  0.00     0.002 A 
ENDROOT
BRANCH   1   7
ATOM      7  C1' N4B d   1       1.527   0.597   0.024  0.00  0.00     0.057 C 
BRANCH   7   8
ATOM      8  C2' N4B d   1       1.450   1.590   1.180  0.00  0.00     0.009 C 
BRANCH   8   9
ATOM      9  C3' N4B d   1       2.636   2.539   1.194  0.00  0.00     0.004 C 
ATOM     10  C4' N4B d   1       2.245   3.960   0.915  0.00  0.00     0.003 C 
ENDBRANCH   8   9
ENDBRANCH   7   8
ENDBRANCH   1   7
TORSDOF 3
ENDMDL
