MODEL 1
REMARK minimizedAffinity 1.77951205
REMARK minimizedRMSD -1
REMARK  1 active torsions:
REMARK  status: ('A' for Active; 'I' for Inactive)
REMARK    1  A    between atoms: C1_2  and  C2_3 
ROOT
ATOM      1  C2  UNL d   1      -5.316   2.743  -3.486  0.00  0.00    -0.081 A 
ATOM      2  C3  UNL d   1      -4.477   3.642  -2.817  0.00  0.00     0.006 A 
ATOM      3  C4  UNL d   1      -4.317   3.565  -1.431  0.00  0.00     0.002 A 
ATOM      4  C5  UNL d   1      -4.988   2.583  -0.694  0.00  0.00    -0.080 A 
ATOM      5  C6  UNL d   1      -4.802   2.470   0.790  0.00  0.00     0.076 C 
ATOM      6  C7  UNL d   1      -5.840   1.696  -1.360  0.00  0.00     0.002 A 
ATOM      7  C8  UNL d   1      -6.000   1.774  -2.745  0.00  0.00     0.006 A 
ENDROOT
BRANCH   1   8
ATOM      8  C1  UNL d   1      -5.440   2.783  -4.988  0.00  0.00     0.054 C 
ATOM      9  C   UNL d   1      -5.717   1.399  -5.558  0.00  0.00     0.018 C 
ENDBRANCH   1   8
TORSDOF 1
ENDMDL
