MODEL 1
REMARK minimizedAffinity 6.31806135
REMARK minimizedRMSD -1
REMARK  1 active torsions:
REMARK  status: ('A' for Active; 'I' for Inactive)
REMARK    1  A    between atoms: C1_2  and  C2_3 
ROOT
ATOM      1  C2  UNL d   1       2.167  -2.748  -0.044  0.00  0.00    -0.081 A 
ATOM      2  C3  UNL d   1       2.112  -4.128  -0.278  0.00  0.00     0.006 A 
ATOM      3  C4  UNL d   1       1.014  -4.692  -0.931  0.00  0.00     0.002 A 
ATOM      4  C5  UNL d   1      -0.044  -3.887  -1.367  0.00  0.00    -0.080 A 
ATOM      5  C6  UNL d   1      -1.215  -4.476  -2.096  0.00  0.00     0.076 C 
ATOM      6  C7  UNL d   1       0.002  -2.511  -1.117  0.00  0.00     0.002 A 
ATOM      7  C8  UNL d   1       1.100  -1.946  -0.464  0.00  0.00     0.006 A 
ENDROOT
BRANCH   1   8
ATOM      8  C1  UNL d   1       3.379  -2.128   0.602  0.00  0.00     0.054 C 
ATOM      9  C   UNL d   1       4.605  -2.249  -0.292  0.00  0.00     0.018 C 
ENDBRANCH   1   8
TORSDOF 1
ENDMDL
