MODEL 1
REMARK minimizedAffinity 5.92864561
REMARK minimizedRMSD -1
REMARK  1 active torsions:
REMARK  status: ('A' for Active; 'I' for Inactive)
REMARK    1  A    between atoms: C1_2  and  C2_3 
ROOT
ATOM      1  C2  UNL d   1      -5.169   2.392  -1.004  0.00  0.00    -0.081 A 
ATOM      2  C3  UNL d   1      -6.000   1.275  -0.861  0.00  0.00     0.006 A 
ATOM      3  C4  UNL d   1      -5.900   0.458   0.268  0.00  0.00     0.002 A 
ATOM      4  C5  UNL d   1      -4.973   0.749   1.275  0.00  0.00    -0.080 A 
ATOM      5  C6  UNL d   1      -4.876  -0.102   2.506  0.00  0.00     0.076 C 
ATOM      6  C7  UNL d   1      -4.131   1.855   1.123  0.00  0.00     0.002 A 
ATOM      7  C8  UNL d   1      -4.230   2.672  -0.005  0.00  0.00     0.006 A 
ENDROOT
BRANCH   1   8
ATOM      8  C1  UNL d   1      -5.318   3.312  -2.189  0.00  0.00     0.054 C 
ATOM      9  C   UNL d   1      -5.992   2.605  -3.357  0.00  0.00     0.018 C 
ENDBRANCH   1   8
TORSDOF 1
ENDMDL
