MODEL 1
REMARK minimizedAffinity 9.12148666
REMARK minimizedRMSD -1
REMARK  1 active torsions:
REMARK  status: ('A' for Active; 'I' for Inactive)
REMARK    1  A    between atoms: C1_2  and  C2_3 
ROOT
ATOM      1  C2  UNL d   1      -4.970   3.363  -3.041  0.00  0.00    -0.081 A 
ATOM      2  C3  UNL d   1      -5.652   2.324  -2.396  0.00  0.00     0.006 A 
ATOM      3  C4  UNL d   1      -5.998   1.164  -3.092  0.00  0.00     0.002 A 
ATOM      4  C5  UNL d   1      -5.661   1.019  -4.442  0.00  0.00    -0.080 A 
ATOM      5  C6  UNL d   1      -5.999  -0.234  -5.193  0.00  0.00     0.076 C 
ATOM      6  C7  UNL d   1      -4.995   2.064  -5.092  0.00  0.00     0.002 A 
ATOM      7  C8  UNL d   1      -4.650   3.225  -4.396  0.00  0.00     0.006 A 
ENDROOT
BRANCH   1   8
ATOM      8  C1  UNL d   1      -4.539   4.589  -2.277  0.00  0.00     0.054 C 
ATOM      9  C   UNL d   1      -3.119   4.997  -2.642  0.00  0.00     0.018 C 
ENDBRANCH   1   8
TORSDOF 1
ENDMDL
