MODEL 1
REMARK minimizedAffinity 0.372563809
REMARK minimizedRMSD -1
REMARK  1 active torsions:
REMARK  status: ('A' for Active; 'I' for Inactive)
REMARK    1  A    between atoms: C1_2  and  C2_3 
ROOT
ATOM      1  C2  UNL d   1      -5.981   1.641  -4.746  0.00  0.00    -0.081 A 
ATOM      2  C3  UNL d   1      -5.985   2.837  -5.474  0.00  0.00     0.006 A 
ATOM      3  C4  UNL d   1      -5.991   4.068  -4.814  0.00  0.00     0.002 A 
ATOM      4  C5  UNL d   1      -5.986   4.123  -3.416  0.00  0.00    -0.080 A 
ATOM      5  C6  UNL d   1      -5.962   5.438  -2.695  0.00  0.00     0.076 C 
ATOM      6  C7  UNL d   1      -6.000   2.928  -2.688  0.00  0.00     0.002 A 
ATOM      7  C8  UNL d   1      -5.994   1.697  -3.348  0.00  0.00     0.006 A 
ENDROOT
BRANCH   1   8
ATOM      8  C1  UNL d   1      -5.909   0.312  -5.455  0.00  0.00     0.054 C 
ATOM      9  C   UNL d   1      -4.509   0.047  -5.991  0.00  0.00     0.018 C 
ENDBRANCH   1   8
TORSDOF 1
ENDMDL
