MODEL 1
REMARK minimizedAffinity 0.358954281
REMARK minimizedRMSD -1
REMARK  1 active torsions:
REMARK  status: ('A' for Active; 'I' for Inactive)
REMARK    1  A    between atoms: C1_2  and  C2_3 
ROOT
ATOM      1  C2  UNL d   1       1.989  -4.526  -0.429  0.00  0.00    -0.081 A 
ATOM      2  C3  UNL d   1       2.257  -3.175  -0.177  0.00  0.00     0.006 A 
ATOM      3  C4  UNL d   1       3.555  -2.674  -0.303  0.00  0.00     0.002 A 
ATOM      4  C5  UNL d   1       4.605  -3.514  -0.690  0.00  0.00    -0.080 A 
ATOM      5  C6  UNL d   1       5.997  -2.982  -0.858  0.00  0.00     0.076 C 
ATOM      6  C7  UNL d   1       4.341  -4.867  -0.925  0.00  0.00     0.002 A 
ATOM      7  C8  UNL d   1       3.043  -5.369  -0.798  0.00  0.00     0.006 A 
ENDROOT
BRANCH   1   8
ATOM      8  C1  UNL d   1       0.580  -5.055  -0.357  0.00  0.00     0.054 C 
ATOM      9  C   UNL d   1      -0.308  -4.410  -1.412  0.00  0.00     0.018 C 
ENDBRANCH   1   8
TORSDOF 1
ENDMDL
