MODEL 1
REMARK minimizedAffinity 10.9428692
REMARK minimizedRMSD -1
REMARK  1 active torsions:
REMARK  status: ('A' for Active; 'I' for Inactive)
REMARK    1  A    between atoms: C1_2  and  C2_3 
ROOT
ATOM      1  C2  UNL d   1       0.169   3.517   0.420  0.00  0.00    -0.081 A 
ATOM      2  C3  UNL d   1      -0.220   4.843   0.645  0.00  0.00     0.006 A 
ATOM      3  C4  UNL d   1      -1.017   5.514  -0.285  0.00  0.00     0.002 A 
ATOM      4  C5  UNL d   1      -1.446   4.869  -1.450  0.00  0.00    -0.080 A 
ATOM      5  C6  UNL d   1      -2.327   5.568  -2.441  0.00  0.00     0.076 C 
ATOM      6  C7  UNL d   1      -1.043   3.549  -1.683  0.00  0.00     0.002 A 
ATOM      7  C8  UNL d   1      -0.245   2.878  -0.754  0.00  0.00     0.006 A 
ENDROOT
BRANCH   1   8
ATOM      8  C1  UNL d   1       0.975   2.769   1.451  0.00  0.00     0.054 C 
ATOM      9  C   UNL d   1       0.107   2.331   2.622  0.00  0.00     0.018 C 
ENDBRANCH   1   8
TORSDOF 1
ENDMDL
