MODEL 1
REMARK minimizedAffinity 15.5364447
REMARK minimizedRMSD -1
REMARK  0 active torsions:
REMARK  status: ('A' for Active; 'I' for Inactive)
ROOT
ATOM      1  C1  DEN d   1       2.105  -3.215   0.099  0.00  0.00     0.130 A 
ATOM      2  C2  DEN d   1       2.168  -1.757   0.052  0.00  0.00    -0.031 A 
ATOM      3  C3  DEN d   1       1.182  -1.289  -0.943  0.00  0.00     0.027 A 
ATOM      4  C4  DEN d   1      -0.430  -2.674  -2.405  0.00  0.00     0.027 A 
ATOM      5  C5  DEN d   1      -0.840  -3.949  -2.725  0.00  0.00    -0.003 A 
ATOM      6  C6  DEN d   1      -0.278  -5.061  -2.156  0.00  0.00     0.001 A 
ATOM      7  C7  DEN d   1       0.695  -4.918  -1.203  0.00  0.00     0.017 A 
ATOM      8  C8  DEN d   1       1.119  -3.636  -0.880  0.00  0.00    -0.094 A 
ATOM      9  C9  DEN d   1       0.530  -2.524  -1.457  0.00  0.00    -0.072 A 
ENDROOT
TORSDOF 0
ENDMDL
