MODEL 1
REMARK minimizedAffinity 4.62635994
REMARK minimizedRMSD -1
REMARK  0 active torsions:
REMARK  status: ('A' for Active; 'I' for Inactive)
ROOT
ATOM      1  C1  DEN d   1      -0.754   4.655   0.800  0.00  0.00     0.130 A 
ATOM      2  C2  DEN d   1      -0.127   3.344   0.947  0.00  0.00    -0.031 A 
ATOM      3  C3  DEN d   1       0.113   2.799  -0.405  0.00  0.00     0.027 A 
ATOM      4  C4  DEN d   1      -0.418   3.853  -2.698  0.00  0.00     0.027 A 
ATOM      5  C5  DEN d   1      -0.963   4.949  -3.330  0.00  0.00    -0.003 A 
ATOM      6  C6  DEN d   1      -1.502   6.000  -2.636  0.00  0.00     0.001 A 
ATOM      7  C7  DEN d   1      -1.468   5.997  -1.267  0.00  0.00     0.017 A 
ATOM      8  C8  DEN d   1      -0.928   4.893  -0.622  0.00  0.00    -0.094 A 
ATOM      9  C9  DEN d   1      -0.376   3.846  -1.341  0.00  0.00    -0.072 A 
ENDROOT
TORSDOF 0
ENDMDL
