MODEL 1
REMARK minimizedAffinity 13.7075224
REMARK minimizedRMSD -1
REMARK  0 active torsions:
REMARK  status: ('A' for Active; 'I' for Inactive)
ROOT
ATOM      1  C1  DEN d   1      -0.581   3.195   0.248  0.00  0.00     0.130 A 
ATOM      2  C2  DEN d   1       0.745   3.709  -0.083  0.00  0.00    -0.031 A 
ATOM      3  C3  DEN d   1       1.689   3.233   0.948  0.00  0.00     0.027 A 
ATOM      4  C4  DEN d   1       1.229   1.754   3.010  0.00  0.00     0.027 A 
ATOM      5  C5  DEN d   1       0.255   1.083   3.716  0.00  0.00    -0.003 A 
ATOM      6  C6  DEN d   1      -1.061   1.097   3.337  0.00  0.00     0.001 A 
ATOM      7  C7  DEN d   1      -1.432   1.759   2.196  0.00  0.00     0.017 A 
ATOM      8  C8  DEN d   1      -0.457   2.444   1.484  0.00  0.00    -0.094 A 
ATOM      9  C9  DEN d   1       0.871   2.408   1.877  0.00  0.00    -0.072 A 
ENDROOT
TORSDOF 0
ENDMDL
