MODEL 1
REMARK minimizedAffinity 1.48261178
REMARK minimizedRMSD -1
REMARK  0 active torsions:
REMARK  status: ('A' for Active; 'I' for Inactive)
ROOT
ATOM      1  C1  DEN d   1      -0.764   5.055  -2.635  0.00  0.00     0.130 A 
ATOM      2  C2  DEN d   1      -1.857   5.997  -2.413  0.00  0.00    -0.031 A 
ATOM      3  C3  DEN d   1      -2.292   5.870  -1.008  0.00  0.00     0.027 A 
ATOM      4  C4  DEN d   1      -1.380   4.316   0.838  0.00  0.00     0.027 A 
ATOM      5  C5  DEN d   1      -0.462   3.329   1.122  0.00  0.00    -0.003 A 
ATOM      6  C6  DEN d   1       0.389   2.828   0.173  0.00  0.00     0.001 A 
ATOM      7  C7  DEN d   1       0.371   3.345  -1.095  0.00  0.00     0.017 A 
ATOM      8  C8  DEN d   1      -0.556   4.335  -1.392  0.00  0.00    -0.094 A 
ATOM      9  C9  DEN d   1      -1.400   4.836  -0.415  0.00  0.00    -0.072 A 
ENDROOT
TORSDOF 0
ENDMDL
