MODEL 1
REMARK minimizedAffinity 13.1183014
REMARK minimizedRMSD -1
REMARK  0 active torsions:
REMARK  status: ('A' for Active; 'I' for Inactive)
ROOT
ATOM      1  C1  DEN d   1      -0.708   5.999  -1.403  0.00  0.00     0.130 A 
ATOM      2  C2  DEN d   1      -1.479   5.734  -2.615  0.00  0.00    -0.031 A 
ATOM      3  C3  DEN d   1      -1.636   4.272  -2.746  0.00  0.00     0.027 A 
ATOM      4  C4  DEN d   1      -0.767   2.401  -1.198  0.00  0.00     0.027 A 
ATOM      5  C5  DEN d   1      -0.051   2.135  -0.052  0.00  0.00    -0.003 A 
ATOM      6  C6  DEN d   1       0.521   3.127   0.699  0.00  0.00     0.001 A 
ATOM      7  C7  DEN d   1       0.347   4.437   0.338  0.00  0.00     0.017 A 
ATOM      8  C8  DEN d   1      -0.367   4.713  -0.820  0.00  0.00    -0.094 A 
ATOM      9  C9  DEN d   1      -0.948   3.697  -1.559  0.00  0.00    -0.072 A 
ENDROOT
TORSDOF 0
ENDMDL
