MODEL 1
REMARK minimizedAffinity 9.85598183
REMARK minimizedRMSD -1
REMARK  0 active torsions:
REMARK  status: ('A' for Active; 'I' for Inactive)
ROOT
ATOM      1  C1  DEN d   1      -2.375   4.814  -3.522  0.00  0.00     0.130 A 
ATOM      2  C2  DEN d   1      -1.556   4.719  -2.317  0.00  0.00    -0.031 A 
ATOM      3  C3  DEN d   1      -2.393   4.155  -1.239  0.00  0.00     0.027 A 
ATOM      4  C4  DEN d   1      -4.864   3.420  -1.320  0.00  0.00     0.027 A 
ATOM      5  C5  DEN d   1      -5.980   3.322  -2.121  0.00  0.00    -0.003 A 
ATOM      6  C6  DEN d   1      -5.982   3.742  -3.425  0.00  0.00     0.001 A 
ATOM      7  C7  DEN d   1      -4.833   4.238  -3.980  0.00  0.00     0.017 A 
ATOM      8  C8  DEN d   1      -3.706   4.348  -3.176  0.00  0.00    -0.094 A 
ATOM      9  C9  DEN d   1      -3.720   3.907  -1.864  0.00  0.00    -0.072 A 
ENDROOT
TORSDOF 0
ENDMDL
