MODEL 1
REMARK minimizedAffinity -1.28055239
REMARK minimizedRMSD -1
REMARK  0 active torsions:
REMARK  status: ('A' for Active; 'I' for Inactive)
ROOT
ATOM      1  C   UNL d   1       1.313  -1.424  -0.369  0.00  0.00    -0.002 A 
ATOM      2  C1  UNL d   1       2.010  -0.841   0.679  0.00  0.00     0.010 A 
ATOM      3  C2  UNL d   1       1.387   0.086   1.518  0.00  0.00     0.041 A 
ATOM      4  C3  UNL d   1       0.038   0.417   1.284  0.00  0.00    -0.075 A 
ATOM      5  S   UNL d   1      -0.931   1.524   2.183  0.00  0.00     0.015 SA
ATOM      6  C4  UNL d   1      -2.293   1.248   1.197  0.00  0.00     0.022 A 
ATOM      7  C5  UNL d   1      -2.033   0.336   0.202  0.00  0.00     0.026 A 
ATOM      8  C6  UNL d   1      -0.685  -0.158   0.236  0.00  0.00    -0.082 A 
ATOM      9  C7  UNL d   1      -0.025  -1.093  -0.598  0.00  0.00     0.045 A 
ENDROOT
TORSDOF 0
ENDMDL
