MODEL 1
REMARK minimizedAffinity 4.36997652
REMARK minimizedRMSD -1
REMARK  0 active torsions:
REMARK  status: ('A' for Active; 'I' for Inactive)
ROOT
ATOM      1  C   UNL d   1      -0.996   1.641   2.589  0.00  0.00    -0.002 A 
ATOM      2  C1  UNL d   1      -0.053   2.460   1.985  0.00  0.00     0.010 A 
ATOM      3  C2  UNL d   1       0.509   2.111   0.756  0.00  0.00     0.041 A 
ATOM      4  C3  UNL d   1       0.101   0.913   0.136  0.00  0.00    -0.075 A 
ATOM      5  S   UNL d   1       0.652   0.282  -1.371  0.00  0.00     0.015 SA
ATOM      6  C4  UNL d   1      -0.352  -1.089  -1.250  0.00  0.00     0.022 A 
ATOM      7  C5  UNL d   1      -1.096  -1.083  -0.094  0.00  0.00     0.026 A 
ATOM      8  C6  UNL d   1      -0.848   0.072   0.724  0.00  0.00    -0.082 A 
ATOM      9  C7  UNL d   1      -1.398   0.453   1.971  0.00  0.00     0.045 A 
ENDROOT
TORSDOF 0
ENDMDL
