MODEL 1
REMARK minimizedAffinity -1.24695098
REMARK minimizedRMSD -1
REMARK  0 active torsions:
REMARK  status: ('A' for Active; 'I' for Inactive)
ROOT
ATOM      1  C   UNL d   1       0.754  -0.101  -3.550  0.00  0.00    -0.002 A 
ATOM      2  C1  UNL d   1       1.986   0.305  -3.057  0.00  0.00     0.010 A 
ATOM      3  C2  UNL d   1       2.179   0.481  -1.685  0.00  0.00     0.041 A 
ATOM      4  C3  UNL d   1       1.103   0.238  -0.809  0.00  0.00    -0.075 A 
ATOM      5  S   UNL d   1       1.106   0.387   0.909  0.00  0.00     0.015 SA
ATOM      6  C4  UNL d   1      -0.527  -0.086   1.028  0.00  0.00     0.022 A 
ATOM      7  C5  UNL d   1      -1.077  -0.354  -0.203  0.00  0.00     0.026 A 
ATOM      8  C6  UNL d   1      -0.147  -0.173  -1.282  0.00  0.00    -0.082 A 
ATOM      9  C7  UNL d   1      -0.311  -0.341  -2.678  0.00  0.00     0.045 A 
ENDROOT
TORSDOF 0
ENDMDL
