MODEL 1
REMARK minimizedAffinity -4.59633875
REMARK minimizedRMSD -1
REMARK  0 active torsions:
REMARK  status: ('A' for Active; 'I' for Inactive)
ROOT
ATOM      1  C   UNL d   1      -1.122   1.507   2.602  0.00  0.00    -0.002 A 
ATOM      2  C1  UNL d   1       0.253   1.675   2.692  0.00  0.00     0.010 A 
ATOM      3  C2  UNL d   1       1.108   1.026   1.799  0.00  0.00     0.041 A 
ATOM      4  C3  UNL d   1       0.553   0.199   0.803  0.00  0.00    -0.075 A 
ATOM      5  S   UNL d   1       1.405  -0.695  -0.400  0.00  0.00     0.015 SA
ATOM      6  C4  UNL d   1      -0.035  -1.320  -1.063  0.00  0.00     0.022 A 
ATOM      7  C5  UNL d   1      -1.148  -0.869  -0.395  0.00  0.00     0.026 A 
ATOM      8  C6  UNL d   1      -0.828   0.014   0.691  0.00  0.00    -0.082 A 
ATOM      9  C7  UNL d   1      -1.669   0.685   1.612  0.00  0.00     0.045 A 
ENDROOT
TORSDOF 0
ENDMDL
