MODEL 1
REMARK minimizedAffinity -1.90987849
REMARK minimizedRMSD -1
REMARK  0 active torsions:
REMARK  status: ('A' for Active; 'I' for Inactive)
ROOT
ATOM      1  C   UNL d   1      -0.739   1.695   2.464  0.00  0.00    -0.002 A 
ATOM      2  C1  UNL d   1      -0.201   2.713   1.689  0.00  0.00     0.010 A 
ATOM      3  C2  UNL d   1       0.156   2.481   0.360  0.00  0.00     0.041 A 
ATOM      4  C3  UNL d   1      -0.039   1.197  -0.184  0.00  0.00    -0.075 A 
ATOM      5  S   UNL d   1       0.324   0.681  -1.789  0.00  0.00     0.015 SA
ATOM      6  C4  UNL d   1      -0.226  -0.903  -1.484  0.00  0.00     0.022 A 
ATOM      7  C5  UNL d   1      -0.679  -1.053  -0.195  0.00  0.00     0.026 A 
ATOM      8  C6  UNL d   1      -0.579   0.155   0.576  0.00  0.00    -0.082 A 
ATOM      9  C7  UNL d   1      -0.931   0.422   1.921  0.00  0.00     0.045 A 
ENDROOT
TORSDOF 0
ENDMDL
