MODEL 1
REMARK minimizedAffinity 16.0598316
REMARK minimizedRMSD -1
REMARK  1 active torsions:
REMARK  status: ('A' for Active; 'I' for Inactive)
REMARK    1  A    between atoms: C1_2  and  C2_3 
ROOT
ATOM      1  C2  UNL d   1       3.111   1.991  -5.737  0.00  0.00    -0.076 A 
ATOM      2  C3  UNL d   1       2.896   3.380  -5.755  0.00  0.00     0.004 A 
ATOM      3  C4  UNL d   1       3.961   4.269  -5.883  0.00  0.00    -0.003 A 
ATOM      4  C5  UNL d   1       5.260   3.784  -5.997  0.00  0.00     0.000 A 
ATOM      5  C6  UNL d   1       5.490   2.408  -5.999  0.00  0.00     0.000 A 
ATOM      6  C7  UNL d   1       4.425   1.498  -5.886  0.00  0.00    -0.073 A 
ATOM      7  C8  UNL d   1       4.731   0.025  -5.888  0.00  0.00     0.078 C 
ENDROOT
BRANCH   1   8
ATOM      8  C1  UNL d   1       1.919   1.076  -5.567  0.00  0.00     0.053 C 
ATOM      9  C   UNL d   1       2.227  -0.124  -4.684  0.00  0.00     0.018 C 
ENDBRANCH   1   8
TORSDOF 1
ENDMDL
