MODEL 1
REMARK minimizedAffinity 13.5099497
REMARK minimizedRMSD -1
REMARK  1 active torsions:
REMARK  status: ('A' for Active; 'I' for Inactive)
REMARK    1  A    between atoms: C1_2  and  C2_3 
ROOT
ATOM      1  C2  UNL d   1      -5.196   4.791   3.838  0.00  0.00    -0.076 A 
ATOM      2  C3  UNL d   1      -5.914   5.345   4.912  0.00  0.00     0.004 A 
ATOM      3  C4  UNL d   1      -5.254   5.944   5.984  0.00  0.00    -0.003 A 
ATOM      4  C5  UNL d   1      -3.865   6.000   5.998  0.00  0.00     0.000 A 
ATOM      5  C6  UNL d   1      -3.137   5.471   4.933  0.00  0.00     0.000 A 
ATOM      6  C7  UNL d   1      -3.787   4.878   3.837  0.00  0.00    -0.073 A 
ATOM      7  C8  UNL d   1      -2.952   4.319   2.718  0.00  0.00     0.078 C 
ENDROOT
BRANCH   1   8
ATOM      8  C1  UNL d   1      -5.965   4.130   2.717  0.00  0.00     0.053 C 
ATOM      9  C   UNL d   1      -5.125   3.119   1.951  0.00  0.00     0.018 C 
ENDBRANCH   1   8
TORSDOF 1
ENDMDL
