MODEL 1
REMARK minimizedAffinity 18.5878963
REMARK minimizedRMSD -1
REMARK  1 active torsions:
REMARK  status: ('A' for Active; 'I' for Inactive)
REMARK    1  A    between atoms: C1_2  and  C2_3 
ROOT
ATOM      1  C2  UNL d   1      -3.751   2.710   1.203  0.00  0.00    -0.076 A 
ATOM      2  C3  UNL d   1      -3.057   3.608   2.032  0.00  0.00     0.004 A 
ATOM      3  C4  UNL d   1      -1.753   3.341   2.446  0.00  0.00    -0.003 A 
ATOM      4  C5  UNL d   1      -1.122   2.172   2.038  0.00  0.00     0.000 A 
ATOM      5  C6  UNL d   1      -1.789   1.278   1.201  0.00  0.00     0.000 A 
ATOM      6  C7  UNL d   1      -3.098   1.540   0.761  0.00  0.00    -0.073 A 
ATOM      7  C8  UNL d   1      -3.772   0.538  -0.136  0.00  0.00     0.078 C 
ENDROOT
BRANCH   1   8
ATOM      8  C1  UNL d   1      -5.173   3.039   0.808  0.00  0.00     0.053 C 
ATOM      9  C   UNL d   1      -5.931   3.764   1.910  0.00  0.00     0.018 C 
ENDBRANCH   1   8
TORSDOF 1
ENDMDL
