MODEL 1
REMARK minimizedAffinity 17.069006
REMARK minimizedRMSD -1
REMARK  1 active torsions:
REMARK  status: ('A' for Active; 'I' for Inactive)
REMARK    1  A    between atoms: C1_2  and  C2_3 
ROOT
ATOM      1  C2  UNL d   1       3.646   2.501  -5.571  0.00  0.00    -0.076 A 
ATOM      2  C3  UNL d   1       2.323   2.719  -5.993  0.00  0.00     0.004 A 
ATOM      3  C4  UNL d   1       1.773   4.000  -5.996  0.00  0.00    -0.003 A 
ATOM      4  C5  UNL d   1       2.537   5.084  -5.577  0.00  0.00     0.000 A 
ATOM      5  C6  UNL d   1       3.857   4.888  -5.171  0.00  0.00     0.000 A 
ATOM      6  C7  UNL d   1       4.432   3.605  -5.179  0.00  0.00    -0.073 A 
ATOM      7  C8  UNL d   1       5.859   3.451  -4.726  0.00  0.00     0.078 C 
ENDROOT
BRANCH   1   8
ATOM      8  C1  UNL d   1       4.180   1.086  -5.565  0.00  0.00     0.053 C 
ATOM      9  C   UNL d   1       3.502   0.213  -4.521  0.00  0.00     0.018 C 
ENDBRANCH   1   8
TORSDOF 1
ENDMDL
