MODEL 1
REMARK minimizedAffinity 5.49506664
REMARK minimizedRMSD -1
REMARK  1 active torsions:
REMARK  status: ('A' for Active; 'I' for Inactive)
REMARK    1  A    between atoms: C1_2  and  C2_3 
ROOT
ATOM      1  C2  UNL d   1      -1.322   1.062   2.339  0.00  0.00    -0.076 A 
ATOM      2  C3  UNL d   1      -2.040  -0.022   2.874  0.00  0.00     0.004 A 
ATOM      3  C4  UNL d   1      -1.388  -1.050   3.553  0.00  0.00    -0.003 A 
ATOM      4  C5  UNL d   1      -0.007  -1.010   3.709  0.00  0.00     0.000 A 
ATOM      5  C6  UNL d   1       0.719   0.066   3.201  0.00  0.00     0.000 A 
ATOM      6  C7  UNL d   1       0.076   1.118   2.528  0.00  0.00    -0.073 A 
ATOM      7  C8  UNL d   1       0.909   2.251   1.995  0.00  0.00     0.078 C 
ENDROOT
BRANCH   1   8
ATOM      8  C1  UNL d   1      -2.080   2.134   1.589  0.00  0.00     0.053 C 
ATOM      9  C   UNL d   1      -2.952   2.980   2.504  0.00  0.00     0.018 C 
ENDBRANCH   1   8
TORSDOF 1
ENDMDL
