MODEL 1
REMARK minimizedAffinity 10.6019363
REMARK minimizedRMSD -1
REMARK  1 active torsions:
REMARK  status: ('A' for Active; 'I' for Inactive)
REMARK    1  A    between atoms: C1_2  and  C2_3 
ROOT
ATOM      1  C2  UNL d   1      -0.739  -0.668  -5.288  0.00  0.00    -0.076 A 
ATOM      2  C3  UNL d   1      -0.384  -2.028  -5.311  0.00  0.00     0.004 A 
ATOM      3  C4  UNL d   1      -1.313  -3.006  -5.664  0.00  0.00    -0.003 A 
ATOM      4  C5  UNL d   1      -2.611  -2.640  -6.000  0.00  0.00     0.000 A 
ATOM      5  C6  UNL d   1      -2.976  -1.294  -6.000  0.00  0.00     0.000 A 
ATOM      6  C7  UNL d   1      -2.047  -0.294  -5.663  0.00  0.00    -0.073 A 
ATOM      7  C8  UNL d   1      -2.496   1.142  -5.673  0.00  0.00     0.078 C 
ENDROOT
BRANCH   1   8
ATOM      8  C1  UNL d   1       0.303   0.345  -4.872  0.00  0.00     0.053 C 
ATOM      9  C   UNL d   1       1.250  -0.196  -3.811  0.00  0.00     0.018 C 
ENDBRANCH   1   8
TORSDOF 1
ENDMDL
