MODEL 1
REMARK minimizedAffinity 19.8990364
REMARK minimizedRMSD -1
REMARK  1 active torsions:
REMARK  status: ('A' for Active; 'I' for Inactive)
REMARK    1  A    between atoms: C1_2  and  C2_3 
ROOT
ATOM      1  C2  UNL d   1       2.885   4.654  -3.511  0.00  0.00    -0.076 A 
ATOM      2  C3  UNL d   1       4.173   4.135  -3.727  0.00  0.00     0.004 A 
ATOM      3  C4  UNL d   1       4.806   4.277  -4.961  0.00  0.00    -0.003 A 
ATOM      4  C5  UNL d   1       4.161   4.942  -5.998  0.00  0.00     0.000 A 
ATOM      5  C6  UNL d   1       2.890   5.478  -5.796  0.00  0.00     0.000 A 
ATOM      6  C7  UNL d   1       2.245   5.358  -4.554  0.00  0.00    -0.073 A 
ATOM      7  C8  UNL d   1       0.871   5.950  -4.393  0.00  0.00     0.078 C 
ENDROOT
BRANCH   1   8
ATOM      8  C1  UNL d   1       2.237   4.445  -2.161  0.00  0.00     0.053 C 
ATOM      9  C   UNL d   1       2.252   2.988  -1.726  0.00  0.00     0.018 C 
ENDBRANCH   1   8
TORSDOF 1
ENDMDL
