MODEL 1
REMARK minimizedAffinity 7.74043417
REMARK minimizedRMSD -1
REMARK  1 active torsions:
REMARK  status: ('A' for Active; 'I' for Inactive)
REMARK    1  A    between atoms: C1_2  and  C2_3 
ROOT
ATOM      1  C2  UNL d   1      -4.070   0.493   1.726  0.00  0.00    -0.076 A 
ATOM      2  C3  UNL d   1      -3.276  -0.644   1.958  0.00  0.00     0.004 A 
ATOM      3  C4  UNL d   1      -1.888  -0.546   2.038  0.00  0.00    -0.003 A 
ATOM      4  C5  UNL d   1      -1.271   0.691   1.888  0.00  0.00     0.000 A 
ATOM      5  C6  UNL d   1      -2.043   1.832   1.675  0.00  0.00     0.000 A 
ATOM      6  C7  UNL d   1      -3.445   1.754   1.608  0.00  0.00    -0.073 A 
ATOM      7  C8  UNL d   1      -4.228   3.015   1.371  0.00  0.00     0.078 C 
ENDROOT
BRANCH   1   8
ATOM      8  C1  UNL d   1      -5.568   0.322   1.622  0.00  0.00     0.053 C 
ATOM      9  C   UNL d   1      -5.996  -1.134   1.718  0.00  0.00     0.018 C 
ENDBRANCH   1   8
TORSDOF 1
ENDMDL
