MODEL 1
REMARK minimizedAffinity 14.9755602
REMARK minimizedRMSD -1
REMARK  1 active torsions:
REMARK  status: ('A' for Active; 'I' for Inactive)
REMARK    1  A    between atoms: C1_2  and  C2_3 
ROOT
ATOM      1  C2  UNL d   1      -3.526  -1.948   0.898  0.00  0.00    -0.076 A 
ATOM      2  C3  UNL d   1      -2.156  -1.726   0.672  0.00  0.00     0.004 A 
ATOM      3  C4  UNL d   1      -1.440  -0.816   1.447  0.00  0.00    -0.003 A 
ATOM      4  C5  UNL d   1      -2.081  -0.113   2.461  0.00  0.00     0.000 A 
ATOM      5  C6  UNL d   1      -3.435  -0.333   2.711  0.00  0.00     0.000 A 
ATOM      6  C7  UNL d   1      -4.168  -1.259   1.949  0.00  0.00    -0.073 A 
ATOM      7  C8  UNL d   1      -5.628  -1.453   2.258  0.00  0.00     0.078 C 
ENDROOT
BRANCH   1   8
ATOM      8  C1  UNL d   1      -4.257  -2.927   0.008  0.00  0.00     0.053 C 
ATOM      9  C   UNL d   1      -4.918  -2.251  -1.183  0.00  0.00     0.018 C 
ENDBRANCH   1   8
TORSDOF 1
ENDMDL
