MODEL 1
REMARK minimizedAffinity -0.0813451484
REMARK minimizedRMSD -1
REMARK  0 active torsions:
REMARK  status: ('A' for Active; 'I' for Inactive)
ROOT
ATOM      1  C1  BNZ d   1      -3.599   3.557  -2.759  0.00  0.00     0.000 A 
ATOM      2  C2  BNZ d   1      -3.006   2.868  -3.783  0.00  0.00     0.000 A 
ATOM      3  C3  BNZ d   1      -2.241   1.764  -3.532  0.00  0.00     0.000 A 
ATOM      4  C4  BNZ d   1      -2.036   1.374  -2.258  0.00  0.00     0.000 A 
ATOM      5  C5  BNZ d   1      -2.619   2.064  -1.214  0.00  0.00     0.000 A 
ATOM      6  C6  BNZ d   1      -3.420   3.152  -1.472  0.00  0.00     0.000 A 
ENDROOT
TORSDOF 0
ENDMDL
