MODEL 1
REMARK minimizedAffinity 1.17325258
REMARK minimizedRMSD -1
REMARK  0 active torsions:
REMARK  status: ('A' for Active; 'I' for Inactive)
ROOT
ATOM      1  C1  BNZ d   1       0.814   2.009  -0.023  0.00  0.00     0.000 A 
ATOM      2  C2  BNZ d   1       0.313   1.554   1.167  0.00  0.00     0.000 A 
ATOM      3  C3  BNZ d   1      -0.461   0.428   1.216  0.00  0.00     0.000 A 
ATOM      4  C4  BNZ d   1      -0.766  -0.217   0.071  0.00  0.00     0.000 A 
ATOM      5  C5  BNZ d   1      -0.276   0.235  -1.138  0.00  0.00     0.000 A 
ATOM      6  C6  BNZ d   1       0.535   1.346  -1.178  0.00  0.00     0.000 A 
ENDROOT
TORSDOF 0
ENDMDL
