MODEL 1
REMARK minimizedAffinity 1.4269067
REMARK minimizedRMSD -1
REMARK  0 active torsions:
REMARK  status: ('A' for Active; 'I' for Inactive)
ROOT
ATOM      1  C1  BNZ d   1      -3.722  -3.543  -2.142  0.00  0.00     0.000 A 
ATOM      2  C2  BNZ d   1      -4.205  -2.483  -2.861  0.00  0.00     0.000 A 
ATOM      3  C3  BNZ d   1      -3.354  -1.587  -3.446  0.00  0.00     0.000 A 
ATOM      4  C4  BNZ d   1      -2.024  -1.731  -3.278  0.00  0.00     0.000 A 
ATOM      5  C5  BNZ d   1      -1.521  -2.789  -2.548  0.00  0.00     0.000 A 
ATOM      6  C6  BNZ d   1      -2.380  -3.711  -1.993  0.00  0.00     0.000 A 
ENDROOT
TORSDOF 0
ENDMDL
