MODEL 1
REMARK minimizedAffinity -2.38279223
REMARK minimizedRMSD -1
REMARK  0 active torsions:
REMARK  status: ('A' for Active; 'I' for Inactive)
ROOT
ATOM      1  C1  BNZ d   1       3.018  -5.998  -4.780  0.00  0.00     0.000 A 
ATOM      2  C2  BNZ d   1       3.760  -5.963  -5.931  0.00  0.00     0.000 A 
ATOM      3  C3  BNZ d   1       4.909  -5.227  -6.000  0.00  0.00     0.000 A 
ATOM      4  C4  BNZ d   1       5.293  -4.496  -4.933  0.00  0.00     0.000 A 
ATOM      5  C5  BNZ d   1       4.551  -4.513  -3.769  0.00  0.00     0.000 A 
ATOM      6  C6  BNZ d   1       3.415  -5.287  -3.691  0.00  0.00     0.000 A 
ENDROOT
TORSDOF 0
ENDMDL
