MODEL 1
REMARK minimizedAffinity -1.16663682
REMARK minimizedRMSD -1
REMARK  0 active torsions:
REMARK  status: ('A' for Active; 'I' for Inactive)
ROOT
ATOM      1  C1  BNZ d   1       3.586  -2.018  -5.966  0.00  0.00     0.000 A 
ATOM      2  C2  BNZ d   1       3.175  -0.712  -5.959  0.00  0.00     0.000 A 
ATOM      3  C3  BNZ d   1       4.084   0.309  -5.996  0.00  0.00     0.000 A 
ATOM      4  C4  BNZ d   1       5.402   0.023  -5.999  0.00  0.00     0.000 A 
ATOM      5  C5  BNZ d   1       5.832  -1.289  -5.998  0.00  0.00     0.000 A 
ATOM      6  C6  BNZ d   1       4.914  -2.314  -6.000  0.00  0.00     0.000 A 
ENDROOT
TORSDOF 0
ENDMDL
