MODEL 1
REMARK minimizedAffinity 0.29202944
REMARK minimizedRMSD -1
REMARK  0 active torsions:
REMARK  status: ('A' for Active; 'I' for Inactive)
ROOT
ATOM      1  C1  BNZ d   1       0.974  -4.023  -1.625  0.00  0.00     0.000 A 
ATOM      2  C2  BNZ d   1       1.435  -3.266  -0.582  0.00  0.00     0.000 A 
ATOM      3  C3  BNZ d   1       0.738  -2.173  -0.149  0.00  0.00     0.000 A 
ATOM      4  C4  BNZ d   1      -0.397  -1.816  -0.784  0.00  0.00     0.000 A 
ATOM      5  C5  BNZ d   1      -0.870  -2.564  -1.843  0.00  0.00     0.000 A 
ATOM      6  C6  BNZ d   1      -0.186  -3.686  -2.252  0.00  0.00     0.000 A 
ENDROOT
TORSDOF 0
ENDMDL
