MODEL 1
REMARK minimizedAffinity 2.89613366
REMARK minimizedRMSD -1
REMARK  0 active torsions:
REMARK  status: ('A' for Active; 'I' for Inactive)
ROOT
ATOM      1  C1  BNZ d   1       2.673   2.317   1.753  0.00  0.00     0.000 A 
ATOM      2  C2  BNZ d   1       2.799   2.608   3.086  0.00  0.00     0.000 A 
ATOM      3  C3  BNZ d   1       2.555   1.657   4.036  0.00  0.00     0.000 A 
ATOM      4  C4  BNZ d   1       2.147   0.429   3.656  0.00  0.00     0.000 A 
ATOM      5  C5  BNZ d   1       2.006   0.122   2.317  0.00  0.00     0.000 A 
ATOM      6  C6  BNZ d   1       2.290   1.071   1.362  0.00  0.00     0.000 A 
ENDROOT
TORSDOF 0
ENDMDL
