MODEL 1
REMARK minimizedAffinity 4.88868141
REMARK minimizedRMSD -1
REMARK  0 active torsions:
REMARK  status: ('A' for Active; 'I' for Inactive)
ROOT
ATOM      1  C1  BNZ d   1       2.602   1.373   1.499  0.00  0.00     0.000 A 
ATOM      2  C2  BNZ d   1       2.807   2.665   1.903  0.00  0.00     0.000 A 
ATOM      3  C3  BNZ d   1       2.914   2.975   3.230  0.00  0.00     0.000 A 
ATOM      4  C4  BNZ d   1       2.775   2.000   4.152  0.00  0.00     0.000 A 
ATOM      5  C5  BNZ d   1       2.558   0.694   3.761  0.00  0.00     0.000 A 
ATOM      6  C6  BNZ d   1       2.490   0.379   2.423  0.00  0.00     0.000 A 
ENDROOT
TORSDOF 0
ENDMDL
