MODEL 1
REMARK minimizedAffinity -0.2576029
REMARK minimizedRMSD -1
REMARK  0 active torsions:
REMARK  status: ('A' for Active; 'I' for Inactive)
ROOT
ATOM      1  C1  BNZ d   1      -0.620  -2.032   0.469  0.00  0.00     0.000 A 
ATOM      2  C2  BNZ d   1      -0.445  -0.721   0.826  0.00  0.00     0.000 A 
ATOM      3  C3  BNZ d   1      -0.739   0.288  -0.048  0.00  0.00     0.000 A 
ATOM      4  C4  BNZ d   1      -1.170  -0.016  -1.290  0.00  0.00     0.000 A 
ATOM      5  C5  BNZ d   1      -1.342  -1.333  -1.668  0.00  0.00     0.000 A 
ATOM      6  C6  BNZ d   1      -1.082  -2.344  -0.772  0.00  0.00     0.000 A 
ENDROOT
TORSDOF 0
ENDMDL
