MODEL 1
REMARK minimizedAffinity 2.03110266
REMARK minimizedRMSD -1
REMARK  0 active torsions:
REMARK  status: ('A' for Active; 'I' for Inactive)
ROOT
ATOM      1  C1  BNZ d   1      -2.057   0.101  -3.658  0.00  0.00     0.000 A 
ATOM      2  C2  BNZ d   1      -1.593  -0.012  -2.375  0.00  0.00     0.000 A 
ATOM      3  C3  BNZ d   1      -1.940   0.905  -1.422  0.00  0.00     0.000 A 
ATOM      4  C4  BNZ d   1      -2.716   1.954  -1.763  0.00  0.00     0.000 A 
ATOM      5  C5  BNZ d   1      -3.184   2.087  -3.056  0.00  0.00     0.000 A 
ATOM      6  C6  BNZ d   1      -2.865   1.141  -4.002  0.00  0.00     0.000 A 
ENDROOT
TORSDOF 0
ENDMDL
