MODEL 1
REMARK minimizedAffinity -1.8692261
REMARK minimizedRMSD -1
REMARK  0 active torsions:
REMARK  status: ('A' for Active; 'I' for Inactive)
ROOT
ATOM      1  C1  BNZ d   1       2.833   0.068   0.539  0.00  0.00     0.000 A 
ATOM      2  C2  BNZ d   1       2.841  -1.141   1.182  0.00  0.00     0.000 A 
ATOM      3  C3  BNZ d   1       2.624  -1.220   2.529  0.00  0.00     0.000 A 
ATOM      4  C4  BNZ d   1       2.439  -0.088   3.238  0.00  0.00     0.000 A 
ATOM      5  C5  BNZ d   1       2.437   1.140   2.606  0.00  0.00     0.000 A 
ATOM      6  C6  BNZ d   1       2.617   1.213   1.244  0.00  0.00     0.000 A 
ENDROOT
TORSDOF 0
ENDMDL
