MODEL 1
REMARK minimizedAffinity -2.22116804
REMARK minimizedRMSD -1
REMARK  0 active torsions:
REMARK  status: ('A' for Active; 'I' for Inactive)
ROOT
ATOM      1  C1  BNZ d   1       3.493  -5.258  -3.681  0.00  0.00     0.000 A 
ATOM      2  C2  BNZ d   1       3.758  -3.915  -3.708  0.00  0.00     0.000 A 
ATOM      3  C3  BNZ d   1       4.115  -3.295  -4.874  0.00  0.00     0.000 A 
ATOM      4  C4  BNZ d   1       4.245  -4.026  -6.000  0.00  0.00     0.000 A 
ATOM      5  C5  BNZ d   1       3.990  -5.383  -5.986  0.00  0.00     0.000 A 
ATOM      6  C6  BNZ d   1       3.594  -5.996  -4.820  0.00  0.00     0.000 A 
ENDROOT
TORSDOF 0
ENDMDL
