MODEL 1
REMARK minimizedAffinity 2.99215221
REMARK minimizedRMSD -1
REMARK  0 active torsions:
REMARK  status: ('A' for Active; 'I' for Inactive)
ROOT
ATOM      1  C1  BNZ d   1       0.760  -3.596  -0.547  0.00  0.00     0.000 A 
ATOM      2  C2  BNZ d   1       1.036  -2.806   0.536  0.00  0.00     0.000 A 
ATOM      3  C3  BNZ d   1       0.066  -2.022   1.096  0.00  0.00     0.000 A 
ATOM      4  C4  BNZ d   1      -1.166  -1.999   0.547  0.00  0.00     0.000 A 
ATOM      5  C5  BNZ d   1      -1.457  -2.783  -0.551  0.00  0.00     0.000 A 
ATOM      6  C6  BNZ d   1      -0.489  -3.601  -1.087  0.00  0.00     0.000 A 
ENDROOT
TORSDOF 0
ENDMDL
