MODEL 1
REMARK minimizedAffinity 7.06208324
REMARK minimizedRMSD -1
REMARK  1 active torsions:
REMARK  status: ('A' for Active; 'I' for Inactive)
REMARK    1  A    between atoms: C1_2  and  C2_3 
ROOT
ATOM      1  C2  UNL d   1       3.312   3.240   4.220  0.00  0.00    -0.073 A 
ATOM      2  C3  UNL d   1       3.848   3.076   5.503  0.00  0.00    -0.002 A 
ATOM      3  C4  UNL d   1       4.933   3.850   5.917  0.00  0.00     0.004 A 
ATOM      4  C5  UNL d   1       5.488   4.798   5.058  0.00  0.00    -0.004 A 
ATOM      5  C6  UNL d   1       4.959   4.985   3.777  0.00  0.00    -0.075 A 
ATOM      6  C7  UNL d   1       5.546   5.999   2.840  0.00  0.00     0.076 C 
ATOM      7  C8  UNL d   1       3.871   4.202   3.367  0.00  0.00     0.001 A 
ENDROOT
BRANCH   1   8
ATOM      8  C1  UNL d   1       2.136   2.412   3.771  0.00  0.00     0.053 C 
ATOM      9  C   UNL d   1       2.348   1.828   2.383  0.00  0.00     0.018 C 
ENDBRANCH   1   8
TORSDOF 1
ENDMDL
