MODEL 1
REMARK minimizedAffinity 18.2318935
REMARK minimizedRMSD -1
REMARK  1 active torsions:
REMARK  status: ('A' for Active; 'I' for Inactive)
REMARK    1  A    between atoms: C1_2  and  C2_3 
ROOT
ATOM      1  C2  UNL d   1       0.531  -3.260   4.435  0.00  0.00    -0.073 A 
ATOM      2  C3  UNL d   1      -0.748  -3.649   4.849  0.00  0.00    -0.002 A 
ATOM      3  C4  UNL d   1      -0.920  -4.796   5.624  0.00  0.00     0.004 A 
ATOM      4  C5  UNL d   1       0.183  -5.562   5.999  0.00  0.00    -0.004 A 
ATOM      5  C6  UNL d   1       1.471  -5.184   5.606  0.00  0.00    -0.075 A 
ATOM      6  C7  UNL d   1       2.668  -5.998   5.999  0.00  0.00     0.076 C 
ATOM      7  C8  UNL d   1       1.635  -4.032   4.825  0.00  0.00     0.001 A 
ENDROOT
BRANCH   1   8
ATOM      8  C1  UNL d   1       0.723  -2.018   3.604  0.00  0.00     0.053 C 
ATOM      9  C   UNL d   1       1.838  -2.182   2.584  0.00  0.00     0.018 C 
ENDBRANCH   1   8
TORSDOF 1
ENDMDL
