MODEL 1
REMARK minimizedAffinity 18.7138023
REMARK minimizedRMSD -1
REMARK  1 active torsions:
REMARK  status: ('A' for Active; 'I' for Inactive)
REMARK    1  A    between atoms: C1_2  and  C2_3 
ROOT
ATOM      1  C2  UNL d   1      -0.553   1.123  -0.823  0.00  0.00    -0.073 A 
ATOM      2  C3  UNL d   1      -0.565   0.467  -2.060  0.00  0.00    -0.002 A 
ATOM      3  C4  UNL d   1      -1.736  -0.130  -2.529  0.00  0.00     0.004 A 
ATOM      4  C5  UNL d   1      -2.905  -0.074  -1.771  0.00  0.00    -0.004 A 
ATOM      5  C6  UNL d   1      -2.916   0.587  -0.539  0.00  0.00    -0.075 A 
ATOM      6  C7  UNL d   1      -4.165   0.655   0.290  0.00  0.00     0.076 C 
ATOM      7  C8  UNL d   1      -1.736   1.182  -0.073  0.00  0.00     0.001 A 
ENDROOT
BRANCH   1   8
ATOM      8  C1  UNL d   1       0.707   1.775  -0.315  0.00  0.00     0.053 C 
ATOM      9  C   UNL d   1       1.210   1.125   0.964  0.00  0.00     0.018 C 
ENDBRANCH   1   8
TORSDOF 1
ENDMDL
