MODEL 1
REMARK minimizedAffinity 4.94738817
REMARK minimizedRMSD -1
REMARK  1 active torsions:
REMARK  status: ('A' for Active; 'I' for Inactive)
REMARK    1  A    between atoms: C1_2  and  C2_3 
ROOT
ATOM      1  C2  UNL d   1       3.106   0.613  -0.525  0.00  0.00    -0.073 A 
ATOM      2  C3  UNL d   1       3.424   0.473  -1.881  0.00  0.00    -0.002 A 
ATOM      3  C4  UNL d   1       4.384   1.298  -2.469  0.00  0.00     0.004 A 
ATOM      4  C5  UNL d   1       5.041   2.264  -1.707  0.00  0.00    -0.004 A 
ATOM      5  C6  UNL d   1       4.746   2.411  -0.348  0.00  0.00    -0.075 A 
ATOM      6  C7  UNL d   1       5.442   3.447   0.485  0.00  0.00     0.076 C 
ATOM      7  C8  UNL d   1       3.779   1.581   0.235  0.00  0.00     0.001 A 
ENDROOT
BRANCH   1   8
ATOM      8  C1  UNL d   1       2.075  -0.279   0.116  0.00  0.00     0.053 C 
ATOM      9  C   UNL d   1       2.618  -1.672   0.392  0.00  0.00     0.018 C 
ENDBRANCH   1   8
TORSDOF 1
ENDMDL
