MODEL 1
REMARK minimizedAffinity -2.02753043
REMARK minimizedRMSD -1
REMARK  0 active torsions:
REMARK  status: ('A' for Active; 'I' for Inactive)
ROOT
ATOM      1  O1  BZF d   1       1.046   0.334  -3.532  0.00  0.00    -0.204 OA
ATOM      2  C2  BZF d   1       1.167   1.672  -3.854  0.00  0.00     0.174 A 
ATOM      3  C3  BZF d   1       0.887   2.449  -2.788  0.00  0.00    -0.012 A 
ATOM      4  C3A BZF d   1       0.661   1.537  -1.708  0.00  0.00    -0.107 A 
ATOM      5  C4  BZF d   1       0.356   1.704  -0.388  0.00  0.00     0.055 A 
ATOM      6  C5  BZF d   1       0.128   0.606   0.381  0.00  0.00    -0.016 A 
ATOM      7  C6  BZF d   1       0.191  -0.670  -0.139  0.00  0.00     0.022 A 
ATOM      8  C7  BZF d   1       0.495  -0.885  -1.442  0.00  0.00     0.029 A 
ATOM      9  C7A BZF d   1       0.758   0.220  -2.213  0.00  0.00     0.058 A 
ENDROOT
TORSDOF 0
ENDMDL
