MODEL 1
REMARK minimizedAffinity -1.09893453
REMARK minimizedRMSD -1
REMARK  0 active torsions:
REMARK  status: ('A' for Active; 'I' for Inactive)
ROOT
ATOM      1  O1  BZF d   1      -1.016   0.144  -0.231  0.00  0.00    -0.204 OA
ATOM      2  C2  BZF d   1      -0.112   1.080  -0.695  0.00  0.00     0.174 A 
ATOM      3  C3  BZF d   1       1.107   0.878  -0.153  0.00  0.00    -0.012 A 
ATOM      4  C3A BZF d   1       0.977  -0.312   0.631  0.00  0.00    -0.107 A 
ATOM      5  C4  BZF d   1       1.849  -1.030   1.399  0.00  0.00     0.055 A 
ATOM      6  C5  BZF d   1       1.388  -2.103   2.094  0.00  0.00    -0.016 A 
ATOM      7  C6  BZF d   1       0.062  -2.482   2.049  0.00  0.00     0.022 A 
ATOM      8  C7  BZF d   1      -0.839  -1.804   1.297  0.00  0.00     0.029 A 
ATOM      9  C7A BZF d   1      -0.369  -0.739   0.568  0.00  0.00     0.058 A 
ENDROOT
TORSDOF 0
ENDMDL
