MODEL 1
REMARK minimizedAffinity -1.27325594
REMARK minimizedRMSD -1
REMARK  0 active torsions:
REMARK  status: ('A' for Active; 'I' for Inactive)
ROOT
ATOM      1  O1  BZF d   1       1.095   0.149  -1.082  0.00  0.00    -0.204 OA
ATOM      2  C2  BZF d   1       0.443   1.269  -0.603  0.00  0.00     0.174 A 
ATOM      3  C3  BZF d   1      -0.287   0.967   0.490  0.00  0.00    -0.012 A 
ATOM      4  C3A BZF d   1      -0.004  -0.409   0.763  0.00  0.00    -0.107 A 
ATOM      5  C4  BZF d   1      -0.417  -1.278   1.732  0.00  0.00     0.055 A 
ATOM      6  C5  BZF d   1      -0.013  -2.574   1.673  0.00  0.00    -0.016 A 
ATOM      7  C6  BZF d   1       0.799  -3.036   0.657  0.00  0.00     0.022 A 
ATOM      8  C7  BZF d   1       1.238  -2.210  -0.324  0.00  0.00     0.029 A 
ATOM      9  C7A BZF d   1       0.858  -0.892  -0.248  0.00  0.00     0.058 A 
ENDROOT
TORSDOF 0
ENDMDL
