MODEL 1
REMARK minimizedAffinity -2.68759894
REMARK minimizedRMSD -1
REMARK  0 active torsions:
REMARK  status: ('A' for Active; 'I' for Inactive)
ROOT
ATOM      1  O1  BZF d   1      -1.961   0.648   1.493  0.00  0.00    -0.204 OA
ATOM      2  C2  BZF d   1      -2.753   0.010   2.428  0.00  0.00     0.174 A 
ATOM      3  C3  BZF d   1      -2.366  -1.272   2.587  0.00  0.00    -0.012 A 
ATOM      4  C3A BZF d   1      -1.205  -1.420   1.764  0.00  0.00    -0.107 A 
ATOM      5  C4  BZF d   1      -0.359  -2.462   1.512  0.00  0.00     0.055 A 
ATOM      6  C5  BZF d   1       0.637  -2.299   0.601  0.00  0.00    -0.016 A 
ATOM      7  C6  BZF d   1       0.812  -1.112  -0.079  0.00  0.00     0.022 A 
ATOM      8  C7  BZF d   1       0.000  -0.049   0.141  0.00  0.00     0.029 A 
ATOM      9  C7A BZF d   1      -0.986  -0.199   1.085  0.00  0.00     0.058 A 
ENDROOT
TORSDOF 0
ENDMDL
