MODEL 1
REMARK minimizedAffinity -2.52536368
REMARK minimizedRMSD -1
REMARK  0 active torsions:
REMARK  status: ('A' for Active; 'I' for Inactive)
ROOT
ATOM      1  O1  BZF d   1      -2.140   0.947   1.662  0.00  0.00    -0.204 OA
ATOM      2  C2  BZF d   1      -2.863   0.077   2.454  0.00  0.00     0.174 A 
ATOM      3  C3  BZF d   1      -2.325  -1.159   2.423  0.00  0.00    -0.012 A 
ATOM      4  C3A BZF d   1      -1.140  -1.034   1.630  0.00  0.00    -0.107 A 
ATOM      5  C4  BZF d   1      -0.169  -1.914   1.248  0.00  0.00     0.055 A 
ATOM      6  C5  BZF d   1       0.815  -1.490   0.412  0.00  0.00    -0.016 A 
ATOM      7  C6  BZF d   1       0.855  -0.196  -0.065  0.00  0.00     0.022 A 
ATOM      8  C7  BZF d   1      -0.084   0.715   0.290  0.00  0.00     0.029 A 
ATOM      9  C7A BZF d   1      -1.061   0.298   1.161  0.00  0.00     0.058 A 
ENDROOT
TORSDOF 0
ENDMDL
