MODEL 1
REMARK minimizedAffinity -4.14196825
REMARK minimizedRMSD -1
REMARK  0 active torsions:
REMARK  status: ('A' for Active; 'I' for Inactive)
ROOT
ATOM      1  O1  BZF d   1      -1.511   1.049   1.296  0.00  0.00    -0.204 OA
ATOM      2  C2  BZF d   1      -0.635   1.861   0.601  0.00  0.00     0.174 A 
ATOM      3  C3  BZF d   1       0.396   1.143   0.111  0.00  0.00    -0.012 A 
ATOM      4  C3A BZF d   1       0.102  -0.216   0.447  0.00  0.00    -0.107 A 
ATOM      5  C4  BZF d   1       0.743  -1.400   0.218  0.00  0.00     0.055 A 
ATOM      6  C5  BZF d   1       0.228  -2.543   0.743  0.00  0.00    -0.016 A 
ATOM      7  C6  BZF d   1      -0.922  -2.538   1.505  0.00  0.00     0.022 A 
ATOM      8  C7  BZF d   1      -1.596  -1.389   1.755  0.00  0.00     0.029 A 
ATOM      9  C7A BZF d   1      -1.096  -0.237   1.199  0.00  0.00     0.058 A 
ENDROOT
TORSDOF 0
ENDMDL
