MODEL 1
REMARK minimizedAffinity -3.87080407
REMARK minimizedRMSD -1
REMARK  0 active torsions:
REMARK  status: ('A' for Active; 'I' for Inactive)
ROOT
ATOM      1  O1  BZF d   1      -1.652   0.565   1.800  0.00  0.00    -0.204 OA
ATOM      2  C2  BZF d   1      -2.270  -0.109   2.836  0.00  0.00     0.174 A 
ATOM      3  C3  BZF d   1      -1.850  -1.389   2.892  0.00  0.00    -0.012 A 
ATOM      4  C3A BZF d   1      -0.841  -1.498   1.882  0.00  0.00    -0.107 A 
ATOM      5  C4  BZF d   1      -0.039  -2.521   1.463  0.00  0.00     0.055 A 
ATOM      6  C5  BZF d   1       0.788  -2.320   0.404  0.00  0.00    -0.016 A 
ATOM      7  C6  BZF d   1       0.835  -1.113  -0.262  0.00  0.00     0.022 A 
ATOM      8  C7  BZF d   1       0.062  -0.067   0.120  0.00  0.00     0.029 A 
ATOM      9  C7A BZF d   1      -0.751  -0.257   1.211  0.00  0.00     0.058 A 
ENDROOT
TORSDOF 0
ENDMDL
