MODEL 1
REMARK minimizedAffinity -2.24841738
REMARK minimizedRMSD -1
REMARK  0 active torsions:
REMARK  status: ('A' for Active; 'I' for Inactive)
ROOT
ATOM      1  O1  BZF d   1      -2.011   0.875   1.411  0.00  0.00    -0.204 OA
ATOM      2  C2  BZF d   1      -2.859   0.357   2.370  0.00  0.00     0.174 A 
ATOM      3  C3  BZF d   1      -2.541  -0.923   2.649  0.00  0.00    -0.012 A 
ATOM      4  C3A BZF d   1      -1.366  -1.195   1.879  0.00  0.00    -0.107 A 
ATOM      5  C4  BZF d   1      -0.566  -2.294   1.743  0.00  0.00     0.055 A 
ATOM      6  C5  BZF d   1       0.461  -2.257   0.854  0.00  0.00    -0.016 A 
ATOM      7  C6  BZF d   1       0.713  -1.142   0.082  0.00  0.00     0.022 A 
ATOM      8  C7  BZF d   1      -0.049  -0.027   0.186  0.00  0.00     0.029 A 
ATOM      9  C7A BZF d   1      -1.068  -0.049   1.107  0.00  0.00     0.058 A 
ENDROOT
TORSDOF 0
ENDMDL
