MODEL 1
REMARK minimizedAffinity -1.448578
REMARK minimizedRMSD -1
REMARK  0 active torsions:
REMARK  status: ('A' for Active; 'I' for Inactive)
ROOT
ATOM      1  O1  BZF d   1      -1.531  -0.931   1.859  0.00  0.00    -0.204 OA
ATOM      2  C2  BZF d   1      -1.120  -2.209   2.185  0.00  0.00     0.174 A 
ATOM      3  C3  BZF d   1       0.054  -2.501   1.589  0.00  0.00    -0.012 A 
ATOM      4  C3A BZF d   1       0.444  -1.298   0.919  0.00  0.00    -0.107 A 
ATOM      5  C4  BZF d   1       1.529  -0.954   0.163  0.00  0.00     0.055 A 
ATOM      6  C5  BZF d   1       1.572   0.278  -0.408  0.00  0.00    -0.016 A 
ATOM      7  C6  BZF d   1       0.547   1.188  -0.249  0.00  0.00     0.022 A 
ATOM      8  C7  BZF d   1      -0.547   0.894   0.496  0.00  0.00     0.029 A 
ATOM      9  C7A BZF d   1      -0.578  -0.338   1.101  0.00  0.00     0.058 A 
ENDROOT
TORSDOF 0
ENDMDL
