MODEL 1
REMARK minimizedAffinity 7.1266942
REMARK minimizedRMSD -1
REMARK  0 active torsions:
REMARK  status: ('A' for Active; 'I' for Inactive)
ROOT
ATOM      1  O1  BZF d   1       4.647   4.743  -1.874  0.00  0.00    -0.204 OA
ATOM      2  C2  BZF d   1       4.875   6.000  -1.348  0.00  0.00     0.174 A 
ATOM      3  C3  BZF d   1       4.734   5.990  -0.006  0.00  0.00    -0.012 A 
ATOM      4  C3A BZF d   1       4.488   4.622   0.336  0.00  0.00    -0.107 A 
ATOM      5  C4  BZF d   1       4.280   3.974   1.519  0.00  0.00     0.055 A 
ATOM      6  C5  BZF d   1       3.996   2.645   1.503  0.00  0.00    -0.016 A 
ATOM      7  C6  BZF d   1       3.907   1.936   0.323  0.00  0.00     0.022 A 
ATOM      8  C7  BZF d   1       4.110   2.535  -0.876  0.00  0.00     0.029 A 
ATOM      9  C7A BZF d   1       4.430   3.871  -0.860  0.00  0.00     0.058 A 
ENDROOT
TORSDOF 0
ENDMDL
