MODEL 1
REMARK minimizedAffinity -2.07307434
REMARK minimizedRMSD -1
REMARK  0 active torsions:
REMARK  status: ('A' for Active; 'I' for Inactive)
ROOT
ATOM      1  O1  BZF d   1       1.114   0.643  -3.341  0.00  0.00    -0.204 OA
ATOM      2  C2  BZF d   1       1.181   1.901  -3.907  0.00  0.00     0.174 A 
ATOM      3  C3  BZF d   1       0.810   2.846  -3.019  0.00  0.00    -0.012 A 
ATOM      4  C3A BZF d   1       0.581   2.142  -1.795  0.00  0.00    -0.107 A 
ATOM      5  C4  BZF d   1       0.205   2.535  -0.542  0.00  0.00     0.055 A 
ATOM      6  C5  BZF d   1      -0.001   1.590   0.413  0.00  0.00    -0.016 A 
ATOM      7  C6  BZF d   1       0.153   0.245   0.148  0.00  0.00     0.022 A 
ATOM      8  C7  BZF d   1       0.530  -0.193  -1.078  0.00  0.00     0.029 A 
ATOM      9  C7A BZF d   1       0.771   0.762  -2.036  0.00  0.00     0.058 A 
ENDROOT
TORSDOF 0
ENDMDL
