MODEL 1
REMARK minimizedAffinity -2.76214838
REMARK minimizedRMSD -1
REMARK  0 active torsions:
REMARK  status: ('A' for Active; 'I' for Inactive)
ROOT
ATOM      1  O1  BZF d   1      -0.619   1.137  -0.042  0.00  0.00    -0.204 OA
ATOM      2  C2  BZF d   1      -1.735   1.872   0.307  0.00  0.00     0.174 A 
ATOM      3  C3  BZF d   1      -2.528   1.172   1.144  0.00  0.00    -0.012 A 
ATOM      4  C3A BZF d   1      -1.819  -0.044   1.403  0.00  0.00    -0.107 A 
ATOM      5  C4  BZF d   1      -2.086  -1.140   2.173  0.00  0.00     0.055 A 
ATOM      6  C5  BZF d   1      -1.222  -2.189   2.151  0.00  0.00    -0.016 A 
ATOM      7  C6  BZF d   1      -0.087  -2.178   1.367  0.00  0.00     0.022 A 
ATOM      8  C7  BZF d   1       0.222  -1.112   0.590  0.00  0.00     0.029 A 
ATOM      9  C7A BZF d   1      -0.632  -0.037   0.635  0.00  0.00     0.058 A 
ENDROOT
TORSDOF 0
ENDMDL
