MODEL 1
REMARK minimizedAffinity -3.75671673
REMARK minimizedRMSD -1
REMARK  0 active torsions:
REMARK  status: ('A' for Active; 'I' for Inactive)
ROOT
ATOM      1  O1  BZF d   1      -0.216   1.155   0.109  0.00  0.00    -0.204 OA
ATOM      2  C2  BZF d   1       0.857   0.562  -0.528  0.00  0.00     0.174 A 
ATOM      3  C3  BZF d   1       0.990  -0.724  -0.145  0.00  0.00    -0.012 A 
ATOM      4  C3A BZF d   1      -0.122  -0.976   0.721  0.00  0.00    -0.107 A 
ATOM      5  C4  BZF d   1      -0.548  -2.077   1.406  0.00  0.00     0.055 A 
ATOM      6  C5  BZF d   1      -1.631  -1.971   2.220  0.00  0.00    -0.016 A 
ATOM      7  C6  BZF d   1      -2.307  -0.779   2.377  0.00  0.00     0.022 A 
ATOM      8  C7  BZF d   1      -1.924   0.340   1.714  0.00  0.00     0.029 A 
ATOM      9  C7A BZF d   1      -0.850   0.227   0.865  0.00  0.00     0.058 A 
ENDROOT
TORSDOF 0
ENDMDL
