MODEL 1
REMARK minimizedAffinity -1.83848083
REMARK minimizedRMSD -1
REMARK  0 active torsions:
REMARK  status: ('A' for Active; 'I' for Inactive)
ROOT
ATOM      1  O1  BZF d   1      -0.600   0.785  -1.370  0.00  0.00    -0.204 OA
ATOM      2  C2  BZF d   1      -0.081   0.511  -0.119  0.00  0.00     0.174 A 
ATOM      3  C3  BZF d   1       1.191   0.949  -0.021  0.00  0.00    -0.012 A 
ATOM      4  C3A BZF d   1       1.455   1.615  -1.259  0.00  0.00    -0.107 A 
ATOM      5  C4  BZF d   1       2.543   2.273  -1.758  0.00  0.00     0.055 A 
ATOM      6  C5  BZF d   1       2.503   2.747  -3.031  0.00  0.00    -0.016 A 
ATOM      7  C6  BZF d   1       1.394   2.577  -3.834  0.00  0.00     0.022 A 
ATOM      8  C7  BZF d   1       0.289   1.936  -3.382  0.00  0.00     0.029 A 
ATOM      9  C7A BZF d   1       0.314   1.484  -2.085  0.00  0.00     0.058 A 
ENDROOT
TORSDOF 0
ENDMDL
