MODEL 1
REMARK minimizedAffinity -1.36425292
REMARK minimizedRMSD -1
REMARK  0 active torsions:
REMARK  status: ('A' for Active; 'I' for Inactive)
ROOT
ATOM      1  O1  BZF d   1       1.681   2.860  -1.767  0.00  0.00    -0.204 OA
ATOM      2  C2  BZF d   1       1.405   2.724  -3.114  0.00  0.00     0.174 A 
ATOM      3  C3  BZF d   1       0.815   1.537  -3.364  0.00  0.00    -0.012 A 
ATOM      4  C3A BZF d   1       0.632   0.930  -2.081  0.00  0.00    -0.107 A 
ATOM      5  C4  BZF d   1       0.084  -0.251  -1.671  0.00  0.00     0.055 A 
ATOM      6  C5  BZF d   1       0.126  -0.577  -0.352  0.00  0.00    -0.016 A 
ATOM      7  C6  BZF d   1       0.714   0.252   0.582  0.00  0.00     0.022 A 
ATOM      8  C7  BZF d   1       1.266   1.436   0.223  0.00  0.00     0.029 A 
ATOM      9  C7A BZF d   1       1.195   1.783  -1.104  0.00  0.00     0.058 A 
ENDROOT
TORSDOF 0
ENDMDL
