MODEL 1
REMARK minimizedAffinity -1.21653605
REMARK minimizedRMSD -1
REMARK  3 active torsions:
REMARK  status: ('A' for Active; 'I' for Inactive)
REMARK    1  A    between atoms: C3'_2  and  C2'_3 
REMARK    2  A    between atoms: C2'_3  and  C1'_4 
REMARK    3  A    between atoms: C1'_4  and  C1_5 
ROOT
ATOM      1  C1  N4B d   1       5.038  -3.335   4.767  0.00  0.00    -0.075 A 
ATOM      2  C2  N4B d   1       5.852  -4.007   5.706  0.00  0.00     0.002 A 
ATOM      3  C3  N4B d   1       5.626  -5.333   5.985  0.00  0.00     0.002 A 
ATOM      4  C4  N4B d   1       4.587  -6.000   5.354  0.00  0.00    -0.004 A 
ATOM      5  C5  N4B d   1       3.822  -5.350   4.430  0.00  0.00     0.002 A 
ATOM      6  C6  N4B d   1       4.039  -4.019   4.137  0.00  0.00     0.002 A 
ENDROOT
BRANCH   1   7
ATOM      7  C1' N4B d   1       5.191  -1.864   4.493  0.00  0.00     0.057 C 
BRANCH   7   8
ATOM      8  C2' N4B d   1       4.134  -1.430   3.482  0.00  0.00     0.009 C 
BRANCH   8   9
ATOM      9  C3' N4B d   1       4.580  -0.221   2.678  0.00  0.00     0.004 C 
ATOM     10  C4' N4B d   1       3.466   0.751   2.427  0.00  0.00     0.003 C 
ENDBRANCH   8   9
ENDBRANCH   7   8
ENDBRANCH   1   7
TORSDOF 3
ENDMDL
