MODEL 1
REMARK minimizedAffinity 0.630938411
REMARK minimizedRMSD -1
REMARK  3 active torsions:
REMARK  status: ('A' for Active; 'I' for Inactive)
REMARK    1  A    between atoms: C3'_2  and  C2'_3 
REMARK    2  A    between atoms: C2'_3  and  C1'_4 
REMARK    3  A    between atoms: C1'_4  and  C1_5 
ROOT
ATOM      1  C1  N4B d   1       4.929   5.361   0.712  0.00  0.00    -0.075 A 
ATOM      2  C2  N4B d   1       3.875   5.968   1.430  0.00  0.00     0.002 A 
ATOM      3  C3  N4B d   1       3.909   6.000   2.803  0.00  0.00     0.002 A 
ATOM      4  C4  N4B d   1       4.972   5.417   3.476  0.00  0.00    -0.004 A 
ATOM      5  C5  N4B d   1       5.998   4.855   2.774  0.00  0.00     0.002 A 
ATOM      6  C6  N4B d   1       5.979   4.820   1.394  0.00  0.00     0.002 A 
ENDROOT
BRANCH   1   7
ATOM      7  C1' N4B d   1       4.894   5.227  -0.786  0.00  0.00     0.057 C 
BRANCH   7   8
ATOM      8  C2' N4B d   1       3.670   5.961  -1.327  0.00  0.00     0.009 C 
BRANCH   8   9
ATOM      9  C3' N4B d   1       2.969   5.169  -2.417  0.00  0.00     0.004 C 
ATOM     10  C4' N4B d   1       1.947   5.980  -3.158  0.00  0.00     0.003 C 
ENDBRANCH   8   9
ENDBRANCH   7   8
ENDBRANCH   1   7
TORSDOF 3
ENDMDL
