MODEL 1
REMARK minimizedAffinity 8.72489357
REMARK minimizedRMSD -1
REMARK  3 active torsions:
REMARK  status: ('A' for Active; 'I' for Inactive)
REMARK    1  A    between atoms: C3'_2  and  C2'_3 
REMARK    2  A    between atoms: C2'_3  and  C1'_4 
REMARK    3  A    between atoms: C1'_4  and  C1_5 
ROOT
ATOM      1  C1  N4B d   1      -2.766   4.090   4.013  0.00  0.00    -0.075 A 
ATOM      2  C2  N4B d   1      -3.841   5.007   3.996  0.00  0.00     0.002 A 
ATOM      3  C3  N4B d   1      -3.947   5.958   4.981  0.00  0.00     0.002 A 
ATOM      4  C4  N4B d   1      -3.006   6.000   5.998  0.00  0.00    -0.004 A 
ATOM      5  C5  N4B d   1      -1.957   5.127   5.993  0.00  0.00     0.002 A 
ATOM      6  C6  N4B d   1      -1.835   4.168   5.008  0.00  0.00     0.002 A 
ENDROOT
BRANCH   1   7
ATOM      7  C1' N4B d   1      -2.655   2.978   3.006  0.00  0.00     0.057 C 
BRANCH   7   8
ATOM      8  C2' N4B d   1      -1.890   1.814   3.628  0.00  0.00     0.009 C 
BRANCH   8   9
ATOM      9  C3' N4B d   1      -2.152   0.507   2.898  0.00  0.00     0.004 C 
ATOM     10  C4' N4B d   1      -3.608   0.151   2.850  0.00  0.00     0.003 C 
ENDBRANCH   8   9
ENDBRANCH   7   8
ENDBRANCH   1   7
TORSDOF 3
ENDMDL
