MODEL 1
REMARK minimizedAffinity 18.893795
REMARK minimizedRMSD -1
REMARK  3 active torsions:
REMARK  status: ('A' for Active; 'I' for Inactive)
REMARK    1  A    between atoms: C3'_2  and  C2'_3 
REMARK    2  A    between atoms: C2'_3  and  C1'_4 
REMARK    3  A    between atoms: C1'_4  and  C1_5 
ROOT
ATOM      1  C1  N4B d   1      -3.852   5.975   3.923  0.00  0.00    -0.075 A 
ATOM      2  C2  N4B d   1      -3.817   5.969   5.335  0.00  0.00     0.002 A 
ATOM      3  C3  N4B d   1      -2.611   5.976   5.992  0.00  0.00     0.002 A 
ATOM      4  C4  N4B d   1      -1.432   5.969   5.262  0.00  0.00    -0.004 A 
ATOM      5  C5  N4B d   1      -1.475   6.000   3.899  0.00  0.00     0.002 A 
ATOM      6  C6  N4B d   1      -2.680   5.997   3.225  0.00  0.00     0.002 A 
ENDROOT
BRANCH   1   7
ATOM      7  C1' N4B d   1      -5.145   5.881   3.161  0.00  0.00     0.057 C 
BRANCH   7   8
ATOM      8  C2' N4B d   1      -4.852   5.438   1.731  0.00  0.00     0.009 C 
BRANCH   8   9
ATOM      9  C3' N4B d   1      -4.231   4.052   1.681  0.00  0.00     0.004 C 
ATOM     10  C4' N4B d   1      -5.246   2.956   1.809  0.00  0.00     0.003 C 
ENDBRANCH   8   9
ENDBRANCH   7   8
ENDBRANCH   1   7
TORSDOF 3
ENDMDL
