MODEL 1
REMARK minimizedAffinity 8.25911617
REMARK minimizedRMSD -1
REMARK  3 active torsions:
REMARK  status: ('A' for Active; 'I' for Inactive)
REMARK    1  A    between atoms: C3'_2  and  C2'_3 
REMARK    2  A    between atoms: C2'_3  and  C1'_4 
REMARK    3  A    between atoms: C1'_4  and  C1_5 
ROOT
ATOM      1  C1  N4B d   1      -2.261   4.467   3.618  0.00  0.00    -0.075 A 
ATOM      2  C2  N4B d   1      -3.392   5.233   3.976  0.00  0.00     0.002 A 
ATOM      3  C3  N4B d   1      -3.370   5.999   5.116  0.00  0.00     0.002 A 
ATOM      4  C4  N4B d   1      -2.239   6.000   5.919  0.00  0.00    -0.004 A 
ATOM      5  C5  N4B d   1      -1.142   5.277   5.553  0.00  0.00     0.002 A 
ATOM      6  C6  N4B d   1      -1.149   4.506   4.408  0.00  0.00     0.002 A 
ENDROOT
BRANCH   1   7
ATOM      7  C1' N4B d   1      -2.269   3.547   2.427  0.00  0.00     0.057 C 
BRANCH   7   8
ATOM      8  C2' N4B d   1      -1.829   2.154   2.868  0.00  0.00     0.009 C 
BRANCH   8   9
ATOM      9  C3' N4B d   1      -2.703   1.066   2.269  0.00  0.00     0.004 C 
ATOM     10  C4' N4B d   1      -2.959  -0.063   3.223  0.00  0.00     0.003 C 
ENDBRANCH   8   9
ENDBRANCH   7   8
ENDBRANCH   1   7
TORSDOF 3
ENDMDL
