MODEL 1
REMARK minimizedAffinity 0.190530419
REMARK minimizedRMSD -1
REMARK  3 active torsions:
REMARK  status: ('A' for Active; 'I' for Inactive)
REMARK    1  A    between atoms: C3'_2  and  C2'_3 
REMARK    2  A    between atoms: C2'_3  and  C1'_4 
REMARK    3  A    between atoms: C1'_4  and  C1_5 
ROOT
ATOM      1  C1  N4B d   1      -2.760   4.236   3.957  0.00  0.00    -0.075 A 
ATOM      2  C2  N4B d   1      -1.897   4.572   5.023  0.00  0.00     0.002 A 
ATOM      3  C3  N4B d   1      -2.319   5.441   6.000  0.00  0.00     0.002 A 
ATOM      4  C4  N4B d   1      -3.586   5.998   5.922  0.00  0.00    -0.004 A 
ATOM      5  C5  N4B d   1      -4.423   5.648   4.903  0.00  0.00     0.002 A 
ATOM      6  C6  N4B d   1      -4.014   4.773   3.916  0.00  0.00     0.002 A 
ENDROOT
BRANCH   1   7
ATOM      7  C1' N4B d   1      -2.313   3.358   2.821  0.00  0.00     0.057 C 
BRANCH   7   8
ATOM      8  C2' N4B d   1      -1.647   2.107   3.386  0.00  0.00     0.009 C 
BRANCH   8   9
ATOM      9  C3' N4B d   1      -1.889   0.889   2.510  0.00  0.00     0.004 C 
ATOM     10  C4' N4B d   1      -3.000   0.019   3.019  0.00  0.00     0.003 C 
ENDBRANCH   8   9
ENDBRANCH   7   8
ENDBRANCH   1   7
TORSDOF 3
ENDMDL
