MODEL 1
REMARK minimizedAffinity 15.2431917
REMARK minimizedRMSD -1
REMARK  3 active torsions:
REMARK  status: ('A' for Active; 'I' for Inactive)
REMARK    1  A    between atoms: C3'_2  and  C2'_3 
REMARK    2  A    between atoms: C2'_3  and  C1'_4 
REMARK    3  A    between atoms: C1'_4  and  C1_5 
ROOT
ATOM      1  C1  N4B d   1      -1.945   1.387   3.697  0.00  0.00    -0.075 A 
ATOM      2  C2  N4B d   1      -1.880   1.366   2.287  0.00  0.00     0.002 A 
ATOM      3  C3  N4B d   1      -2.431   0.319   1.589  0.00  0.00     0.002 A 
ATOM      4  C4  N4B d   1      -3.033  -0.723   2.279  0.00  0.00    -0.004 A 
ATOM      5  C5  N4B d   1      -3.114  -0.683   3.640  0.00  0.00     0.002 A 
ATOM      6  C6  N4B d   1      -2.569   0.365   4.354  0.00  0.00     0.002 A 
ENDROOT
BRANCH   1   7
ATOM      7  C1' N4B d   1      -1.282   2.467   4.507  0.00  0.00     0.057 C 
BRANCH   7   8
ATOM      8  C2' N4B d   1      -2.053   3.772   4.328  0.00  0.00     0.009 C 
BRANCH   8   9
ATOM      9  C3' N4B d   1      -2.206   4.526   5.638  0.00  0.00     0.004 C 
ATOM     10  C4' N4B d   1      -0.983   5.315   6.000  0.00  0.00     0.003 C 
ENDBRANCH   8   9
ENDBRANCH   7   8
ENDBRANCH   1   7
TORSDOF 3
ENDMDL
