MODEL 1
REMARK minimizedAffinity 3.92520523
REMARK minimizedRMSD -1
REMARK  3 active torsions:
REMARK  status: ('A' for Active; 'I' for Inactive)
REMARK    1  A    between atoms: C3'_2  and  C2'_3 
REMARK    2  A    between atoms: C2'_3  and  C1'_4 
REMARK    3  A    between atoms: C1'_4  and  C1_5 
ROOT
ATOM      1  C1  N4B d   1      -3.725  -0.575   1.396  0.00  0.00    -0.075 A 
ATOM      2  C2  N4B d   1      -3.338  -0.398   0.050  0.00  0.00     0.002 A 
ATOM      3  C3  N4B d   1      -4.292  -0.325  -0.936  0.00  0.00     0.002 A 
ATOM      4  C4  N4B d   1      -5.633  -0.445  -0.602  0.00  0.00    -0.004 A 
ATOM      5  C5  N4B d   1      -6.000  -0.590   0.703  0.00  0.00     0.002 A 
ATOM      6  C6  N4B d   1      -5.052  -0.661   1.704  0.00  0.00     0.002 A 
ENDROOT
BRANCH   1   7
ATOM      7  C1' N4B d   1      -2.715  -0.747   2.497  0.00  0.00     0.057 C 
BRANCH   7   8
ATOM      8  C2' N4B d   1      -2.696   0.511   3.360  0.00  0.00     0.009 C 
BRANCH   8   9
ATOM      9  C3' N4B d   1      -1.505   1.399   3.045  0.00  0.00     0.004 C 
ATOM     10  C4' N4B d   1      -1.745   2.838   3.391  0.00  0.00     0.003 C 
ENDBRANCH   8   9
ENDBRANCH   7   8
ENDBRANCH   1   7
TORSDOF 3
ENDMDL
