MODEL 1
REMARK minimizedAffinity 5.30399132
REMARK minimizedRMSD -1
REMARK  3 active torsions:
REMARK  status: ('A' for Active; 'I' for Inactive)
REMARK    1  A    between atoms: C3'_2  and  C2'_3 
REMARK    2  A    between atoms: C2'_3  and  C1'_4 
REMARK    3  A    between atoms: C1'_4  and  C1_5 
ROOT
ATOM      1  C1  N4B d   1      -4.731   0.832   3.472  0.00  0.00    -0.075 A 
ATOM      2  C2  N4B d   1      -4.704   0.464   4.836  0.00  0.00     0.002 A 
ATOM      3  C3  N4B d   1      -5.329  -0.687   5.249  0.00  0.00     0.002 A 
ATOM      4  C4  N4B d   1      -6.000  -1.472   4.324  0.00  0.00    -0.004 A 
ATOM      5  C5  N4B d   1      -6.000  -1.124   3.005  0.00  0.00     0.002 A 
ATOM      6  C6  N4B d   1      -5.372   0.028   2.575  0.00  0.00     0.002 A 
ENDROOT
BRANCH   1   7
ATOM      7  C1' N4B d   1      -4.135   2.125   2.986  0.00  0.00     0.057 C 
BRANCH   7   8
ATOM      8  C2' N4B d   1      -2.660   2.174   3.374  0.00  0.00     0.009 C 
BRANCH   8   9
ATOM      9  C3' N4B d   1      -1.932   0.895   2.999  0.00  0.00     0.004 C 
ATOM     10  C4' N4B d   1      -1.165   1.018   1.717  0.00  0.00     0.003 C 
ENDBRANCH   8   9
ENDBRANCH   7   8
ENDBRANCH   1   7
TORSDOF 3
ENDMDL
