MODEL 1
REMARK minimizedAffinity 9.08176422
REMARK minimizedRMSD -1
REMARK  3 active torsions:
REMARK  status: ('A' for Active; 'I' for Inactive)
REMARK    1  A    between atoms: C3'_2  and  C2'_3 
REMARK    2  A    between atoms: C2'_3  and  C1'_4 
REMARK    3  A    between atoms: C1'_4  and  C1_5 
ROOT
ATOM      1  C1  N4B d   1       2.103   3.802  -2.318  0.00  0.00    -0.075 A 
ATOM      2  C2  N4B d   1       1.152   2.806  -2.632  0.00  0.00     0.002 A 
ATOM      3  C3  N4B d   1       1.091   1.656  -1.885  0.00  0.00     0.002 A 
ATOM      4  C4  N4B d   1       1.979   1.471  -0.836  0.00  0.00    -0.004 A 
ATOM      5  C5  N4B d   1       2.878   2.448  -0.523  0.00  0.00     0.002 A 
ATOM      6  C6  N4B d   1       2.948   3.612  -1.263  0.00  0.00     0.002 A 
ENDROOT
BRANCH   1   7
ATOM      7  C1' N4B d   1       2.265   5.039  -3.159  0.00  0.00     0.057 C 
BRANCH   7   8
ATOM      8  C2' N4B d   1       1.117   6.000  -2.863  0.00  0.00     0.009 C 
BRANCH   8   9
ATOM      9  C3' N4B d   1       0.741   5.999  -1.391  0.00  0.00     0.004 C 
ATOM     10  C4' N4B d   1      -0.742   5.975  -1.170  0.00  0.00     0.003 C 
ENDBRANCH   8   9
ENDBRANCH   7   8
ENDBRANCH   1   7
TORSDOF 3
ENDMDL
