MODEL 1
REMARK minimizedAffinity 10.828105
REMARK minimizedRMSD -1
REMARK  0 active torsions:
REMARK  status: ('A' for Active; 'I' for Inactive)
ROOT
ATOM      1  C4' PXY d   1       3.409   5.999   5.944  0.00  0.00     0.077 C 
ATOM      2  C1' PXY d   1       1.410   1.868   2.429  0.00  0.00     0.077 C 
ATOM      3  C1  PXY d   1       1.927   2.961   3.345  0.00  0.00    -0.082 A 
ATOM      4  C2  PXY d   1       3.065   2.783   3.997  0.00  0.00     0.003 A 
ATOM      5  C3  PXY d   1       3.531   3.747   4.853  0.00  0.00     0.003 A 
ATOM      6  C4  PXY d   1       2.853   4.928   5.003  0.00  0.00    -0.082 A 
ATOM      7  C5  PXY d   1       1.697   5.121   4.332  0.00  0.00     0.003 A 
ATOM      8  C6  PXY d   1       1.220   4.113   3.499  0.00  0.00     0.003 A 
ENDROOT
TORSDOF 0
ENDMDL
