MODEL 1
REMARK minimizedAffinity 14.3158903
REMARK minimizedRMSD -1
REMARK  0 active torsions:
REMARK  status: ('A' for Active; 'I' for Inactive)
ROOT
ATOM      1  C4' PXY d   1      -3.304  -1.239  -0.034  0.00  0.00     0.077 C 
ATOM      2  C1' PXY d   1      -1.355   2.678  -3.812  0.00  0.00     0.077 C 
ATOM      3  C1  PXY d   1      -1.866   1.642  -2.830  0.00  0.00    -0.082 A 
ATOM      4  C2  PXY d   1      -2.585   2.026  -1.789  0.00  0.00     0.003 A 
ATOM      5  C3  PXY d   1      -3.028   1.105  -0.874  0.00  0.00     0.003 A 
ATOM      6  C4  PXY d   1      -2.776  -0.228  -1.056  0.00  0.00    -0.082 A 
ATOM      7  C5  PXY d   1      -2.051  -0.629  -2.122  0.00  0.00     0.003 A 
ATOM      8  C6  PXY d   1      -1.576   0.325  -3.016  0.00  0.00     0.003 A 
ENDROOT
TORSDOF 0
ENDMDL
