MODEL 1
REMARK minimizedAffinity 11.0957298
REMARK minimizedRMSD -1
REMARK  0 active torsions:
REMARK  status: ('A' for Active; 'I' for Inactive)
ROOT
ATOM      1  C4' PXY d   1       5.143  -2.761  -0.116  0.00  0.00     0.077 C 
ATOM      2  C1' PXY d   1      -0.339  -2.233   1.640  0.00  0.00     0.077 C 
ATOM      3  C1  PXY d   1       1.096  -2.384   1.177  0.00  0.00    -0.082 A 
ATOM      4  C2  PXY d   1       2.017  -1.540   1.614  0.00  0.00     0.003 A 
ATOM      5  C3  PXY d   1       3.314  -1.643   1.181  0.00  0.00     0.003 A 
ATOM      6  C4  PXY d   1       3.683  -2.652   0.332  0.00  0.00    -0.082 A 
ATOM      7  C5  PXY d   1       2.752  -3.523  -0.110  0.00  0.00     0.003 A 
ATOM      8  C6  PXY d   1       1.433  -3.377   0.310  0.00  0.00     0.003 A 
ENDROOT
TORSDOF 0
ENDMDL
