MODEL 1
REMARK minimizedAffinity 9.3350687
REMARK minimizedRMSD -1
REMARK  0 active torsions:
REMARK  status: ('A' for Active; 'I' for Inactive)
ROOT
ATOM      1  C4' PXY d   1       4.753  -5.649   0.264  0.00  0.00     0.077 C 
ATOM      2  C1' PXY d   1       1.039  -1.430   1.613  0.00  0.00     0.077 C 
ATOM      3  C1  PXY d   1       2.021  -2.527   1.255  0.00  0.00    -0.082 A 
ATOM      4  C2  PXY d   1       1.573  -3.735   0.956  0.00  0.00     0.003 A 
ATOM      5  C3  PXY d   1       2.449  -4.748   0.662  0.00  0.00     0.003 A 
ATOM      6  C4  PXY d   1       3.797  -4.508   0.621  0.00  0.00    -0.082 A 
ATOM      7  C5  PXY d   1       4.262  -3.275   0.915  0.00  0.00     0.003 A 
ATOM      8  C6  PXY d   1       3.358  -2.271   1.252  0.00  0.00     0.003 A 
ENDROOT
TORSDOF 0
ENDMDL
