MODEL 1
REMARK minimizedAffinity 6.54474115
REMARK minimizedRMSD -1
REMARK  0 active torsions:
REMARK  status: ('A' for Active; 'I' for Inactive)
ROOT
ATOM      1  C4' PXY d   1      -5.979   2.599   5.967  0.00  0.00     0.077 C 
ATOM      2  C1' PXY d   1      -5.999  -1.329   1.727  0.00  0.00     0.077 C 
ATOM      3  C1  PXY d   1      -5.999  -0.308   2.847  0.00  0.00    -0.082 A 
ATOM      4  C2  PXY d   1      -5.999   0.983   2.555  0.00  0.00     0.003 A 
ATOM      5  C3  PXY d   1      -5.966   1.920   3.556  0.00  0.00     0.003 A 
ATOM      6  C4  PXY d   1      -5.988   1.533   4.869  0.00  0.00    -0.082 A 
ATOM      7  C5  PXY d   1      -6.000   0.218   5.175  0.00  0.00     0.003 A 
ATOM      8  C6  PXY d   1      -5.991  -0.718   4.144  0.00  0.00     0.003 A 
ENDROOT
TORSDOF 0
ENDMDL
