MODEL 1
REMARK minimizedAffinity 10.6099863
REMARK minimizedRMSD -1
REMARK  0 active torsions:
REMARK  status: ('A' for Active; 'I' for Inactive)
ROOT
ATOM      1  C4' PXY d   1       1.742  -4.426  -0.114  0.00  0.00     0.077 C 
ATOM      2  C1' PXY d   1       1.774   0.671   2.612  0.00  0.00     0.077 C 
ATOM      3  C1  PXY d   1       1.756  -0.670   1.905  0.00  0.00    -0.082 A 
ATOM      4  C2  PXY d   1       2.830  -1.078   1.249  0.00  0.00     0.003 A 
ATOM      5  C3  PXY d   1       2.820  -2.273   0.577  0.00  0.00     0.003 A 
ATOM      6  C4  PXY d   1       1.718  -3.084   0.623  0.00  0.00    -0.082 A 
ATOM      7  C5  PXY d   1       0.622  -2.680   1.299  0.00  0.00     0.003 A 
ATOM      8  C6  PXY d   1       0.638  -1.444   1.940  0.00  0.00     0.003 A 
ENDROOT
TORSDOF 0
ENDMDL
