MODEL 1
REMARK minimizedAffinity 10.4187794
REMARK minimizedRMSD -1
REMARK  0 active torsions:
REMARK  status: ('A' for Active; 'I' for Inactive)
ROOT
ATOM      1  C4' PXY d   1       5.433   5.993  -5.994  0.00  0.00     0.077 C 
ATOM      2  C1' PXY d   1       0.278   3.501  -5.199  0.00  0.00     0.077 C 
ATOM      3  C1  PXY d   1       1.636   4.146  -5.399  0.00  0.00    -0.082 A 
ATOM      4  C2  PXY d   1       1.709   5.410  -5.783  0.00  0.00     0.003 A 
ATOM      5  C3  PXY d   1       2.928   6.000  -6.000  0.00  0.00     0.003 A 
ATOM      6  C4  PXY d   1       4.085   5.304  -5.770  0.00  0.00    -0.082 A 
ATOM      7  C5  PXY d   1       4.018   4.017  -5.368  0.00  0.00     0.003 A 
ATOM      8  C6  PXY d   1       2.771   3.424  -5.194  0.00  0.00     0.003 A 
ENDROOT
TORSDOF 0
ENDMDL
