MODEL 1
REMARK minimizedAffinity 12.0470343
REMARK minimizedRMSD -1
REMARK  0 active torsions:
REMARK  status: ('A' for Active; 'I' for Inactive)
ROOT
ATOM      1  C4' PXY d   1       1.411   0.506   2.848  0.00  0.00     0.077 C 
ATOM      2  C1' PXY d   1       1.973  -4.343  -0.249  0.00  0.00     0.077 C 
ATOM      3  C1  PXY d   1       1.813  -3.071   0.560  0.00  0.00    -0.082 A 
ATOM      4  C2  PXY d   1       2.873  -2.322   0.817  0.00  0.00     0.003 A 
ATOM      5  C3  PXY d   1       2.752  -1.185   1.574  0.00  0.00     0.003 A 
ATOM      6  C4  PXY d   1       1.524  -0.782   2.027  0.00  0.00    -0.082 A 
ATOM      7  C5  PXY d   1       0.436  -1.535   1.759  0.00  0.00     0.003 A 
ATOM      8  C6  PXY d   1       0.587  -2.707   1.024  0.00  0.00     0.003 A 
ENDROOT
TORSDOF 0
ENDMDL
