MODEL 1
REMARK minimizedAffinity 3.65362215
REMARK minimizedRMSD -1
REMARK  0 active torsions:
REMARK  status: ('A' for Active; 'I' for Inactive)
ROOT
ATOM      1  C4' PXY d   1      -1.569   1.878  -3.337  0.00  0.00     0.077 C 
ATOM      2  C1' PXY d   1      -5.445   5.242  -5.998  0.00  0.00     0.077 C 
ATOM      3  C1  PXY d   1      -4.433   4.350  -5.307  0.00  0.00    -0.082 A 
ATOM      4  C2  PXY d   1      -3.949   4.701  -4.126  0.00  0.00     0.003 A 
ATOM      5  C3  PXY d   1      -3.009   3.922  -3.502  0.00  0.00     0.003 A 
ATOM      6  C4  PXY d   1      -2.600   2.744  -4.067  0.00  0.00    -0.082 A 
ATOM      7  C5  PXY d   1      -3.096   2.373  -5.267  0.00  0.00     0.003 A 
ATOM      8  C6  PXY d   1      -4.019   3.199  -5.903  0.00  0.00     0.003 A 
ENDROOT
TORSDOF 0
ENDMDL
