MODEL 1
REMARK minimizedAffinity 4.94235659
REMARK minimizedRMSD -1
REMARK  1 active torsions:
REMARK  status: ('A' for Active; 'I' for Inactive)
REMARK    1  A    between atoms: N_2  and  C1_3 
ROOT
ATOM      1  C1  UNL d   1      -0.612  -1.226  -0.903  0.00  0.00     0.143 A 
ATOM      2  C2  UNL d   1      -1.048  -0.056  -1.534  0.00  0.00    -0.057 A 
ATOM      3  C3  UNL d   1      -0.701   1.207  -1.040  0.00  0.00     0.033 A 
ATOM      4  C4  UNL d   1       0.065   1.323   0.115  0.00  0.00    -0.042 A 
ATOM      5  C5  UNL d   1       0.488   0.173   0.773  0.00  0.00     0.033 A 
ATOM      6  C6  UNL d   1       0.144  -1.086   0.271  0.00  0.00    -0.057 A 
ENDROOT
BRANCH   1   7
ATOM      7  N   UNL d   1      -1.005  -2.510  -1.289  0.00  0.00    -0.732 N 
ATOM      8  C   UNL d   1      -0.415  -3.145  -2.448  0.00  0.00     0.284 C 
ATOM      9  H3  UNL d   1      -1.133  -3.133  -0.494  0.00  0.00     0.395 HD
ENDBRANCH   1   7
TORSDOF 1
ENDMDL
