MODEL 1
REMARK minimizedAffinity -2.24572229
REMARK minimizedRMSD -1
REMARK  1 active torsions:
REMARK  status: ('A' for Active; 'I' for Inactive)
REMARK    1  A    between atoms: N_2  and  C1_3 
ROOT
ATOM      1  C1  UNL d   1       0.961  -3.584  -1.086  0.00  0.00     0.143 A 
ATOM      2  C2  UNL d   1       0.548  -3.340  -2.400  0.00  0.00    -0.057 A 
ATOM      3  C3  UNL d   1       0.554  -2.046  -2.934  0.00  0.00     0.033 A 
ATOM      4  C4  UNL d   1       0.947  -0.966  -2.151  0.00  0.00    -0.042 A 
ATOM      5  C5  UNL d   1       1.337  -1.182  -0.835  0.00  0.00     0.033 A 
ATOM      6  C6  UNL d   1       1.335  -2.477  -0.309  0.00  0.00    -0.057 A 
ENDROOT
BRANCH   1   7
ATOM      7  N   UNL d   1       0.884  -4.834  -0.466  0.00  0.00    -0.732 N 
ATOM      8  C   UNL d   1       1.977  -5.322   0.348  0.00  0.00     0.284 C 
ATOM      9  H3  UNL d   1      -0.038  -5.019  -0.078  0.00  0.00     0.395 HD
ENDBRANCH   1   7
TORSDOF 1
ENDMDL
