MODEL 1
REMARK minimizedAffinity -5.27730894
REMARK minimizedRMSD -1
REMARK  1 active torsions:
REMARK  status: ('A' for Active; 'I' for Inactive)
REMARK    1  A    between atoms: N_2  and  C1_3 
ROOT
ATOM      1  C1  UNL d   1      -0.419   0.886   0.201  0.00  0.00     0.143 A 
ATOM      2  C2  UNL d   1      -1.082   1.466   1.287  0.00  0.00    -0.057 A 
ATOM      3  C3  UNL d   1      -1.180   2.857   1.420  0.00  0.00     0.033 A 
ATOM      4  C4  UNL d   1      -0.589   3.694   0.480  0.00  0.00    -0.042 A 
ATOM      5  C5  UNL d   1       0.097   3.140  -0.595  0.00  0.00     0.033 A 
ATOM      6  C6  UNL d   1       0.186   1.750  -0.725  0.00  0.00    -0.057 A 
ENDROOT
BRANCH   1   7
ATOM      7  N   UNL d   1      -0.203  -0.488   0.065  0.00  0.00    -0.732 N 
ATOM      8  C   UNL d   1       1.141  -1.024   0.046  0.00  0.00     0.284 C 
ATOM      9  H3  UNL d   1      -0.863  -1.040   0.607  0.00  0.00     0.395 HD
ENDBRANCH   1   7
TORSDOF 1
ENDMDL
