MODEL 1
REMARK minimizedAffinity -1.08164096
REMARK minimizedRMSD -1
REMARK  1 active torsions:
REMARK  status: ('A' for Active; 'I' for Inactive)
REMARK    1  A    between atoms: N_2  and  C1_3 
ROOT
ATOM      1  C1  UNL d   1       1.029  -1.917  -1.172  0.00  0.00     0.143 A 
ATOM      2  C2  UNL d   1       1.595  -3.188  -1.025  0.00  0.00    -0.057 A 
ATOM      3  C3  UNL d   1       1.099  -4.289  -1.733  0.00  0.00     0.033 A 
ATOM      4  C4  UNL d   1       0.007  -4.143  -2.582  0.00  0.00    -0.042 A 
ATOM      5  C5  UNL d   1      -0.587  -2.894  -2.725  0.00  0.00     0.033 A 
ATOM      6  C6  UNL d   1      -0.083  -1.797  -2.019  0.00  0.00    -0.057 A 
ENDROOT
BRANCH   1   7
ATOM      7  N   UNL d   1       1.413  -0.803  -0.421  0.00  0.00    -0.732 N 
ATOM      8  C   UNL d   1       0.623   0.409  -0.443  0.00  0.00     0.284 C 
ATOM      9  H3  UNL d   1       1.759  -1.057   0.502  0.00  0.00     0.395 HD
ENDBRANCH   1   7
TORSDOF 1
ENDMDL
