MODEL 1
REMARK minimizedAffinity -2.05086732
REMARK minimizedRMSD -1
REMARK  1 active torsions:
REMARK  status: ('A' for Active; 'I' for Inactive)
REMARK    1  A    between atoms: N_2  and  C1_3 
ROOT
ATOM      1  C1  UNL d   1      -0.510   0.501   0.603  0.00  0.00     0.143 A 
ATOM      2  C2  UNL d   1      -0.979   0.849   1.874  0.00  0.00    -0.057 A 
ATOM      3  C3  UNL d   1      -1.399   2.153   2.161  0.00  0.00     0.033 A 
ATOM      4  C4  UNL d   1      -1.331   3.143   1.186  0.00  0.00    -0.042 A 
ATOM      5  C5  UNL d   1      -0.846   2.825  -0.078  0.00  0.00     0.033 A 
ATOM      6  C6  UNL d   1      -0.433   1.520  -0.360  0.00  0.00    -0.057 A 
ENDROOT
BRANCH   1   7
ATOM      7  N   UNL d   1       0.015  -0.754   0.284  0.00  0.00    -0.732 N 
ATOM      8  C   UNL d   1       0.787  -0.944  -0.925  0.00  0.00     0.284 C 
ATOM      9  H3  UNL d   1       0.390  -1.236   1.098  0.00  0.00     0.395 HD
ENDBRANCH   1   7
TORSDOF 1
ENDMDL
