MODEL 1
REMARK minimizedAffinity -5.22033358
REMARK minimizedRMSD -1
REMARK  1 active torsions:
REMARK  status: ('A' for Active; 'I' for Inactive)
REMARK    1  A    between atoms: N_2  and  C1_3 
ROOT
ATOM      1  C1  UNL d   1      -0.874   1.868   0.414  0.00  0.00     0.143 A 
ATOM      2  C2  UNL d   1      -0.052   0.775   0.121  0.00  0.00    -0.057 A 
ATOM      3  C3  UNL d   1      -0.112  -0.402   0.877  0.00  0.00     0.033 A 
ATOM      4  C4  UNL d   1      -0.979  -0.496   1.961  0.00  0.00    -0.042 A 
ATOM      5  C5  UNL d   1      -1.787   0.587   2.286  0.00  0.00     0.033 A 
ATOM      6  C6  UNL d   1      -1.727   1.758   1.523  0.00  0.00    -0.057 A 
ENDROOT
BRANCH   1   7
ATOM      7  N   UNL d   1      -0.791   3.101  -0.238  0.00  0.00    -0.732 N 
ATOM      8  C   UNL d   1       0.140   3.296  -1.329  0.00  0.00     0.284 C 
ATOM      9  H3  UNL d   1      -1.704   3.522  -0.391  0.00  0.00     0.395 HD
ENDBRANCH   1   7
TORSDOF 1
ENDMDL
