MODEL 1
REMARK minimizedAffinity -3.60013366
REMARK minimizedRMSD -1
REMARK  1 active torsions:
REMARK  status: ('A' for Active; 'I' for Inactive)
REMARK    1  A    between atoms: N_2  and  C1_3 
ROOT
ATOM      1  C1  UNL d   1       0.027  -0.051   0.356  0.00  0.00     0.143 A 
ATOM      2  C2  UNL d   1      -0.144  -0.749   1.556  0.00  0.00    -0.057 A 
ATOM      3  C3  UNL d   1      -0.889  -0.208   2.611  0.00  0.00     0.033 A 
ATOM      4  C4  UNL d   1      -1.454   1.058   2.494  0.00  0.00    -0.042 A 
ATOM      5  C5  UNL d   1      -1.276   1.780   1.320  0.00  0.00     0.033 A 
ATOM      6  C6  UNL d   1      -0.536   1.232   0.267  0.00  0.00    -0.057 A 
ENDROOT
BRANCH   1   7
ATOM      7  N   UNL d   1       0.838  -0.493  -0.692  0.00  0.00    -0.732 N 
ATOM      8  C   UNL d   1       0.964  -1.905  -0.982  0.00  0.00     0.284 C 
ATOM      9  H3  UNL d   1       0.760   0.096  -1.519  0.00  0.00     0.395 HD
ENDBRANCH   1   7
TORSDOF 1
ENDMDL
