MODEL 1
REMARK minimizedAffinity -0.0428587273
REMARK minimizedRMSD -1
REMARK  1 active torsions:
REMARK  status: ('A' for Active; 'I' for Inactive)
REMARK    1  A    between atoms: N_2  and  C1_3 
ROOT
ATOM      1  C1  UNL d   1       0.119  -0.696  -1.443  0.00  0.00     0.143 A 
ATOM      2  C2  UNL d   1       0.577  -1.517  -0.408  0.00  0.00    -0.057 A 
ATOM      3  C3  UNL d   1       1.005  -2.827  -0.655  0.00  0.00     0.033 A 
ATOM      4  C4  UNL d   1       0.954  -3.351  -1.942  0.00  0.00    -0.042 A 
ATOM      5  C5  UNL d   1       0.478  -2.561  -2.983  0.00  0.00     0.033 A 
ATOM      6  C6  UNL d   1       0.058  -1.251  -2.731  0.00  0.00    -0.057 A 
ENDROOT
BRANCH   1   7
ATOM      7  N   UNL d   1      -0.412   0.581  -1.247  0.00  0.00    -0.732 N 
ATOM      8  C   UNL d   1      -1.425   0.811  -0.238  0.00  0.00     0.284 C 
ATOM      9  H3  UNL d   1       0.297   1.309  -1.297  0.00  0.00     0.395 HD
ENDBRANCH   1   7
TORSDOF 1
ENDMDL
