MODEL 1
REMARK minimizedAffinity -4.37318373
REMARK minimizedRMSD -1
REMARK  1 active torsions:
REMARK  status: ('A' for Active; 'I' for Inactive)
REMARK    1  A    between atoms: N_2  and  C1_3 
ROOT
ATOM      1  C1  UNL d   1       0.213  -0.099   0.131  0.00  0.00     0.143 A 
ATOM      2  C2  UNL d   1       0.156  -0.467   1.480  0.00  0.00    -0.057 A 
ATOM      3  C3  UNL d   1      -0.771   0.115   2.353  0.00  0.00     0.033 A 
ATOM      4  C4  UNL d   1      -1.641   1.101   1.897  0.00  0.00    -0.042 A 
ATOM      5  C5  UNL d   1      -1.585   1.500   0.566  0.00  0.00     0.033 A 
ATOM      6  C6  UNL d   1      -0.661   0.910  -0.302  0.00  0.00    -0.057 A 
ENDROOT
BRANCH   1   7
ATOM      7  N   UNL d   1       1.177  -0.570  -0.763  0.00  0.00    -0.732 N 
ATOM      8  C   UNL d   1       0.951  -1.782  -1.520  0.00  0.00     0.284 C 
ATOM      9  H3  UNL d   1       1.610   0.180  -1.298  0.00  0.00     0.395 HD
ENDBRANCH   1   7
TORSDOF 1
ENDMDL
