MODEL 1
REMARK minimizedAffinity -3.21355581
REMARK minimizedRMSD -1
REMARK  1 active torsions:
REMARK  status: ('A' for Active; 'I' for Inactive)
REMARK    1  A    between atoms: N_2  and  C1_3 
ROOT
ATOM      1  C1  UNL d   1       0.167   0.158   0.131  0.00  0.00     0.143 A 
ATOM      2  C2  UNL d   1      -0.644   1.297   0.103  0.00  0.00    -0.057 A 
ATOM      3  C3  UNL d   1      -1.409   1.672   1.214  0.00  0.00     0.033 A 
ATOM      4  C4  UNL d   1      -1.397   0.894   2.368  0.00  0.00    -0.042 A 
ATOM      5  C5  UNL d   1      -0.617  -0.256   2.409  0.00  0.00     0.033 A 
ATOM      6  C6  UNL d   1       0.149  -0.621   1.298  0.00  0.00    -0.057 A 
ENDROOT
BRANCH   1   7
ATOM      7  N   UNL d   1       0.874  -0.321  -0.975  0.00  0.00    -0.732 N 
ATOM      8  C   UNL d   1       0.927  -1.739  -1.258  0.00  0.00     0.284 C 
ATOM      9  H3  UNL d   1       0.748   0.263  -1.799  0.00  0.00     0.395 HD
ENDBRANCH   1   7
TORSDOF 1
ENDMDL
