MODEL 1
REMARK minimizedAffinity -2.45835519
REMARK minimizedRMSD -1
REMARK  1 active torsions:
REMARK  status: ('A' for Active; 'I' for Inactive)
REMARK    1  A    between atoms: N_2  and  C1_3 
ROOT
ATOM      1  C1  UNL d   1      -0.872   1.022   0.253  0.00  0.00     0.143 A 
ATOM      2  C2  UNL d   1      -0.221   1.037  -0.985  0.00  0.00    -0.057 A 
ATOM      3  C3  UNL d   1       0.558  -0.047  -1.409  0.00  0.00     0.033 A 
ATOM      4  C4  UNL d   1       0.724  -1.156  -0.585  0.00  0.00    -0.042 A 
ATOM      5  C5  UNL d   1       0.106  -1.181   0.660  0.00  0.00     0.033 A 
ATOM      6  C6  UNL d   1      -0.676  -0.099   1.074  0.00  0.00    -0.057 A 
ENDROOT
BRANCH   1   7
ATOM      7  N   UNL d   1      -1.580   2.109   0.772  0.00  0.00    -0.732 N 
ATOM      8  C   UNL d   1      -1.482   2.450   2.175  0.00  0.00     0.284 C 
ATOM      9  H3  UNL d   1      -1.572   2.912   0.147  0.00  0.00     0.395 HD
ENDBRANCH   1   7
TORSDOF 1
ENDMDL
