MODEL 1
REMARK minimizedAffinity -5.07149887
REMARK minimizedRMSD -1
REMARK  1 active torsions:
REMARK  status: ('A' for Active; 'I' for Inactive)
REMARK    1  A    between atoms: N_2  and  C1_3 
ROOT
ATOM      1  C1  UNL d   1      -0.328   0.873  -0.271  0.00  0.00     0.143 A 
ATOM      2  C2  UNL d   1      -1.095   0.564   0.857  0.00  0.00    -0.057 A 
ATOM      3  C3  UNL d   1      -1.644   1.570   1.661  0.00  0.00     0.033 A 
ATOM      4  C4  UNL d   1      -1.408   2.909   1.366  0.00  0.00    -0.042 A 
ATOM      5  C5  UNL d   1      -0.627   3.240   0.265  0.00  0.00     0.033 A 
ATOM      6  C6  UNL d   1      -0.088   2.230  -0.538  0.00  0.00    -0.057 A 
ENDROOT
BRANCH   1   7
ATOM      7  N   UNL d   1       0.326  -0.082  -1.053  0.00  0.00    -0.732 N 
ATOM      8  C   UNL d   1       0.384  -1.465  -0.632  0.00  0.00     0.284 C 
ATOM      9  H3  UNL d   1       0.149   0.043  -2.047  0.00  0.00     0.395 HD
ENDBRANCH   1   7
TORSDOF 1
ENDMDL
