MODEL 1
REMARK minimizedAffinity 28.8063412
REMARK minimizedRMSD -1
REMARK  0 active torsions:
REMARK  status: ('A' for Active; 'I' for Inactive)
ROOT
ATOM      1  C   UNL d   1      -2.282  -2.513   3.375  0.00  0.00     0.124 A 
ATOM      2  C1  UNL d   1      -1.491  -1.896   2.416  0.00  0.00     0.062 A 
ATOM      3  C2  UNL d   1      -0.696  -2.661   1.567  0.00  0.00     0.162 A 
ATOM      4  C3  UNL d   1      -0.688  -4.052   1.673  0.00  0.00    -0.034 A 
ATOM      5  C4  UNL d   1      -1.486  -4.665   2.641  0.00  0.00     0.162 A 
ATOM      6  C5  UNL d   1      -2.279  -3.896   3.487  0.00  0.00     0.062 A 
ATOM      7  F   UNL d   1      -3.043  -4.493   4.413  0.00  0.00    -0.097 F 
ATOM      8  F1  UNL d   1      -1.503  -6.000   2.770  0.00  0.00    -0.096 F 
ATOM      9  I   UNL d   1       0.499  -5.199   0.406  0.00  0.00    -0.060 I 
ATOM     10  F2  UNL d   1       0.059  -2.038   0.649  0.00  0.00    -0.096 F 
ATOM     11  F3  UNL d   1      -1.491  -0.560   2.306  0.00  0.00    -0.097 F 
ATOM     12  F4  UNL d   1      -3.045  -1.774   4.191  0.00  0.00    -0.092 F 
ENDROOT
TORSDOF 0
ENDMDL
