MODEL 1
REMARK minimizedAffinity 21.0303898
REMARK minimizedRMSD -1
REMARK  0 active torsions:
REMARK  status: ('A' for Active; 'I' for Inactive)
ROOT
ATOM      1  C   UNL d   1      -1.094  -1.942   0.938  0.00  0.00     0.124 A 
ATOM      2  C1  UNL d   1      -2.059  -1.137   0.348  0.00  0.00     0.062 A 
ATOM      3  C2  UNL d   1      -2.379  -1.299  -0.996  0.00  0.00     0.162 A 
ATOM      4  C3  UNL d   1      -1.735  -2.271  -1.762  0.00  0.00    -0.034 A 
ATOM      5  C4  UNL d   1      -0.765  -3.076  -1.162  0.00  0.00     0.162 A 
ATOM      6  C5  UNL d   1      -0.448  -2.910   0.182  0.00  0.00     0.062 A 
ATOM      7  F   UNL d   1       0.484  -3.689   0.750  0.00  0.00    -0.097 F 
ATOM      8  F1  UNL d   1      -0.126  -4.020  -1.868  0.00  0.00    -0.096 F 
ATOM      9  I   UNL d   1      -2.211  -2.516  -3.773  0.00  0.00    -0.060 I 
ATOM     10  F2  UNL d   1      -3.316  -0.507  -1.540  0.00  0.00    -0.096 F 
ATOM     11  F3  UNL d   1      -2.684  -0.200   1.076  0.00  0.00    -0.097 F 
ATOM     12  F4  UNL d   1      -0.787  -1.784   2.232  0.00  0.00    -0.092 F 
ENDROOT
TORSDOF 0
ENDMDL
