MODEL 1
REMARK minimizedAffinity 4.92086267
REMARK minimizedRMSD -1
REMARK  0 active torsions:
REMARK  status: ('A' for Active; 'I' for Inactive)
ROOT
ATOM      1  C   UNL d   1       5.242   1.943  -1.912  0.00  0.00     0.124 A 
ATOM      2  C1  UNL d   1       4.525   3.131  -1.948  0.00  0.00     0.062 A 
ATOM      3  C2  UNL d   1       3.872   3.518  -3.114  0.00  0.00     0.162 A 
ATOM      4  C3  UNL d   1       3.931   2.716  -4.254  0.00  0.00    -0.034 A 
ATOM      5  C4  UNL d   1       4.655   1.524  -4.210  0.00  0.00     0.162 A 
ATOM      6  C5  UNL d   1       5.307   1.141  -3.042  0.00  0.00     0.062 A 
ATOM      7  F   UNL d   1       6.000  -0.007  -3.009  0.00  0.00    -0.097 F 
ATOM      8  F1  UNL d   1       4.734   0.729  -5.288  0.00  0.00    -0.096 F 
ATOM      9  I   UNL d   1       2.955   3.292  -6.000  0.00  0.00    -0.060 I 
ATOM     10  F2  UNL d   1       3.186   4.671  -3.121  0.00  0.00    -0.096 F 
ATOM     11  F3  UNL d   1       4.462   3.908  -0.857  0.00  0.00    -0.097 F 
ATOM     12  F4  UNL d   1       5.871   1.573  -0.789  0.00  0.00    -0.092 F 
ENDROOT
TORSDOF 0
ENDMDL
