MODEL 1
REMARK minimizedAffinity 24.5226746
REMARK minimizedRMSD -1
REMARK  0 active torsions:
REMARK  status: ('A' for Active; 'I' for Inactive)
ROOT
ATOM      1  C   UNL d   1      -3.102  -1.997  -1.350  0.00  0.00     0.124 A 
ATOM      2  C1  UNL d   1      -4.063  -2.744  -2.017  0.00  0.00     0.062 A 
ATOM      3  C2  UNL d   1      -3.866  -3.113  -3.344  0.00  0.00     0.162 A 
ATOM      4  C3  UNL d   1      -2.701  -2.737  -4.013  0.00  0.00    -0.034 A 
ATOM      5  C4  UNL d   1      -1.740  -1.985  -3.336  0.00  0.00     0.162 A 
ATOM      6  C5  UNL d   1      -1.942  -1.619  -2.009  0.00  0.00     0.062 A 
ATOM      7  F   UNL d   1      -1.012  -0.897  -1.367  0.00  0.00    -0.097 F 
ATOM      8  F1  UNL d   1      -0.608  -1.607  -3.949  0.00  0.00    -0.096 F 
ATOM      9  I   UNL d   1      -2.402  -3.288  -5.998  0.00  0.00    -0.060 I 
ATOM     10  F2  UNL d   1      -4.811  -3.835  -3.964  0.00  0.00    -0.096 F 
ATOM     11  F3  UNL d   1      -5.186  -3.110  -1.382  0.00  0.00    -0.097 F 
ATOM     12  F4  UNL d   1      -3.296  -1.642  -0.073  0.00  0.00    -0.092 F 
ENDROOT
TORSDOF 0
ENDMDL
