MODEL 1
REMARK minimizedAffinity 14.9146481
REMARK minimizedRMSD -1
REMARK  0 active torsions:
REMARK  status: ('A' for Active; 'I' for Inactive)
ROOT
ATOM      1  C   UNL d   1      -4.131  -3.549  -4.124  0.00  0.00     0.124 A 
ATOM      2  C1  UNL d   1      -4.300  -3.079  -2.829  0.00  0.00     0.062 A 
ATOM      3  C2  UNL d   1      -3.192  -2.736  -2.059  0.00  0.00     0.162 A 
ATOM      4  C3  UNL d   1      -1.905  -2.860  -2.583  0.00  0.00    -0.034 A 
ATOM      5  C4  UNL d   1      -1.743  -3.334  -3.886  0.00  0.00     0.162 A 
ATOM      6  C5  UNL d   1      -2.853  -3.675  -4.651  0.00  0.00     0.062 A 
ATOM      7  F   UNL d   1      -2.688  -4.129  -5.903  0.00  0.00    -0.097 F 
ATOM      8  F1  UNL d   1      -0.520  -3.465  -4.420  0.00  0.00    -0.096 F 
ATOM      9  I   UNL d   1      -0.247  -2.348  -1.434  0.00  0.00    -0.060 I 
ATOM     10  F2  UNL d   1      -3.385  -2.285  -0.811  0.00  0.00    -0.096 F 
ATOM     11  F3  UNL d   1      -5.533  -2.957  -2.317  0.00  0.00    -0.097 F 
ATOM     12  F4  UNL d   1      -5.198  -3.879  -4.863  0.00  0.00    -0.092 F 
ENDROOT
TORSDOF 0
ENDMDL
