MODEL 1
REMARK minimizedAffinity 9.07737446
REMARK minimizedRMSD -1
REMARK  0 active torsions:
REMARK  status: ('A' for Active; 'I' for Inactive)
ROOT
ATOM      1  C   UNL d   1      -2.407  -1.803  -1.461  0.00  0.00     0.124 A 
ATOM      2  C1  UNL d   1      -3.391  -2.734  -1.763  0.00  0.00     0.062 A 
ATOM      3  C2  UNL d   1      -3.513  -3.229  -3.059  0.00  0.00     0.162 A 
ATOM      4  C3  UNL d   1      -2.646  -2.795  -4.062  0.00  0.00    -0.034 A 
ATOM      5  C4  UNL d   1      -1.660  -1.858  -3.751  0.00  0.00     0.162 A 
ATOM      6  C5  UNL d   1      -1.542  -1.366  -2.455  0.00  0.00     0.062 A 
ATOM      7  F   UNL d   1      -0.591  -0.466  -2.165  0.00  0.00    -0.097 F 
ATOM      8  F1  UNL d   1      -0.810  -1.418  -4.692  0.00  0.00    -0.096 F 
ATOM      9  I   UNL d   1      -2.825  -3.533  -6.000  0.00  0.00    -0.060 I 
ATOM     10  F2  UNL d   1      -4.473  -4.128  -3.322  0.00  0.00    -0.096 F 
ATOM     11  F3  UNL d   1      -4.228  -3.158  -0.805  0.00  0.00    -0.097 F 
ATOM     12  F4  UNL d   1      -2.293  -1.328  -0.215  0.00  0.00    -0.092 F 
ENDROOT
TORSDOF 0
ENDMDL
