MODEL 1
REMARK minimizedAffinity -0.195444226
REMARK minimizedRMSD -1
REMARK  0 active torsions:
REMARK  status: ('A' for Active; 'I' for Inactive)
ROOT
ATOM      1  C   UNL d   1      -3.540  -3.418  -1.146  0.00  0.00     0.124 A 
ATOM      2  C1  UNL d   1      -3.454  -4.192  -2.295  0.00  0.00     0.062 A 
ATOM      3  C2  UNL d   1      -2.803  -3.701  -3.423  0.00  0.00     0.162 A 
ATOM      4  C3  UNL d   1      -2.232  -2.428  -3.408  0.00  0.00    -0.034 A 
ATOM      5  C4  UNL d   1      -2.324  -1.655  -2.249  0.00  0.00     0.162 A 
ATOM      6  C5  UNL d   1      -2.975  -2.151  -1.124  0.00  0.00     0.062 A 
ATOM      7  F   UNL d   1      -3.058  -1.401  -0.015  0.00  0.00    -0.097 F 
ATOM      8  F1  UNL d   1      -1.786  -0.427  -2.200  0.00  0.00    -0.096 F 
ATOM      9  I   UNL d   1      -1.258  -1.690  -5.092  0.00  0.00    -0.060 I 
ATOM     10  F2  UNL d   1      -2.735  -4.471  -4.519  0.00  0.00    -0.096 F 
ATOM     11  F3  UNL d   1      -4.000  -5.416  -2.319  0.00  0.00    -0.097 F 
ATOM     12  F4  UNL d   1      -4.168  -3.893  -0.063  0.00  0.00    -0.092 F 
ENDROOT
TORSDOF 0
ENDMDL
