MODEL 1
REMARK minimizedAffinity 16.6188354
REMARK minimizedRMSD -1
REMARK  0 active torsions:
REMARK  status: ('A' for Active; 'I' for Inactive)
ROOT
ATOM      1  C   UNL d   1       3.397   2.874  -1.884  0.00  0.00     0.124 A 
ATOM      2  C1  UNL d   1       2.726   3.217  -3.049  0.00  0.00     0.062 A 
ATOM      3  C2  UNL d   1       2.959   2.511  -4.225  0.00  0.00     0.162 A 
ATOM      4  C3  UNL d   1       3.868   1.453  -4.243  0.00  0.00    -0.034 A 
ATOM      5  C4  UNL d   1       4.540   1.114  -3.067  0.00  0.00     0.162 A 
ATOM      6  C5  UNL d   1       4.304   1.823  -1.894  0.00  0.00     0.062 A 
ATOM      7  F   UNL d   1       4.954   1.490  -0.769  0.00  0.00    -0.097 F 
ATOM      8  F1  UNL d   1       5.421   0.103  -3.048  0.00  0.00    -0.096 F 
ATOM      9  I   UNL d   1       4.220   0.395  -6.000  0.00  0.00    -0.060 I 
ATOM     10  F2  UNL d   1       2.296   2.865  -5.337  0.00  0.00    -0.096 F 
ATOM     11  F3  UNL d   1       1.850   4.233  -3.042  0.00  0.00    -0.097 F 
ATOM     12  F4  UNL d   1       3.172   3.556  -0.754  0.00  0.00    -0.092 F 
ENDROOT
TORSDOF 0
ENDMDL
