MODEL 1
REMARK minimizedAffinity 15.4867725
REMARK minimizedRMSD -1
REMARK  0 active torsions:
REMARK  status: ('A' for Active; 'I' for Inactive)
ROOT
ATOM      1  C   UNL d   1      -1.494  -2.810  -1.549  0.00  0.00     0.124 A 
ATOM      2  C1  UNL d   1      -0.379  -2.756  -0.724  0.00  0.00     0.062 A 
ATOM      3  C2  UNL d   1      -0.507  -2.345   0.600  0.00  0.00     0.162 A 
ATOM      4  C3  UNL d   1      -1.755  -1.987   1.108  0.00  0.00    -0.034 A 
ATOM      5  C4  UNL d   1      -2.872  -2.043   0.272  0.00  0.00     0.162 A 
ATOM      6  C5  UNL d   1      -2.739  -2.454  -1.050  0.00  0.00     0.062 A 
ATOM      7  F   UNL d   1      -3.817  -2.506  -1.846  0.00  0.00    -0.097 F 
ATOM      8  F1  UNL d   1      -4.087  -1.705   0.728  0.00  0.00    -0.096 F 
ATOM      9  I   UNL d   1      -1.951  -1.372   3.087  0.00  0.00    -0.060 I 
ATOM     10  F2  UNL d   1       0.588  -2.302   1.374  0.00  0.00    -0.096 F 
ATOM     11  F3  UNL d   1       0.825  -3.099  -1.204  0.00  0.00    -0.097 F 
ATOM     12  F4  UNL d   1      -1.368  -3.205  -2.822  0.00  0.00    -0.092 F 
ENDROOT
TORSDOF 0
ENDMDL
