MODEL 1
REMARK minimizedAffinity 18.1797523
REMARK minimizedRMSD -1
REMARK  0 active torsions:
REMARK  status: ('A' for Active; 'I' for Inactive)
ROOT
ATOM      1  C   UNL d   1       4.221   1.473  -3.330  0.00  0.00     0.124 A 
ATOM      2  C1  UNL d   1       4.574   2.655  -2.695  0.00  0.00     0.062 A 
ATOM      3  C2  UNL d   1       4.100   3.874  -3.171  0.00  0.00     0.162 A 
ATOM      4  C3  UNL d   1       3.266   3.918  -4.288  0.00  0.00    -0.034 A 
ATOM      5  C4  UNL d   1       2.915   2.724  -4.922  0.00  0.00     0.162 A 
ATOM      6  C5  UNL d   1       3.392   1.509  -4.443  0.00  0.00     0.062 A 
ATOM      7  F   UNL d   1       3.050   0.367  -5.058  0.00  0.00    -0.097 F 
ATOM      8  F1  UNL d   1       2.115   2.730  -5.998  0.00  0.00    -0.096 F 
ATOM      9  I   UNL d   1       2.554   5.738  -5.002  0.00  0.00    -0.060 I 
ATOM     10  F2  UNL d   1       4.458   5.001  -2.537  0.00  0.00    -0.096 F 
ATOM     11  F3  UNL d   1       5.376   2.624  -1.621  0.00  0.00    -0.097 F 
ATOM     12  F4  UNL d   1       4.680   0.302  -2.871  0.00  0.00    -0.092 F 
ENDROOT
TORSDOF 0
ENDMDL
