MODEL 1
REMARK minimizedAffinity 15.6009998
REMARK minimizedRMSD -1
REMARK  0 active torsions:
REMARK  status: ('A' for Active; 'I' for Inactive)
ROOT
ATOM      1  C   UNL d   1      -0.485  -2.374   1.209  0.00  0.00     0.124 A 
ATOM      2  C1  UNL d   1      -1.352  -1.932   2.198  0.00  0.00     0.062 A 
ATOM      3  C2  UNL d   1      -1.993  -2.847   3.028  0.00  0.00     0.162 A 
ATOM      4  C3  UNL d   1      -1.769  -4.215   2.873  0.00  0.00    -0.034 A 
ATOM      5  C4  UNL d   1      -0.896  -4.653   1.875  0.00  0.00     0.162 A 
ATOM      6  C5  UNL d   1      -0.258  -3.734   1.048  0.00  0.00     0.062 A 
ATOM      7  F   UNL d   1       0.579  -4.164   0.093  0.00  0.00    -0.097 F 
ATOM      8  F1  UNL d   1      -0.658  -5.961   1.698  0.00  0.00    -0.096 F 
ATOM      9  I   UNL d   1      -2.726  -5.587   4.111  0.00  0.00    -0.060 I 
ATOM     10  F2  UNL d   1      -2.826  -2.391   3.975  0.00  0.00    -0.096 F 
ATOM     11  F3  UNL d   1      -1.574  -0.619   2.355  0.00  0.00    -0.097 F 
ATOM     12  F4  UNL d   1       0.130  -1.492   0.411  0.00  0.00    -0.092 F 
ENDROOT
TORSDOF 0
ENDMDL
