MODEL 1
REMARK minimizedAffinity 33.8643608
REMARK minimizedRMSD -1
REMARK  0 active torsions:
REMARK  status: ('A' for Active; 'I' for Inactive)
ROOT
ATOM      1  C   UNL d   1      -1.589  -1.800   3.024  0.00  0.00     0.124 A 
ATOM      2  C1  UNL d   1      -1.122  -1.912   1.722  0.00  0.00     0.062 A 
ATOM      3  C2  UNL d   1       0.048  -1.263   1.340  0.00  0.00     0.162 A 
ATOM      4  C3  UNL d   1       0.760  -0.495   2.261  0.00  0.00    -0.034 A 
ATOM      5  C4  UNL d   1       0.283  -0.386   3.569  0.00  0.00     0.162 A 
ATOM      6  C5  UNL d   1      -0.887  -1.037   3.946  0.00  0.00     0.062 A 
ATOM      7  F   UNL d   1      -1.337  -0.927   5.204  0.00  0.00    -0.097 F 
ATOM      8  F1  UNL d   1       0.943   0.344   4.480  0.00  0.00    -0.096 F 
ATOM      9  I   UNL d   1       2.510   0.478   1.694  0.00  0.00    -0.060 I 
ATOM     10  F2  UNL d   1       0.477  -1.389   0.075  0.00  0.00    -0.096 F 
ATOM     11  F3  UNL d   1      -1.800  -2.648   0.829  0.00  0.00    -0.097 F 
ATOM     12  F4  UNL d   1      -2.716  -2.425   3.389  0.00  0.00    -0.092 F 
ENDROOT
TORSDOF 0
ENDMDL
