MODEL 1
REMARK minimizedAffinity 8.94108486
REMARK minimizedRMSD -1
REMARK  0 active torsions:
REMARK  status: ('A' for Active; 'I' for Inactive)
ROOT
ATOM      1  C   UNL d   1      -1.896  -2.160  -1.097  0.00  0.00     0.124 A 
ATOM      2  C1  UNL d   1      -2.828  -2.316  -0.080  0.00  0.00     0.062 A 
ATOM      3  C2  UNL d   1      -3.834  -3.270  -0.193  0.00  0.00     0.162 A 
ATOM      4  C3  UNL d   1      -3.914  -4.078  -1.328  0.00  0.00    -0.034 A 
ATOM      5  C4  UNL d   1      -2.975  -3.914  -2.347  0.00  0.00     0.162 A 
ATOM      6  C5  UNL d   1      -1.970  -2.959  -2.229  0.00  0.00     0.062 A 
ATOM      7  F   UNL d   1      -1.071  -2.810  -3.213  0.00  0.00    -0.097 F 
ATOM      8  F1  UNL d   1      -3.022  -4.674  -3.452  0.00  0.00    -0.096 F 
ATOM      9  I   UNL d   1      -5.418  -5.506  -1.501  0.00  0.00    -0.060 I 
ATOM     10  F2  UNL d   1      -4.721  -3.399   0.805  0.00  0.00    -0.096 F 
ATOM     11  F3  UNL d   1      -2.758  -1.544   1.014  0.00  0.00    -0.097 F 
ATOM     12  F4  UNL d   1      -0.929  -1.240  -0.986  0.00  0.00    -0.092 F 
ENDROOT
TORSDOF 0
ENDMDL
