MODEL 1
REMARK minimizedAffinity 23.585619
REMARK minimizedRMSD -1
REMARK  0 active torsions:
REMARK  status: ('A' for Active; 'I' for Inactive)
ROOT
ATOM      1  C   UNL d   1       3.723   0.410   1.414  0.00  0.00     0.124 A 
ATOM      2  C1  UNL d   1       3.831   1.449   0.500  0.00  0.00     0.062 A 
ATOM      3  C2  UNL d   1       2.836   2.420   0.423  0.00  0.00     0.162 A 
ATOM      4  C3  UNL d   1       1.725   2.358   1.264  0.00  0.00    -0.034 A 
ATOM      5  C4  UNL d   1       1.623   1.309   2.180  0.00  0.00     0.162 A 
ATOM      6  C5  UNL d   1       2.619   0.342   2.253  0.00  0.00     0.062 A 
ATOM      7  F   UNL d   1       2.513  -0.661   3.137  0.00  0.00    -0.097 F 
ATOM      8  F1  UNL d   1       0.568   1.219   3.004  0.00  0.00    -0.096 F 
ATOM      9  I   UNL d   1       0.236   3.807   1.152  0.00  0.00    -0.060 I 
ATOM     10  F2  UNL d   1       2.967   3.412  -0.470  0.00  0.00    -0.096 F 
ATOM     11  F3  UNL d   1       4.895   1.517  -0.312  0.00  0.00    -0.097 F 
ATOM     12  F4  UNL d   1       4.680  -0.523   1.486  0.00  0.00    -0.092 F 
ENDROOT
TORSDOF 0
ENDMDL
