MODEL 1
REMARK minimizedAffinity 17.4227333
REMARK minimizedRMSD -1
REMARK  0 active torsions:
REMARK  status: ('A' for Active; 'I' for Inactive)
ROOT
ATOM      1  C   UNL d   1       4.401   3.943  -4.876  0.00  0.00     0.124 A 
ATOM      2  C1  UNL d   1       4.695   2.587  -4.872  0.00  0.00     0.062 A 
ATOM      3  C2  UNL d   1       5.140   1.971  -3.706  0.00  0.00     0.162 A 
ATOM      4  C3  UNL d   1       5.293   2.710  -2.533  0.00  0.00    -0.034 A 
ATOM      5  C4  UNL d   1       4.996   4.074  -2.546  0.00  0.00     0.162 A 
ATOM      6  C5  UNL d   1       4.551   4.685  -3.713  0.00  0.00     0.062 A 
ATOM      7  F   UNL d   1       4.267   5.996  -3.716  0.00  0.00    -0.097 F 
ATOM      8  F1  UNL d   1       5.131   4.815  -1.436  0.00  0.00    -0.096 F 
ATOM      9  I   UNL d   1       5.958   1.793  -0.788  0.00  0.00    -0.060 I 
ATOM     10  F2  UNL d   1       5.418   0.658  -3.731  0.00  0.00    -0.096 F 
ATOM     11  F3  UNL d   1       4.552   1.867  -5.994  0.00  0.00    -0.097 F 
ATOM     12  F4  UNL d   1       3.973   4.533  -6.000  0.00  0.00    -0.092 F 
ENDROOT
TORSDOF 0
ENDMDL
