MODEL 1
REMARK minimizedAffinity 1.99392831
REMARK minimizedRMSD -1
REMARK  0 active torsions:
REMARK  status: ('A' for Active; 'I' for Inactive)
ROOT
ATOM      1  C   UNL d   1      -0.072  -0.505   3.726  0.00  0.00     0.172 C 
ATOM      2  N   UNL d   1      -0.156   0.539   2.731  0.00  0.00    -0.070 N 
ATOM      3  C1  UNL d   1      -0.890   1.690   2.843  0.00  0.00    -0.004 A 
ATOM      4  C2  UNL d   1      -0.706   2.421   1.689  0.00  0.00    -0.047 A 
ATOM      5  C3  UNL d   1       0.168   1.684   0.855  0.00  0.00    -0.047 A 
ATOM      6  C4  UNL d   1       0.493   0.523   1.525  0.00  0.00    -0.004 A 
ENDROOT
TORSDOF 0
ENDMDL
