MODEL 1
REMARK minimizedAffinity -2.20437574
REMARK minimizedRMSD -1
REMARK  0 active torsions:
REMARK  status: ('A' for Active; 'I' for Inactive)
ROOT
ATOM      1  C   UNL d   1      -0.271   1.194  -1.220  0.00  0.00     0.172 C 
ATOM      2  N   UNL d   1      -0.893   2.144  -0.328  0.00  0.00    -0.070 N 
ATOM      3  C1  UNL d   1      -1.143   1.944   1.003  0.00  0.00    -0.004 A 
ATOM      4  C2  UNL d   1      -1.744   3.083   1.495  0.00  0.00    -0.047 A 
ATOM      5  C3  UNL d   1      -1.861   3.998   0.422  0.00  0.00    -0.047 A 
ATOM      6  C4  UNL d   1      -1.327   3.391  -0.695  0.00  0.00    -0.004 A 
ENDROOT
TORSDOF 0
ENDMDL
