MODEL 1
REMARK minimizedAffinity 5.53056097
REMARK minimizedRMSD -1
REMARK  0 active torsions:
REMARK  status: ('A' for Active; 'I' for Inactive)
ROOT
ATOM      1  C   UNL d   1       1.823   4.659  -0.660  0.00  0.00     0.172 C 
ATOM      2  N   UNL d   1       0.758   3.728  -0.370  0.00  0.00    -0.070 N 
ATOM      3  C1  UNL d   1      -0.136   3.834   0.661  0.00  0.00    -0.004 A 
ATOM      4  C2  UNL d   1      -0.988   2.753   0.594  0.00  0.00    -0.047 A 
ATOM      5  C3  UNL d   1      -0.591   1.969  -0.515  0.00  0.00    -0.047 A 
ATOM      6  C4  UNL d   1       0.493   2.595  -1.094  0.00  0.00    -0.004 A 
ENDROOT
TORSDOF 0
ENDMDL
