MODEL 1
REMARK minimizedAffinity 1.80987799
REMARK minimizedRMSD -1
REMARK  0 active torsions:
REMARK  status: ('A' for Active; 'I' for Inactive)
ROOT
ATOM      1  C   UNL d   1      -5.714  -5.948  -5.723  0.00  0.00     0.172 C 
ATOM      2  N   UNL d   1      -4.401  -5.374  -5.547  0.00  0.00    -0.070 N 
ATOM      3  C1  UNL d   1      -4.000  -4.144  -5.997  0.00  0.00    -0.004 A 
ATOM      4  C2  UNL d   1      -2.684  -3.968  -5.628  0.00  0.00    -0.047 A 
ATOM      5  C3  UNL d   1      -2.279  -5.133  -4.934  0.00  0.00    -0.047 A 
ATOM      6  C4  UNL d   1      -3.362  -5.987  -4.898  0.00  0.00    -0.004 A 
ENDROOT
TORSDOF 0
ENDMDL
