MODEL 1
REMARK minimizedAffinity 3.5075345
REMARK minimizedRMSD -1
REMARK  0 active torsions:
REMARK  status: ('A' for Active; 'I' for Inactive)
ROOT
ATOM      1  C   UNL d   1       3.370  -1.342  -0.748  0.00  0.00     0.172 C 
ATOM      2  N   UNL d   1       4.362  -2.003  -1.563  0.00  0.00    -0.070 N 
ATOM      3  C1  UNL d   1       5.213  -2.990  -1.141  0.00  0.00    -0.004 A 
ATOM      4  C2  UNL d   1       6.000  -3.355  -2.212  0.00  0.00    -0.047 A 
ATOM      5  C3  UNL d   1       5.609  -2.559  -3.315  0.00  0.00    -0.047 A 
ATOM      6  C4  UNL d   1       4.594  -1.731  -2.885  0.00  0.00    -0.004 A 
ENDROOT
TORSDOF 0
ENDMDL
