MODEL 1
REMARK minimizedAffinity 1.06001294
REMARK minimizedRMSD -1
REMARK  0 active torsions:
REMARK  status: ('A' for Active; 'I' for Inactive)
ROOT
ATOM      1  C   UNL d   1      -0.978   2.813  -1.961  0.00  0.00     0.172 C 
ATOM      2  N   UNL d   1      -0.768   2.476  -0.573  0.00  0.00    -0.070 N 
ATOM      3  C1  UNL d   1      -0.822   3.352   0.478  0.00  0.00    -0.004 A 
ATOM      4  C2  UNL d   1      -0.567   2.643   1.632  0.00  0.00    -0.047 A 
ATOM      5  C3  UNL d   1      -0.350   1.295   1.262  0.00  0.00    -0.047 A 
ATOM      6  C4  UNL d   1      -0.481   1.219  -0.109  0.00  0.00    -0.004 A 
ENDROOT
TORSDOF 0
ENDMDL
