MODEL 1
REMARK minimizedAffinity -0.552049875
REMARK minimizedRMSD -1
REMARK  0 active torsions:
REMARK  status: ('A' for Active; 'I' for Inactive)
ROOT
ATOM      1  C   UNL d   1       0.267   0.912  -0.030  0.00  0.00     0.172 C 
ATOM      2  N   UNL d   1       0.018   2.197   0.580  0.00  0.00    -0.070 N 
ATOM      3  C1  UNL d   1      -1.201   2.815   0.672  0.00  0.00    -0.004 A 
ATOM      4  C2  UNL d   1      -1.017   4.017   1.320  0.00  0.00    -0.047 A 
ATOM      5  C3  UNL d   1       0.360   4.126   1.628  0.00  0.00    -0.047 A 
ATOM      6  C4  UNL d   1       0.977   2.986   1.159  0.00  0.00    -0.004 A 
ENDROOT
TORSDOF 0
ENDMDL
