MODEL 1
REMARK minimizedAffinity 2.39896226
REMARK minimizedRMSD -1
REMARK  0 active torsions:
REMARK  status: ('A' for Active; 'I' for Inactive)
ROOT
ATOM      1  C   UNL d   1      -3.007  -0.410  -0.574  0.00  0.00     0.172 C 
ATOM      2  N   UNL d   1      -1.811   0.271  -1.012  0.00  0.00    -0.070 N 
ATOM      3  C1  UNL d   1      -1.194   1.303  -0.356  0.00  0.00    -0.004 A 
ATOM      4  C2  UNL d   1      -0.091   1.672  -1.094  0.00  0.00    -0.047 A 
ATOM      5  C3  UNL d   1      -0.043   0.834  -2.233  0.00  0.00    -0.047 A 
ATOM      6  C4  UNL d   1      -1.120  -0.024  -2.157  0.00  0.00    -0.004 A 
ENDROOT
TORSDOF 0
ENDMDL
