MODEL 1
REMARK minimizedAffinity 4.43100929
REMARK minimizedRMSD -1
REMARK  0 active torsions:
REMARK  status: ('A' for Active; 'I' for Inactive)
ROOT
ATOM      1  C   UNL d   1       0.191  -0.271   4.089  0.00  0.00     0.172 C 
ATOM      2  N   UNL d   1      -0.009   0.841   3.190  0.00  0.00    -0.070 N 
ATOM      3  C1  UNL d   1       0.895   1.294   2.267  0.00  0.00    -0.004 A 
ATOM      4  C2  UNL d   1       0.329   2.366   1.611  0.00  0.00    -0.047 A 
ATOM      5  C3  UNL d   1      -0.960   2.565   2.161  0.00  0.00    -0.047 A 
ATOM      6  C4  UNL d   1      -1.143   1.607   3.136  0.00  0.00    -0.004 A 
ENDROOT
TORSDOF 0
ENDMDL
