MODEL 1
REMARK minimizedAffinity 3.41675401
REMARK minimizedRMSD -1
REMARK  0 active torsions:
REMARK  status: ('A' for Active; 'I' for Inactive)
ROOT
ATOM      1  C   UNL d   1      -2.944   2.497   0.531  0.00  0.00     0.172 C 
ATOM      2  N   UNL d   1      -2.586   1.472  -0.422  0.00  0.00    -0.070 N 
ATOM      3  C1  UNL d   1      -1.790   0.388  -0.167  0.00  0.00    -0.004 A 
ATOM      4  C2  UNL d   1      -1.693  -0.347  -1.329  0.00  0.00    -0.047 A 
ATOM      5  C3  UNL d   1      -2.457   0.320  -2.317  0.00  0.00    -0.047 A 
ATOM      6  C4  UNL d   1      -2.999   1.443  -1.728  0.00  0.00    -0.004 A 
ENDROOT
TORSDOF 0
ENDMDL
