MODEL 1
REMARK minimizedAffinity 0.083798714
REMARK minimizedRMSD -1
REMARK  0 active torsions:
REMARK  status: ('A' for Active; 'I' for Inactive)
ROOT
ATOM      1  C   UNL d   1       3.511  -3.895   2.147  0.00  0.00     0.172 C 
ATOM      2  N   UNL d   1       2.521  -3.094   2.829  0.00  0.00    -0.070 N 
ATOM      3  C1  UNL d   1       1.573  -3.566   3.696  0.00  0.00    -0.004 A 
ATOM      4  C2  UNL d   1       0.826  -2.492   4.130  0.00  0.00    -0.047 A 
ATOM      5  C3  UNL d   1       1.343  -1.335   3.501  0.00  0.00    -0.047 A 
ATOM      6  C4  UNL d   1       2.392  -1.737   2.701  0.00  0.00    -0.004 A 
ENDROOT
TORSDOF 0
ENDMDL
