MODEL 1
REMARK minimizedAffinity 3.44371819
REMARK minimizedRMSD -1
REMARK  0 active torsions:
REMARK  status: ('A' for Active; 'I' for Inactive)
ROOT
ATOM      1  C   UNL d   1       2.358  -5.960  -2.809  0.00  0.00     0.172 C 
ATOM      2  N   UNL d   1       3.789  -5.976  -3.001  0.00  0.00    -0.070 N 
ATOM      3  C1  UNL d   1       4.728  -5.985  -2.005  0.00  0.00    -0.004 A 
ATOM      4  C2  UNL d   1       5.972  -6.000  -2.597  0.00  0.00    -0.047 A 
ATOM      5  C3  UNL d   1       5.774  -6.000  -3.998  0.00  0.00    -0.047 A 
ATOM      6  C4  UNL d   1       4.413  -5.985  -4.221  0.00  0.00    -0.004 A 
ENDROOT
TORSDOF 0
ENDMDL
