MODEL 1
REMARK minimizedAffinity -2.03682661
REMARK minimizedRMSD -1
REMARK  0 active torsions:
REMARK  status: ('A' for Active; 'I' for Inactive)
ROOT
ATOM      1  C   UNL d   1       2.401  -5.987  -5.172  0.00  0.00     0.172 C 
ATOM      2  N   UNL d   1       3.777  -5.991  -4.734  0.00  0.00    -0.070 N 
ATOM      3  C1  UNL d   1       4.875  -5.988  -5.552  0.00  0.00    -0.004 A 
ATOM      4  C2  UNL d   1       5.997  -5.992  -4.752  0.00  0.00    -0.047 A 
ATOM      5  C3  UNL d   1       5.558  -6.000  -3.407  0.00  0.00    -0.047 A 
ATOM      6  C4  UNL d   1       4.179  -5.998  -3.425  0.00  0.00    -0.004 A 
ENDROOT
TORSDOF 0
ENDMDL
