MODEL 1
REMARK minimizedAffinity 2.86002803
REMARK minimizedRMSD -1
REMARK  0 active torsions:
REMARK  status: ('A' for Active; 'I' for Inactive)
ROOT
ATOM      1  C   UNL d   1      -3.323   2.275  -3.381  0.00  0.00     0.172 C 
ATOM      2  N   UNL d   1      -3.328   0.850  -3.615  0.00  0.00    -0.070 N 
ATOM      3  C1  UNL d   1      -3.460   0.241  -4.834  0.00  0.00    -0.004 A 
ATOM      4  C2  UNL d   1      -3.414  -1.121  -4.632  0.00  0.00    -0.047 A 
ATOM      5  C3  UNL d   1      -3.250  -1.339  -3.244  0.00  0.00    -0.047 A 
ATOM      6  C4  UNL d   1      -3.199  -0.101  -2.637  0.00  0.00    -0.004 A 
ENDROOT
TORSDOF 0
ENDMDL
