MODEL 1
REMARK minimizedAffinity 4.08626509
REMARK minimizedRMSD -1
REMARK  0 active torsions:
REMARK  status: ('A' for Active; 'I' for Inactive)
ROOT
ATOM      1  C   UNL d   1       5.001  -3.322   3.487  0.00  0.00     0.172 C 
ATOM      2  N   UNL d   1       3.562  -3.283   3.600  0.00  0.00    -0.070 N 
ATOM      3  C1  UNL d   1       2.753  -2.279   3.138  0.00  0.00    -0.004 A 
ATOM      4  C2  UNL d   1       1.450  -2.615   3.438  0.00  0.00    -0.047 A 
ATOM      5  C3  UNL d   1       1.478  -3.864   4.104  0.00  0.00    -0.047 A 
ATOM      6  C4  UNL d   1       2.798  -4.254   4.190  0.00  0.00    -0.004 A 
ENDROOT
TORSDOF 0
ENDMDL
