MODEL 1
REMARK minimizedAffinity 3.92884159
REMARK minimizedRMSD -1
REMARK  0 active torsions:
REMARK  status: ('A' for Active; 'I' for Inactive)
ROOT
ATOM      1  C   UNL d   1       2.683  -4.559   1.884  0.00  0.00     0.172 C 
ATOM      2  N   UNL d   1       2.234  -3.224   2.204  0.00  0.00    -0.070 N 
ATOM      3  C1  UNL d   1       2.683  -2.069   1.622  0.00  0.00    -0.004 A 
ATOM      4  C2  UNL d   1       2.010  -1.015   2.200  0.00  0.00    -0.047 A 
ATOM      5  C3  UNL d   1       1.126  -1.555   3.165  0.00  0.00    -0.047 A 
ATOM      6  C4  UNL d   1       1.285  -2.924   3.146  0.00  0.00    -0.004 A 
ENDROOT
TORSDOF 0
ENDMDL
