MODEL 1
REMARK minimizedAffinity 2.02591014
REMARK minimizedRMSD -1
REMARK  0 active torsions:
REMARK  status: ('A' for Active; 'I' for Inactive)
ROOT
ATOM      1  C   UNL d   1       2.029  -5.978  -5.607  0.00  0.00     0.172 C 
ATOM      2  N   UNL d   1       2.845  -5.986  -4.416  0.00  0.00    -0.070 N 
ATOM      3  C1  UNL d   1       2.379  -5.989  -3.128  0.00  0.00    -0.004 A 
ATOM      4  C2  UNL d   1       3.469  -5.997  -2.285  0.00  0.00    -0.047 A 
ATOM      5  C3  UNL d   1       4.630  -5.998  -3.094  0.00  0.00    -0.047 A 
ATOM      6  C4  UNL d   1       4.215  -5.991  -4.409  0.00  0.00    -0.004 A 
ENDROOT
TORSDOF 0
ENDMDL
