MODEL 1
REMARK minimizedAffinity 5.16359377
REMARK minimizedRMSD -1
REMARK  0 active torsions:
REMARK  status: ('A' for Active; 'I' for Inactive)
ROOT
ATOM      1  C   UNL d   1      -4.497   1.541  -5.136  0.00  0.00     0.172 C 
ATOM      2  N   UNL d   1      -3.973   0.765  -4.037  0.00  0.00    -0.070 N 
ATOM      3  C1  UNL d   1      -3.985  -0.601  -3.948  0.00  0.00    -0.004 A 
ATOM      4  C2  UNL d   1      -3.394  -0.952  -2.753  0.00  0.00    -0.047 A 
ATOM      5  C3  UNL d   1      -3.014   0.246  -2.101  0.00  0.00    -0.047 A 
ATOM      6  C4  UNL d   1      -3.384   1.293  -2.918  0.00  0.00    -0.004 A 
ENDROOT
TORSDOF 0
ENDMDL
