MODEL 1
REMARK minimizedAffinity 7.21901608
REMARK minimizedRMSD -1
REMARK  0 active torsions:
REMARK  status: ('A' for Active; 'I' for Inactive)
ROOT
ATOM      1  C   UNL d   1       1.828  -4.651   2.879  0.00  0.00     0.172 C 
ATOM      2  N   UNL d   1       1.771  -3.208   2.850  0.00  0.00    -0.070 N 
ATOM      3  C1  UNL d   1       2.757  -2.380   2.383  0.00  0.00    -0.004 A 
ATOM      4  C2  UNL d   1       2.320  -1.081   2.527  0.00  0.00    -0.047 A 
ATOM      5  C3  UNL d   1       1.027  -1.130   3.100  0.00  0.00    -0.047 A 
ATOM      6  C4  UNL d   1       0.712  -2.459   3.290  0.00  0.00    -0.004 A 
ENDROOT
TORSDOF 0
ENDMDL
