MODEL 1
REMARK minimizedAffinity 1.1731863
REMARK minimizedRMSD -1
REMARK  0 active torsions:
REMARK  status: ('A' for Active; 'I' for Inactive)
ROOT
ATOM      1  C   UNL d   1       1.927  -1.180   2.477  0.00  0.00     0.172 C 
ATOM      2  N   UNL d   1       2.210  -2.335   3.296  0.00  0.00    -0.070 N 
ATOM      3  C1  UNL d   1       2.913  -2.327   4.471  0.00  0.00    -0.004 A 
ATOM      4  C2  UNL d   1       2.963  -3.622   4.942  0.00  0.00    -0.047 A 
ATOM      5  C3  UNL d   1       2.267  -4.436   4.017  0.00  0.00    -0.047 A 
ATOM      6  C4  UNL d   1       1.811  -3.613   3.008  0.00  0.00    -0.004 A 
ENDROOT
TORSDOF 0
ENDMDL
