MODEL 1
REMARK minimizedAffinity -1.86061549
REMARK minimizedRMSD -1
REMARK  0 active torsions:
REMARK  status: ('A' for Active; 'I' for Inactive)
ROOT
ATOM      1  C   UNL d   1       1.490  -4.258   5.282  0.00  0.00     0.172 C 
ATOM      2  N   UNL d   1       1.849  -3.404   4.175  0.00  0.00    -0.070 N 
ATOM      3  C1  UNL d   1       2.723  -3.725   3.170  0.00  0.00    -0.004 A 
ATOM      4  C2  UNL d   1       2.794  -2.648   2.312  0.00  0.00    -0.047 A 
ATOM      5  C3  UNL d   1       1.933  -1.646   2.819  0.00  0.00    -0.047 A 
ATOM      6  C4  UNL d   1       1.361  -2.140   3.972  0.00  0.00    -0.004 A 
ENDROOT
TORSDOF 0
ENDMDL
