MODEL 1
REMARK minimizedAffinity 0.510083735
REMARK minimizedRMSD -1
REMARK  0 active torsions:
REMARK  status: ('A' for Active; 'I' for Inactive)
ROOT
ATOM      1  C   UNL d   1       5.626  -6.000  -3.963  0.00  0.00     0.172 C 
ATOM      2  N   UNL d   1       4.240  -5.990  -4.368  0.00  0.00    -0.070 N 
ATOM      3  C1  UNL d   1       3.162  -5.971  -3.524  0.00  0.00    -0.004 A 
ATOM      4  C2  UNL d   1       2.021  -5.967  -4.297  0.00  0.00    -0.047 A 
ATOM      5  C3  UNL d   1       2.428  -5.985  -5.653  0.00  0.00    -0.047 A 
ATOM      6  C4  UNL d   1       3.807  -5.999  -5.668  0.00  0.00    -0.004 A 
ENDROOT
TORSDOF 0
ENDMDL
