MODEL 1
REMARK minimizedAffinity -5.35447979
REMARK minimizedRMSD -1
REMARK  1 active torsions:
REMARK  status: ('A' for Active; 'I' for Inactive)
REMARK    1  A    between atoms: C1_2  and  C2_3 
ROOT
ATOM      1  C2  UNL d   1      -0.674  -0.659   0.105  0.00  0.00    -0.081 A 
ATOM      2  C3  UNL d   1      -1.618   0.300   0.490  0.00  0.00     0.006 A 
ATOM      3  C4  UNL d   1      -1.281   1.655   0.517  0.00  0.00     0.002 A 
ATOM      4  C5  UNL d   1       0.003   2.074   0.153  0.00  0.00    -0.080 A 
ATOM      5  C6  UNL d   1       0.369   3.529   0.149  0.00  0.00     0.076 C 
ATOM      6  C7  UNL d   1       0.952   1.115  -0.215  0.00  0.00     0.002 A 
ATOM      7  C8  UNL d   1       0.616  -0.240  -0.242  0.00  0.00     0.006 A 
ENDROOT
BRANCH   1   8
ATOM      8  C1  UNL d   1      -1.053  -2.115   0.012  0.00  0.00     0.054 C 
ATOM      9  C   UNL d   1      -0.402  -2.781  -1.191  0.00  0.00     0.018 C 
ENDBRANCH   1   8
TORSDOF 1
ENDMDL
