MODEL 1
REMARK minimizedAffinity -4.58044291
REMARK minimizedRMSD -1
REMARK  1 active torsions:
REMARK  status: ('A' for Active; 'I' for Inactive)
REMARK    1  A    between atoms: C1_2  and  C2_3 
ROOT
ATOM      1  C2  UNL d   1       1.107   2.229   0.314  0.00  0.00    -0.081 A 
ATOM      2  C3  UNL d   1      -0.002   2.986   0.709  0.00  0.00     0.006 A 
ATOM      3  C4  UNL d   1      -1.254   2.384   0.858  0.00  0.00     0.002 A 
ATOM      4  C5  UNL d   1      -1.415   1.014   0.623  0.00  0.00    -0.080 A 
ATOM      5  C6  UNL d   1      -2.746   0.349   0.809  0.00  0.00     0.076 C 
ATOM      6  C7  UNL d   1      -0.310   0.261   0.212  0.00  0.00     0.002 A 
ATOM      7  C8  UNL d   1       0.941   0.863   0.062  0.00  0.00     0.006 A 
ENDROOT
BRANCH   1   8
ATOM      8  C1  UNL d   1       2.471   2.863   0.215  0.00  0.00     0.054 C 
ATOM      9  C   UNL d   1       3.575   1.825   0.356  0.00  0.00     0.018 C 
ENDBRANCH   1   8
TORSDOF 1
ENDMDL
