MODEL 1
REMARK minimizedAffinity -2.67466712
REMARK minimizedRMSD -1
REMARK  1 active torsions:
REMARK  status: ('A' for Active; 'I' for Inactive)
REMARK    1  A    between atoms: C1_2  and  C2_3 
ROOT
ATOM      1  C2  UNL d   1      -0.425  -0.144  -0.070  0.00  0.00    -0.081 A 
ATOM      2  C3  UNL d   1      -0.972   1.098   0.271  0.00  0.00     0.006 A 
ATOM      3  C4  UNL d   1      -0.161   2.112   0.788  0.00  0.00     0.002 A 
ATOM      4  C5  UNL d   1       1.211   1.902   0.964  0.00  0.00    -0.080 A 
ATOM      5  C6  UNL d   1       2.098   2.991   1.489  0.00  0.00     0.076 C 
ATOM      6  C7  UNL d   1       1.755   0.654   0.639  0.00  0.00     0.002 A 
ATOM      7  C8  UNL d   1       0.944  -0.359   0.123  0.00  0.00     0.006 A 
ENDROOT
BRANCH   1   8
ATOM      8  C1  UNL d   1      -1.285  -1.217  -0.688  0.00  0.00     0.054 C 
ATOM      9  C   UNL d   1      -0.779  -2.607  -0.330  0.00  0.00     0.018 C 
ENDBRANCH   1   8
TORSDOF 1
ENDMDL
