MODEL 1
REMARK minimizedAffinity -4.3697238
REMARK minimizedRMSD -1
REMARK  1 active torsions:
REMARK  status: ('A' for Active; 'I' for Inactive)
REMARK    1  A    between atoms: C1_2  and  C2_3 
ROOT
ATOM      1  C2  UNL d   1      -0.135  -1.000  -0.136  0.00  0.00    -0.081 A 
ATOM      2  C3  UNL d   1      -1.249  -0.246   0.255  0.00  0.00     0.006 A 
ATOM      3  C4  UNL d   1      -1.177   1.148   0.309  0.00  0.00     0.002 A 
ATOM      4  C5  UNL d   1       0.006   1.811  -0.034  0.00  0.00    -0.080 A 
ATOM      5  C6  UNL d   1       0.088   3.308  -0.010  0.00  0.00     0.076 C 
ATOM      6  C7  UNL d   1       1.124   1.057  -0.408  0.00  0.00     0.002 A 
ATOM      7  C8  UNL d   1       1.053  -0.336  -0.462  0.00  0.00     0.006 A 
ENDROOT
BRANCH   1   8
ATOM      8  C1  UNL d   1      -0.229  -2.500  -0.258  0.00  0.00     0.054 C 
ATOM      9  C   UNL d   1      -0.291  -2.934  -1.716  0.00  0.00     0.018 C 
ENDBRANCH   1   8
TORSDOF 1
ENDMDL
