MODEL 1
REMARK minimizedAffinity -3.38636756
REMARK minimizedRMSD -1
REMARK  1 active torsions:
REMARK  status: ('A' for Active; 'I' for Inactive)
REMARK    1  A    between atoms: C1_2  and  C2_3 
ROOT
ATOM      1  C2  UNL d   1      -0.179  -0.923   0.061  0.00  0.00    -0.081 A 
ATOM      2  C3  UNL d   1      -1.145  -0.878   1.073  0.00  0.00     0.006 A 
ATOM      3  C4  UNL d   1      -1.660   0.346   1.507  0.00  0.00     0.002 A 
ATOM      4  C5  UNL d   1      -1.224   1.543   0.930  0.00  0.00    -0.080 A 
ATOM      5  C6  UNL d   1      -1.790   2.862   1.365  0.00  0.00     0.076 C 
ATOM      6  C7  UNL d   1      -0.245   1.500  -0.069  0.00  0.00     0.002 A 
ATOM      7  C8  UNL d   1       0.271   0.276  -0.502  0.00  0.00     0.006 A 
ENDROOT
BRANCH   1   8
ATOM      8  C1  UNL d   1       0.331  -2.245  -0.453  0.00  0.00     0.054 C 
ATOM      9  C   UNL d   1      -0.788  -3.064  -1.081  0.00  0.00     0.018 C 
ENDBRANCH   1   8
TORSDOF 1
ENDMDL
