MODEL 1
REMARK minimizedAffinity -4.77551746
REMARK minimizedRMSD -1
REMARK  1 active torsions:
REMARK  status: ('A' for Active; 'I' for Inactive)
REMARK    1  A    between atoms: C1_2  and  C2_3 
ROOT
ATOM      1  C2  UNL d   1      -0.341  -0.742   0.148  0.00  0.00    -0.081 A 
ATOM      2  C3  UNL d   1      -1.204  -0.039   0.998  0.00  0.00     0.006 A 
ATOM      3  C4  UNL d   1      -1.154   1.356   1.061  0.00  0.00     0.002 A 
ATOM      4  C5  UNL d   1      -0.246   2.070   0.272  0.00  0.00    -0.080 A 
ATOM      5  C6  UNL d   1      -0.203   3.569   0.309  0.00  0.00     0.076 C 
ATOM      6  C7  UNL d   1       0.628   1.366  -0.564  0.00  0.00     0.002 A 
ATOM      7  C8  UNL d   1       0.578  -0.028  -0.627  0.00  0.00     0.006 A 
ENDROOT
BRANCH   1   8
ATOM      8  C1  UNL d   1      -0.437  -2.242   0.029  0.00  0.00     0.054 C 
ATOM      9  C   UNL d   1      -0.303  -2.692  -1.419  0.00  0.00     0.018 C 
ENDBRANCH   1   8
TORSDOF 1
ENDMDL
