MODEL 1
REMARK minimizedAffinity -5.72517109
REMARK minimizedRMSD -1
REMARK  1 active torsions:
REMARK  status: ('A' for Active; 'I' for Inactive)
REMARK    1  A    between atoms: C1_2  and  C2_3 
ROOT
ATOM      1  C2  UNL d   1      -0.193  -0.517   0.004  0.00  0.00    -0.081 A 
ATOM      2  C3  UNL d   1      -1.230   0.299   0.473  0.00  0.00     0.006 A 
ATOM      3  C4  UNL d   1      -1.069   1.686   0.527  0.00  0.00     0.002 A 
ATOM      4  C5  UNL d   1       0.126   2.279   0.107  0.00  0.00    -0.080 A 
ATOM      5  C6  UNL d   1       0.301   3.769   0.132  0.00  0.00     0.076 C 
ATOM      6  C7  UNL d   1       1.168   1.462  -0.345  0.00  0.00     0.002 A 
ATOM      7  C8  UNL d   1       1.008   0.076  -0.399  0.00  0.00     0.006 A 
ENDROOT
BRANCH   1   8
ATOM      8  C1  UNL d   1      -0.387  -2.007  -0.117  0.00  0.00     0.054 C 
ATOM      9  C   UNL d   1      -0.344  -2.455  -1.571  0.00  0.00     0.018 C 
ENDBRANCH   1   8
TORSDOF 1
ENDMDL
