MODEL 1
REMARK minimizedAffinity 4.64661932
REMARK minimizedRMSD -1
REMARK  1 active torsions:
REMARK  status: ('A' for Active; 'I' for Inactive)
REMARK    1  A    between atoms: C1_2  and  C2_3 
ROOT
ATOM      1  C2  UNL d   1       1.059  -0.076   0.473  0.00  0.00    -0.081 A 
ATOM      2  C3  UNL d   1       0.736   1.062   1.223  0.00  0.00     0.006 A 
ATOM      3  C4  UNL d   1      -0.599   1.394   1.467  0.00  0.00     0.002 A 
ATOM      4  C5  UNL d   1      -1.632   0.590   0.974  0.00  0.00    -0.080 A 
ATOM      5  C6  UNL d   1      -3.068   0.918   1.254  0.00  0.00     0.076 C 
ATOM      6  C7  UNL d   1      -1.310  -0.537   0.210  0.00  0.00     0.002 A 
ATOM      7  C8  UNL d   1       0.025  -0.869  -0.035  0.00  0.00     0.006 A 
ENDROOT
BRANCH   1   8
ATOM      8  C1  UNL d   1       2.498  -0.472   0.262  0.00  0.00     0.054 C 
ATOM      9  C   UNL d   1       3.441   0.678   0.587  0.00  0.00     0.018 C 
ENDBRANCH   1   8
TORSDOF 1
ENDMDL
