MODEL 1
REMARK minimizedAffinity -3.60189366
REMARK minimizedRMSD -1
REMARK  1 active torsions:
REMARK  status: ('A' for Active; 'I' for Inactive)
REMARK    1  A    between atoms: C1_2  and  C2_3 
ROOT
ATOM      1  C2  UNL d   1       0.235   0.129   0.364  0.00  0.00    -0.081 A 
ATOM      2  C3  UNL d   1      -0.802   0.976   0.775  0.00  0.00     0.006 A 
ATOM      3  C4  UNL d   1      -0.650   2.364   0.709  0.00  0.00     0.002 A 
ATOM      4  C5  UNL d   1       0.535   2.926   0.225  0.00  0.00    -0.080 A 
ATOM      5  C6  UNL d   1       0.699   4.413   0.121  0.00  0.00     0.076 C 
ATOM      6  C7  UNL d   1       1.577   2.080  -0.169  0.00  0.00     0.002 A 
ATOM      7  C8  UNL d   1       1.427   0.693  -0.103  0.00  0.00     0.006 A 
ENDROOT
BRANCH   1   8
ATOM      8  C1  UNL d   1       0.051  -1.367   0.373  0.00  0.00     0.054 C 
ATOM      9  C   UNL d   1      -0.322  -1.887  -1.008  0.00  0.00     0.018 C 
ENDBRANCH   1   8
TORSDOF 1
ENDMDL
