MODEL 1
REMARK minimizedAffinity -3.07081652
REMARK minimizedRMSD -1
REMARK  1 active torsions:
REMARK  status: ('A' for Active; 'I' for Inactive)
REMARK    1  A    between atoms: C1_2  and  C2_3 
ROOT
ATOM      1  C2  UNL d   1       0.031   0.981   0.528  0.00  0.00    -0.081 A 
ATOM      2  C3  UNL d   1       0.845   0.159  -0.261  0.00  0.00     0.006 A 
ATOM      3  C4  UNL d   1       0.501  -1.177  -0.480  0.00  0.00     0.002 A 
ATOM      4  C5  UNL d   1      -0.666  -1.710   0.077  0.00  0.00    -0.080 A 
ATOM      5  C6  UNL d   1      -1.063  -3.134  -0.176  0.00  0.00     0.076 C 
ATOM      6  C7  UNL d   1      -1.470  -0.894   0.879  0.00  0.00     0.002 A 
ATOM      7  C8  UNL d   1      -1.126   0.442   1.100  0.00  0.00     0.006 A 
ENDROOT
BRANCH   1   8
ATOM      8  C1  UNL d   1       0.366   2.439   0.714  0.00  0.00     0.054 C 
ATOM      9  C   UNL d   1       0.826   3.072  -0.592  0.00  0.00     0.018 C 
ENDBRANCH   1   8
TORSDOF 1
ENDMDL
