MODEL 1
REMARK minimizedAffinity 28.7938614
REMARK minimizedRMSD -1
REMARK  0 active torsions:
REMARK  status: ('A' for Active; 'I' for Inactive)
ROOT
ATOM      1  C   UNL d   1       3.734   3.699  -1.258  0.00  0.00     0.124 A 
ATOM      2  C1  UNL d   1       3.349   2.785  -2.229  0.00  0.00     0.062 A 
ATOM      3  C2  UNL d   1       2.503   1.730  -1.901  0.00  0.00     0.162 A 
ATOM      4  C3  UNL d   1       2.035   1.583  -0.595  0.00  0.00    -0.034 A 
ATOM      5  C4  UNL d   1       2.427   2.506   0.376  0.00  0.00     0.162 A 
ATOM      6  C5  UNL d   1       3.273   3.559   0.043  0.00  0.00     0.062 A 
ATOM      7  F   UNL d   1       3.644   4.441   0.983  0.00  0.00    -0.097 F 
ATOM      8  F1  UNL d   1       1.996   2.394   1.641  0.00  0.00    -0.096 F 
ATOM      9  I   UNL d   1       0.770   0.006  -0.100  0.00  0.00    -0.060 I 
ATOM     10  F2  UNL d   1       2.147   0.861  -2.859  0.00  0.00    -0.096 F 
ATOM     11  F3  UNL d   1       3.794   2.918  -3.487  0.00  0.00    -0.097 F 
ATOM     12  F4  UNL d   1       4.549   4.713  -1.577  0.00  0.00    -0.092 F 
ENDROOT
TORSDOF 0
ENDMDL
