MODEL 1
REMARK minimizedAffinity 3.3927784
REMARK minimizedRMSD -1
REMARK  0 active torsions:
REMARK  status: ('A' for Active; 'I' for Inactive)
ROOT
ATOM      1  C   UNL d   1      -0.048  -3.262   4.018  0.00  0.00     0.124 A 
ATOM      2  C1  UNL d   1       1.143  -3.184   3.310  0.00  0.00     0.062 A 
ATOM      3  C2  UNL d   1       1.238  -2.365   2.188  0.00  0.00     0.162 A 
ATOM      4  C3  UNL d   1       0.138  -1.617   1.767  0.00  0.00    -0.034 A 
ATOM      5  C4  UNL d   1      -1.057  -1.702   2.484  0.00  0.00     0.162 A 
ATOM      6  C5  UNL d   1      -1.147  -2.522   3.605  0.00  0.00     0.062 A 
ATOM      7  F   UNL d   1      -2.299  -2.597   4.288  0.00  0.00    -0.097 F 
ATOM      8  F1  UNL d   1      -2.134  -0.997   2.108  0.00  0.00    -0.096 F 
ATOM      9  I   UNL d   1       0.275  -0.392   0.091  0.00  0.00    -0.060 I 
ATOM     10  F2  UNL d   1       2.401  -2.309   1.523  0.00  0.00    -0.096 F 
ATOM     11  F3  UNL d   1       2.205  -3.899   3.706  0.00  0.00    -0.097 F 
ATOM     12  F4  UNL d   1      -0.137  -4.051   5.096  0.00  0.00    -0.092 F 
ENDROOT
TORSDOF 0
ENDMDL
