MODEL 1
REMARK minimizedAffinity 19.6500645
REMARK minimizedRMSD -1
REMARK  0 active torsions:
REMARK  status: ('A' for Active; 'I' for Inactive)
ROOT
ATOM      1  C   UNL d   1      -2.548  -3.217  -2.413  0.00  0.00     0.124 A 
ATOM      2  C1  UNL d   1      -1.615  -4.205  -2.130  0.00  0.00     0.062 A 
ATOM      3  C2  UNL d   1      -1.107  -5.001  -3.153  0.00  0.00     0.162 A 
ATOM      4  C3  UNL d   1      -1.530  -4.812  -4.468  0.00  0.00    -0.034 A 
ATOM      5  C4  UNL d   1      -2.469  -3.817  -4.745  0.00  0.00     0.162 A 
ATOM      6  C5  UNL d   1      -2.974  -3.024  -3.720  0.00  0.00     0.062 A 
ATOM      7  F   UNL d   1      -3.876  -2.070  -3.995  0.00  0.00    -0.097 F 
ATOM      8  F1  UNL d   1      -2.897  -3.608  -5.999  0.00  0.00    -0.096 F 
ATOM      9  I   UNL d   1      -0.772  -6.000  -6.000  0.00  0.00    -0.060 I 
ATOM     10  F2  UNL d   1      -0.206  -5.948  -2.850  0.00  0.00    -0.096 F 
ATOM     11  F3  UNL d   1      -1.203  -4.394  -0.869  0.00  0.00    -0.097 F 
ATOM     12  F4  UNL d   1      -3.037  -2.453  -1.428  0.00  0.00    -0.092 F 
ENDROOT
TORSDOF 0
ENDMDL
