MODEL 1
REMARK minimizedAffinity 6.91314602
REMARK minimizedRMSD -1
REMARK  0 active torsions:
REMARK  status: ('A' for Active; 'I' for Inactive)
ROOT
ATOM      1  C   UNL d   1      -1.863   4.332  -3.693  0.00  0.00     0.124 A 
ATOM      2  C1  UNL d   1      -2.609   4.178  -2.533  0.00  0.00     0.062 A 
ATOM      3  C2  UNL d   1      -2.160   3.337  -1.518  0.00  0.00     0.162 A 
ATOM      4  C3  UNL d   1      -0.957   2.644  -1.660  0.00  0.00    -0.034 A 
ATOM      5  C4  UNL d   1      -0.213   2.804  -2.830  0.00  0.00     0.162 A 
ATOM      6  C5  UNL d   1      -0.666   3.646  -3.841  0.00  0.00     0.062 A 
ATOM      7  F   UNL d   1       0.055   3.794  -4.961  0.00  0.00    -0.097 F 
ATOM      8  F1  UNL d   1       0.948   2.154  -2.998  0.00  0.00    -0.096 F 
ATOM      9  I   UNL d   1      -0.281   1.386  -0.146  0.00  0.00    -0.060 I 
ATOM     10  F2  UNL d   1      -2.901   3.206  -0.408  0.00  0.00    -0.096 F 
ATOM     11  F3  UNL d   1      -3.766   4.839  -2.388  0.00  0.00    -0.097 F 
ATOM     12  F4  UNL d   1      -2.299   5.141  -4.668  0.00  0.00    -0.092 F 
ENDROOT
TORSDOF 0
ENDMDL
