MODEL 1
REMARK minimizedAffinity 23.2149677
REMARK minimizedRMSD -1
REMARK  0 active torsions:
REMARK  status: ('A' for Active; 'I' for Inactive)
ROOT
ATOM      1  C   UNL d   1       1.456   0.086   0.583  0.00  0.00     0.124 A 
ATOM      2  C1  UNL d   1       1.816  -1.207   0.231  0.00  0.00     0.062 A 
ATOM      3  C2  UNL d   1       3.047  -1.723   0.624  0.00  0.00     0.162 A 
ATOM      4  C3  UNL d   1       3.928  -0.945   1.375  0.00  0.00    -0.034 A 
ATOM      5  C4  UNL d   1       3.560   0.355   1.724  0.00  0.00     0.162 A 
ATOM      6  C5  UNL d   1       2.328   0.866   1.329  0.00  0.00     0.062 A 
ATOM      7  F   UNL d   1       1.983   2.116   1.669  0.00  0.00    -0.097 F 
ATOM      8  F1  UNL d   1       4.383   1.131   2.446  0.00  0.00    -0.096 F 
ATOM      9  I   UNL d   1       5.771  -1.713   1.966  0.00  0.00    -0.060 I 
ATOM     10  F2  UNL d   1       3.368  -2.976   0.270  0.00  0.00    -0.096 F 
ATOM     11  F3  UNL d   1       0.975  -1.963  -0.491  0.00  0.00    -0.097 F 
ATOM     12  F4  UNL d   1       0.271   0.580   0.202  0.00  0.00    -0.092 F 
ENDROOT
TORSDOF 0
ENDMDL
