MODEL 1
REMARK minimizedAffinity 26.9874363
REMARK minimizedRMSD -1
REMARK  0 active torsions:
REMARK  status: ('A' for Active; 'I' for Inactive)
ROOT
ATOM      1  C   UNL d   1      -0.103  -3.375   4.880  0.00  0.00     0.124 A 
ATOM      2  C1  UNL d   1      -1.176  -2.585   4.490  0.00  0.00     0.062 A 
ATOM      3  C2  UNL d   1      -1.099  -1.824   3.327  0.00  0.00     0.162 A 
ATOM      4  C3  UNL d   1       0.055  -1.851   2.543  0.00  0.00    -0.034 A 
ATOM      5  C4  UNL d   1       1.130  -2.647   2.942  0.00  0.00     0.162 A 
ATOM      6  C5  UNL d   1       1.049  -3.405   4.105  0.00  0.00     0.062 A 
ATOM      7  F   UNL d   1       2.086  -4.168   4.480  0.00  0.00    -0.097 F 
ATOM      8  F1  UNL d   1       2.254  -2.696   2.212  0.00  0.00    -0.096 F 
ATOM      9  I   UNL d   1       0.173  -0.715   0.803  0.00  0.00    -0.060 I 
ATOM     10  F2  UNL d   1      -2.151  -1.070   2.975  0.00  0.00    -0.096 F 
ATOM     11  F3  UNL d   1      -2.289  -2.553   5.237  0.00  0.00    -0.097 F 
ATOM     12  F4  UNL d   1      -0.179  -4.105   6.000  0.00  0.00    -0.092 F 
ENDROOT
TORSDOF 0
ENDMDL
