MODEL 1
REMARK minimizedAffinity 25.5204201
REMARK minimizedRMSD -1
REMARK  0 active torsions:
REMARK  status: ('A' for Active; 'I' for Inactive)
ROOT
ATOM      1  C   UNL d   1       0.477  -3.422   4.111  0.00  0.00     0.124 A 
ATOM      2  C1  UNL d   1       1.518  -3.430   3.194  0.00  0.00     0.062 A 
ATOM      3  C2  UNL d   1       1.412  -2.708   2.009  0.00  0.00     0.162 A 
ATOM      4  C3  UNL d   1       0.261  -1.970   1.735  0.00  0.00    -0.034 A 
ATOM      5  C4  UNL d   1      -0.783  -1.967   2.662  0.00  0.00     0.162 A 
ATOM      6  C5  UNL d   1      -0.672  -2.691   3.845  0.00  0.00     0.062 A 
ATOM      7  F   UNL d   1      -1.679  -2.682   4.731  0.00  0.00    -0.097 F 
ATOM      8  F1  UNL d   1      -1.904  -1.268   2.431  0.00  0.00    -0.096 F 
ATOM      9  I   UNL d   1       0.098  -0.888  -0.036  0.00  0.00    -0.060 I 
ATOM     10  F2  UNL d   1       2.434  -2.734   1.140  0.00  0.00    -0.096 F 
ATOM     11  F3  UNL d   1       2.629  -4.137   3.448  0.00  0.00    -0.097 F 
ATOM     12  F4  UNL d   1       0.581  -4.119   5.250  0.00  0.00    -0.092 F 
ENDROOT
TORSDOF 0
ENDMDL
