MODEL 1
REMARK minimizedAffinity 5.19901276
REMARK minimizedRMSD -1
REMARK  0 active torsions:
REMARK  status: ('A' for Active; 'I' for Inactive)
ROOT
ATOM      1  C   UNL d   1      -4.193  -2.313  -2.660  0.00  0.00     0.124 A 
ATOM      2  C1  UNL d   1      -4.825  -2.526  -3.877  0.00  0.00     0.062 A 
ATOM      3  C2  UNL d   1      -4.243  -3.354  -4.832  0.00  0.00     0.162 A 
ATOM      4  C3  UNL d   1      -3.021  -3.976  -4.574  0.00  0.00    -0.034 A 
ATOM      5  C4  UNL d   1      -2.391  -3.756  -3.348  0.00  0.00     0.162 A 
ATOM      6  C5  UNL d   1      -2.977  -2.928  -2.396  0.00  0.00     0.062 A 
ATOM      7  F   UNL d   1      -2.365  -2.723  -1.221  0.00  0.00    -0.097 F 
ATOM      8  F1  UNL d   1      -1.216  -4.338  -3.067  0.00  0.00    -0.096 F 
ATOM      9  I   UNL d   1      -2.147  -5.215  -6.000  0.00  0.00    -0.060 I 
ATOM     10  F2  UNL d   1      -4.875  -3.542  -6.000  0.00  0.00    -0.096 F 
ATOM     11  F3  UNL d   1      -5.999  -1.932  -4.134  0.00  0.00    -0.097 F 
ATOM     12  F4  UNL d   1      -4.755  -1.515  -1.743  0.00  0.00    -0.092 F 
ENDROOT
TORSDOF 0
ENDMDL
