MODEL 1
REMARK minimizedAffinity 8.43143845
REMARK minimizedRMSD -1
REMARK  0 active torsions:
REMARK  status: ('A' for Active; 'I' for Inactive)
ROOT
ATOM      1  C   UNL d   1       1.464   0.358   0.259  0.00  0.00     0.124 A 
ATOM      2  C1  UNL d   1       2.206   1.005   1.237  0.00  0.00     0.062 A 
ATOM      3  C2  UNL d   1       3.354   0.410   1.753  0.00  0.00     0.162 A 
ATOM      4  C3  UNL d   1       3.766  -0.840   1.292  0.00  0.00    -0.034 A 
ATOM      5  C4  UNL d   1       3.014  -1.486   0.309  0.00  0.00     0.162 A 
ATOM      6  C5  UNL d   1       1.868  -0.886  -0.204  0.00  0.00     0.062 A 
ATOM      7  F   UNL d   1       1.152  -1.513  -1.149  0.00  0.00    -0.097 F 
ATOM      8  F1  UNL d   1       3.382  -2.688  -0.157  0.00  0.00    -0.096 F 
ATOM      9  I   UNL d   1       5.481  -1.734   2.061  0.00  0.00    -0.060 I 
ATOM     10  F2  UNL d   1       4.052   1.058   2.697  0.00  0.00    -0.096 F 
ATOM     11  F3  UNL d   1       1.817   2.207   1.687  0.00  0.00    -0.097 F 
ATOM     12  F4  UNL d   1       0.360   0.933  -0.235  0.00  0.00    -0.092 F 
ENDROOT
TORSDOF 0
ENDMDL
