MODEL 1
REMARK minimizedAffinity 9.63426685
REMARK minimizedRMSD -1
REMARK  0 active torsions:
REMARK  status: ('A' for Active; 'I' for Inactive)
ROOT
ATOM      1  C   UNL d   1       0.310  -1.721   0.386  0.00  0.00     0.124 A 
ATOM      2  C1  UNL d   1       0.592  -2.710   1.319  0.00  0.00     0.062 A 
ATOM      3  C2  UNL d   1      -0.059  -2.717   2.550  0.00  0.00     0.162 A 
ATOM      4  C3  UNL d   1      -0.999  -1.732   2.854  0.00  0.00    -0.034 A 
ATOM      5  C4  UNL d   1      -1.276  -0.741   1.911  0.00  0.00     0.162 A 
ATOM      6  C5  UNL d   1      -0.623  -0.738   0.683  0.00  0.00     0.062 A 
ATOM      7  F   UNL d   1      -0.896   0.218  -0.217  0.00  0.00    -0.097 F 
ATOM      8  F1  UNL d   1      -2.174   0.221   2.171  0.00  0.00    -0.096 F 
ATOM      9  I   UNL d   1      -1.975  -1.739   4.693  0.00  0.00    -0.060 I 
ATOM     10  F2  UNL d   1       0.232  -3.684   3.432  0.00  0.00    -0.096 F 
ATOM     11  F3  UNL d   1       1.494  -3.661   1.035  0.00  0.00    -0.097 F 
ATOM     12  F4  UNL d   1       0.939  -1.716  -0.796  0.00  0.00    -0.092 F 
ENDROOT
TORSDOF 0
ENDMDL
