MODEL 1
REMARK minimizedAffinity 16.9276562
REMARK minimizedRMSD -1
REMARK  0 active torsions:
REMARK  status: ('A' for Active; 'I' for Inactive)
ROOT
ATOM      1  C   UNL d   1      -0.366   0.793   0.234  0.00  0.00     0.124 A 
ATOM      2  C1  UNL d   1      -0.603  -0.564   0.070  0.00  0.00     0.062 A 
ATOM      3  C2  UNL d   1      -1.805  -1.003  -0.477  0.00  0.00     0.162 A 
ATOM      4  C3  UNL d   1      -2.780  -0.083  -0.865  0.00  0.00    -0.034 A 
ATOM      5  C4  UNL d   1      -2.534   1.280  -0.695  0.00  0.00     0.162 A 
ATOM      6  C5  UNL d   1      -1.331   1.714  -0.148  0.00  0.00     0.062 A 
ATOM      7  F   UNL d   1      -1.103   3.026   0.011  0.00  0.00    -0.097 F 
ATOM      8  F1  UNL d   1      -3.449   2.192  -1.057  0.00  0.00    -0.096 F 
ATOM      9  I   UNL d   1      -4.579  -0.736  -1.683  0.00  0.00    -0.060 I 
ATOM     10  F2  UNL d   1      -2.007  -2.321  -0.625  0.00  0.00    -0.096 F 
ATOM     11  F3  UNL d   1       0.328  -1.456   0.439  0.00  0.00    -0.097 F 
ATOM     12  F4  UNL d   1       0.792   1.213   0.762  0.00  0.00    -0.092 F 
ENDROOT
TORSDOF 0
ENDMDL
