MODEL 1
REMARK minimizedAffinity 17.0642071
REMARK minimizedRMSD -1
REMARK  0 active torsions:
REMARK  status: ('A' for Active; 'I' for Inactive)
ROOT
ATOM      1  C   UNL d   1      -2.007  -1.397  -0.525  0.00  0.00     0.124 A 
ATOM      2  C1  UNL d   1      -3.104  -0.818  -1.149  0.00  0.00     0.062 A 
ATOM      3  C2  UNL d   1      -3.151   0.559  -1.346  0.00  0.00     0.162 A 
ATOM      4  C3  UNL d   1      -2.097   1.367  -0.920  0.00  0.00    -0.034 A 
ATOM      5  C4  UNL d   1      -0.998   0.778  -0.293  0.00  0.00     0.162 A 
ATOM      6  C5  UNL d   1      -0.956  -0.599  -0.098  0.00  0.00     0.062 A 
ATOM      7  F   UNL d   1       0.105  -1.156   0.504  0.00  0.00    -0.097 F 
ATOM      8  F1  UNL d   1       0.033   1.526   0.128  0.00  0.00    -0.096 F 
ATOM      9  I   UNL d   1      -2.164   3.427  -1.214  0.00  0.00    -0.060 I 
ATOM     10  F2  UNL d   1      -4.223   1.091  -1.952  0.00  0.00    -0.096 F 
ATOM     11  F3  UNL d   1      -4.122  -1.587  -1.561  0.00  0.00    -0.097 F 
ATOM     12  F4  UNL d   1      -1.965  -2.722  -0.336  0.00  0.00    -0.092 F 
ENDROOT
TORSDOF 0
ENDMDL
