MODEL 1
REMARK minimizedAffinity 11.7289925
REMARK minimizedRMSD -1
REMARK  0 active torsions:
REMARK  status: ('A' for Active; 'I' for Inactive)
ROOT
ATOM      1  C   UNL d   1      -3.045   0.763  -2.394  0.00  0.00     0.124 A 
ATOM      2  C1  UNL d   1      -4.122  -0.057  -2.089  0.00  0.00     0.062 A 
ATOM      3  C2  UNL d   1      -4.966  -0.510  -3.099  0.00  0.00     0.162 A 
ATOM      4  C3  UNL d   1      -4.735  -0.145  -4.425  0.00  0.00    -0.034 A 
ATOM      5  C4  UNL d   1      -3.649   0.680  -4.725  0.00  0.00     0.162 A 
ATOM      6  C5  UNL d   1      -2.809   1.130  -3.712  0.00  0.00     0.062 A 
ATOM      7  F   UNL d   1      -1.768   1.922  -4.009  0.00  0.00    -0.097 F 
ATOM      8  F1  UNL d   1      -3.398   1.050  -5.989  0.00  0.00    -0.096 F 
ATOM      9  I   UNL d   1      -5.994  -0.820  -5.939  0.00  0.00    -0.060 I 
ATOM     10  F2  UNL d   1      -6.000  -1.300  -2.774  0.00  0.00    -0.096 F 
ATOM     11  F3  UNL d   1      -4.353  -0.413  -0.817  0.00  0.00    -0.097 F 
ATOM     12  F4  UNL d   1      -2.235   1.198  -1.420  0.00  0.00    -0.092 F 
ENDROOT
TORSDOF 0
ENDMDL
