MODEL 1
REMARK minimizedAffinity 3.44678617
REMARK minimizedRMSD -1
REMARK  0 active torsions:
REMARK  status: ('A' for Active; 'I' for Inactive)
ROOT
ATOM      1  C   UNL d   1      -4.903  -1.066  -2.747  0.00  0.00     0.124 A 
ATOM      2  C1  UNL d   1      -3.953  -1.756  -2.008  0.00  0.00     0.062 A 
ATOM      3  C2  UNL d   1      -3.181  -2.746  -2.610  0.00  0.00     0.162 A 
ATOM      4  C3  UNL d   1      -3.355  -3.051  -3.960  0.00  0.00    -0.034 A 
ATOM      5  C4  UNL d   1      -4.314  -2.353  -4.697  0.00  0.00     0.162 A 
ATOM      6  C5  UNL d   1      -5.082  -1.364  -4.091  0.00  0.00     0.062 A 
ATOM      7  F   UNL d   1      -6.000  -0.698  -4.807  0.00  0.00    -0.097 F 
ATOM      8  F1  UNL d   1      -4.507  -2.620  -5.997  0.00  0.00    -0.096 F 
ATOM      9  I   UNL d   1      -2.203  -4.530  -4.863  0.00  0.00    -0.060 I 
ATOM     10  F2  UNL d   1      -2.270  -3.397  -1.871  0.00  0.00    -0.096 F 
ATOM     11  F3  UNL d   1      -3.778  -1.470  -0.710  0.00  0.00    -0.097 F 
ATOM     12  F4  UNL d   1      -5.645  -0.115  -2.165  0.00  0.00    -0.092 F 
ENDROOT
TORSDOF 0
ENDMDL
