MODEL 1
REMARK minimizedAffinity 13.943552
REMARK minimizedRMSD -1
REMARK  0 active torsions:
REMARK  status: ('A' for Active; 'I' for Inactive)
ROOT
ATOM      1  C   UNL d   1       0.214  -3.420   4.653  0.00  0.00     0.124 A 
ATOM      2  C1  UNL d   1       1.446  -3.497   4.018  0.00  0.00     0.062 A 
ATOM      3  C2  UNL d   1       1.679  -2.774   2.852  0.00  0.00     0.162 A 
ATOM      4  C3  UNL d   1       0.679  -1.966   2.313  0.00  0.00    -0.034 A 
ATOM      5  C4  UNL d   1      -0.558  -1.893   2.957  0.00  0.00     0.162 A 
ATOM      6  C5  UNL d   1      -0.786  -2.618   4.122  0.00  0.00     0.062 A 
ATOM      7  F   UNL d   1      -1.977  -2.542   4.734  0.00  0.00    -0.097 F 
ATOM      8  F1  UNL d   1      -1.542  -1.126   2.466  0.00  0.00    -0.096 F 
ATOM      9  I   UNL d   1       1.024  -0.883   0.570  0.00  0.00    -0.060 I 
ATOM     10  F2  UNL d   1       2.879  -2.868   2.260  0.00  0.00    -0.096 F 
ATOM     11  F3  UNL d   1       2.414  -4.272   4.529  0.00  0.00    -0.097 F 
ATOM     12  F4  UNL d   1      -0.008  -4.117   5.774  0.00  0.00    -0.092 F 
ENDROOT
TORSDOF 0
ENDMDL
