MODEL 1
REMARK minimizedAffinity -4.68585825
REMARK minimizedRMSD -1
REMARK  0 active torsions:
REMARK  status: ('A' for Active; 'I' for Inactive)
ROOT
ATOM      1  O1  BZF d   1      -1.471   1.350  -2.839  0.00  0.00    -0.204 OA
ATOM      2  C2  BZF d   1      -1.822   2.159  -3.903  0.00  0.00     0.174 A 
ATOM      3  C3  BZF d   1      -3.135   2.462  -3.860  0.00  0.00    -0.012 A 
ATOM      4  C3A BZF d   1      -3.617   1.877  -2.646  0.00  0.00    -0.107 A 
ATOM      5  C4  BZF d   1      -4.840   1.847  -2.039  0.00  0.00     0.055 A 
ATOM      6  C5  BZF d   1      -4.993   1.127  -0.897  0.00  0.00    -0.016 A 
ATOM      7  C6  BZF d   1      -3.948   0.422  -0.338  0.00  0.00     0.022 A 
ATOM      8  C7  BZF d   1      -2.715   0.426  -0.901  0.00  0.00     0.029 A 
ATOM      9  C7A BZF d   1      -2.549   1.179  -2.037  0.00  0.00     0.058 A 
ENDROOT
TORSDOF 0
ENDMDL
