MODEL 1
REMARK minimizedAffinity -2.25709486
REMARK minimizedRMSD -1
REMARK  0 active torsions:
REMARK  status: ('A' for Active; 'I' for Inactive)
ROOT
ATOM      1  O1  BZF d   1       3.886  -0.390   1.707  0.00  0.00    -0.204 OA
ATOM      2  C2  BZF d   1       5.008  -0.312   2.509  0.00  0.00     0.174 A 
ATOM      3  C3  BZF d   1       4.747  -0.785   3.744  0.00  0.00    -0.012 A 
ATOM      4  C3A BZF d   1       3.402  -1.269   3.685  0.00  0.00    -0.107 A 
ATOM      5  C4  BZF d   1       2.580  -1.870   4.595  0.00  0.00     0.055 A 
ATOM      6  C5  BZF d   1       1.298  -2.152   4.242  0.00  0.00    -0.016 A 
ATOM      7  C6  BZF d   1       0.806  -1.844   2.991  0.00  0.00     0.022 A 
ATOM      8  C7  BZF d   1       1.585  -1.253   2.053  0.00  0.00     0.029 A 
ATOM      9  C7A BZF d   1       2.890  -0.996   2.396  0.00  0.00     0.058 A 
ENDROOT
TORSDOF 0
ENDMDL
