MODEL 1
REMARK minimizedAffinity 1.41248548
REMARK minimizedRMSD -1
REMARK  0 active torsions:
REMARK  status: ('A' for Active; 'I' for Inactive)
ROOT
ATOM      1  O1  BZF d   1       3.575  -1.226   2.001  0.00  0.00    -0.204 OA
ATOM      2  C2  BZF d   1       2.994  -1.984   3.000  0.00  0.00     0.174 A 
ATOM      3  C3  BZF d   1       1.652  -1.853   2.979  0.00  0.00    -0.012 A 
ATOM      4  C3A BZF d   1       1.371  -1.031   1.842  0.00  0.00    -0.107 A 
ATOM      5  C4  BZF d   1       0.216  -0.560   1.287  0.00  0.00     0.055 A 
ATOM      6  C5  BZF d   1       0.290   0.279   0.221  0.00  0.00    -0.016 A 
ATOM      7  C6  BZF d   1       1.501   0.671  -0.312  0.00  0.00     0.022 A 
ATOM      8  C7  BZF d   1       2.673   0.226   0.201  0.00  0.00     0.029 A 
ATOM      9  C7A BZF d   1       2.601  -0.648   1.259  0.00  0.00     0.058 A 
ENDROOT
TORSDOF 0
ENDMDL
