MODEL 1
REMARK minimizedAffinity -0.821725905
REMARK minimizedRMSD -1
REMARK  0 active torsions:
REMARK  status: ('A' for Active; 'I' for Inactive)
ROOT
ATOM      1  O1  BZF d   1       2.014  -0.174   0.452  0.00  0.00    -0.204 OA
ATOM      2  C2  BZF d   1       0.754  -0.662   0.741  0.00  0.00     0.174 A 
ATOM      3  C3  BZF d   1       0.742  -1.277   1.941  0.00  0.00    -0.012 A 
ATOM      4  C3A BZF d   1       2.056  -1.084   2.475  0.00  0.00    -0.107 A 
ATOM      5  C4  BZF d   1       2.656  -1.450   3.646  0.00  0.00     0.055 A 
ATOM      6  C5  BZF d   1       3.974  -1.171   3.828  0.00  0.00    -0.016 A 
ATOM      7  C6  BZF d   1       4.721  -0.533   2.859  0.00  0.00     0.022 A 
ATOM      8  C7  BZF d   1       4.168  -0.147   1.684  0.00  0.00     0.029 A 
ATOM      9  C7A BZF d   1       2.829  -0.398   1.511  0.00  0.00     0.058 A 
ENDROOT
TORSDOF 0
ENDMDL
