MODEL 1
REMARK minimizedAffinity -0.320350528
REMARK minimizedRMSD -1
REMARK  0 active torsions:
REMARK  status: ('A' for Active; 'I' for Inactive)
ROOT
ATOM      1  O1  BZF d   1       0.667   0.601   1.128  0.00  0.00    -0.204 OA
ATOM      2  C2  BZF d   1      -0.072   0.311  -0.003  0.00  0.00     0.174 A 
ATOM      3  C3  BZF d   1      -0.017  -1.006  -0.286  0.00  0.00    -0.012 A 
ATOM      4  C3A BZF d   1       0.732  -1.590   0.785  0.00  0.00    -0.107 A 
ATOM      5  C4  BZF d   1       1.111  -2.869   1.078  0.00  0.00     0.055 A 
ATOM      6  C5  BZF d   1       1.900  -3.093   2.161  0.00  0.00    -0.016 A 
ATOM      7  C6  BZF d   1       2.332  -2.062   2.970  0.00  0.00     0.022 A 
ATOM      8  C7  BZF d   1       1.978  -0.777   2.723  0.00  0.00     0.029 A 
ATOM      9  C7A BZF d   1       1.153  -0.552   1.647  0.00  0.00     0.058 A 
ENDROOT
TORSDOF 0
ENDMDL
