MODEL 1
REMARK minimizedAffinity 2.31082749
REMARK minimizedRMSD -1
REMARK  0 active torsions:
REMARK  status: ('A' for Active; 'I' for Inactive)
ROOT
ATOM      1  O1  BZF d   1       3.222   5.123   1.711  0.00  0.00    -0.204 OA
ATOM      2  C2  BZF d   1       4.116   4.479   0.878  0.00  0.00     0.174 A 
ATOM      3  C3  BZF d   1       3.491   4.006  -0.220  0.00  0.00    -0.012 A 
ATOM      4  C3A BZF d   1       2.138   4.458  -0.106  0.00  0.00    -0.107 A 
ATOM      5  C4  BZF d   1       1.033   4.321  -0.897  0.00  0.00     0.055 A 
ATOM      6  C5  BZF d   1      -0.155   4.820  -0.464  0.00  0.00    -0.016 A 
ATOM      7  C6  BZF d   1      -0.274   5.456   0.754  0.00  0.00     0.022 A 
ATOM      8  C7  BZF d   1       0.795   5.621   1.570  0.00  0.00     0.029 A 
ATOM      9  C7A BZF d   1       2.003   5.146   1.121  0.00  0.00     0.058 A 
ENDROOT
TORSDOF 0
ENDMDL
