MODEL 1
REMARK minimizedAffinity 4.23807335
REMARK minimizedRMSD -1
REMARK  0 active torsions:
REMARK  status: ('A' for Active; 'I' for Inactive)
ROOT
ATOM      1  O1  BZF d   1      -3.754   2.536  -2.574  0.00  0.00    -0.204 OA
ATOM      2  C2  BZF d   1      -3.771   1.269  -2.025  0.00  0.00     0.174 A 
ATOM      3  C3  BZF d   1      -2.576   0.664  -2.181  0.00  0.00    -0.012 A 
ATOM      4  C3A BZF d   1      -1.733   1.647  -2.789  0.00  0.00    -0.107 A 
ATOM      5  C4  BZF d   1      -0.424   1.650  -3.179  0.00  0.00     0.055 A 
ATOM      6  C5  BZF d   1       0.075   2.746  -3.809  0.00  0.00    -0.016 A 
ATOM      7  C6  BZF d   1      -0.706   3.853  -4.068  0.00  0.00     0.022 A 
ATOM      8  C7  BZF d   1      -2.009   3.898  -3.696  0.00  0.00     0.029 A 
ATOM      9  C7A BZF d   1      -2.507   2.805  -3.031  0.00  0.00     0.058 A 
ENDROOT
TORSDOF 0
ENDMDL
