MODEL 1
REMARK minimizedAffinity 8.89513874
REMARK minimizedRMSD -1
REMARK  0 active torsions:
REMARK  status: ('A' for Active; 'I' for Inactive)
ROOT
ATOM      1  O1  BZF d   1       1.003  -1.231   2.231  0.00  0.00    -0.204 OA
ATOM      2  C2  BZF d   1       0.983  -0.899   0.891  0.00  0.00     0.174 A 
ATOM      3  C3  BZF d   1       2.222  -0.593   0.455  0.00  0.00    -0.012 A 
ATOM      4  C3A BZF d   1       3.084  -0.832   1.572  0.00  0.00    -0.107 A 
ATOM      5  C4  BZF d   1       4.432  -0.725   1.758  0.00  0.00     0.055 A 
ATOM      6  C5  BZF d   1       4.951  -0.963   2.991  0.00  0.00    -0.016 A 
ATOM      7  C6  BZF d   1       4.150  -1.306   4.061  0.00  0.00     0.022 A 
ATOM      8  C7  BZF d   1       2.807  -1.430   3.925  0.00  0.00     0.029 A 
ATOM      9  C7A BZF d   1       2.284  -1.222   2.672  0.00  0.00     0.058 A 
ENDROOT
TORSDOF 0
ENDMDL
