MODEL 1
REMARK minimizedAffinity 7.097054
REMARK minimizedRMSD -1
REMARK  0 active torsions:
REMARK  status: ('A' for Active; 'I' for Inactive)
ROOT
ATOM      1  O1  BZF d   1       2.442  -0.021  -0.212  0.00  0.00    -0.204 OA
ATOM      2  C2  BZF d   1       1.085  -0.281  -0.198  0.00  0.00     0.174 A 
ATOM      3  C3  BZF d   1       0.733  -0.926   0.933  0.00  0.00    -0.012 A 
ATOM      4  C3A BZF d   1       1.930  -0.997   1.714  0.00  0.00    -0.107 A 
ATOM      5  C4  BZF d   1       2.217  -1.509   2.947  0.00  0.00     0.055 A 
ATOM      6  C5  BZF d   1       3.502  -1.482   3.390  0.00  0.00    -0.016 A 
ATOM      7  C6  BZF d   1       4.523  -0.958   2.625  0.00  0.00     0.022 A 
ATOM      8  C7  BZF d   1       4.286  -0.434   1.398  0.00  0.00     0.029 A 
ATOM      9  C7A BZF d   1       2.984  -0.429   0.961  0.00  0.00     0.058 A 
ENDROOT
TORSDOF 0
ENDMDL
