MODEL 1
REMARK minimizedAffinity 5.59799528
REMARK minimizedRMSD -1
REMARK  0 active torsions:
REMARK  status: ('A' for Active; 'I' for Inactive)
ROOT
ATOM      1  O1  BZF d   1      -0.950  -3.977  -0.349  0.00  0.00    -0.204 OA
ATOM      2  C2  BZF d   1      -2.099  -3.885   0.412  0.00  0.00     0.174 A 
ATOM      3  C3  BZF d   1      -2.117  -2.734   1.114  0.00  0.00    -0.012 A 
ATOM      4  C3A BZF d   1      -0.947  -2.022   0.700  0.00  0.00    -0.107 A 
ATOM      5  C4  BZF d   1      -0.422  -0.805   1.030  0.00  0.00     0.055 A 
ATOM      6  C5  BZF d   1       0.774  -0.436   0.501  0.00  0.00    -0.016 A 
ATOM      7  C6  BZF d   1       1.473  -1.260  -0.356  0.00  0.00     0.022 A 
ATOM      8  C7  BZF d   1       0.990  -2.473  -0.718  0.00  0.00     0.029 A 
ATOM      9  C7A BZF d   1      -0.234  -2.835  -0.210  0.00  0.00     0.058 A 
ENDROOT
TORSDOF 0
ENDMDL
