MODEL 1
REMARK minimizedAffinity -1.80601609
REMARK minimizedRMSD -1
REMARK  0 active torsions:
REMARK  status: ('A' for Active; 'I' for Inactive)
ROOT
ATOM      1  O1  BZF d   1       0.729   1.347   0.364  0.00  0.00    -0.204 OA
ATOM      2  C2  BZF d   1       0.851  -0.002   0.094  0.00  0.00     0.174 A 
ATOM      3  C3  BZF d   1       2.057  -0.275  -0.445  0.00  0.00    -0.012 A 
ATOM      4  C3A BZF d   1       2.765   0.968  -0.431  0.00  0.00    -0.107 A 
ATOM      5  C4  BZF d   1       4.021   1.337  -0.823  0.00  0.00     0.055 A 
ATOM      6  C5  BZF d   1       4.379   2.646  -0.743  0.00  0.00    -0.016 A 
ATOM      7  C6  BZF d   1       3.507   3.611  -0.283  0.00  0.00     0.022 A 
ATOM      8  C7  BZF d   1       2.253   3.292   0.121  0.00  0.00     0.029 A 
ATOM      9  C7A BZF d   1       1.899   1.965   0.073  0.00  0.00     0.058 A 
ENDROOT
TORSDOF 0
ENDMDL
