MODEL 1
REMARK minimizedAffinity 9.45387173
REMARK minimizedRMSD -1
REMARK  0 active torsions:
REMARK  status: ('A' for Active; 'I' for Inactive)
ROOT
ATOM      1  O1  BZF d   1      -0.657  -3.789   0.516  0.00  0.00    -0.204 OA
ATOM      2  C2  BZF d   1      -2.032  -3.786   0.656  0.00  0.00     0.174 A 
ATOM      3  C3  BZF d   1      -2.487  -2.537   0.884  0.00  0.00    -0.012 A 
ATOM      4  C3A BZF d   1      -1.334  -1.695   0.795  0.00  0.00    -0.107 A 
ATOM      5  C4  BZF d   1      -1.144  -0.347   0.912  0.00  0.00     0.055 A 
ATOM      6  C5  BZF d   1       0.118   0.150   0.844  0.00  0.00    -0.016 A 
ATOM      7  C6  BZF d   1       1.213  -0.669   0.664  0.00  0.00     0.022 A 
ATOM      8  C7  BZF d   1       1.075  -2.012   0.537  0.00  0.00     0.029 A 
ATOM      9  C7A BZF d   1      -0.203  -2.514   0.573  0.00  0.00     0.058 A 
ENDROOT
TORSDOF 0
ENDMDL
