MODEL 1
REMARK minimizedAffinity 6.82415438
REMARK minimizedRMSD -1
REMARK  0 active torsions:
REMARK  status: ('A' for Active; 'I' for Inactive)
ROOT
ATOM      1  O1  BZF d   1       2.038  -1.139   3.018  0.00  0.00    -0.204 OA
ATOM      2  C2  BZF d   1       3.366  -1.517   2.968  0.00  0.00     0.174 A 
ATOM      3  C3  BZF d   1       3.861  -1.361   1.724  0.00  0.00    -0.012 A 
ATOM      4  C3A BZF d   1       2.801  -0.767   0.969  0.00  0.00    -0.107 A 
ATOM      5  C4  BZF d   1       2.688  -0.357  -0.329  0.00  0.00     0.055 A 
ATOM      6  C5  BZF d   1       1.493   0.115  -0.771  0.00  0.00    -0.016 A 
ATOM      7  C6  BZF d   1       0.390   0.186   0.055  0.00  0.00     0.022 A 
ATOM      8  C7  BZF d   1       0.455  -0.205   1.351  0.00  0.00     0.029 A 
ATOM      9  C7A BZF d   1       1.670  -0.651   1.809  0.00  0.00     0.058 A 
ENDROOT
TORSDOF 0
ENDMDL
