MODEL 1
REMARK minimizedAffinity 9.69809055
REMARK minimizedRMSD -1
REMARK  0 active torsions:
REMARK  status: ('A' for Active; 'I' for Inactive)
ROOT
ATOM      1  O1  BZF d   1      -2.750   0.203  -2.680  0.00  0.00    -0.204 OA
ATOM      2  C2  BZF d   1      -3.998   0.621  -3.100  0.00  0.00     0.174 A 
ATOM      3  C3  BZF d   1      -3.945   1.883  -3.573  0.00  0.00    -0.012 A 
ATOM      4  C3A BZF d   1      -2.561   2.245  -3.527  0.00  0.00    -0.107 A 
ATOM      5  C4  BZF d   1      -1.873   3.370  -3.879  0.00  0.00     0.055 A 
ATOM      6  C5  BZF d   1      -0.536   3.429  -3.638  0.00  0.00    -0.016 A 
ATOM      7  C6  BZF d   1       0.141   2.386  -3.042  0.00  0.00     0.022 A 
ATOM      8  C7  BZF d   1      -0.499   1.247  -2.679  0.00  0.00     0.029 A 
ATOM      9  C7A BZF d   1      -1.843   1.171  -2.952  0.00  0.00     0.058 A 
ENDROOT
TORSDOF 0
ENDMDL
