MODEL 1
REMARK minimizedAffinity 5.91240978
REMARK minimizedRMSD -1
REMARK  0 active torsions:
REMARK  status: ('A' for Active; 'I' for Inactive)
ROOT
ATOM      1  O1  BZF d   1      -1.879  -5.288  -3.758  0.00  0.00    -0.204 OA
ATOM      2  C2  BZF d   1      -2.607  -5.656  -4.873  0.00  0.00     0.174 A 
ATOM      3  C3  BZF d   1      -1.796  -5.843  -5.934  0.00  0.00    -0.012 A 
ATOM      4  C3A BZF d   1      -0.469  -5.664  -5.430  0.00  0.00    -0.107 A 
ATOM      5  C4  BZF d   1       0.770  -5.737  -6.000  0.00  0.00     0.055 A 
ATOM      6  C5  BZF d   1       1.861  -5.436  -5.248  0.00  0.00    -0.016 A 
ATOM      7  C6  BZF d   1       1.750  -5.054  -3.927  0.00  0.00     0.022 A 
ATOM      8  C7  BZF d   1       0.543  -4.972  -3.317  0.00  0.00     0.029 A 
ATOM      9  C7A BZF d   1      -0.560  -5.307  -4.064  0.00  0.00     0.058 A 
ENDROOT
TORSDOF 0
ENDMDL
