MODEL 1
REMARK minimizedAffinity 3.20896578
REMARK minimizedRMSD -1
REMARK  0 active torsions:
REMARK  status: ('A' for Active; 'I' for Inactive)
ROOT
ATOM      1  O1  BZF d   1       0.377  -0.030   0.770  0.00  0.00    -0.204 OA
ATOM      2  C2  BZF d   1       0.736   0.323  -0.517  0.00  0.00     0.174 A 
ATOM      3  C3  BZF d   1       2.063   0.174  -0.702  0.00  0.00    -0.012 A 
ATOM      4  C3A BZF d   1       2.552  -0.390   0.519  0.00  0.00    -0.107 A 
ATOM      5  C4  BZF d   1       3.790  -0.780   0.944  0.00  0.00     0.055 A 
ATOM      6  C5  BZF d   1       3.942  -1.223   2.220  0.00  0.00    -0.016 A 
ATOM      7  C6  BZF d   1       2.880  -1.283   3.098  0.00  0.00     0.022 A 
ATOM      8  C7  BZF d   1       1.632  -0.911   2.721  0.00  0.00     0.029 A 
ATOM      9  C7A BZF d   1       1.469  -0.495   1.423  0.00  0.00     0.058 A 
ENDROOT
TORSDOF 0
ENDMDL
