MODEL 1
REMARK minimizedAffinity -2.18218756
REMARK minimizedRMSD -1
REMARK  0 active torsions:
REMARK  status: ('A' for Active; 'I' for Inactive)
ROOT
ATOM      1  C   UNL d   1       0.879   1.364  -1.030  0.00  0.00    -0.002 A 
ATOM      2  C1  UNL d   1       1.590   2.164  -0.146  0.00  0.00     0.010 A 
ATOM      3  C2  UNL d   1       1.381   2.061   1.231  0.00  0.00     0.041 A 
ATOM      4  C3  UNL d   1       0.438   1.131   1.709  0.00  0.00    -0.075 A 
ATOM      5  S   UNL d   1       0.017   0.830   3.354  0.00  0.00     0.015 SA
ATOM      6  C4  UNL d   1      -1.116  -0.369   2.923  0.00  0.00     0.022 A 
ATOM      7  C5  UNL d   1      -1.184  -0.547   1.561  0.00  0.00     0.026 A 
ATOM      8  C6  UNL d   1      -0.289   0.313   0.839  0.00  0.00    -0.082 A 
ATOM      9  C7  UNL d   1      -0.056   0.442  -0.551  0.00  0.00     0.045 A 
ENDROOT
TORSDOF 0
ENDMDL
