MODEL 1
REMARK minimizedAffinity -5.04621553
REMARK minimizedRMSD -1
REMARK  0 active torsions:
REMARK  status: ('A' for Active; 'I' for Inactive)
ROOT
ATOM      1  C   UNL d   1       2.174   2.484   1.325  0.00  0.00    -0.002 A 
ATOM      2  C1  UNL d   1       2.993   1.871   0.387  0.00  0.00     0.010 A 
ATOM      3  C2  UNL d   1       2.563   0.729  -0.293  0.00  0.00     0.041 A 
ATOM      4  C3  UNL d   1       1.284   0.210  -0.011  0.00  0.00    -0.075 A 
ATOM      5  S   UNL d   1       0.546  -1.178  -0.721  0.00  0.00     0.015 SA
ATOM      6  C4  UNL d   1      -0.872  -0.989   0.204  0.00  0.00     0.022 A 
ATOM      7  C5  UNL d   1      -0.802   0.100   1.040  0.00  0.00     0.026 A 
ATOM      8  C6  UNL d   1       0.441   0.810   0.929  0.00  0.00    -0.082 A 
ATOM      9  C7  UNL d   1       0.906   1.965   1.602  0.00  0.00     0.045 A 
ENDROOT
TORSDOF 0
ENDMDL
