MODEL 1
REMARK minimizedAffinity -0.0504484139
REMARK minimizedRMSD -1
REMARK  0 active torsions:
REMARK  status: ('A' for Active; 'I' for Inactive)
ROOT
ATOM      1  C   UNL d   1       0.659   2.771   1.970  0.00  0.00    -0.002 A 
ATOM      2  C1  UNL d   1       1.345   3.028   0.792  0.00  0.00     0.010 A 
ATOM      3  C2  UNL d   1       1.357   2.090  -0.243  0.00  0.00     0.041 A 
ATOM      4  C3  UNL d   1       0.660   0.878  -0.072  0.00  0.00    -0.075 A 
ATOM      5  S   UNL d   1       0.534  -0.417  -1.203  0.00  0.00     0.015 SA
ATOM      6  C4  UNL d   1      -0.435  -1.342  -0.149  0.00  0.00     0.022 A 
ATOM      7  C5  UNL d   1      -0.666  -0.694   1.041  0.00  0.00     0.026 A 
ATOM      8  C6  UNL d   1      -0.040   0.597   1.105  0.00  0.00    -0.082 A 
ATOM      9  C7  UNL d   1      -0.032   1.567   2.135  0.00  0.00     0.045 A 
ENDROOT
TORSDOF 0
ENDMDL
