MODEL 1
REMARK minimizedAffinity -3.49922228
REMARK minimizedRMSD -1
REMARK  0 active torsions:
REMARK  status: ('A' for Active; 'I' for Inactive)
ROOT
ATOM      1  C   UNL d   1       0.763   2.441   2.230  0.00  0.00    -0.002 A 
ATOM      2  C1  UNL d   1       0.978   2.931   0.950  0.00  0.00     0.010 A 
ATOM      3  C2  UNL d   1       0.642   2.167  -0.169  0.00  0.00     0.041 A 
ATOM      4  C3  UNL d   1       0.079   0.889   0.022  0.00  0.00    -0.075 A 
ATOM      5  S   UNL d   1      -0.411  -0.224  -1.199  0.00  0.00     0.015 SA
ATOM      6  C4  UNL d   1      -0.918  -1.376  -0.050  0.00  0.00     0.022 A 
ATOM      7  C5  UNL d   1      -0.725  -0.939   1.239  0.00  0.00     0.026 A 
ATOM      8  C6  UNL d   1      -0.147   0.375   1.302  0.00  0.00    -0.082 A 
ATOM      9  C7  UNL d   1       0.205   1.174   2.416  0.00  0.00     0.045 A 
ENDROOT
TORSDOF 0
ENDMDL
