MODEL 1
REMARK minimizedAffinity -2.2880044
REMARK minimizedRMSD -1
REMARK  0 active torsions:
REMARK  status: ('A' for Active; 'I' for Inactive)
ROOT
ATOM      1  C   UNL d   1      -0.704  -0.862  -1.130  0.00  0.00    -0.002 A 
ATOM      2  C1  UNL d   1      -0.715  -1.434   0.134  0.00  0.00     0.010 A 
ATOM      3  C2  UNL d   1      -0.309  -0.700   1.250  0.00  0.00     0.041 A 
ATOM      4  C3  UNL d   1       0.112   0.633   1.072  0.00  0.00    -0.075 A 
ATOM      5  S   UNL d   1       0.652   1.724   2.293  0.00  0.00     0.015 SA
ATOM      6  C4  UNL d   1       0.910   2.976   1.165  0.00  0.00     0.022 A 
ATOM      7  C5  UNL d   1       0.597   2.588  -0.116  0.00  0.00     0.026 A 
ATOM      8  C6  UNL d   1       0.131   1.231  -0.191  0.00  0.00    -0.082 A 
ATOM      9  C7  UNL d   1      -0.286   0.460  -1.302  0.00  0.00     0.045 A 
ENDROOT
TORSDOF 0
ENDMDL
