MODEL 1
REMARK minimizedAffinity -0.91471374
REMARK minimizedRMSD -1
REMARK  0 active torsions:
REMARK  status: ('A' for Active; 'I' for Inactive)
ROOT
ATOM      1  C   UNL d   1       0.516   1.837   1.998  0.00  0.00    -0.002 A 
ATOM      2  C1  UNL d   1      -0.797   1.388   1.990  0.00  0.00     0.010 A 
ATOM      3  C2  UNL d   1      -1.202   0.390   1.101  0.00  0.00     0.041 A 
ATOM      4  C3  UNL d   1      -0.255  -0.156   0.213  0.00  0.00    -0.075 A 
ATOM      5  S   UNL d   1      -0.522  -1.389  -0.962  0.00  0.00     0.015 SA
ATOM      6  C4  UNL d   1       1.101  -1.349  -1.482  0.00  0.00     0.022 A 
ATOM      7  C5  UNL d   1       1.843  -0.424  -0.786  0.00  0.00     0.026 A 
ATOM      8  C6  UNL d   1       1.074   0.278   0.202  0.00  0.00    -0.082 A 
ATOM      9  C7  UNL d   1       1.452   1.293   1.115  0.00  0.00     0.045 A 
ENDROOT
TORSDOF 0
ENDMDL
