MODEL 1
REMARK minimizedAffinity 0.102719188
REMARK minimizedRMSD -1
REMARK  0 active torsions:
REMARK  status: ('A' for Active; 'I' for Inactive)
ROOT
ATOM      1  C   UNL d   1      -1.621  -1.279   0.296  0.00  0.00    -0.002 A 
ATOM      2  C1  UNL d   1      -0.918  -1.376  -0.896  0.00  0.00     0.010 A 
ATOM      3  C2  UNL d   1       0.245  -0.630  -1.098  0.00  0.00     0.041 A 
ATOM      4  C3  UNL d   1       0.694   0.222  -0.070  0.00  0.00    -0.075 A 
ATOM      5  S   UNL d   1       2.093   1.230  -0.093  0.00  0.00     0.015 SA
ATOM      6  C4  UNL d   1       1.790   1.813   1.479  0.00  0.00     0.022 A 
ATOM      7  C5  UNL d   1       0.654   1.263   2.024  0.00  0.00     0.026 A 
ATOM      8  C6  UNL d   1       0.004   0.336   1.140  0.00  0.00    -0.082 A 
ATOM      9  C7  UNL d   1      -1.172  -0.433   1.313  0.00  0.00     0.045 A 
ENDROOT
TORSDOF 0
ENDMDL
