MODEL 1
REMARK minimizedAffinity -2.12799287
REMARK minimizedRMSD -1
REMARK  0 active torsions:
REMARK  status: ('A' for Active; 'I' for Inactive)
ROOT
ATOM      1  C   UNL d   1      -2.310  -1.392  -3.318  0.00  0.00    -0.002 A 
ATOM      2  C1  UNL d   1      -2.909  -2.155  -2.326  0.00  0.00     0.010 A 
ATOM      3  C2  UNL d   1      -2.401  -2.155  -1.026  0.00  0.00     0.041 A 
ATOM      4  C3  UNL d   1      -1.271  -1.365  -0.736  0.00  0.00    -0.075 A 
ATOM      5  S   UNL d   1      -0.475  -1.208   0.786  0.00  0.00     0.015 SA
ATOM      6  C4  UNL d   1       0.678  -0.123   0.155  0.00  0.00     0.022 A 
ATOM      7  C5  UNL d   1       0.476   0.124  -1.182  0.00  0.00     0.026 A 
ATOM      8  C6  UNL d   1      -0.651  -0.587  -1.718  0.00  0.00    -0.082 A 
ATOM      9  C7  UNL d   1      -1.189  -0.610  -3.027  0.00  0.00     0.045 A 
ENDROOT
TORSDOF 0
ENDMDL
