MODEL 1
REMARK minimizedAffinity -0.526938736
REMARK minimizedRMSD -1
REMARK  0 active torsions:
REMARK  status: ('A' for Active; 'I' for Inactive)
ROOT
ATOM      1  C   UNL d   1       3.099   0.534  -0.729  0.00  0.00    -0.002 A 
ATOM      2  C1  UNL d   1       2.473   1.578  -0.064  0.00  0.00     0.010 A 
ATOM      3  C2  UNL d   1       1.114   1.506   0.251  0.00  0.00     0.041 A 
ATOM      4  C3  UNL d   1       0.389   0.356  -0.117  0.00  0.00    -0.075 A 
ATOM      5  S   UNL d   1      -1.283   0.047   0.165  0.00  0.00     0.015 SA
ATOM      6  C4  UNL d   1      -1.205  -1.479  -0.591  0.00  0.00     0.022 A 
ATOM      7  C5  UNL d   1       0.058  -1.761  -1.053  0.00  0.00     0.026 A 
ATOM      8  C6  UNL d   1       0.998  -0.709  -0.787  0.00  0.00    -0.082 A 
ATOM      9  C7  UNL d   1       2.377  -0.606  -1.093  0.00  0.00     0.045 A 
ENDROOT
TORSDOF 0
ENDMDL
