MODEL 1
REMARK minimizedAffinity -2.87583208
REMARK minimizedRMSD -1
REMARK  0 active torsions:
REMARK  status: ('A' for Active; 'I' for Inactive)
ROOT
ATOM      1  C   UNL d   1      -4.721  -3.544  -2.945  0.00  0.00    -0.002 A 
ATOM      2  C1  UNL d   1      -4.496  -3.965  -1.643  0.00  0.00     0.010 A 
ATOM      3  C2  UNL d   1      -3.380  -3.516  -0.933  0.00  0.00     0.041 A 
ATOM      4  C3  UNL d   1      -2.487  -2.625  -1.561  0.00  0.00    -0.075 A 
ATOM      5  S   UNL d   1      -1.055  -1.942  -0.887  0.00  0.00     0.015 SA
ATOM      6  C4  UNL d   1      -0.709  -1.073  -2.312  0.00  0.00     0.022 A 
ATOM      7  C5  UNL d   1      -1.652  -1.288  -3.288  0.00  0.00     0.026 A 
ATOM      8  C6  UNL d   1      -2.693  -2.185  -2.872  0.00  0.00    -0.082 A 
ATOM      9  C7  UNL d   1      -3.833  -2.660  -3.565  0.00  0.00     0.045 A 
ENDROOT
TORSDOF 0
ENDMDL
