MODEL 1
REMARK minimizedAffinity -1.81685042
REMARK minimizedRMSD -1
REMARK  0 active torsions:
REMARK  status: ('A' for Active; 'I' for Inactive)
ROOT
ATOM      1  C   UNL d   1      -1.967  -0.724   0.098  0.00  0.00    -0.002 A 
ATOM      2  C1  UNL d   1      -1.110  -1.405  -0.755  0.00  0.00     0.010 A 
ATOM      3  C2  UNL d   1       0.253  -1.106  -0.780  0.00  0.00     0.041 A 
ATOM      4  C3  UNL d   1       0.747  -0.103   0.078  0.00  0.00    -0.075 A 
ATOM      5  S   UNL d   1       2.379   0.432   0.221  0.00  0.00     0.015 SA
ATOM      6  C4  UNL d   1       1.978   1.576   1.419  0.00  0.00     0.022 A 
ATOM      7  C5  UNL d   1       0.635   1.564   1.714  0.00  0.00     0.026 A 
ATOM      8  C6  UNL d   1      -0.097   0.596   0.947  0.00  0.00    -0.082 A 
ATOM      9  C7  UNL d   1      -1.474   0.270   0.947  0.00  0.00     0.045 A 
ENDROOT
TORSDOF 0
ENDMDL
