MODEL 1
REMARK minimizedAffinity -2.56535006
REMARK minimizedRMSD -1
REMARK  0 active torsions:
REMARK  status: ('A' for Active; 'I' for Inactive)
ROOT
ATOM      1  C1  BNZ d   1       0.517   0.310  -4.064  0.00  0.00     0.000 A 
ATOM      2  C2  BNZ d   1       0.105  -0.528  -3.062  0.00  0.00     0.000 A 
ATOM      3  C3  BNZ d   1       0.899  -0.765  -1.976  0.00  0.00     0.000 A 
ATOM      4  C4  BNZ d   1       2.121  -0.196  -1.911  0.00  0.00     0.000 A 
ATOM      5  C5  BNZ d   1       2.555   0.643  -2.917  0.00  0.00     0.000 A 
ATOM      6  C6  BNZ d   1       1.737   0.910  -3.990  0.00  0.00     0.000 A 
ENDROOT
TORSDOF 0
ENDMDL
