MODEL 1
REMARK minimizedAffinity -4.07033014
REMARK minimizedRMSD -1
REMARK  0 active torsions:
REMARK  status: ('A' for Active; 'I' for Inactive)
ROOT
ATOM      1  C1  BNZ d   1       0.695   0.079   0.465  0.00  0.00     0.000 A 
ATOM      2  C2  BNZ d   1       0.584   0.710   1.675  0.00  0.00     0.000 A 
ATOM      3  C3  BNZ d   1      -0.640   1.053   2.177  0.00  0.00     0.000 A 
ATOM      4  C4  BNZ d   1      -1.748   0.800   1.450  0.00  0.00     0.000 A 
ATOM      5  C5  BNZ d   1      -1.652   0.173   0.224  0.00  0.00     0.000 A 
ATOM      6  C6  BNZ d   1      -0.421  -0.206  -0.260  0.00  0.00     0.000 A 
ENDROOT
TORSDOF 0
ENDMDL
