MODEL 1
REMARK minimizedAffinity -4.09250212
REMARK minimizedRMSD -1
REMARK  0 active torsions:
REMARK  status: ('A' for Active; 'I' for Inactive)
ROOT
ATOM      1  C1  BNZ d   1      -0.423   0.805  -0.019  0.00  0.00     0.000 A 
ATOM      2  C2  BNZ d   1      -0.150   1.369   1.199  0.00  0.00     0.000 A 
ATOM      3  C3  BNZ d   1       0.908   0.936   1.949  0.00  0.00     0.000 A 
ATOM      4  C4  BNZ d   1       1.666  -0.085   1.499  0.00  0.00     0.000 A 
ATOM      5  C5  BNZ d   1       1.397  -0.670   0.278  0.00  0.00     0.000 A 
ATOM      6  C6  BNZ d   1       0.355  -0.206  -0.492  0.00  0.00     0.000 A 
ENDROOT
TORSDOF 0
ENDMDL
