MODEL 1
REMARK minimizedAffinity -0.956853509
REMARK minimizedRMSD -1
REMARK  0 active torsions:
REMARK  status: ('A' for Active; 'I' for Inactive)
ROOT
ATOM      1  C1  BNZ d   1      -2.013   0.257   1.556  0.00  0.00     0.000 A 
ATOM      2  C2  BNZ d   1      -1.890   0.064   0.206  0.00  0.00     0.000 A 
ATOM      3  C3  BNZ d   1      -0.679  -0.240  -0.350  0.00  0.00     0.000 A 
ATOM      4  C4  BNZ d   1       0.413  -0.311   0.438  0.00  0.00     0.000 A 
ATOM      5  C5  BNZ d   1       0.307  -0.110   1.800  0.00  0.00     0.000 A 
ATOM      6  C6  BNZ d   1      -0.921   0.158   2.361  0.00  0.00     0.000 A 
ENDROOT
TORSDOF 0
ENDMDL
