MODEL 1
REMARK minimizedAffinity -3.31844068
REMARK minimizedRMSD -1
REMARK  0 active torsions:
REMARK  status: ('A' for Active; 'I' for Inactive)
ROOT
ATOM      1  C1  BNZ d   1       0.403  -0.040   0.699  0.00  0.00     0.000 A 
ATOM      2  C2  BNZ d   1      -0.283  -0.023   1.884  0.00  0.00     0.000 A 
ATOM      3  C3  BNZ d   1      -1.457   0.668   2.003  0.00  0.00     0.000 A 
ATOM      4  C4  BNZ d   1      -1.921   1.373   0.951  0.00  0.00     0.000 A 
ATOM      5  C5  BNZ d   1      -1.235   1.373  -0.248  0.00  0.00     0.000 A 
ATOM      6  C6  BNZ d   1      -0.075   0.645  -0.375  0.00  0.00     0.000 A 
ENDROOT
TORSDOF 0
ENDMDL
