MODEL 1
REMARK minimizedAffinity -4.23899937
REMARK minimizedRMSD -1
REMARK  0 active torsions:
REMARK  status: ('A' for Active; 'I' for Inactive)
ROOT
ATOM      1  C1  BNZ d   1      -2.110   0.548   0.008  0.00  0.00     0.000 A 
ATOM      2  C2  BNZ d   1      -1.001  -0.036  -0.542  0.00  0.00     0.000 A 
ATOM      3  C3  BNZ d   1      -0.063  -0.641   0.248  0.00  0.00     0.000 A 
ATOM      4  C4  BNZ d   1      -0.216  -0.625   1.588  0.00  0.00     0.000 A 
ATOM      5  C5  BNZ d   1      -1.324  -0.032   2.158  0.00  0.00     0.000 A 
ATOM      6  C6  BNZ d   1      -2.285   0.542   1.358  0.00  0.00     0.000 A 
ENDROOT
TORSDOF 0
ENDMDL
