MODEL 1
REMARK minimizedAffinity -4.76618242
REMARK minimizedRMSD -1
REMARK  0 active torsions:
REMARK  status: ('A' for Active; 'I' for Inactive)
ROOT
ATOM      1  C1  BNZ d   1       1.249   0.460   1.356  0.00  0.00     0.000 A 
ATOM      2  C2  BNZ d   1       1.895  -0.539   0.677  0.00  0.00     0.000 A 
ATOM      3  C3  BNZ d   1       1.376  -1.047  -0.481  0.00  0.00     0.000 A 
ATOM      4  C4  BNZ d   1       0.194  -0.585  -0.937  0.00  0.00     0.000 A 
ATOM      5  C5  BNZ d   1      -0.474   0.415  -0.259  0.00  0.00     0.000 A 
ATOM      6  C6  BNZ d   1       0.070   0.951   0.885  0.00  0.00     0.000 A 
ENDROOT
TORSDOF 0
ENDMDL
