MODEL 1
REMARK minimizedAffinity 7.7442708
REMARK minimizedRMSD -1
REMARK  0 active torsions:
REMARK  status: ('A' for Active; 'I' for Inactive)
ROOT
ATOM      1  C   UNL d   1       2.216  -5.576   0.292  0.00  0.00     0.077 C 
ATOM      2  C1  UNL d   1       1.991  -4.129   0.614  0.00  0.00    -0.074 A 
ATOM      3  C2  UNL d   1       2.952  -3.390   1.312  0.00  0.00    -0.005 A 
ATOM      4  C3  UNL d   1       2.733  -2.042   1.596  0.00  0.00     0.006 A 
ATOM      5  C4  UNL d   1       1.553  -1.420   1.185  0.00  0.00    -0.005 A 
ATOM      6  C5  UNL d   1       0.581  -2.143   0.485  0.00  0.00    -0.074 A 
ATOM      7  C6  UNL d   1      -0.688  -1.487   0.028  0.00  0.00     0.077 C 
ATOM      8  C7  UNL d   1       0.812  -3.495   0.198  0.00  0.00    -0.001 A 
ENDROOT
TORSDOF 0
ENDMDL
