MODEL 1
REMARK minimizedAffinity 4.11739063
REMARK minimizedRMSD -1
REMARK  0 active torsions:
REMARK  status: ('A' for Active; 'I' for Inactive)
ROOT
ATOM      1  C   UNL d   1       2.437  -3.008   0.887  0.00  0.00     0.077 C 
ATOM      2  C1  UNL d   1       3.681  -2.665   1.652  0.00  0.00    -0.074 A 
ATOM      3  C2  UNL d   1       4.853  -2.291   0.987  0.00  0.00    -0.005 A 
ATOM      4  C3  UNL d   1       5.999  -1.966   1.713  0.00  0.00     0.006 A 
ATOM      5  C4  UNL d   1       5.985  -2.012   3.107  0.00  0.00    -0.005 A 
ATOM      6  C5  UNL d   1       4.822  -2.383   3.789  0.00  0.00    -0.074 A 
ATOM      7  C6  UNL d   1       4.786  -2.428   5.288  0.00  0.00     0.077 C 
ATOM      8  C7  UNL d   1       3.672  -2.701   3.053  0.00  0.00    -0.001 A 
ENDROOT
TORSDOF 0
ENDMDL
