MODEL 1
REMARK minimizedAffinity 12.2555609
REMARK minimizedRMSD -1
REMARK  0 active torsions:
REMARK  status: ('A' for Active; 'I' for Inactive)
ROOT
ATOM      1  C   UNL d   1      -1.553  -1.624   0.821  0.00  0.00     0.077 C 
ATOM      2  C1  UNL d   1      -0.072  -1.854   0.886  0.00  0.00    -0.074 A 
ATOM      3  C2  UNL d   1       0.782  -0.887   1.426  0.00  0.00    -0.005 A 
ATOM      4  C3  UNL d   1       2.156  -1.119   1.488  0.00  0.00     0.006 A 
ATOM      5  C4  UNL d   1       2.689  -2.317   1.013  0.00  0.00    -0.005 A 
ATOM      6  C5  UNL d   1       1.850  -3.296   0.471  0.00  0.00    -0.074 A 
ATOM      7  C6  UNL d   1       2.406  -4.594  -0.036  0.00  0.00     0.077 C 
ATOM      8  C7  UNL d   1       0.470  -3.059   0.418  0.00  0.00    -0.001 A 
ENDROOT
TORSDOF 0
ENDMDL
