MODEL 1
REMARK minimizedAffinity 5.11750031
REMARK minimizedRMSD -1
REMARK  0 active torsions:
REMARK  status: ('A' for Active; 'I' for Inactive)
ROOT
ATOM      1  C   UNL d   1      -1.046  -3.069   2.192  0.00  0.00     0.077 C 
ATOM      2  C1  UNL d   1       0.172  -3.069   1.317  0.00  0.00    -0.074 A 
ATOM      3  C2  UNL d   1       0.591  -4.236   0.670  0.00  0.00    -0.005 A 
ATOM      4  C3  UNL d   1       1.721  -4.219  -0.148  0.00  0.00     0.006 A 
ATOM      5  C4  UNL d   1       2.441  -3.037  -0.327  0.00  0.00    -0.005 A 
ATOM      6  C5  UNL d   1       2.036  -1.861   0.311  0.00  0.00    -0.074 A 
ATOM      7  C6  UNL d   1       2.793  -0.580   0.121  0.00  0.00     0.077 C 
ATOM      8  C7  UNL d   1       0.896  -1.884   1.126  0.00  0.00    -0.001 A 
ENDROOT
TORSDOF 0
ENDMDL
