MODEL 1
REMARK minimizedAffinity 7.69964361
REMARK minimizedRMSD -1
REMARK  0 active torsions:
REMARK  status: ('A' for Active; 'I' for Inactive)
ROOT
ATOM      1  C   UNL d   1      -1.856  -3.966   1.736  0.00  0.00     0.077 C 
ATOM      2  C1  UNL d   1      -0.525  -3.504   1.220  0.00  0.00    -0.074 A 
ATOM      3  C2  UNL d   1      -0.115  -2.176   1.377  0.00  0.00    -0.005 A 
ATOM      4  C3  UNL d   1       1.129  -1.763   0.901  0.00  0.00     0.006 A 
ATOM      5  C4  UNL d   1       1.975  -2.673   0.264  0.00  0.00    -0.005 A 
ATOM      6  C5  UNL d   1       1.582  -4.005   0.099  0.00  0.00    -0.074 A 
ATOM      7  C6  UNL d   1       2.483  -4.997  -0.574  0.00  0.00     0.077 C 
ATOM      8  C7  UNL d   1       0.333  -4.414   0.587  0.00  0.00    -0.001 A 
ENDROOT
TORSDOF 0
ENDMDL
