MODEL 1
REMARK minimizedAffinity 13.0921555
REMARK minimizedRMSD -1
REMARK  0 active torsions:
REMARK  status: ('A' for Active; 'I' for Inactive)
ROOT
ATOM      1  C   UNL d   1      -6.000   1.989  -5.453  0.00  0.00     0.077 C 
ATOM      2  C1  UNL d   1      -5.822   0.558  -5.041  0.00  0.00    -0.074 A 
ATOM      3  C2  UNL d   1      -6.000  -0.481  -5.960  0.00  0.00    -0.005 A 
ATOM      4  C3  UNL d   1      -5.822  -1.807  -5.565  0.00  0.00     0.006 A 
ATOM      5  C4  UNL d   1      -5.466  -2.106  -4.249  0.00  0.00    -0.005 A 
ATOM      6  C5  UNL d   1      -5.283  -1.080  -3.317  0.00  0.00    -0.074 A 
ATOM      7  C6  UNL d   1      -4.891  -1.384  -1.902  0.00  0.00     0.077 C 
ATOM      8  C7  UNL d   1      -5.457   0.250  -3.723  0.00  0.00    -0.001 A 
ENDROOT
TORSDOF 0
ENDMDL
