MODEL 1
REMARK minimizedAffinity 8.79150772
REMARK minimizedRMSD -1
REMARK  0 active torsions:
REMARK  status: ('A' for Active; 'I' for Inactive)
ROOT
ATOM      1  C   UNL d   1      -1.090  -1.869   2.351  0.00  0.00     0.077 C 
ATOM      2  C1  UNL d   1       0.217  -2.181   1.686  0.00  0.00    -0.074 A 
ATOM      3  C2  UNL d   1       1.260  -1.249   1.678  0.00  0.00    -0.005 A 
ATOM      4  C3  UNL d   1       2.474  -1.557   1.063  0.00  0.00     0.006 A 
ATOM      5  C4  UNL d   1       2.657  -2.798   0.452  0.00  0.00    -0.005 A 
ATOM      6  C5  UNL d   1       1.626  -3.743   0.451  0.00  0.00    -0.074 A 
ATOM      7  C6  UNL d   1       1.810  -5.085  -0.193  0.00  0.00     0.077 C 
ATOM      8  C7  UNL d   1       0.412  -3.429   1.077  0.00  0.00    -0.001 A 
ENDROOT
TORSDOF 0
ENDMDL
