MODEL 1
REMARK minimizedAffinity 8.27414227
REMARK minimizedRMSD -1
REMARK  0 active torsions:
REMARK  status: ('A' for Active; 'I' for Inactive)
ROOT
ATOM      1  C   UNL d   1      -0.527  -2.104   0.660  0.00  0.00     0.077 C 
ATOM      2  C1  UNL d   1       0.856  -2.667   0.514  0.00  0.00    -0.074 A 
ATOM      3  C2  UNL d   1       1.982  -1.900   0.831  0.00  0.00    -0.005 A 
ATOM      4  C3  UNL d   1       3.261  -2.440   0.699  0.00  0.00     0.006 A 
ATOM      5  C4  UNL d   1       3.427  -3.751   0.251  0.00  0.00    -0.005 A 
ATOM      6  C5  UNL d   1       2.313  -4.534  -0.069  0.00  0.00    -0.074 A 
ATOM      7  C6  UNL d   1       2.473  -5.948  -0.543  0.00  0.00     0.077 C 
ATOM      8  C7  UNL d   1       1.031  -3.986   0.072  0.00  0.00    -0.001 A 
ENDROOT
TORSDOF 0
ENDMDL
