MODEL 1
REMARK minimizedAffinity 6.96101761
REMARK minimizedRMSD -1
REMARK  0 active torsions:
REMARK  status: ('A' for Active; 'I' for Inactive)
ROOT
ATOM      1  C4' PXY d   1       3.793  -3.338  -4.884  0.00  0.00     0.077 C 
ATOM      2  C1' PXY d   1       5.478  -4.830   0.441  0.00  0.00     0.077 C 
ATOM      3  C1  PXY d   1       5.046  -4.431  -0.957  0.00  0.00    -0.082 A 
ATOM      4  C2  PXY d   1       3.775  -4.542  -1.305  0.00  0.00     0.003 A 
ATOM      5  C3  PXY d   1       3.373  -4.215  -2.575  0.00  0.00     0.003 A 
ATOM      6  C4  PXY d   1       4.272  -3.720  -3.481  0.00  0.00    -0.082 A 
ATOM      7  C5  PXY d   1       5.569  -3.594  -3.129  0.00  0.00     0.003 A 
ATOM      8  C6  PXY d   1       5.964  -3.970  -1.849  0.00  0.00     0.003 A 
ENDROOT
TORSDOF 0
ENDMDL
