MODEL 1
REMARK minimizedAffinity 7.99754858
REMARK minimizedRMSD -1
REMARK  0 active torsions:
REMARK  status: ('A' for Active; 'I' for Inactive)
ROOT
ATOM      1  C4' PXY d   1      -1.570  -1.285   3.770  0.00  0.00     0.077 C 
ATOM      2  C1' PXY d   1      -0.905   3.811   1.124  0.00  0.00     0.077 C 
ATOM      3  C1  PXY d   1      -1.066   2.473   1.817  0.00  0.00    -0.082 A 
ATOM      4  C2  PXY d   1      -2.230   1.845   1.765  0.00  0.00     0.003 A 
ATOM      5  C3  PXY d   1      -2.403   0.650   2.413  0.00  0.00     0.003 A 
ATOM      6  C4  PXY d   1      -1.359   0.064   3.077  0.00  0.00    -0.082 A 
ATOM      7  C5  PXY d   1      -0.165   0.692   3.126  0.00  0.00     0.003 A 
ATOM      8  C6  PXY d   1      -0.022   1.925   2.496  0.00  0.00     0.003 A 
ENDROOT
TORSDOF 0
ENDMDL
