MODEL 1
REMARK minimizedAffinity 1.83464527
REMARK minimizedRMSD -1
REMARK  0 active torsions:
REMARK  status: ('A' for Active; 'I' for Inactive)
ROOT
ATOM      1  C4' PXY d   1       0.827  -0.020  -4.793  0.00  0.00     0.077 C 
ATOM      2  C1' PXY d   1      -0.918   2.054   0.313  0.00  0.00     0.077 C 
ATOM      3  C1  PXY d   1      -0.465   1.498  -1.023  0.00  0.00    -0.082 A 
ATOM      4  C2  PXY d   1       0.492   2.115  -1.697  0.00  0.00     0.003 A 
ATOM      5  C3  PXY d   1       0.892   1.644  -2.921  0.00  0.00     0.003 A 
ATOM      6  C4  PXY d   1       0.344   0.500  -3.436  0.00  0.00    -0.082 A 
ATOM      7  C5  PXY d   1      -0.625  -0.141  -2.749  0.00  0.00     0.003 A 
ATOM      8  C6  PXY d   1      -1.046   0.376  -1.528  0.00  0.00     0.003 A 
ENDROOT
TORSDOF 0
ENDMDL
