MODEL 1
REMARK minimizedAffinity 4.43589163
REMARK minimizedRMSD -1
REMARK  0 active torsions:
REMARK  status: ('A' for Active; 'I' for Inactive)
ROOT
ATOM      1  C4' PXY d   1      -0.872   2.136   0.220  0.00  0.00     0.077 C 
ATOM      2  C1' PXY d   1      -0.237  -0.280  -4.993  0.00  0.00     0.077 C 
ATOM      3  C1  PXY d   1      -0.391   0.353  -3.624  0.00  0.00    -0.082 A 
ATOM      4  C2  PXY d   1      -1.533   0.226  -2.969  0.00  0.00     0.003 A 
ATOM      5  C3  PXY d   1      -1.700   0.819  -1.744  0.00  0.00     0.003 A 
ATOM      6  C4  PXY d   1      -0.669   1.505  -1.160  0.00  0.00    -0.082 A 
ATOM      7  C5  PXY d   1       0.503   1.631  -1.818  0.00  0.00     0.003 A 
ATOM      8  C6  PXY d   1       0.639   1.056  -3.078  0.00  0.00     0.003 A 
ENDROOT
TORSDOF 0
ENDMDL
