MODEL 1
REMARK minimizedAffinity 11.9513597
REMARK minimizedRMSD -1
REMARK  0 active torsions:
REMARK  status: ('A' for Active; 'I' for Inactive)
ROOT
ATOM      1  C4' PXY d   1       1.653  -3.594   0.331  0.00  0.00     0.077 C 
ATOM      2  C1' PXY d   1       1.238  -3.672  -5.434  0.00  0.00     0.077 C 
ATOM      3  C1  PXY d   1       1.346  -3.664  -3.922  0.00  0.00    -0.082 A 
ATOM      4  C2  PXY d   1       1.001  -2.580  -3.246  0.00  0.00     0.003 A 
ATOM      5  C3  PXY d   1       1.122  -2.545  -1.881  0.00  0.00     0.003 A 
ATOM      6  C4  PXY d   1       1.551  -3.650  -1.195  0.00  0.00    -0.082 A 
ATOM      7  C5  PXY d   1       1.895  -4.764  -1.876  0.00  0.00     0.003 A 
ATOM      8  C6  PXY d   1       1.803  -4.765  -3.265  0.00  0.00     0.003 A 
ENDROOT
TORSDOF 0
ENDMDL
