MODEL 1
REMARK minimizedAffinity 6.65727663
REMARK minimizedRMSD -1
REMARK  0 active torsions:
REMARK  status: ('A' for Active; 'I' for Inactive)
ROOT
ATOM      1  C4' PXY d   1      -1.029   1.295   4.297  0.00  0.00     0.077 C 
ATOM      2  C1' PXY d   1      -0.192   3.582  -0.945  0.00  0.00     0.077 C 
ATOM      3  C1  PXY d   1      -0.424   2.986   0.429  0.00  0.00    -0.082 A 
ATOM      4  C2  PXY d   1       0.589   2.869   1.272  0.00  0.00     0.003 A 
ATOM      5  C3  PXY d   1       0.404   2.303   2.506  0.00  0.00     0.003 A 
ATOM      6  C4  PXY d   1      -0.843   1.900   2.903  0.00  0.00    -0.082 A 
ATOM      7  C5  PXY d   1      -1.884   2.025   2.054  0.00  0.00     0.003 A 
ATOM      8  C6  PXY d   1      -1.667   2.565   0.789  0.00  0.00     0.003 A 
ENDROOT
TORSDOF 0
ENDMDL
