MODEL 1
REMARK minimizedAffinity 9.27795315
REMARK minimizedRMSD -1
REMARK  0 active torsions:
REMARK  status: ('A' for Active; 'I' for Inactive)
ROOT
ATOM      1  C4' PXY d   1       1.790  -6.000  -2.757  0.00  0.00     0.077 C 
ATOM      2  C1' PXY d   1       2.986  -1.941   1.182  0.00  0.00     0.077 C 
ATOM      3  C1  PXY d   1       2.685  -3.007   0.147  0.00  0.00    -0.082 A 
ATOM      4  C2  PXY d   1       1.508  -3.018  -0.459  0.00  0.00     0.003 A 
ATOM      5  C3  PXY d   1       1.208  -3.994  -1.374  0.00  0.00     0.003 A 
ATOM      6  C4  PXY d   1       2.141  -4.937  -1.712  0.00  0.00    -0.082 A 
ATOM      7  C5  PXY d   1       3.348  -4.926  -1.107  0.00  0.00     0.003 A 
ATOM      8  C6  PXY d   1       3.618  -3.952  -0.151  0.00  0.00     0.003 A 
ENDROOT
TORSDOF 0
ENDMDL
