MODEL 1
REMARK minimizedAffinity 13.3868494
REMARK minimizedRMSD -1
REMARK  0 active torsions:
REMARK  status: ('A' for Active; 'I' for Inactive)
ROOT
ATOM      1  C4' PXY d   1      -5.296   5.999   3.418  0.00  0.00     0.077 C 
ATOM      2  C1' PXY d   1      -4.206   5.622  -2.247  0.00  0.00     0.077 C 
ATOM      3  C1  PXY d   1      -4.481   5.715  -0.759  0.00  0.00    -0.082 A 
ATOM      4  C2  PXY d   1      -5.722   5.881  -0.332  0.00  0.00     0.003 A 
ATOM      5  C3  PXY d   1      -5.985   5.999   1.009  0.00  0.00     0.003 A 
ATOM      6  C4  PXY d   1      -4.973   5.892   1.925  0.00  0.00    -0.082 A 
ATOM      7  C5  PXY d   1      -3.705   5.711   1.498  0.00  0.00     0.003 A 
ATOM      8  C6  PXY d   1      -3.454   5.635   0.131  0.00  0.00     0.003 A 
ENDROOT
TORSDOF 0
ENDMDL
