MODEL 1
REMARK minimizedAffinity 5.82175779
REMARK minimizedRMSD -1
REMARK  0 active torsions:
REMARK  status: ('A' for Active; 'I' for Inactive)
ROOT
ATOM      1  C4' PXY d   1       0.425   6.000  -1.809  0.00  0.00     0.077 C 
ATOM      2  C1' PXY d   1      -1.475   1.865   1.756  0.00  0.00     0.077 C 
ATOM      3  C1  PXY d   1      -0.988   2.955   0.822  0.00  0.00    -0.082 A 
ATOM      4  C2  PXY d   1      -0.005   2.700  -0.026  0.00  0.00     0.003 A 
ATOM      5  C3  PXY d   1       0.469   3.683  -0.856  0.00  0.00     0.003 A 
ATOM      6  C4  PXY d   1      -0.105   4.927  -0.854  0.00  0.00    -0.082 A 
ATOM      7  C5  PXY d   1      -1.115   5.192   0.000  0.00  0.00     0.003 A 
ATOM      8  C6  PXY d   1      -1.554   4.192   0.863  0.00  0.00     0.003 A 
ENDROOT
TORSDOF 0
ENDMDL
