MODEL 1
REMARK minimizedAffinity 4.82306337
REMARK minimizedRMSD -1
REMARK  0 active torsions:
REMARK  status: ('A' for Active; 'I' for Inactive)
ROOT
ATOM      1  C4' PXY d   1      -1.097   3.350  -3.240  0.00  0.00     0.077 C 
ATOM      2  C1' PXY d   1       0.129   1.698   2.162  0.00  0.00     0.077 C 
ATOM      3  C1  PXY d   1      -0.188   2.143   0.748  0.00  0.00    -0.082 A 
ATOM      4  C2  PXY d   1      -1.086   1.479   0.039  0.00  0.00     0.003 A 
ATOM      5  C3  PXY d   1      -1.362   1.848  -1.252  0.00  0.00     0.003 A 
ATOM      6  C4  PXY d   1      -0.751   2.942  -1.805  0.00  0.00    -0.082 A 
ATOM      7  C5  PXY d   1       0.158   3.632  -1.085  0.00  0.00     0.003 A 
ATOM      8  C6  PXY d   1       0.454   3.215   0.210  0.00  0.00     0.003 A 
ENDROOT
TORSDOF 0
ENDMDL
