MODEL 1
REMARK minimizedAffinity 14.6363974
REMARK minimizedRMSD -1
REMARK  0 active torsions:
REMARK  status: ('A' for Active; 'I' for Inactive)
ROOT
ATOM      1  C4' PXY d   1      -2.696   1.068  -2.586  0.00  0.00     0.077 C 
ATOM      2  C1' PXY d   1       1.446   3.621   0.535  0.00  0.00     0.077 C 
ATOM      3  C1  PXY d   1       0.361   2.961  -0.293  0.00  0.00    -0.082 A 
ATOM      4  C2  PXY d   1      -0.520   2.169   0.296  0.00  0.00     0.003 A 
ATOM      5  C3  PXY d   1      -1.489   1.538  -0.442  0.00  0.00     0.003 A 
ATOM      6  C4  PXY d   1      -1.589   1.763  -1.789  0.00  0.00    -0.082 A 
ATOM      7  C5  PXY d   1      -0.701   2.578  -2.395  0.00  0.00     0.003 A 
ATOM      8  C6  PXY d   1       0.300   3.176  -1.635  0.00  0.00     0.003 A 
ENDROOT
TORSDOF 0
ENDMDL
