MODEL 1
REMARK minimizedAffinity 2.45199776
REMARK minimizedRMSD -1
REMARK  0 active torsions:
REMARK  status: ('A' for Active; 'I' for Inactive)
ROOT
ATOM      1  C4' PXY d   1      -0.048   1.774   3.535  0.00  0.00     0.077 C 
ATOM      2  C1' PXY d   1      -1.101   3.556  -1.862  0.00  0.00     0.077 C 
ATOM      3  C1  PXY d   1      -0.837   3.093  -0.443  0.00  0.00    -0.082 A 
ATOM      4  C2  PXY d   1       0.410   2.941  -0.026  0.00  0.00     0.003 A 
ATOM      5  C3  PXY d   1       0.667   2.493   1.244  0.00  0.00     0.003 A 
ATOM      6  C4  PXY d   1      -0.362   2.248   2.114  0.00  0.00    -0.082 A 
ATOM      7  C5  PXY d   1      -1.637   2.411   1.700  0.00  0.00     0.003 A 
ATOM      8  C6  PXY d   1      -1.877   2.827   0.393  0.00  0.00     0.003 A 
ENDROOT
TORSDOF 0
ENDMDL
