MODEL 1
REMARK minimizedAffinity 6.57094765
REMARK minimizedRMSD -1
REMARK  0 active torsions:
REMARK  status: ('A' for Active; 'I' for Inactive)
ROOT
ATOM      1  C4' PXY d   1      -0.916   1.697   2.544  0.00  0.00     0.077 C 
ATOM      2  C1' PXY d   1      -0.395   4.898  -2.241  0.00  0.00     0.077 C 
ATOM      3  C1  PXY d   1      -0.537   4.069  -0.980  0.00  0.00    -0.082 A 
ATOM      4  C2  PXY d   1       0.220   2.996  -0.814  0.00  0.00     0.003 A 
ATOM      5  C3  PXY d   1       0.083   2.217   0.306  0.00  0.00     0.003 A 
ATOM      6  C4  PXY d   1      -0.801   2.569   1.291  0.00  0.00    -0.082 A 
ATOM      7  C5  PXY d   1      -1.569   3.668   1.134  0.00  0.00     0.003 A 
ATOM      8  C6  PXY d   1      -1.443   4.423  -0.029  0.00  0.00     0.003 A 
ENDROOT
TORSDOF 0
ENDMDL
