MODEL 1
REMARK minimizedAffinity 18.4758892
REMARK minimizedRMSD -1
REMARK  0 active torsions:
REMARK  status: ('A' for Active; 'I' for Inactive)
ROOT
ATOM      1  C4' PXY d   1       5.771  -5.620   2.188  0.00  0.00     0.077 C 
ATOM      2  C1' PXY d   1       2.644  -0.836   1.323  0.00  0.00     0.077 C 
ATOM      3  C1  PXY d   1       3.475  -2.084   1.545  0.00  0.00    -0.082 A 
ATOM      4  C2  PXY d   1       2.885  -3.268   1.557  0.00  0.00     0.003 A 
ATOM      5  C3  PXY d   1       3.616  -4.405   1.789  0.00  0.00     0.003 A 
ATOM      6  C4  PXY d   1       4.973  -4.333   1.957  0.00  0.00    -0.082 A 
ATOM      7  C5  PXY d   1       5.584  -3.130   1.936  0.00  0.00     0.003 A 
ATOM      8  C6  PXY d   1       4.817  -1.984   1.740  0.00  0.00     0.003 A 
ENDROOT
TORSDOF 0
ENDMDL
