MODEL 1
REMARK minimizedAffinity 8.49362183
REMARK minimizedRMSD -1
REMARK  0 active torsions:
REMARK  status: ('A' for Active; 'I' for Inactive)
ROOT
ATOM      1  C4' PXY d   1      -1.432   3.740  -3.346  0.00  0.00     0.077 C 
ATOM      2  C1' PXY d   1       0.723   1.743   1.632  0.00  0.00     0.077 C 
ATOM      3  C1  PXY d   1       0.164   2.278   0.329  0.00  0.00    -0.082 A 
ATOM      4  C2  PXY d   1      -0.933   1.742  -0.182  0.00  0.00     0.003 A 
ATOM      5  C3  PXY d   1      -1.434   2.192  -1.376  0.00  0.00     0.003 A 
ATOM      6  C4  PXY d   1      -0.837   3.238  -2.027  0.00  0.00    -0.082 A 
ATOM      7  C5  PXY d   1       0.276   3.798  -1.507  0.00  0.00     0.003 A 
ATOM      8  C6  PXY d   1       0.792   3.299  -0.315  0.00  0.00     0.003 A 
ENDROOT
TORSDOF 0
ENDMDL
