MODEL 1
REMARK minimizedAffinity 14.538682
REMARK minimizedRMSD -1
REMARK  0 active torsions:
REMARK  status: ('A' for Active; 'I' for Inactive)
ROOT
ATOM      1  C4' PXY d   1      -5.321   5.999   2.988  0.00  0.00     0.077 C 
ATOM      2  C1' PXY d   1      -4.565   4.288  -2.481  0.00  0.00     0.077 C 
ATOM      3  C1  PXY d   1      -4.770   4.747  -1.051  0.00  0.00    -0.082 A 
ATOM      4  C2  PXY d   1      -3.938   4.337  -0.107  0.00  0.00     0.003 A 
ATOM      5  C3  PXY d   1      -4.127   4.717   1.197  0.00  0.00     0.003 A 
ATOM      6  C4  PXY d   1      -5.147   5.568   1.529  0.00  0.00    -0.082 A 
ATOM      7  C5  PXY d   1      -5.993   6.000   0.570  0.00  0.00     0.003 A 
ATOM      8  C6  PXY d   1      -5.808   5.570  -0.740  0.00  0.00     0.003 A 
ENDROOT
TORSDOF 0
ENDMDL
