MODEL 1
REMARK minimizedAffinity 5.4501214
REMARK minimizedRMSD -1
REMARK  0 active torsions:
REMARK  status: ('A' for Active; 'I' for Inactive)
ROOT
ATOM      1  C4' PXY d   1       1.507   3.524   2.592  0.00  0.00     0.077 C 
ATOM      2  C1' PXY d   1      -2.639   0.716  -0.295  0.00  0.00     0.077 C 
ATOM      3  C1  PXY d   1      -1.561   1.458   0.470  0.00  0.00    -0.082 A 
ATOM      4  C2  PXY d   1      -0.385   1.671  -0.099  0.00  0.00     0.003 A 
ATOM      5  C3  PXY d   1       0.612   2.313   0.590  0.00  0.00     0.003 A 
ATOM      6  C4  PXY d   1       0.386   2.788   1.854  0.00  0.00    -0.082 A 
ATOM      7  C5  PXY d   1      -0.815   2.584   2.437  0.00  0.00     0.003 A 
ATOM      8  C6  PXY d   1      -1.800   1.895   1.736  0.00  0.00     0.003 A 
ENDROOT
TORSDOF 0
ENDMDL
