MODEL 1
REMARK minimizedAffinity -4.45256615
REMARK minimizedRMSD -1
REMARK  0 active torsions:
REMARK  status: ('A' for Active; 'I' for Inactive)
ROOT
ATOM      1  C4' PXY d   1       0.771   4.622  -0.692  0.00  0.00     0.077 C 
ATOM      2  C1' PXY d   1      -1.918   0.657   2.541  0.00  0.00     0.077 C 
ATOM      3  C1  PXY d   1      -1.210   1.687   1.684  0.00  0.00    -0.082 A 
ATOM      4  C2  PXY d   1      -0.768   2.805   2.237  0.00  0.00     0.003 A 
ATOM      5  C3  PXY d   1      -0.153   3.762   1.472  0.00  0.00     0.003 A 
ATOM      6  C4  PXY d   1       0.059   3.550   0.136  0.00  0.00    -0.082 A 
ATOM      7  C5  PXY d   1      -0.380   2.407  -0.434  0.00  0.00     0.003 A 
ATOM      8  C6  PXY d   1      -1.038   1.466   0.353  0.00  0.00     0.003 A 
ENDROOT
TORSDOF 0
ENDMDL
