MODEL 1
REMARK minimizedAffinity 14.6706161
REMARK minimizedRMSD -1
REMARK  0 active torsions:
REMARK  status: ('A' for Active; 'I' for Inactive)
ROOT
ATOM      1  C4' PXY d   1       0.235   1.416   1.023  0.00  0.00     0.077 C 
ATOM      2  C1' PXY d   1      -1.045   4.589  -3.636  0.00  0.00     0.077 C 
ATOM      3  C1  PXY d   1      -0.697   3.761  -2.415  0.00  0.00    -0.082 A 
ATOM      4  C2  PXY d   1      -1.444   2.716  -2.098  0.00  0.00     0.003 A 
ATOM      5  C3  PXY d   1      -1.163   1.976  -0.979  0.00  0.00     0.003 A 
ATOM      6  C4  PXY d   1      -0.074   2.275  -0.206  0.00  0.00    -0.082 A 
ATOM      7  C5  PXY d   1       0.700   3.334  -0.528  0.00  0.00     0.003 A 
ATOM      8  C6  PXY d   1       0.374   4.097  -1.645  0.00  0.00     0.003 A 
ENDROOT
TORSDOF 0
ENDMDL
