MODEL 1
REMARK minimizedAffinity 7.01848984
REMARK minimizedRMSD -1
REMARK  0 active torsions:
REMARK  status: ('A' for Active; 'I' for Inactive)
ROOT
ATOM      1  C4' PXY d   1       1.478   4.083   0.342  0.00  0.00     0.077 C 
ATOM      2  C1' PXY d   1      -2.608   1.810  -3.057  0.00  0.00     0.077 C 
ATOM      3  C1  PXY d   1      -1.545   2.406  -2.156  0.00  0.00    -0.082 A 
ATOM      4  C2  PXY d   1      -0.556   3.107  -2.686  0.00  0.00     0.003 A 
ATOM      5  C3  PXY d   1       0.431   3.626  -1.888  0.00  0.00     0.003 A 
ATOM      6  C4  PXY d   1       0.377   3.471  -0.529  0.00  0.00    -0.082 A 
ATOM      7  C5  PXY d   1      -0.634   2.766   0.020  0.00  0.00     0.003 A 
ATOM      8  C6  PXY d   1      -1.604   2.212  -0.810  0.00  0.00     0.003 A 
ENDROOT
TORSDOF 0
ENDMDL
