MODEL 1
REMARK minimizedAffinity -5.47579193
REMARK minimizedRMSD -1
REMARK  1 active torsions:
REMARK  status: ('A' for Active; 'I' for Inactive)
REMARK    1  A    between atoms: C1_2  and  C2_3 
ROOT
ATOM      1  C2  UNL d   1      -0.526   0.993  -0.298  0.00  0.00    -0.076 A 
ATOM      2  C3  UNL d   1      -0.549   0.663   1.068  0.00  0.00     0.004 A 
ATOM      3  C4  UNL d   1      -0.823   1.628   2.035  0.00  0.00    -0.003 A 
ATOM      4  C5  UNL d   1      -1.080   2.940   1.651  0.00  0.00     0.000 A 
ATOM      5  C6  UNL d   1      -1.078   3.281   0.299  0.00  0.00     0.000 A 
ATOM      6  C7  UNL d   1      -0.820   2.316  -0.689  0.00  0.00    -0.073 A 
ATOM      7  C8  UNL d   1      -0.825   2.741  -2.132  0.00  0.00     0.078 C 
ENDROOT
BRANCH   1   8
ATOM      8  C1  UNL d   1      -0.196  -0.091  -1.299  0.00  0.00     0.053 C 
ATOM      9  C   UNL d   1       0.570  -1.247  -0.675  0.00  0.00     0.018 C 
ENDBRANCH   1   8
TORSDOF 1
ENDMDL
