MODEL 1
REMARK minimizedAffinity -4.73147249
REMARK minimizedRMSD -1
REMARK  1 active torsions:
REMARK  status: ('A' for Active; 'I' for Inactive)
REMARK    1  A    between atoms: C1_2  and  C2_3 
ROOT
ATOM      1  C2  UNL d   1      -0.294   1.052   0.484  0.00  0.00    -0.076 A 
ATOM      2  C3  UNL d   1      -0.954   1.642   1.576  0.00  0.00     0.004 A 
ATOM      3  C4  UNL d   1      -1.623   2.857   1.439  0.00  0.00    -0.003 A 
ATOM      4  C5  UNL d   1      -1.644   3.502   0.207  0.00  0.00     0.000 A 
ATOM      5  C6  UNL d   1      -1.009   2.922  -0.891  0.00  0.00     0.000 A 
ATOM      6  C7  UNL d   1      -0.344   1.690  -0.774  0.00  0.00    -0.073 A 
ATOM      7  C8  UNL d   1       0.329   1.114  -1.989  0.00  0.00     0.078 C 
ENDROOT
BRANCH   1   8
ATOM      8  C1  UNL d   1       0.438  -0.253   0.700  0.00  0.00     0.053 C 
ATOM      9  C   UNL d   1       1.437  -0.178   1.844  0.00  0.00     0.018 C 
ENDBRANCH   1   8
TORSDOF 1
ENDMDL
