MODEL 1
REMARK minimizedAffinity -4.87236595
REMARK minimizedRMSD -1
REMARK  1 active torsions:
REMARK  status: ('A' for Active; 'I' for Inactive)
REMARK    1  A    between atoms: C1_2  and  C2_3 
ROOT
ATOM      1  C2  UNL d   1       0.135   0.883  -0.079  0.00  0.00    -0.076 A 
ATOM      2  C3  UNL d   1      -0.056   0.400   1.227  0.00  0.00     0.004 A 
ATOM      3  C4  UNL d   1      -0.627   1.204   2.213  0.00  0.00    -0.003 A 
ATOM      4  C5  UNL d   1      -1.016   2.503   1.909  0.00  0.00     0.000 A 
ATOM      5  C6  UNL d   1      -0.850   2.993   0.614  0.00  0.00     0.000 A 
ATOM      6  C7  UNL d   1      -0.291   2.191  -0.396  0.00  0.00    -0.073 A 
ATOM      7  C8  UNL d   1      -0.130   2.772  -1.774  0.00  0.00     0.078 C 
ENDROOT
BRANCH   1   8
ATOM      8  C1  UNL d   1       0.784  -0.025  -1.099  0.00  0.00     0.053 C 
ATOM      9  C   UNL d   1       0.495  -1.495  -0.838  0.00  0.00     0.018 C 
ENDBRANCH   1   8
TORSDOF 1
ENDMDL
