MODEL 1
REMARK minimizedAffinity -5.08321953
REMARK minimizedRMSD -1
REMARK  1 active torsions:
REMARK  status: ('A' for Active; 'I' for Inactive)
REMARK    1  A    between atoms: C1_2  and  C2_3 
ROOT
ATOM      1  C2  UNL d   1       0.123   1.124  -0.068  0.00  0.00    -0.076 A 
ATOM      2  C3  UNL d   1       0.119   1.159   1.337  0.00  0.00     0.004 A 
ATOM      3  C4  UNL d   1      -0.377   2.265   2.026  0.00  0.00    -0.003 A 
ATOM      4  C5  UNL d   1      -0.877   3.353   1.320  0.00  0.00     0.000 A 
ATOM      5  C6  UNL d   1      -0.898   3.328  -0.074  0.00  0.00     0.000 A 
ATOM      6  C7  UNL d   1      -0.417   2.214  -0.783  0.00  0.00    -0.073 A 
ATOM      7  C8  UNL d   1      -0.457   2.244  -2.287  0.00  0.00     0.078 C 
ENDROOT
BRANCH   1   8
ATOM      8  C1  UNL d   1       0.698  -0.091  -0.761  0.00  0.00     0.053 C 
ATOM      9  C   UNL d   1       0.144  -1.394  -0.208  0.00  0.00     0.018 C 
ENDBRANCH   1   8
TORSDOF 1
ENDMDL
