MODEL 1
REMARK minimizedAffinity 2.62732077
REMARK minimizedRMSD -1
REMARK  0 active torsions:
REMARK  status: ('A' for Active; 'I' for Inactive)
ROOT
ATOM      1  C   UNL d   1       1.413  -1.161   1.294  0.00  0.00     0.124 A 
ATOM      2  C1  UNL d   1       1.999  -0.881   0.068  0.00  0.00     0.062 A 
ATOM      3  C2  UNL d   1       1.400   0.025  -0.804  0.00  0.00     0.162 A 
ATOM      4  C3  UNL d   1       0.209   0.658  -0.451  0.00  0.00    -0.034 A 
ATOM      5  C4  UNL d   1      -0.375   0.370   0.784  0.00  0.00     0.162 A 
ATOM      6  C5  UNL d   1       0.226  -0.536   1.651  0.00  0.00     0.062 A 
ATOM      7  F   UNL d   1      -0.341  -0.805   2.836  0.00  0.00    -0.097 F 
ATOM      8  F1  UNL d   1      -1.521   0.962   1.155  0.00  0.00    -0.096 F 
ATOM      9  I   UNL d   1      -0.689   2.013  -1.751  0.00  0.00    -0.060 I 
ATOM     10  F2  UNL d   1       1.989   0.276  -1.982  0.00  0.00    -0.096 F 
ATOM     11  F3  UNL d   1       3.144  -1.485  -0.280  0.00  0.00    -0.097 F 
ATOM     12  F4  UNL d   1       1.990  -2.034   2.130  0.00  0.00    -0.092 F 
ENDROOT
TORSDOF 0
ENDMDL
