MODEL 1
REMARK minimizedAffinity 4.87817812
REMARK minimizedRMSD -1
REMARK  0 active torsions:
REMARK  status: ('A' for Active; 'I' for Inactive)
ROOT
ATOM      1  C   UNL d   1       0.748  -1.020   1.553  0.00  0.00     0.124 A 
ATOM      2  C1  UNL d   1      -0.570  -0.690   1.268  0.00  0.00     0.062 A 
ATOM      3  C2  UNL d   1      -0.878   0.045   0.127  0.00  0.00     0.162 A 
ATOM      4  C3  UNL d   1       0.136   0.455  -0.740  0.00  0.00    -0.034 A 
ATOM      5  C4  UNL d   1       1.459   0.121  -0.447  0.00  0.00     0.162 A 
ATOM      6  C5  UNL d   1       1.761  -0.614   0.695  0.00  0.00     0.062 A 
ATOM      7  F   UNL d   1       3.035  -0.931   0.969  0.00  0.00    -0.097 F 
ATOM      8  F1  UNL d   1       2.457   0.499  -1.258  0.00  0.00    -0.096 F 
ATOM      9  I   UNL d   1      -0.320   1.554  -2.447  0.00  0.00    -0.060 I 
ATOM     10  F2  UNL d   1      -2.160   0.349  -0.123  0.00  0.00    -0.096 F 
ATOM     11  F3  UNL d   1      -1.551  -1.080   2.095  0.00  0.00    -0.097 F 
ATOM     12  F4  UNL d   1       1.040  -1.726   2.652  0.00  0.00    -0.092 F 
ENDROOT
TORSDOF 0
ENDMDL
