MODEL 1
REMARK minimizedAffinity 5.22625446
REMARK minimizedRMSD -1
REMARK  0 active torsions:
REMARK  status: ('A' for Active; 'I' for Inactive)
ROOT
ATOM      1  C   UNL d   1      -2.380   1.316  -2.918  0.00  0.00     0.124 A 
ATOM      2  C1  UNL d   1      -2.713   0.391  -1.939  0.00  0.00     0.062 A 
ATOM      3  C2  UNL d   1      -1.883   0.209  -0.837  0.00  0.00     0.162 A 
ATOM      4  C3  UNL d   1      -0.711   0.954  -0.708  0.00  0.00    -0.034 A 
ATOM      5  C4  UNL d   1      -0.382   1.882  -1.698  0.00  0.00     0.162 A 
ATOM      6  C5  UNL d   1      -1.215   2.060  -2.797  0.00  0.00     0.062 A 
ATOM      7  F   UNL d   1      -0.892   2.955  -3.743  0.00  0.00    -0.097 F 
ATOM      8  F1  UNL d   1       0.737   2.615  -1.605  0.00  0.00    -0.096 F 
ATOM      9  I   UNL d   1       0.534   0.684   0.938  0.00  0.00    -0.060 I 
ATOM     10  F2  UNL d   1      -2.230  -0.692   0.095  0.00  0.00    -0.096 F 
ATOM     11  F3  UNL d   1      -3.838  -0.330  -2.054  0.00  0.00    -0.097 F 
ATOM     12  F4  UNL d   1      -3.181   1.489  -3.978  0.00  0.00    -0.092 F 
ENDROOT
TORSDOF 0
ENDMDL
