MODEL 1
REMARK minimizedAffinity 1.71697366
REMARK minimizedRMSD -1
REMARK  0 active torsions:
REMARK  status: ('A' for Active; 'I' for Inactive)
ROOT
ATOM      1  C   UNL d   1      -1.462   2.950  -2.683  0.00  0.00     0.124 A 
ATOM      2  C1  UNL d   1      -1.008   3.538  -1.510  0.00  0.00     0.062 A 
ATOM      3  C2  UNL d   1      -1.136   2.869  -0.296  0.00  0.00     0.162 A 
ATOM      4  C3  UNL d   1      -1.720   1.603  -0.249  0.00  0.00    -0.034 A 
ATOM      5  C4  UNL d   1      -2.174   1.018  -1.432  0.00  0.00     0.162 A 
ATOM      6  C5  UNL d   1      -2.044   1.691  -2.642  0.00  0.00     0.062 A 
ATOM      7  F   UNL d   1      -2.483   1.121  -3.774  0.00  0.00    -0.097 F 
ATOM      8  F1  UNL d   1      -2.740  -0.198  -1.422  0.00  0.00    -0.096 F 
ATOM      9  I   UNL d   1      -1.913   0.600   1.565  0.00  0.00    -0.060 I 
ATOM     10  F2  UNL d   1      -0.689   3.462   0.821  0.00  0.00    -0.096 F 
ATOM     11  F3  UNL d   1      -0.446   4.755  -1.547  0.00  0.00    -0.097 F 
ATOM     12  F4  UNL d   1      -1.338   3.596  -3.849  0.00  0.00    -0.092 F 
ENDROOT
TORSDOF 0
ENDMDL
