MODEL 1
REMARK minimizedAffinity 11.2119913
REMARK minimizedRMSD -1
REMARK  0 active torsions:
REMARK  status: ('A' for Active; 'I' for Inactive)
ROOT
ATOM      1  C   UNL d   1      -2.016   2.369  -2.662  0.00  0.00     0.124 A 
ATOM      2  C1  UNL d   1      -3.199   1.666  -2.473  0.00  0.00     0.062 A 
ATOM      3  C2  UNL d   1      -3.516   1.154  -1.219  0.00  0.00     0.162 A 
ATOM      4  C3  UNL d   1      -2.650   1.343  -0.142  0.00  0.00    -0.034 A 
ATOM      5  C4  UNL d   1      -1.462   2.049  -0.340  0.00  0.00     0.162 A 
ATOM      6  C5  UNL d   1      -1.149   2.559  -1.595  0.00  0.00     0.062 A 
ATOM      7  F   UNL d   1      -0.007   3.237  -1.776  0.00  0.00    -0.097 F 
ATOM      8  F1  UNL d   1      -0.606   2.249   0.674  0.00  0.00    -0.096 F 
ATOM      9  I   UNL d   1      -3.120   0.578   1.736  0.00  0.00    -0.060 I 
ATOM     10  F2  UNL d   1      -4.665   0.480  -1.065  0.00  0.00    -0.096 F 
ATOM     11  F3  UNL d   1      -4.038   1.480  -3.503  0.00  0.00    -0.097 F 
ATOM     12  F4  UNL d   1      -1.713   2.860  -3.871  0.00  0.00    -0.092 F 
ENDROOT
TORSDOF 0
ENDMDL
