MODEL 1
REMARK minimizedAffinity 6.24903488
REMARK minimizedRMSD -1
REMARK  0 active torsions:
REMARK  status: ('A' for Active; 'I' for Inactive)
ROOT
ATOM      1  C   UNL d   1       2.399  -0.860  -0.110  0.00  0.00     0.124 A 
ATOM      2  C1  UNL d   1       1.949   0.451  -0.167  0.00  0.00     0.062 A 
ATOM      3  C2  UNL d   1       0.728   0.798   0.405  0.00  0.00     0.162 A 
ATOM      4  C3  UNL d   1      -0.051  -0.169   1.040  0.00  0.00    -0.034 A 
ATOM      5  C4  UNL d   1       0.408  -1.486   1.093  0.00  0.00     0.162 A 
ATOM      6  C5  UNL d   1       1.629  -1.827   0.520  0.00  0.00     0.062 A 
ATOM      7  F   UNL d   1       2.063  -3.095   0.577  0.00  0.00    -0.097 F 
ATOM      8  F1  UNL d   1      -0.315  -2.441   1.697  0.00  0.00    -0.096 F 
ATOM      9  I   UNL d   1      -1.877   0.345   1.897  0.00  0.00    -0.060 I 
ATOM     10  F2  UNL d   1       0.318   2.073   0.334  0.00  0.00    -0.096 F 
ATOM     11  F3  UNL d   1       2.691   1.388  -0.776  0.00  0.00    -0.097 F 
ATOM     12  F4  UNL d   1       3.574  -1.191  -0.662  0.00  0.00    -0.092 F 
ENDROOT
TORSDOF 0
ENDMDL
