MODEL 1
REMARK minimizedAffinity 12.0166674
REMARK minimizedRMSD -1
REMARK  0 active torsions:
REMARK  status: ('A' for Active; 'I' for Inactive)
ROOT
ATOM      1  C   UNL d   1      -2.399  -1.777   0.439  0.00  0.00     0.124 A 
ATOM      2  C1  UNL d   1      -2.383  -1.920  -0.942  0.00  0.00     0.062 A 
ATOM      3  C2  UNL d   1      -2.596  -0.817  -1.763  0.00  0.00     0.162 A 
ATOM      4  C3  UNL d   1      -2.826   0.441  -1.205  0.00  0.00    -0.034 A 
ATOM      5  C4  UNL d   1      -2.841   0.578   0.184  0.00  0.00     0.162 A 
ATOM      6  C5  UNL d   1      -2.627  -0.528   1.000  0.00  0.00     0.062 A 
ATOM      7  F   UNL d   1      -2.642  -0.388   2.334  0.00  0.00    -0.097 F 
ATOM      8  F1  UNL d   1      -3.058   1.773   0.753  0.00  0.00    -0.096 F 
ATOM      9  I   UNL d   1      -3.145   2.094  -2.430  0.00  0.00    -0.060 I 
ATOM     10  F2  UNL d   1      -2.576  -0.985  -3.093  0.00  0.00    -0.096 F 
ATOM     11  F3  UNL d   1      -2.163  -3.126  -1.486  0.00  0.00    -0.097 F 
ATOM     12  F4  UNL d   1      -2.194  -2.840   1.227  0.00  0.00    -0.092 F 
ENDROOT
TORSDOF 0
ENDMDL
