MODEL 1
REMARK minimizedAffinity 16.001894
REMARK minimizedRMSD -1
REMARK  0 active torsions:
REMARK  status: ('A' for Active; 'I' for Inactive)
ROOT
ATOM      1  C   UNL d   1      -1.875   0.180   1.813  0.00  0.00     0.124 A 
ATOM      2  C1  UNL d   1      -1.849   1.527   1.480  0.00  0.00     0.062 A 
ATOM      3  C2  UNL d   1      -2.162   1.935   0.186  0.00  0.00     0.162 A 
ATOM      4  C3  UNL d   1      -2.506   0.994  -0.785  0.00  0.00    -0.034 A 
ATOM      5  C4  UNL d   1      -2.529  -0.360  -0.442  0.00  0.00     0.162 A 
ATOM      6  C5  UNL d   1      -2.215  -0.762   0.852  0.00  0.00     0.062 A 
ATOM      7  F   UNL d   1      -2.241  -2.064   1.172  0.00  0.00    -0.097 F 
ATOM      8  F1  UNL d   1      -2.855  -1.291  -1.351  0.00  0.00    -0.096 F 
ATOM      9  I   UNL d   1      -2.975   1.599  -2.720  0.00  0.00    -0.060 I 
ATOM     10  F2  UNL d   1      -2.129   3.243  -0.108  0.00  0.00    -0.096 F 
ATOM     11  F3  UNL d   1      -1.520   2.439   2.406  0.00  0.00    -0.097 F 
ATOM     12  F4  UNL d   1      -1.573  -0.209   3.058  0.00  0.00    -0.092 F 
ENDROOT
TORSDOF 0
ENDMDL
