MODEL 1
REMARK minimizedAffinity 11.9268026
REMARK minimizedRMSD -1
REMARK  0 active torsions:
REMARK  status: ('A' for Active; 'I' for Inactive)
ROOT
ATOM      1  C   UNL d   1       1.793  -1.999   0.794  0.00  0.00     0.124 A 
ATOM      2  C1  UNL d   1       1.439  -0.671   0.989  0.00  0.00     0.062 A 
ATOM      3  C2  UNL d   1       1.956   0.320   0.159  0.00  0.00     0.162 A 
ATOM      4  C3  UNL d   1       2.831  -0.014  -0.875  0.00  0.00    -0.034 A 
ATOM      5  C4  UNL d   1       3.183  -1.351  -1.064  0.00  0.00     0.162 A 
ATOM      6  C5  UNL d   1       2.664  -2.338  -0.232  0.00  0.00     0.062 A 
ATOM      7  F   UNL d   1       3.007  -3.620  -0.421  0.00  0.00    -0.097 F 
ATOM      8  F1  UNL d   1       4.022  -1.707  -2.048  0.00  0.00    -0.096 F 
ATOM      9  I   UNL d   1       3.605   1.465  -2.118  0.00  0.00    -0.060 I 
ATOM     10  F2  UNL d   1       1.596   1.595   0.370  0.00  0.00    -0.096 F 
ATOM     11  F3  UNL d   1       0.599  -0.341   1.980  0.00  0.00    -0.097 F 
ATOM     12  F4  UNL d   1       1.296  -2.950   1.595  0.00  0.00    -0.092 F 
ENDROOT
TORSDOF 0
ENDMDL
