MODEL 1
REMARK minimizedAffinity 15.2506275
REMARK minimizedRMSD -1
REMARK  0 active torsions:
REMARK  status: ('A' for Active; 'I' for Inactive)
ROOT
ATOM      1  C   UNL d   1      -3.444  -0.030  -0.527  0.00  0.00     0.124 A 
ATOM      2  C1  UNL d   1      -2.783  -1.233  -0.730  0.00  0.00     0.062 A 
ATOM      3  C2  UNL d   1      -1.958  -1.755   0.262  0.00  0.00     0.162 A 
ATOM      4  C3  UNL d   1      -1.790  -1.074   1.468  0.00  0.00    -0.034 A 
ATOM      5  C4  UNL d   1      -2.457   0.136   1.665  0.00  0.00     0.162 A 
ATOM      6  C5  UNL d   1      -3.281   0.654   0.670  0.00  0.00     0.062 A 
ATOM      7  F   UNL d   1      -3.919   1.816   0.868  0.00  0.00    -0.097 F 
ATOM      8  F1  UNL d   1      -2.318   0.817   2.812  0.00  0.00    -0.096 F 
ATOM      9  I   UNL d   1      -0.557  -1.851   2.954  0.00  0.00    -0.060 I 
ATOM     10  F2  UNL d   1      -1.332  -2.920   0.039  0.00  0.00    -0.096 F 
ATOM     11  F3  UNL d   1      -2.939  -1.895  -1.885  0.00  0.00    -0.097 F 
ATOM     12  F4  UNL d   1      -4.237   0.470  -1.483  0.00  0.00    -0.092 F 
ENDROOT
TORSDOF 0
ENDMDL
