MODEL 1
REMARK minimizedAffinity 13.0516357
REMARK minimizedRMSD -1
REMARK  0 active torsions:
REMARK  status: ('A' for Active; 'I' for Inactive)
ROOT
ATOM      1  C   UNL d   1      -1.627  -2.250   1.456  0.00  0.00     0.124 A 
ATOM      2  C1  UNL d   1      -2.248  -2.459   0.232  0.00  0.00     0.062 A 
ATOM      3  C2  UNL d   1      -2.321  -1.429  -0.701  0.00  0.00     0.162 A 
ATOM      4  C3  UNL d   1      -1.769  -0.180  -0.415  0.00  0.00    -0.034 A 
ATOM      5  C4  UNL d   1      -1.146   0.023   0.818  0.00  0.00     0.162 A 
ATOM      6  C5  UNL d   1      -1.077  -1.010   1.747  0.00  0.00     0.062 A 
ATOM      7  F   UNL d   1      -0.476  -0.806   2.929  0.00  0.00    -0.097 F 
ATOM      8  F1  UNL d   1      -0.606   1.211   1.125  0.00  0.00    -0.096 F 
ATOM      9  I   UNL d   1      -1.875   1.362  -1.808  0.00  0.00    -0.060 I 
ATOM     10  F2  UNL d   1      -2.927  -1.660  -1.875  0.00  0.00    -0.096 F 
ATOM     11  F3  UNL d   1      -2.781  -3.656  -0.051  0.00  0.00    -0.097 F 
ATOM     12  F4  UNL d   1      -1.559  -3.242   2.353  0.00  0.00    -0.092 F 
ENDROOT
TORSDOF 0
ENDMDL
