MODEL 1
REMARK minimizedAffinity 8.1577549
REMARK minimizedRMSD -1
REMARK  0 active torsions:
REMARK  status: ('A' for Active; 'I' for Inactive)
ROOT
ATOM      1  C   UNL d   1      -2.760   0.586   1.875  0.00  0.00     0.124 A 
ATOM      2  C1  UNL d   1      -4.039   0.630   1.338  0.00  0.00     0.062 A 
ATOM      3  C2  UNL d   1      -4.222   0.933  -0.008  0.00  0.00     0.162 A 
ATOM      4  C3  UNL d   1      -3.123   1.194  -0.827  0.00  0.00    -0.034 A 
ATOM      5  C4  UNL d   1      -1.840   1.149  -0.279  0.00  0.00     0.162 A 
ATOM      6  C5  UNL d   1      -1.662   0.846   1.067  0.00  0.00     0.062 A 
ATOM      7  F   UNL d   1      -0.426   0.804   1.585  0.00  0.00    -0.097 F 
ATOM      8  F1  UNL d   1      -0.762   1.395  -1.038  0.00  0.00    -0.096 F 
ATOM      9  I   UNL d   1      -3.394   1.648  -2.840  0.00  0.00    -0.060 I 
ATOM     10  F2  UNL d   1      -5.469   0.968  -0.501  0.00  0.00    -0.096 F 
ATOM     11  F3  UNL d   1      -5.101   0.380   2.117  0.00  0.00    -0.097 F 
ATOM     12  F4  UNL d   1      -2.586   0.295   3.171  0.00  0.00    -0.092 F 
ENDROOT
TORSDOF 0
ENDMDL
