MODEL 1
REMARK minimizedAffinity 8.34265614
REMARK minimizedRMSD -1
REMARK  0 active torsions:
REMARK  status: ('A' for Active; 'I' for Inactive)
ROOT
ATOM      1  C   UNL d   1      -3.166   0.186   2.178  0.00  0.00     0.124 A 
ATOM      2  C1  UNL d   1      -4.461   0.184   1.680  0.00  0.00     0.062 A 
ATOM      3  C2  UNL d   1      -4.738   0.765   0.446  0.00  0.00     0.162 A 
ATOM      4  C3  UNL d   1      -3.716   1.351  -0.301  0.00  0.00    -0.034 A 
ATOM      5  C4  UNL d   1      -2.415   1.349   0.206  0.00  0.00     0.162 A 
ATOM      6  C5  UNL d   1      -2.144   0.768   1.441  0.00  0.00     0.062 A 
ATOM      7  F   UNL d   1      -0.892   0.770   1.920  0.00  0.00    -0.097 F 
ATOM      8  F1  UNL d   1      -1.409   1.904  -0.486  0.00  0.00    -0.096 F 
ATOM      9  I   UNL d   1      -4.125   2.219  -2.148  0.00  0.00    -0.060 I 
ATOM     10  F2  UNL d   1      -5.999   0.749  -0.011  0.00  0.00    -0.096 F 
ATOM     11  F3  UNL d   1      -5.450  -0.377   2.391  0.00  0.00    -0.097 F 
ATOM     12  F4  UNL d   1      -2.903  -0.373   3.366  0.00  0.00    -0.092 F 
ENDROOT
TORSDOF 0
ENDMDL
