MODEL 1
REMARK minimizedAffinity 10.110734
REMARK minimizedRMSD -1
REMARK  0 active torsions:
REMARK  status: ('A' for Active; 'I' for Inactive)
ROOT
ATOM      1  C   UNL d   1       1.747  -2.876   0.719  0.00  0.00     0.124 A 
ATOM      2  C1  UNL d   1       2.261  -1.715   1.281  0.00  0.00     0.062 A 
ATOM      3  C2  UNL d   1       2.808  -0.728   0.467  0.00  0.00     0.162 A 
ATOM      4  C3  UNL d   1       2.844  -0.896  -0.917  0.00  0.00    -0.034 A 
ATOM      5  C4  UNL d   1       2.326  -2.067  -1.474  0.00  0.00     0.162 A 
ATOM      6  C5  UNL d   1       1.780  -3.051  -0.657  0.00  0.00     0.062 A 
ATOM      7  F   UNL d   1       1.284  -4.172  -1.201  0.00  0.00    -0.097 F 
ATOM      8  F1  UNL d   1       2.345  -2.261  -2.801  0.00  0.00    -0.096 F 
ATOM      9  I   UNL d   1       3.662   0.579  -2.137  0.00  0.00    -0.060 I 
ATOM     10  F2  UNL d   1       3.297   0.384   1.037  0.00  0.00    -0.096 F 
ATOM     11  F3  UNL d   1       2.230  -1.545   2.610  0.00  0.00    -0.097 F 
ATOM     12  F4  UNL d   1       1.221  -3.826   1.505  0.00  0.00    -0.092 F 
ENDROOT
TORSDOF 0
ENDMDL
