MODEL 1
REMARK minimizedAffinity 5.68680334
REMARK minimizedRMSD -1
REMARK  0 active torsions:
REMARK  status: ('A' for Active; 'I' for Inactive)
ROOT
ATOM      1  C   UNL d   1       2.303  -0.323  -0.935  0.00  0.00     0.124 A 
ATOM      2  C1  UNL d   1       1.880  -0.156   0.377  0.00  0.00     0.062 A 
ATOM      3  C2  UNL d   1       1.496  -1.259   1.134  0.00  0.00     0.162 A 
ATOM      4  C3  UNL d   1       1.534  -2.539   0.582  0.00  0.00    -0.034 A 
ATOM      5  C4  UNL d   1       1.959  -2.699  -0.738  0.00  0.00     0.162 A 
ATOM      6  C5  UNL d   1       2.342  -1.594  -1.490  0.00  0.00     0.062 A 
ATOM      7  F   UNL d   1       2.751  -1.758  -2.757  0.00  0.00    -0.097 F 
ATOM      8  F1  UNL d   1       2.008  -3.916  -1.299  0.00  0.00    -0.096 F 
ATOM      9  I   UNL d   1       0.960  -4.191   1.712  0.00  0.00    -0.060 I 
ATOM     10  F2  UNL d   1       1.091  -1.068   2.399  0.00  0.00    -0.096 F 
ATOM     11  F3  UNL d   1       1.840   1.071   0.916  0.00  0.00    -0.097 F 
ATOM     12  F4  UNL d   1       2.671   0.740  -1.661  0.00  0.00    -0.092 F 
ENDROOT
TORSDOF 0
ENDMDL
