MODEL 1
REMARK minimizedAffinity 4.41622019
REMARK minimizedRMSD -1
REMARK  0 active torsions:
REMARK  status: ('A' for Active; 'I' for Inactive)
ROOT
ATOM      1  C   UNL d   1      -2.173  -0.902   0.167  0.00  0.00     0.124 A 
ATOM      2  C1  UNL d   1      -2.882  -0.639  -0.997  0.00  0.00     0.062 A 
ATOM      3  C2  UNL d   1      -2.518   0.429  -1.812  0.00  0.00     0.162 A 
ATOM      4  C3  UNL d   1      -1.439   1.243  -1.466  0.00  0.00    -0.034 A 
ATOM      5  C4  UNL d   1      -0.732   0.973  -0.293  0.00  0.00     0.162 A 
ATOM      6  C5  UNL d   1      -1.099  -0.096   0.518  0.00  0.00     0.062 A 
ATOM      7  F   UNL d   1      -0.414  -0.349   1.643  0.00  0.00    -0.097 F 
ATOM      8  F1  UNL d   1       0.311   1.735   0.070  0.00  0.00    -0.096 F 
ATOM      9  I   UNL d   1      -0.892   2.842  -2.681  0.00  0.00    -0.060 I 
ATOM     10  F2  UNL d   1      -3.220   0.660  -2.931  0.00  0.00    -0.096 F 
ATOM     11  F3  UNL d   1      -3.920  -1.415  -1.339  0.00  0.00    -0.097 F 
ATOM     12  F4  UNL d   1      -2.526  -1.930   0.949  0.00  0.00    -0.092 F 
ENDROOT
TORSDOF 0
ENDMDL
