MODEL 1
REMARK minimizedAffinity -6.25332832
REMARK minimizedRMSD -1
REMARK  0 active torsions:
REMARK  status: ('A' for Active; 'I' for Inactive)
ROOT
ATOM      1  C2' OXE d   1      -1.038   0.469   1.301  0.00  0.00     0.078 C 
ATOM      2  C1' OXE d   1       0.624  -0.717  -0.626  0.00  0.00     0.078 C 
ATOM      3  C1  OXE d   1       1.113   0.542   0.046  0.00  0.00    -0.078 A 
ATOM      4  C2  OXE d   1       0.273   1.141   0.954  0.00  0.00    -0.078 A 
ATOM      5  C3  OXE d   1       0.697   2.274   1.643  0.00  0.00     0.003 A 
ATOM      6  C4  OXE d   1       1.907   2.895   1.309  0.00  0.00    -0.002 A 
ATOM      7  C5  OXE d   1       2.760   2.323   0.359  0.00  0.00    -0.002 A 
ATOM      8  C6  OXE d   1       2.398   1.126  -0.249  0.00  0.00     0.003 A 
ENDROOT
TORSDOF 0
ENDMDL
