MODEL 1
REMARK minimizedAffinity -4.97158098
REMARK minimizedRMSD -1
REMARK  0 active torsions:
REMARK  status: ('A' for Active; 'I' for Inactive)
ROOT
ATOM      1  C2' OXE d   1      -1.215   1.332   1.021  0.00  0.00     0.078 C 
ATOM      2  C1' OXE d   1      -0.169  -0.745  -0.551  0.00  0.00     0.078 C 
ATOM      3  C1  OXE d   1       0.783   0.321  -0.069  0.00  0.00    -0.078 A 
ATOM      4  C2  OXE d   1       0.255   1.358   0.661  0.00  0.00    -0.078 A 
ATOM      5  C3  OXE d   1       1.098   2.338   1.177  0.00  0.00     0.003 A 
ATOM      6  C4  OXE d   1       2.454   2.360   0.830  0.00  0.00    -0.002 A 
ATOM      7  C5  OXE d   1       3.006   1.335   0.055  0.00  0.00    -0.002 A 
ATOM      8  C6  OXE d   1       2.194   0.287  -0.366  0.00  0.00     0.003 A 
ENDROOT
TORSDOF 0
ENDMDL
