MODEL 1
REMARK minimizedAffinity -6.74361181
REMARK minimizedRMSD -1
REMARK  0 active torsions:
REMARK  status: ('A' for Active; 'I' for Inactive)
ROOT
ATOM      1  C2' OXE d   1      -0.747   0.458   1.869  0.00  0.00     0.078 C 
ATOM      2  C1' OXE d   1       0.556  -0.732  -0.314  0.00  0.00     0.078 C 
ATOM      3  C1  OXE d   1       1.150   0.532   0.256  0.00  0.00    -0.078 A 
ATOM      4  C2  OXE d   1       0.479   1.133   1.294  0.00  0.00    -0.078 A 
ATOM      5  C3  OXE d   1       1.013   2.271   1.892  0.00  0.00     0.003 A 
ATOM      6  C4  OXE d   1       2.143   2.894   1.348  0.00  0.00    -0.002 A 
ATOM      7  C5  OXE d   1       2.818   2.320   0.266  0.00  0.00    -0.002 A 
ATOM      8  C6  OXE d   1       2.360   1.119  -0.264  0.00  0.00     0.003 A 
ENDROOT
TORSDOF 0
ENDMDL
