MODEL 1
REMARK minimizedAffinity -2.88467407
REMARK minimizedRMSD -1
REMARK  0 active torsions:
REMARK  status: ('A' for Active; 'I' for Inactive)
ROOT
ATOM      1  C2' OXE d   1      -0.924   1.098   0.732  0.00  0.00     0.078 C 
ATOM      2  C1' OXE d   1       0.689  -0.726  -0.665  0.00  0.00     0.078 C 
ATOM      3  C1  OXE d   1       1.375   0.389   0.084  0.00  0.00    -0.078 A 
ATOM      4  C2  OXE d   1       0.576   1.304   0.726  0.00  0.00    -0.078 A 
ATOM      5  C3  OXE d   1       1.158   2.321   1.478  0.00  0.00     0.003 A 
ATOM      6  C4  OXE d   1       2.545   2.510   1.459  0.00  0.00    -0.002 A 
ATOM      7  C5  OXE d   1       3.375   1.613   0.779  0.00  0.00    -0.002 A 
ATOM      8  C6  OXE d   1       2.810   0.525   0.123  0.00  0.00     0.003 A 
ENDROOT
TORSDOF 0
ENDMDL
