MODEL 1
REMARK minimizedAffinity -1.83978343
REMARK minimizedRMSD -1
REMARK  0 active torsions:
REMARK  status: ('A' for Active; 'I' for Inactive)
ROOT
ATOM      1  C2' OXE d   1       1.108   1.073  -0.740  0.00  0.00     0.078 C 
ATOM      2  C1' OXE d   1      -0.797   0.027   1.037  0.00  0.00     0.078 C 
ATOM      3  C1  OXE d   1      -0.917  -0.342  -0.421  0.00  0.00    -0.078 A 
ATOM      4  C2  OXE d   1      -0.009   0.212  -1.290  0.00  0.00    -0.078 A 
ATOM      5  C3  OXE d   1      -0.042  -0.138  -2.637  0.00  0.00     0.003 A 
ATOM      6  C4  OXE d   1      -1.084  -0.927  -3.139  0.00  0.00    -0.002 A 
ATOM      7  C5  OXE d   1      -2.043  -1.469  -2.277  0.00  0.00    -0.002 A 
ATOM      8  C6  OXE d   1      -1.949  -1.222  -0.912  0.00  0.00     0.003 A 
ENDROOT
TORSDOF 0
ENDMDL
