MODEL 1
REMARK minimizedAffinity -5.616117
REMARK minimizedRMSD -1
REMARK  0 active torsions:
REMARK  status: ('A' for Active; 'I' for Inactive)
ROOT
ATOM      1  C2' OXE d   1       0.411  -1.086  -0.463  0.00  0.00     0.078 C 
ATOM      2  C1' OXE d   1      -1.091   0.134   1.570  0.00  0.00     0.078 C 
ATOM      3  C1  OXE d   1       0.240   0.747   1.214  0.00  0.00    -0.078 A 
ATOM      4  C2  OXE d   1       0.989   0.117   0.251  0.00  0.00    -0.078 A 
ATOM      5  C3  OXE d   1       2.200   0.672  -0.154  0.00  0.00     0.003 A 
ATOM      6  C4  OXE d   1       2.732   1.779   0.518  0.00  0.00    -0.002 A 
ATOM      7  C5  OXE d   1       2.003   2.413   1.530  0.00  0.00    -0.002 A 
ATOM      8  C6  OXE d   1       0.739   1.936   1.860  0.00  0.00     0.003 A 
ENDROOT
TORSDOF 0
ENDMDL
