MODEL 1
REMARK minimizedAffinity -1.40091705
REMARK minimizedRMSD -1
REMARK  0 active torsions:
REMARK  status: ('A' for Active; 'I' for Inactive)
ROOT
ATOM      1  C2' OXE d   1       2.706   1.001  -1.102  0.00  0.00     0.078 C 
ATOM      2  C1' OXE d   1       1.554   2.492   0.979  0.00  0.00     0.078 C 
ATOM      3  C1  OXE d   1       0.817   1.266   0.500  0.00  0.00    -0.078 A 
ATOM      4  C2  OXE d   1       1.365   0.569  -0.550  0.00  0.00    -0.078 A 
ATOM      5  C3  OXE d   1       0.755  -0.601  -0.994  0.00  0.00     0.003 A 
ATOM      6  C4  OXE d   1      -0.491  -0.988  -0.485  0.00  0.00    -0.002 A 
ATOM      7  C5  OXE d   1      -1.086  -0.270   0.558  0.00  0.00    -0.002 A 
ATOM      8  C6  OXE d   1      -0.426   0.832   1.090  0.00  0.00     0.003 A 
ENDROOT
TORSDOF 0
ENDMDL
