MODEL 1
REMARK minimizedAffinity -5.10149908
REMARK minimizedRMSD -1
REMARK  0 active torsions:
REMARK  status: ('A' for Active; 'I' for Inactive)
ROOT
ATOM      1  C2' OXE d   1       0.690   1.964   0.021  0.00  0.00     0.078 C 
ATOM      2  C1' OXE d   1       3.147   0.629  -0.225  0.00  0.00     0.078 C 
ATOM      3  C1  OXE d   1       2.718   1.064   1.154  0.00  0.00    -0.078 A 
ATOM      4  C2  OXE d   1       1.536   1.758   1.259  0.00  0.00    -0.078 A 
ATOM      5  C3  OXE d   1       1.067   2.135   2.514  0.00  0.00     0.003 A 
ATOM      6  C4  OXE d   1       1.861   1.949   3.652  0.00  0.00    -0.002 A 
ATOM      7  C5  OXE d   1       3.086   1.280   3.562  0.00  0.00    -0.002 A 
ATOM      8  C6  OXE d   1       3.508   0.794   2.329  0.00  0.00     0.003 A 
ENDROOT
TORSDOF 0
ENDMDL
