MODEL 1
REMARK minimizedAffinity -6.34851933
REMARK minimizedRMSD -1
REMARK  0 active torsions:
REMARK  status: ('A' for Active; 'I' for Inactive)
ROOT
ATOM      1  C2' OXE d   1       0.223  -0.323  -0.511  0.00  0.00     0.078 C 
ATOM      2  C1' OXE d   1       2.971   0.205  -0.724  0.00  0.00     0.078 C 
ATOM      3  C1  OXE d   1       2.153   1.089   0.184  0.00  0.00    -0.078 A 
ATOM      4  C2  OXE d   1       0.801   0.853   0.246  0.00  0.00    -0.078 A 
ATOM      5  C3  OXE d   1       0.009   1.604   1.110  0.00  0.00     0.003 A 
ATOM      6  C4  OXE d   1       0.550   2.696   1.799  0.00  0.00    -0.002 A 
ATOM      7  C5  OXE d   1       1.918   2.979   1.718  0.00  0.00    -0.002 A 
ATOM      8  C6  OXE d   1       2.739   2.161   0.950  0.00  0.00     0.003 A 
ENDROOT
TORSDOF 0
ENDMDL
