MODEL 1
REMARK minimizedAffinity -5.75864887
REMARK minimizedRMSD -1
REMARK  0 active torsions:
REMARK  status: ('A' for Active; 'I' for Inactive)
ROOT
ATOM      1  C2' OXE d   1       0.265  -0.503  -0.690  0.00  0.00     0.078 C 
ATOM      2  C1' OXE d   1       2.972   0.237  -0.730  0.00  0.00     0.078 C 
ATOM      3  C1  OXE d   1       2.037   1.037   0.141  0.00  0.00    -0.078 A 
ATOM      4  C2  OXE d   1       0.706   0.698   0.119  0.00  0.00    -0.078 A 
ATOM      5  C3  OXE d   1      -0.191   1.368   0.946  0.00  0.00     0.003 A 
ATOM      6  C4  OXE d   1       0.223   2.484   1.684  0.00  0.00    -0.002 A 
ATOM      7  C5  OXE d   1       1.567   2.871   1.690  0.00  0.00    -0.002 A 
ATOM      8  C6  OXE d   1       2.493   2.134   0.959  0.00  0.00     0.003 A 
ENDROOT
TORSDOF 0
ENDMDL
