MODEL 1
REMARK minimizedAffinity -2.03162718
REMARK minimizedRMSD -1
REMARK  0 active torsions:
REMARK  status: ('A' for Active; 'I' for Inactive)
ROOT
ATOM      1  C2' OXE d   1      -1.296  -0.056   2.248  0.00  0.00     0.078 C 
ATOM      2  C1' OXE d   1      -0.159  -1.014  -0.133  0.00  0.00     0.078 C 
ATOM      3  C1  OXE d   1       0.305   0.327   0.378  0.00  0.00    -0.078 A 
ATOM      4  C2  OXE d   1      -0.291   0.809   1.518  0.00  0.00    -0.078 A 
ATOM      5  C3  OXE d   1       0.138   2.016   2.063  0.00  0.00     0.003 A 
ATOM      6  C4  OXE d   1       1.061   2.815   1.377  0.00  0.00    -0.002 A 
ATOM      7  C5  OXE d   1       1.651   2.360   0.193  0.00  0.00    -0.002 A 
ATOM      8  C6  OXE d   1       1.316   1.103  -0.296  0.00  0.00     0.003 A 
ENDROOT
TORSDOF 0
ENDMDL
