MODEL 1
REMARK minimizedAffinity -1.31220615
REMARK minimizedRMSD -1
REMARK  0 active torsions:
REMARK  status: ('A' for Active; 'I' for Inactive)
ROOT
ATOM      1  C2' OXE d   1      -1.297   0.138   1.079  0.00  0.00     0.078 C 
ATOM      2  C1' OXE d   1      -0.140  -1.718  -0.680  0.00  0.00     0.078 C 
ATOM      3  C1  OXE d   1       0.604  -0.431  -0.426  0.00  0.00    -0.078 A 
ATOM      4  C2  OXE d   1       0.008   0.491   0.399  0.00  0.00    -0.078 A 
ATOM      5  C3  OXE d   1       0.677   1.672   0.710  0.00  0.00     0.003 A 
ATOM      6  C4  OXE d   1       1.879   1.996   0.069  0.00  0.00    -0.002 A 
ATOM      7  C5  OXE d   1       2.484   1.087  -0.806  0.00  0.00    -0.002 A 
ATOM      8  C6  OXE d   1       1.882  -0.146  -1.031  0.00  0.00     0.003 A 
ENDROOT
TORSDOF 0
ENDMDL
