MODEL 1
REMARK minimizedAffinity -5.31636763
REMARK minimizedRMSD -1
REMARK  0 active torsions:
REMARK  status: ('A' for Active; 'I' for Inactive)
ROOT
ATOM      1  C2' OXE d   1      -0.456  -0.850  -0.792  0.00  0.00     0.078 C 
ATOM      2  C1' OXE d   1      -1.640   0.361   1.446  0.00  0.00     0.078 C 
ATOM      3  C1  OXE d   1      -0.265   0.828   1.038  0.00  0.00    -0.078 A 
ATOM      4  C2  OXE d   1       0.326   0.198  -0.030  0.00  0.00    -0.078 A 
ATOM      5  C3  OXE d   1       1.571   0.627  -0.481  0.00  0.00     0.003 A 
ATOM      6  C4  OXE d   1       2.292   1.590   0.236  0.00  0.00    -0.002 A 
ATOM      7  C5  OXE d   1       1.725   2.217   1.350  0.00  0.00    -0.002 A 
ATOM      8  C6  OXE d   1       0.433   1.879   1.738  0.00  0.00     0.003 A 
ENDROOT
TORSDOF 0
ENDMDL
