MODEL 1
REMARK minimizedAffinity -5.42658615
REMARK minimizedRMSD -1
REMARK  0 active torsions:
REMARK  status: ('A' for Active; 'I' for Inactive)
ROOT
ATOM      1  C2' OXE d   1      -0.066  -0.865  -0.529  0.00  0.00     0.078 C 
ATOM      2  C1' OXE d   1      -1.573   0.490   1.414  0.00  0.00     0.078 C 
ATOM      3  C1  OXE d   1      -0.205   1.030   1.083  0.00  0.00    -0.078 A 
ATOM      4  C2  OXE d   1       0.545   0.334   0.165  0.00  0.00    -0.078 A 
ATOM      5  C3  OXE d   1       1.792   0.819  -0.217  0.00  0.00     0.003 A 
ATOM      6  C4  OXE d   1       2.354   1.923   0.437  0.00  0.00    -0.002 A 
ATOM      7  C5  OXE d   1       1.623   2.623   1.403  0.00  0.00    -0.002 A 
ATOM      8  C6  OXE d   1       0.329   2.216   1.706  0.00  0.00     0.003 A 
ENDROOT
TORSDOF 0
ENDMDL
