MODEL 1
REMARK minimizedAffinity -4.85560894
REMARK minimizedRMSD -1
REMARK  0 active torsions:
REMARK  status: ('A' for Active; 'I' for Inactive)
ROOT
ATOM      1  C2' OXE d   1      -0.236  -0.714  -0.379  0.00  0.00     0.078 C 
ATOM      2  C1' OXE d   1      -1.655   0.834   1.483  0.00  0.00     0.078 C 
ATOM      3  C1  OXE d   1      -0.200   1.160   1.261  0.00  0.00    -0.078 A 
ATOM      4  C2  OXE d   1       0.499   0.368   0.383  0.00  0.00    -0.078 A 
ATOM      5  C3  OXE d   1       1.831   0.659   0.101  0.00  0.00     0.003 A 
ATOM      6  C4  OXE d   1       2.506   1.655   0.817  0.00  0.00    -0.002 A 
ATOM      7  C5  OXE d   1       1.823   2.448   1.745  0.00  0.00    -0.002 A 
ATOM      8  C6  OXE d   1       0.462   2.242   1.947  0.00  0.00     0.003 A 
ENDROOT
TORSDOF 0
ENDMDL
