MODEL 1
REMARK minimizedAffinity -5.67639446
REMARK minimizedRMSD -1
REMARK  0 active torsions:
REMARK  status: ('A' for Active; 'I' for Inactive)
ROOT
ATOM      1  C2' OXE d   1      -0.292  -0.592   0.315  0.00  0.00     0.078 C 
ATOM      2  C1' OXE d   1      -1.799   1.395   1.604  0.00  0.00     0.078 C 
ATOM      3  C1  OXE d   1      -0.384   1.732   1.206  0.00  0.00    -0.078 A 
ATOM      4  C2  OXE d   1       0.361   0.739   0.618  0.00  0.00    -0.078 A 
ATOM      5  C3  OXE d   1       1.654   1.013   0.181  0.00  0.00     0.003 A 
ATOM      6  C4  OXE d   1       2.255   2.244   0.474  0.00  0.00    -0.002 A 
ATOM      7  C5  OXE d   1       1.526   3.256   1.108  0.00  0.00    -0.002 A 
ATOM      8  C6  OXE d   1       0.195   3.032   1.441  0.00  0.00     0.003 A 
ENDROOT
TORSDOF 0
ENDMDL
