MODEL 1
REMARK minimizedAffinity -2.12620854
REMARK minimizedRMSD -1
REMARK  0 active torsions:
REMARK  status: ('A' for Active; 'I' for Inactive)
ROOT
ATOM      1  C2' OXE d   1      -1.999   0.706   1.856  0.00  0.00     0.078 C 
ATOM      2  C1' OXE d   1      -0.742  -0.669  -0.245  0.00  0.00     0.078 C 
ATOM      3  C1  OXE d   1       0.020   0.451   0.419  0.00  0.00    -0.078 A 
ATOM      4  C2  OXE d   1      -0.621   1.149   1.414  0.00  0.00    -0.078 A 
ATOM      5  C3  OXE d   1       0.056   2.156   2.096  0.00  0.00     0.003 A 
ATOM      6  C4  OXE d   1       1.327   2.566   1.675  0.00  0.00    -0.002 A 
ATOM      7  C5  OXE d   1       1.982   1.895   0.637  0.00  0.00    -0.002 A 
ATOM      8  C6  OXE d   1       1.361   0.811   0.028  0.00  0.00     0.003 A 
ENDROOT
TORSDOF 0
ENDMDL
