MODEL 1
REMARK minimizedAffinity -2.39053679
REMARK minimizedRMSD -1
REMARK  0 active torsions:
REMARK  status: ('A' for Active; 'I' for Inactive)
ROOT
ATOM      1  C2' OXE d   1       1.740   2.488   0.390  0.00  0.00     0.078 C 
ATOM      2  C1' OXE d   1       3.529   0.473  -0.399  0.00  0.00     0.078 C 
ATOM      3  C1  OXE d   1       2.057   0.144  -0.392  0.00  0.00    -0.078 A 
ATOM      4  C2  OXE d   1       1.192   1.121   0.040  0.00  0.00    -0.078 A 
ATOM      5  C3  OXE d   1      -0.180   0.889   0.013  0.00  0.00     0.003 A 
ATOM      6  C4  OXE d   1      -0.677  -0.381  -0.303  0.00  0.00    -0.002 A 
ATOM      7  C5  OXE d   1       0.189  -1.403  -0.707  0.00  0.00    -0.002 A 
ATOM      8  C6  OXE d   1       1.552  -1.144  -0.798  0.00  0.00     0.003 A 
ENDROOT
TORSDOF 0
ENDMDL
