MODEL 1
REMARK minimizedAffinity -3.13363743
REMARK minimizedRMSD -1
REMARK  1 active torsions:
REMARK  status: ('A' for Active; 'I' for Inactive)
REMARK    1  A    between atoms: C3_4  and  O_7 
ROOT
ATOM      1  C   UNL d   1       5.345  -4.506   5.008  0.00  0.00    -0.033 A 
ATOM      2  C1  UNL d   1       5.994  -3.685   5.933  0.00  0.00     0.039 A 
ATOM      3  C2  UNL d   1       5.684  -2.326   6.000  0.00  0.00    -0.080 A 
ATOM      4  C3  UNL d   1       4.724  -1.800   5.139  0.00  0.00     0.150 A 
ATOM      5  C4  UNL d   1       4.072  -2.613   4.218  0.00  0.00    -0.007 A 
ATOM      6  C5  UNL d   1       4.383  -3.970   4.152  0.00  0.00     0.039 A 
ENDROOT
BRANCH   4   7
ATOM      7  O   UNL d   1       4.392  -0.478   5.164  0.00  0.00    -0.526 OA
ATOM      8  H5  UNL d   1       4.944  -0.035   5.830  0.00  0.00     0.418 HD
ENDBRANCH   4   7
TORSDOF 1
ENDMDL
