MODEL 1
REMARK minimizedAffinity -3.81538463
REMARK minimizedRMSD -1
REMARK  1 active torsions:
REMARK  status: ('A' for Active; 'I' for Inactive)
REMARK    1  A    between atoms: C3_4  and  O_7 
ROOT
ATOM      1  C   UNL d   1       5.370  -4.177   4.415  0.00  0.00    -0.033 A 
ATOM      2  C1  UNL d   1       4.421  -3.820   3.455  0.00  0.00     0.039 A 
ATOM      3  C2  UNL d   1       3.609  -2.703   3.655  0.00  0.00    -0.080 A 
ATOM      4  C3  UNL d   1       3.756  -1.951   4.818  0.00  0.00     0.150 A 
ATOM      5  C4  UNL d   1       4.702  -2.298   5.777  0.00  0.00    -0.007 A 
ATOM      6  C5  UNL d   1       5.511  -3.415   5.575  0.00  0.00     0.039 A 
ENDROOT
BRANCH   4   7
ATOM      7  O   UNL d   1       2.983  -0.854   5.060  0.00  0.00    -0.526 OA
ATOM      8  H5  UNL d   1       2.355  -0.752   4.325  0.00  0.00     0.418 HD
ENDBRANCH   4   7
TORSDOF 1
ENDMDL
