MODEL 1
REMARK minimizedAffinity -4.36964035
REMARK minimizedRMSD -1
REMARK  1 active torsions:
REMARK  status: ('A' for Active; 'I' for Inactive)
REMARK    1  A    between atoms: C3_4  and  O_7 
ROOT
ATOM      1  C   UNL d   1       5.447  -4.192   4.562  0.00  0.00    -0.033 A 
ATOM      2  C1  UNL d   1       5.511  -3.459   5.749  0.00  0.00     0.039 A 
ATOM      3  C2  UNL d   1       4.674  -2.358   5.938  0.00  0.00    -0.080 A 
ATOM      4  C3  UNL d   1       3.778  -2.001   4.934  0.00  0.00     0.150 A 
ATOM      5  C4  UNL d   1       3.706  -2.728   3.751  0.00  0.00    -0.007 A 
ATOM      6  C5  UNL d   1       4.543  -3.827   3.563  0.00  0.00     0.039 A 
ENDROOT
BRANCH   4   7
ATOM      7  O   UNL d   1       2.944  -0.931   5.071  0.00  0.00    -0.526 OA
ATOM      8  H5  UNL d   1       3.125  -0.507   5.926  0.00  0.00     0.418 HD
ENDBRANCH   4   7
TORSDOF 1
ENDMDL
