MODEL 1
REMARK minimizedAffinity -0.188801229
REMARK minimizedRMSD -1
REMARK  1 active torsions:
REMARK  status: ('A' for Active; 'I' for Inactive)
REMARK    1  A    between atoms: C3_4  and  O_7 
ROOT
ATOM      1  C   UNL d   1       3.074  -1.587   4.851  0.00  0.00    -0.033 A 
ATOM      2  C1  UNL d   1       4.032  -1.466   5.859  0.00  0.00     0.039 A 
ATOM      3  C2  UNL d   1       5.026  -2.437   6.000  0.00  0.00    -0.080 A 
ATOM      4  C3  UNL d   1       5.052  -3.520   5.126  0.00  0.00     0.150 A 
ATOM      5  C4  UNL d   1       4.103  -3.644   4.117  0.00  0.00    -0.007 A 
ATOM      6  C5  UNL d   1       3.110  -2.675   3.979  0.00  0.00     0.039 A 
ENDROOT
BRANCH   4   7
ATOM      7  O   UNL d   1       6.000  -4.495   5.227  0.00  0.00    -0.526 OA
ATOM      8  H5  UNL d   1       6.570  -4.292   5.987  0.00  0.00     0.418 HD
ENDBRANCH   4   7
TORSDOF 1
ENDMDL
