MODEL 1
REMARK minimizedAffinity -3.43955255
REMARK minimizedRMSD -1
REMARK  1 active torsions:
REMARK  status: ('A' for Active; 'I' for Inactive)
REMARK    1  A    between atoms: C3_4  and  O_7 
ROOT
ATOM      1  C   UNL d   1       5.470  -4.607   4.683  0.00  0.00    -0.033 A 
ATOM      2  C1  UNL d   1       4.486  -4.206   3.778  0.00  0.00     0.039 A 
ATOM      3  C2  UNL d   1       3.859  -2.967   3.929  0.00  0.00    -0.080 A 
ATOM      4  C3  UNL d   1       4.226  -2.140   4.987  0.00  0.00     0.150 A 
ATOM      5  C4  UNL d   1       5.209  -2.532   5.890  0.00  0.00    -0.007 A 
ATOM      6  C5  UNL d   1       5.833  -3.770   5.739  0.00  0.00     0.039 A 
ENDROOT
BRANCH   4   7
ATOM      7  O   UNL d   1       3.640  -0.924   5.178  0.00  0.00    -0.526 OA
ATOM      8  H5  UNL d   1       2.960  -0.800   4.495  0.00  0.00     0.418 HD
ENDBRANCH   4   7
TORSDOF 1
ENDMDL
