MODEL 1
REMARK minimizedAffinity -2.46905303
REMARK minimizedRMSD -1
REMARK  1 active torsions:
REMARK  status: ('A' for Active; 'I' for Inactive)
REMARK    1  A    between atoms: C3_4  and  O_7 
ROOT
ATOM      1  C   UNL d   1       5.344  -3.754   4.700  0.00  0.00    -0.033 A 
ATOM      2  C1  UNL d   1       4.387  -3.426   3.737  0.00  0.00     0.039 A 
ATOM      3  C2  UNL d   1       3.584  -2.295   3.905  0.00  0.00    -0.080 A 
ATOM      4  C3  UNL d   1       3.749  -1.503   5.038  0.00  0.00     0.150 A 
ATOM      5  C4  UNL d   1       4.703  -1.822   5.998  0.00  0.00    -0.007 A 
ATOM      6  C5  UNL d   1       5.503  -2.951   5.830  0.00  0.00     0.039 A 
ENDROOT
BRANCH   4   7
ATOM      7  O   UNL d   1       2.986  -0.392   5.247  0.00  0.00    -0.526 OA
ATOM      8  H5  UNL d   1       2.351  -0.313   4.516  0.00  0.00     0.418 HD
ENDBRANCH   4   7
TORSDOF 1
ENDMDL
