MODEL 1
REMARK minimizedAffinity -1.94407046
REMARK minimizedRMSD -1
REMARK  1 active torsions:
REMARK  status: ('A' for Active; 'I' for Inactive)
REMARK    1  A    between atoms: C3_4  and  O_7 
ROOT
ATOM      1  C   UNL d   1       5.640   4.772  -5.613  0.00  0.00    -0.033 A 
ATOM      2  C1  UNL d   1       6.000   5.943  -4.942  0.00  0.00     0.039 A 
ATOM      3  C2  UNL d   1       5.934   5.999  -3.548  0.00  0.00    -0.080 A 
ATOM      4  C3  UNL d   1       5.509   4.879  -2.839  0.00  0.00     0.150 A 
ATOM      5  C4  UNL d   1       5.153   3.708  -3.501  0.00  0.00    -0.007 A 
ATOM      6  C5  UNL d   1       5.218   3.655  -4.892  0.00  0.00     0.039 A 
ENDROOT
BRANCH   4   7
ATOM      7  O   UNL d   1       5.425   4.887  -1.478  0.00  0.00    -0.526 OA
ATOM      8  H5  UNL d   1       5.674   5.771  -1.160  0.00  0.00     0.418 HD
ENDBRANCH   4   7
TORSDOF 1
ENDMDL
