MODEL 1
REMARK minimizedAffinity 1.19949377
REMARK minimizedRMSD -1
REMARK  1 active torsions:
REMARK  status: ('A' for Active; 'I' for Inactive)
REMARK    1  A    between atoms: C3_4  and  O_7 
ROOT
ATOM      1  C   UNL d   1       4.130   3.795  -4.287  0.00  0.00    -0.033 A 
ATOM      2  C1  UNL d   1       3.524   4.954  -3.799  0.00  0.00     0.039 A 
ATOM      3  C2  UNL d   1       4.139   5.693  -2.787  0.00  0.00    -0.080 A 
ATOM      4  C3  UNL d   1       5.359   5.264  -2.272  0.00  0.00     0.150 A 
ATOM      5  C4  UNL d   1       5.971   4.112  -2.756  0.00  0.00    -0.007 A 
ATOM      6  C5  UNL d   1       5.355   3.375  -3.767  0.00  0.00     0.039 A 
ENDROOT
BRANCH   4   7
ATOM      7  O   UNL d   1       5.995   5.949  -1.280  0.00  0.00    -0.526 OA
ATOM      8  H5  UNL d   1       5.442   6.706  -1.026  0.00  0.00     0.418 HD
ENDBRANCH   4   7
TORSDOF 1
ENDMDL
