MODEL 1
REMARK minimizedAffinity -3.35854793
REMARK minimizedRMSD -1
REMARK  1 active torsions:
REMARK  status: ('A' for Active; 'I' for Inactive)
REMARK    1  A    between atoms: C3_4  and  O_7 
ROOT
ATOM      1  C   UNL d   1       2.365  -2.028   4.232  0.00  0.00    -0.033 A 
ATOM      2  C1  UNL d   1       2.757  -1.924   5.569  0.00  0.00     0.039 A 
ATOM      3  C2  UNL d   1       3.974  -2.466   5.986  0.00  0.00    -0.080 A 
ATOM      4  C3  UNL d   1       4.789  -3.109   5.058  0.00  0.00     0.150 A 
ATOM      5  C4  UNL d   1       4.408  -3.213   3.725  0.00  0.00    -0.007 A 
ATOM      6  C5  UNL d   1       3.191  -2.672   3.310  0.00  0.00     0.039 A 
ENDROOT
BRANCH   4   7
ATOM      7  O   UNL d   1       5.984  -3.658   5.419  0.00  0.00    -0.526 OA
ATOM      8  H5  UNL d   1       6.103  -3.535   6.376  0.00  0.00     0.418 HD
ENDBRANCH   4   7
TORSDOF 1
ENDMDL
