MODEL 1
REMARK minimizedAffinity 11.0681353
REMARK minimizedRMSD -1
REMARK  1 active torsions:
REMARK  status: ('A' for Active; 'I' for Inactive)
REMARK    1  A    between atoms: C3_4  and  O_7 
ROOT
ATOM      1  C   UNL d   1      -0.930   4.280   1.508  0.00  0.00    -0.033 A 
ATOM      2  C1  UNL d   1       0.093   3.685   0.768  0.00  0.00     0.039 A 
ATOM      3  C2  UNL d   1       1.371   4.249   0.761  0.00  0.00    -0.080 A 
ATOM      4  C3  UNL d   1       1.612   5.404   1.499  0.00  0.00     0.150 A 
ATOM      5  C4  UNL d   1       0.598   6.000   2.242  0.00  0.00    -0.007 A 
ATOM      6  C5  UNL d   1      -0.677   5.437   2.247  0.00  0.00     0.039 A 
ENDROOT
BRANCH   4   7
ATOM      7  O   UNL d   1       2.841   5.993   1.520  0.00  0.00    -0.526 OA
ATOM      8  H5  UNL d   1       3.434   5.488   0.938  0.00  0.00     0.418 HD
ENDBRANCH   4   7
TORSDOF 1
ENDMDL
