MODEL 1
REMARK minimizedAffinity -2.343328
REMARK minimizedRMSD -1
REMARK  1 active torsions:
REMARK  status: ('A' for Active; 'I' for Inactive)
REMARK    1  A    between atoms: C3_4  and  O_7 
ROOT
ATOM      1  C   UNL d   1       4.495   4.042  -4.876  0.00  0.00    -0.033 A 
ATOM      2  C1  UNL d   1       5.483   3.423  -4.107  0.00  0.00     0.039 A 
ATOM      3  C2  UNL d   1       6.000   4.068  -2.982  0.00  0.00    -0.080 A 
ATOM      4  C3  UNL d   1       5.521   5.329  -2.637  0.00  0.00     0.150 A 
ATOM      5  C4  UNL d   1       4.535   5.949  -3.396  0.00  0.00    -0.007 A 
ATOM      6  C5  UNL d   1       4.020   5.304  -4.520  0.00  0.00     0.039 A 
ENDROOT
BRANCH   4   7
ATOM      7  O   UNL d   1       5.999   6.000  -1.551  0.00  0.00    -0.526 OA
ATOM      8  H5  UNL d   1       6.696   5.462  -1.139  0.00  0.00     0.418 HD
ENDBRANCH   4   7
TORSDOF 1
ENDMDL
