MODEL 1
REMARK minimizedAffinity -0.517741024
REMARK minimizedRMSD -1
REMARK  1 active torsions:
REMARK  status: ('A' for Active; 'I' for Inactive)
REMARK    1  A    between atoms: C3_4  and  O_7 
ROOT
ATOM      1  C   UNL d   1       4.940   6.000  -2.289  0.00  0.00    -0.033 A 
ATOM      2  C1  UNL d   1       3.891   5.930  -3.207  0.00  0.00     0.039 A 
ATOM      3  C2  UNL d   1       3.894   4.950  -4.201  0.00  0.00    -0.080 A 
ATOM      4  C3  UNL d   1       4.951   4.047  -4.266  0.00  0.00     0.150 A 
ATOM      5  C4  UNL d   1       5.998   4.108  -3.352  0.00  0.00    -0.007 A 
ATOM      6  C5  UNL d   1       5.994   5.088  -2.361  0.00  0.00     0.039 A 
ENDROOT
BRANCH   4   7
ATOM      7  O   UNL d   1       5.001   3.076  -5.221  0.00  0.00    -0.526 OA
ATOM      8  H5  UNL d   1       4.226   3.173  -5.800  0.00  0.00     0.418 HD
ENDBRANCH   4   7
TORSDOF 1
ENDMDL
