MODEL 1
REMARK minimizedAffinity 2.68365335
REMARK minimizedRMSD -1
REMARK  1 active torsions:
REMARK  status: ('A' for Active; 'I' for Inactive)
REMARK    1  A    between atoms: C3_4  and  O_7 
ROOT
ATOM      1  C   UNL d   1       3.776   4.292  -4.458  0.00  0.00    -0.033 A 
ATOM      2  C1  UNL d   1       5.013   3.737  -4.120  0.00  0.00     0.039 A 
ATOM      3  C2  UNL d   1       5.775   4.300  -3.094  0.00  0.00    -0.080 A 
ATOM      4  C3  UNL d   1       5.290   5.413  -2.414  0.00  0.00     0.150 A 
ATOM      5  C4  UNL d   1       4.057   5.968  -2.743  0.00  0.00    -0.007 A 
ATOM      6  C5  UNL d   1       3.298   5.406  -3.768  0.00  0.00     0.039 A 
ENDROOT
BRANCH   4   7
ATOM      7  O   UNL d   1       6.000   6.000  -1.409  0.00  0.00    -0.526 OA
ATOM      8  H5  UNL d   1       6.843   5.527  -1.312  0.00  0.00     0.418 HD
ENDBRANCH   4   7
TORSDOF 1
ENDMDL
