MODEL 1
REMARK minimizedAffinity -0.593255162
REMARK minimizedRMSD -1
REMARK  1 active torsions:
REMARK  status: ('A' for Active; 'I' for Inactive)
REMARK    1  A    between atoms: C3_4  and  O_7 
ROOT
ATOM      1  C   UNL d   1       4.353   6.000  -2.959  0.00  0.00    -0.033 A 
ATOM      2  C1  UNL d   1       5.662   5.830  -3.415  0.00  0.00     0.039 A 
ATOM      3  C2  UNL d   1       6.000   4.704  -4.169  0.00  0.00    -0.080 A 
ATOM      4  C3  UNL d   1       5.021   3.758  -4.461  0.00  0.00     0.150 A 
ATOM      5  C4  UNL d   1       3.715   3.923  -4.014  0.00  0.00    -0.007 A 
ATOM      6  C5  UNL d   1       3.379   5.047  -3.260  0.00  0.00     0.039 A 
ENDROOT
BRANCH   4   7
ATOM      7  O   UNL d   1       5.305   2.641  -5.189  0.00  0.00    -0.526 OA
ATOM      8  H5  UNL d   1       6.252   2.647  -5.405  0.00  0.00     0.418 HD
ENDBRANCH   4   7
TORSDOF 1
ENDMDL
