MODEL 1
REMARK minimizedAffinity -1.60507071
REMARK minimizedRMSD -1
REMARK  1 active torsions:
REMARK  status: ('A' for Active; 'I' for Inactive)
REMARK    1  A    between atoms: C3_4  and  O_7 
ROOT
ATOM      1  C   UNL d   1       4.320   4.393  -5.463  0.00  0.00    -0.033 A 
ATOM      2  C1  UNL d   1       5.421   3.717  -4.934  0.00  0.00     0.039 A 
ATOM      3  C2  UNL d   1       5.999   4.149  -3.739  0.00  0.00    -0.080 A 
ATOM      4  C3  UNL d   1       5.466   5.256  -3.083  0.00  0.00     0.150 A 
ATOM      5  C4  UNL d   1       4.367   5.931  -3.603  0.00  0.00    -0.007 A 
ATOM      6  C5  UNL d   1       3.792   5.499  -4.797  0.00  0.00     0.039 A 
ENDROOT
BRANCH   4   7
ATOM      7  O   UNL d   1       5.999   5.717  -1.917  0.00  0.00    -0.526 OA
ATOM      8  H5  UNL d   1       6.771   5.171  -1.693  0.00  0.00     0.418 HD
ENDBRANCH   4   7
TORSDOF 1
ENDMDL
