MODEL 1
REMARK minimizedAffinity 0.998268485
REMARK minimizedRMSD -1
REMARK  1 active torsions:
REMARK  status: ('A' for Active; 'I' for Inactive)
REMARK    1  A    between atoms: C3_4  and  O_7 
ROOT
ATOM      1  C   UNL d   1       5.223  -3.796   4.163  0.00  0.00    -0.033 A 
ATOM      2  C1  UNL d   1       4.083  -3.311   3.519  0.00  0.00     0.039 A 
ATOM      3  C2  UNL d   1       3.316  -2.308   4.114  0.00  0.00    -0.080 A 
ATOM      4  C3  UNL d   1       3.699  -1.798   5.352  0.00  0.00     0.150 A 
ATOM      5  C4  UNL d   1       4.836  -2.274   5.997  0.00  0.00    -0.007 A 
ATOM      6  C5  UNL d   1       5.600  -3.276   5.402  0.00  0.00     0.039 A 
ENDROOT
BRANCH   4   7
ATOM      7  O   UNL d   1       2.980  -0.822   5.974  0.00  0.00    -0.526 OA
ATOM      8  H5  UNL d   1       2.206  -0.612   5.425  0.00  0.00     0.418 HD
ENDBRANCH   4   7
TORSDOF 1
ENDMDL
