MODEL 1
REMARK minimizedAffinity 10.1410465
REMARK minimizedRMSD -1
REMARK  1 active torsions:
REMARK  status: ('A' for Active; 'I' for Inactive)
REMARK    1  A    between atoms: C1_2  and  C2_3 
ROOT
ATOM      1  C2  UNL d   1       3.840  -0.052   1.394  0.00  0.00    -0.081 A 
ATOM      2  C3  UNL d   1       4.302  -0.617   2.589  0.00  0.00     0.006 A 
ATOM      3  C4  UNL d   1       3.477  -0.662   3.716  0.00  0.00     0.002 A 
ATOM      4  C5  UNL d   1       2.176  -0.151   3.664  0.00  0.00    -0.080 A 
ATOM      5  C6  UNL d   1       1.271  -0.220   4.858  0.00  0.00     0.076 C 
ATOM      6  C7  UNL d   1       1.721   0.430   2.475  0.00  0.00     0.002 A 
ATOM      7  C8  UNL d   1       2.545   0.475   1.349  0.00  0.00     0.006 A 
ENDROOT
BRANCH   1   8
ATOM      8  C1  UNL d   1       4.704  -0.061   0.158  0.00  0.00     0.054 C 
ATOM      9  C   UNL d   1       5.998  -0.826   0.394  0.00  0.00     0.018 C 
ENDBRANCH   1   8
TORSDOF 1
ENDMDL
