MODEL 1
REMARK minimizedAffinity 17.78092
REMARK minimizedRMSD -1
REMARK  1 active torsions:
REMARK  status: ('A' for Active; 'I' for Inactive)
REMARK    1  A    between atoms: C1_2  and  C2_3 
ROOT
ATOM      1  C2  UNL d   1      -3.148  -2.662  -2.841  0.00  0.00    -0.081 A 
ATOM      2  C3  UNL d   1      -2.792  -3.775  -2.070  0.00  0.00     0.006 A 
ATOM      3  C4  UNL d   1      -2.113  -3.611  -0.860  0.00  0.00     0.002 A 
ATOM      4  C5  UNL d   1      -1.785  -2.331  -0.398  0.00  0.00    -0.080 A 
ATOM      5  C6  UNL d   1      -1.083  -2.139   0.913  0.00  0.00     0.076 C 
ATOM      6  C7  UNL d   1      -2.125  -1.220  -1.178  0.00  0.00     0.002 A 
ATOM      7  C8  UNL d   1      -2.803  -1.384  -2.387  0.00  0.00     0.006 A 
ENDROOT
BRANCH   1   8
ATOM      8  C1  UNL d   1      -3.937  -2.832  -4.114  0.00  0.00     0.054 C 
ATOM      9  C   UNL d   1      -5.432  -2.888  -3.834  0.00  0.00     0.018 C 
ENDBRANCH   1   8
TORSDOF 1
ENDMDL
