MODEL 1
REMARK minimizedAffinity 10.1885576
REMARK minimizedRMSD -1
REMARK  1 active torsions:
REMARK  status: ('A' for Active; 'I' for Inactive)
REMARK    1  A    between atoms: C1_2  and  C2_3 
ROOT
ATOM      1  C2  UNL d   1      -4.825   3.164   5.328  0.00  0.00    -0.081 A 
ATOM      2  C3  UNL d   1      -5.293   2.027   5.997  0.00  0.00     0.006 A 
ATOM      3  C4  UNL d   1      -5.217   0.768   5.395  0.00  0.00     0.002 A 
ATOM      4  C5  UNL d   1      -4.664   0.625   4.118  0.00  0.00    -0.080 A 
ATOM      5  C6  UNL d   1      -4.548  -0.724   3.473  0.00  0.00     0.076 C 
ATOM      6  C7  UNL d   1      -4.212   1.763   3.442  0.00  0.00     0.002 A 
ATOM      7  C8  UNL d   1      -4.289   3.022   4.043  0.00  0.00     0.006 A 
ENDROOT
BRANCH   1   8
ATOM      8  C1  UNL d   1      -4.847   4.513   6.000  0.00  0.00     0.054 C 
ATOM      9  C   UNL d   1      -5.997   5.368   5.487  0.00  0.00     0.018 C 
ENDBRANCH   1   8
TORSDOF 1
ENDMDL
