MODEL 1
REMARK minimizedAffinity 20.2062225
REMARK minimizedRMSD -1
REMARK  1 active torsions:
REMARK  status: ('A' for Active; 'I' for Inactive)
REMARK    1  A    between atoms: C1_2  and  C2_3 
ROOT
ATOM      1  C2  UNL d   1      -3.917  -3.044  -2.785  0.00  0.00    -0.081 A 
ATOM      2  C3  UNL d   1      -2.697  -2.861  -3.447  0.00  0.00     0.006 A 
ATOM      3  C4  UNL d   1      -1.583  -2.374  -2.758  0.00  0.00     0.002 A 
ATOM      4  C5  UNL d   1      -1.669  -2.072  -1.395  0.00  0.00    -0.080 A 
ATOM      5  C6  UNL d   1      -0.473  -1.578  -0.636  0.00  0.00     0.076 C 
ATOM      6  C7  UNL d   1      -2.892  -2.239  -0.737  0.00  0.00     0.002 A 
ATOM      7  C8  UNL d   1      -4.006  -2.724  -1.426  0.00  0.00     0.006 A 
ENDROOT
BRANCH   1   8
ATOM      8  C1  UNL d   1      -5.102  -3.629  -3.510  0.00  0.00     0.054 C 
ATOM      9  C   UNL d   1      -5.616  -2.682  -4.585  0.00  0.00     0.018 C 
ENDBRANCH   1   8
TORSDOF 1
ENDMDL
