MODEL 1
REMARK minimizedAffinity 12.2478476
REMARK minimizedRMSD -1
REMARK  1 active torsions:
REMARK  status: ('A' for Active; 'I' for Inactive)
REMARK    1  A    between atoms: C1_2  and  C2_3 
ROOT
ATOM      1  C2  UNL d   1      -4.793   1.757   4.296  0.00  0.00    -0.081 A 
ATOM      2  C3  UNL d   1      -5.546   1.630   5.470  0.00  0.00     0.006 A 
ATOM      3  C4  UNL d   1      -5.949   0.370   5.920  0.00  0.00     0.002 A 
ATOM      4  C5  UNL d   1      -5.599  -0.783   5.208  0.00  0.00    -0.080 A 
ATOM      5  C6  UNL d   1      -6.000  -2.143   5.696  0.00  0.00     0.076 C 
ATOM      6  C7  UNL d   1      -4.863  -0.654   4.026  0.00  0.00     0.002 A 
ATOM      7  C8  UNL d   1      -4.460   0.605   3.575  0.00  0.00     0.006 A 
ENDROOT
BRANCH   1   8
ATOM      8  C1  UNL d   1      -4.302   3.109   3.843  0.00  0.00     0.054 C 
ATOM      9  C   UNL d   1      -2.833   3.060   3.449  0.00  0.00     0.018 C 
ENDBRANCH   1   8
TORSDOF 1
ENDMDL
