MODEL 1
REMARK minimizedAffinity 13.4837351
REMARK minimizedRMSD -1
REMARK  1 active torsions:
REMARK  status: ('A' for Active; 'I' for Inactive)
REMARK    1  A    between atoms: C1_2  and  C2_3 
ROOT
ATOM      1  C2  UNL d   1      -5.354  -3.026  -3.199  0.00  0.00    -0.081 A 
ATOM      2  C3  UNL d   1      -4.080  -2.787  -2.671  0.00  0.00     0.006 A 
ATOM      3  C4  UNL d   1      -3.458  -3.742  -1.863  0.00  0.00     0.002 A 
ATOM      4  C5  UNL d   1      -4.096  -4.954  -1.576  0.00  0.00    -0.080 A 
ATOM      5  C6  UNL d   1      -3.427  -6.000  -0.735  0.00  0.00     0.076 C 
ATOM      6  C7  UNL d   1      -5.376  -5.185  -2.090  0.00  0.00     0.002 A 
ATOM      7  C8  UNL d   1      -5.999  -4.230  -2.898  0.00  0.00     0.006 A 
ENDROOT
BRANCH   1   8
ATOM      8  C1  UNL d   1      -6.000  -2.026  -4.124  0.00  0.00     0.054 C 
ATOM      9  C   UNL d   1      -5.953  -2.498  -5.570  0.00  0.00     0.018 C 
ENDBRANCH   1   8
TORSDOF 1
ENDMDL
