MODEL 1
REMARK minimizedAffinity 23.3490219
REMARK minimizedRMSD -1
REMARK  1 active torsions:
REMARK  status: ('A' for Active; 'I' for Inactive)
REMARK    1  A    between atoms: C1_2  and  C2_3 
ROOT
ATOM      1  C2  UNL d   1      -1.828  -3.070  -3.002  0.00  0.00    -0.081 A 
ATOM      2  C3  UNL d   1      -1.939  -4.441  -2.737  0.00  0.00     0.006 A 
ATOM      3  C4  UNL d   1      -1.241  -5.370  -3.511  0.00  0.00     0.002 A 
ATOM      4  C5  UNL d   1      -0.416  -4.946  -4.557  0.00  0.00    -0.080 A 
ATOM      5  C6  UNL d   1       0.363  -5.932  -5.377  0.00  0.00     0.076 C 
ATOM      6  C7  UNL d   1      -0.318  -3.578  -4.833  0.00  0.00     0.002 A 
ATOM      7  C8  UNL d   1      -1.016  -2.648  -4.060  0.00  0.00     0.006 A 
ENDROOT
BRANCH   1   8
ATOM      8  C1  UNL d   1      -2.529  -2.061  -2.128  0.00  0.00     0.054 C 
ATOM      9  C   UNL d   1      -1.878  -1.972  -0.755  0.00  0.00     0.018 C 
ENDBRANCH   1   8
TORSDOF 1
ENDMDL
