MODEL 1
REMARK minimizedAffinity 8.17463875
REMARK minimizedRMSD -1
REMARK  1 active torsions:
REMARK  status: ('A' for Active; 'I' for Inactive)
REMARK    1  A    between atoms: C1_2  and  C2_3 
ROOT
ATOM      1  C2  UNL d   1      -2.557  -3.963  -3.360  0.00  0.00    -0.081 A 
ATOM      2  C3  UNL d   1      -1.718  -3.222  -4.201  0.00  0.00     0.006 A 
ATOM      3  C4  UNL d   1      -0.541  -3.784  -4.701  0.00  0.00     0.002 A 
ATOM      4  C5  UNL d   1      -0.188  -5.097  -4.375  0.00  0.00    -0.080 A 
ATOM      5  C6  UNL d   1       1.058  -5.723  -4.929  0.00  0.00     0.076 C 
ATOM      6  C7  UNL d   1      -1.017  -5.832  -3.521  0.00  0.00     0.002 A 
ATOM      7  C8  UNL d   1      -2.194  -5.270  -3.020  0.00  0.00     0.006 A 
ENDROOT
BRANCH   1   8
ATOM      8  C1  UNL d   1      -3.860  -3.382  -2.872  0.00  0.00     0.054 C 
ATOM      9  C   UNL d   1      -4.996  -3.681  -3.839  0.00  0.00     0.018 C 
ENDBRANCH   1   8
TORSDOF 1
ENDMDL
