MODEL 1
REMARK minimizedAffinity 18.7160492
REMARK minimizedRMSD -1
REMARK  1 active torsions:
REMARK  status: ('A' for Active; 'I' for Inactive)
REMARK    1  A    between atoms: C1_2  and  C2_3 
ROOT
ATOM      1  C2  UNL d   1       2.312   0.077   1.408  0.00  0.00    -0.081 A 
ATOM      2  C3  UNL d   1       2.179   1.470   1.469  0.00  0.00     0.006 A 
ATOM      3  C4  UNL d   1       1.203   2.053   2.279  0.00  0.00     0.002 A 
ATOM      4  C5  UNL d   1       0.348   1.255   3.047  0.00  0.00    -0.080 A 
ATOM      5  C6  UNL d   1      -0.685   1.870   3.944  0.00  0.00     0.076 C 
ATOM      6  C7  UNL d   1       0.469  -0.136   2.973  0.00  0.00     0.002 A 
ATOM      7  C8  UNL d   1       1.445  -0.721   2.163  0.00  0.00     0.006 A 
ENDROOT
BRANCH   1   8
ATOM      8  C1  UNL d   1       3.406  -0.553   0.585  0.00  0.00     0.054 C 
ATOM      9  C   UNL d   1       4.631  -0.859   1.435  0.00  0.00     0.018 C 
ENDBRANCH   1   8
TORSDOF 1
ENDMDL
