MODEL 1
REMARK minimizedAffinity 7.12748528
REMARK minimizedRMSD -1
REMARK  1 active torsions:
REMARK  status: ('A' for Active; 'I' for Inactive)
REMARK    1  A    between atoms: C1_2  and  C2_3 
ROOT
ATOM      1  C2  UNL d   1       2.991   3.826  -4.857  0.00  0.00    -0.081 A 
ATOM      2  C3  UNL d   1       3.662   2.613  -5.056  0.00  0.00     0.006 A 
ATOM      3  C4  UNL d   1       4.281   1.962  -3.986  0.00  0.00     0.002 A 
ATOM      4  C5  UNL d   1       4.234   2.509  -2.700  0.00  0.00    -0.080 A 
ATOM      5  C6  UNL d   1       4.869   1.805  -1.537  0.00  0.00     0.076 C 
ATOM      6  C7  UNL d   1       3.580   3.730  -2.504  0.00  0.00     0.002 A 
ATOM      7  C8  UNL d   1       2.961   4.381  -3.573  0.00  0.00     0.006 A 
ENDROOT
BRANCH   1   8
ATOM      8  C1  UNL d   1       2.267   4.498  -5.996  0.00  0.00     0.054 C 
ATOM      9  C   UNL d   1       2.515   5.999  -6.000  0.00  0.00     0.018 C 
ENDBRANCH   1   8
TORSDOF 1
ENDMDL
