MODEL 1
REMARK minimizedAffinity -1.88309324
REMARK minimizedRMSD -1
REMARK  2 active torsions:
REMARK  status: ('A' for Active; 'I' for Inactive)
REMARK    1  A    between atoms: C1_2  and  C2_3 
REMARK    2  A    between atoms: C2_3  and  C3_4 
ROOT
ATOM      1  C3  UNL d   1       3.936   5.979   3.834  0.00  0.00    -0.075 A 
ATOM      2  C4  UNL d   1       2.911   5.982   2.877  0.00  0.00     0.002 A 
ATOM      3  C5  UNL d   1       1.573   5.997   3.272  0.00  0.00     0.002 A 
ATOM      4  C6  UNL d   1       1.243   5.999   4.626  0.00  0.00    -0.004 A 
ATOM      5  C7  UNL d   1       2.253   5.980   5.585  0.00  0.00     0.002 A 
ATOM      6  C8  UNL d   1       3.593   5.969   5.193  0.00  0.00     0.002 A 
ENDROOT
BRANCH   1   7
ATOM      7  C2  UNL d   1       5.386   5.992   3.414  0.00  0.00     0.056 C 
BRANCH   7   8
ATOM      8  C1  UNL d   1       5.882   4.660   2.843  0.00  0.00     0.007 C 
ATOM      9  C   UNL d   1       5.939   4.643   1.321  0.00  0.00     0.009 C 
ENDBRANCH   7   8
ENDBRANCH   1   7
TORSDOF 2
ENDMDL
