MODEL 1
REMARK minimizedAffinity 4.39338636
REMARK minimizedRMSD -1
REMARK  2 active torsions:
REMARK  status: ('A' for Active; 'I' for Inactive)
REMARK    1  A    between atoms: C1_2  and  C2_3 
REMARK    2  A    between atoms: C2_3  and  C3_4 
ROOT
ATOM      1  C3  UNL d   1       4.894  -4.341   3.608  0.00  0.00    -0.075 A 
ATOM      2  C4  UNL d   1       5.650  -3.168   3.751  0.00  0.00     0.002 A 
ATOM      3  C5  UNL d   1       5.613  -2.443   4.943  0.00  0.00     0.002 A 
ATOM      4  C6  UNL d   1       4.815  -2.875   6.000  0.00  0.00    -0.004 A 
ATOM      5  C7  UNL d   1       4.048  -4.030   5.863  0.00  0.00     0.002 A 
ATOM      6  C8  UNL d   1       4.086  -4.759   4.673  0.00  0.00     0.002 A 
ENDROOT
BRANCH   1   7
ATOM      7  C2  UNL d   1       4.953  -5.147   2.332  0.00  0.00     0.056 C 
BRANCH   7   8
ATOM      8  C1  UNL d   1       5.340  -4.329   1.095  0.00  0.00     0.007 C 
ATOM      9  C   UNL d   1       5.363  -5.152  -0.186  0.00  0.00     0.009 C 
ENDBRANCH   7   8
ENDBRANCH   1   7
TORSDOF 2
ENDMDL
