MODEL 1
REMARK minimizedAffinity -3.11814117
REMARK minimizedRMSD -1
REMARK  2 active torsions:
REMARK  status: ('A' for Active; 'I' for Inactive)
REMARK    1  A    between atoms: C1_2  and  C2_3 
REMARK    2  A    between atoms: C2_3  and  C3_4 
ROOT
ATOM      1  C3  UNL d   1       0.073  -1.700   2.552  0.00  0.00    -0.075 A 
ATOM      2  C4  UNL d   1      -1.131  -1.799   3.264  0.00  0.00     0.002 A 
ATOM      3  C5  UNL d   1      -2.270  -1.121   2.827  0.00  0.00     0.002 A 
ATOM      4  C6  UNL d   1      -2.217  -0.330   1.682  0.00  0.00    -0.004 A 
ATOM      5  C7  UNL d   1      -1.022  -0.211   0.976  0.00  0.00     0.002 A 
ATOM      6  C8  UNL d   1       0.118  -0.892   1.408  0.00  0.00     0.002 A 
ENDROOT
BRANCH   1   7
ATOM      7  C2  UNL d   1       1.301  -2.454   3.002  0.00  0.00     0.056 C 
BRANCH   7   8
ATOM      8  C1  UNL d   1       1.972  -3.273   1.894  0.00  0.00     0.007 C 
ATOM      9  C   UNL d   1       1.207  -4.540   1.538  0.00  0.00     0.009 C 
ENDBRANCH   7   8
ENDBRANCH   1   7
TORSDOF 2
ENDMDL
