MODEL 1
REMARK minimizedAffinity -0.208426088
REMARK minimizedRMSD -1
REMARK  2 active torsions:
REMARK  status: ('A' for Active; 'I' for Inactive)
REMARK    1  A    between atoms: C1_2  and  C2_3 
REMARK    2  A    between atoms: C2_3  and  C3_4 
ROOT
ATOM      1  C3  UNL d   1       1.581   0.411  -1.842  0.00  0.00    -0.075 A 
ATOM      2  C4  UNL d   1       0.855   1.605  -1.960  0.00  0.00     0.002 A 
ATOM      3  C5  UNL d   1       1.389   2.693  -2.651  0.00  0.00     0.002 A 
ATOM      4  C6  UNL d   1       2.656   2.605  -3.223  0.00  0.00    -0.004 A 
ATOM      5  C7  UNL d   1       3.393   1.429  -3.098  0.00  0.00     0.002 A 
ATOM      6  C8  UNL d   1       2.859   0.338  -2.410  0.00  0.00     0.002 A 
ENDROOT
BRANCH   1   7
ATOM      7  C2  UNL d   1       0.997  -0.781  -1.121  0.00  0.00     0.056 C 
BRANCH   7   8
ATOM      8  C1  UNL d   1      -0.406  -0.540  -0.553  0.00  0.00     0.007 C 
ATOM      9  C   UNL d   1      -0.475  -0.692   0.961  0.00  0.00     0.009 C 
ENDBRANCH   7   8
ENDBRANCH   1   7
TORSDOF 2
ENDMDL
