MODEL 1
REMARK minimizedAffinity -3.20067048
REMARK minimizedRMSD -1
REMARK  2 active torsions:
REMARK  status: ('A' for Active; 'I' for Inactive)
REMARK    1  A    between atoms: C1_2  and  C2_3 
REMARK    2  A    between atoms: C2_3  and  C3_4 
ROOT
ATOM      1  C3  UNL d   1       0.335  -3.122   1.968  0.00  0.00    -0.075 A 
ATOM      2  C4  UNL d   1      -0.384  -2.775   3.121  0.00  0.00     0.002 A 
ATOM      3  C5  UNL d   1      -1.104  -1.581   3.174  0.00  0.00     0.002 A 
ATOM      4  C6  UNL d   1      -1.106  -0.716   2.082  0.00  0.00    -0.004 A 
ATOM      5  C7  UNL d   1      -0.381  -1.043   0.938  0.00  0.00     0.002 A 
ATOM      6  C8  UNL d   1       0.337  -2.239   0.880  0.00  0.00     0.002 A 
ENDROOT
BRANCH   1   7
ATOM      7  C2  UNL d   1       1.092  -4.427   1.894  0.00  0.00     0.056 C 
BRANCH   7   8
ATOM      8  C1  UNL d   1       2.602  -4.261   1.692  0.00  0.00     0.007 C 
ATOM      9  C   UNL d   1       3.202  -5.307   0.762  0.00  0.00     0.009 C 
ENDBRANCH   7   8
ENDBRANCH   1   7
TORSDOF 2
ENDMDL
