MODEL 1
REMARK minimizedAffinity 6.55771351
REMARK minimizedRMSD -1
REMARK  1 active torsions:
REMARK  status: ('A' for Active; 'I' for Inactive)
REMARK    1  A    between atoms: C1_2  and  C2_3 
ROOT
ATOM      1  C2  UNL d   1       3.169  -2.570   3.914  0.00  0.00    -0.081 A 
ATOM      2  C3  UNL d   1       2.163  -3.467   3.532  0.00  0.00     0.006 A 
ATOM      3  C4  UNL d   1       1.196  -3.090   2.598  0.00  0.00     0.002 A 
ATOM      4  C5  UNL d   1       1.223  -1.815   2.023  0.00  0.00    -0.080 A 
ATOM      5  C6  UNL d   1       0.208  -1.409   0.995  0.00  0.00     0.076 C 
ATOM      6  C7  UNL d   1       2.217  -0.913   2.416  0.00  0.00     0.002 A 
ATOM      7  C8  UNL d   1       3.184  -1.289   3.352  0.00  0.00     0.006 A 
ENDROOT
BRANCH   1   8
ATOM      8  C1  UNL d   1       4.251  -2.995   4.873  0.00  0.00     0.054 C 
ATOM      9  C   UNL d   1       5.579  -3.193   4.156  0.00  0.00     0.018 C 
ENDBRANCH   1   8
TORSDOF 1
ENDMDL
