MODEL 1
REMARK minimizedAffinity -3.60656166
REMARK minimizedRMSD -1
REMARK  1 active torsions:
REMARK  status: ('A' for Active; 'I' for Inactive)
REMARK    1  A    between atoms: C1_2  and  C2_3 
ROOT
ATOM      1  C2  UNL d   1       2.390   5.008  -2.141  0.00  0.00    -0.081 A 
ATOM      2  C3  UNL d   1       3.375   6.000  -2.059  0.00  0.00     0.006 A 
ATOM      3  C4  UNL d   1       4.550   5.894  -2.808  0.00  0.00     0.002 A 
ATOM      4  C5  UNL d   1       4.755   4.801  -3.656  0.00  0.00    -0.080 A 
ATOM      5  C6  UNL d   1       5.998   4.691  -4.489  0.00  0.00     0.076 C 
ATOM      6  C7  UNL d   1       3.778   3.802  -3.725  0.00  0.00     0.002 A 
ATOM      7  C8  UNL d   1       2.604   3.906  -2.976  0.00  0.00     0.006 A 
ENDROOT
BRANCH   1   8
ATOM      8  C1  UNL d   1       1.094   5.151  -1.384  0.00  0.00     0.054 C 
ATOM      9  C   UNL d   1       0.643   3.819  -0.803  0.00  0.00     0.018 C 
ENDBRANCH   1   8
TORSDOF 1
ENDMDL
