MODEL 1
REMARK minimizedAffinity 3.26336408
REMARK minimizedRMSD -1
REMARK  1 active torsions:
REMARK  status: ('A' for Active; 'I' for Inactive)
REMARK    1  A    between atoms: C1_2  and  C2_3 
ROOT
ATOM      1  C2  UNL d   1      -0.159  -1.747  -1.227  0.00  0.00    -0.081 A 
ATOM      2  C3  UNL d   1       0.960  -1.755  -0.386  0.00  0.00     0.006 A 
ATOM      3  C4  UNL d   1       2.214  -2.123  -0.880  0.00  0.00     0.002 A 
ATOM      4  C5  UNL d   1       2.371  -2.481  -2.224  0.00  0.00    -0.080 A 
ATOM      5  C6  UNL d   1       3.717  -2.848  -2.774  0.00  0.00     0.076 C 
ATOM      6  C7  UNL d   1       1.249  -2.490  -3.059  0.00  0.00     0.002 A 
ATOM      7  C8  UNL d   1      -0.005  -2.122  -2.566  0.00  0.00     0.006 A 
ENDROOT
BRANCH   1   8
ATOM      8  C1  UNL d   1      -1.500  -1.288  -0.713  0.00  0.00     0.054 C 
ATOM      9  C   UNL d   1      -2.603  -2.263  -1.099  0.00  0.00     0.018 C 
ENDBRANCH   1   8
TORSDOF 1
ENDMDL
