MODEL 1
REMARK minimizedAffinity 5.56797314
REMARK minimizedRMSD -1
REMARK  1 active torsions:
REMARK  status: ('A' for Active; 'I' for Inactive)
REMARK    1  A    between atoms: C1_2  and  C2_3 
ROOT
ATOM      1  C2  UNL d   1       2.231  -1.375   2.842  0.00  0.00    -0.081 A 
ATOM      2  C3  UNL d   1       2.453  -1.273   1.464  0.00  0.00     0.006 A 
ATOM      3  C4  UNL d   1       2.695  -0.029   0.875  0.00  0.00     0.002 A 
ATOM      4  C5  UNL d   1       2.726   1.131   1.656  0.00  0.00    -0.080 A 
ATOM      5  C6  UNL d   1       3.014   2.469   1.041  0.00  0.00     0.076 C 
ATOM      6  C7  UNL d   1       2.486   1.032   3.030  0.00  0.00     0.002 A 
ATOM      7  C8  UNL d   1       2.244  -0.211   3.619  0.00  0.00     0.006 A 
ENDROOT
BRANCH   1   8
ATOM      8  C1  UNL d   1       2.034  -2.722   3.490  0.00  0.00     0.054 C 
ATOM      9  C   UNL d   1       3.292  -3.175   4.218  0.00  0.00     0.018 C 
ENDBRANCH   1   8
TORSDOF 1
ENDMDL
