MODEL 1
REMARK minimizedAffinity 1.77959669
REMARK minimizedRMSD -1
REMARK  1 active torsions:
REMARK  status: ('A' for Active; 'I' for Inactive)
REMARK    1  A    between atoms: C1_2  and  C2_3 
ROOT
ATOM      1  C2  UNL d   1      -1.858   1.392   0.062  0.00  0.00    -0.081 A 
ATOM      2  C3  UNL d   1      -2.635   1.716   1.180  0.00  0.00     0.006 A 
ATOM      3  C4  UNL d   1      -3.976   1.329   1.247  0.00  0.00     0.002 A 
ATOM      4  C5  UNL d   1      -4.559   0.606   0.201  0.00  0.00    -0.080 A 
ATOM      5  C6  UNL d   1      -5.988   0.159   0.273  0.00  0.00     0.076 C 
ATOM      6  C7  UNL d   1      -3.787   0.297  -0.925  0.00  0.00     0.002 A 
ATOM      7  C8  UNL d   1      -2.446   0.685  -0.992  0.00  0.00     0.006 A 
ENDROOT
BRANCH   1   8
ATOM      8  C1  UNL d   1      -0.394   1.752   0.016  0.00  0.00     0.054 C 
ATOM      9  C   UNL d   1      -0.195   3.215  -0.352  0.00  0.00     0.018 C 
ENDBRANCH   1   8
TORSDOF 1
ENDMDL
