MODEL 1
REMARK minimizedAffinity 9.49640179
REMARK minimizedRMSD -1
REMARK  1 active torsions:
REMARK  status: ('A' for Active; 'I' for Inactive)
REMARK    1  A    between atoms: C1_2  and  C2_3 
ROOT
ATOM      1  C2  UNL d   1       2.905  -0.267   0.795  0.00  0.00    -0.081 A 
ATOM      2  C3  UNL d   1       2.993   0.938   1.503  0.00  0.00     0.006 A 
ATOM      3  C4  UNL d   1       2.253   2.052   1.099  0.00  0.00     0.002 A 
ATOM      4  C5  UNL d   1       1.409   1.978  -0.014  0.00  0.00    -0.080 A 
ATOM      5  C6  UNL d   1       0.586   3.157  -0.440  0.00  0.00     0.076 C 
ATOM      6  C7  UNL d   1       1.335   0.779  -0.731  0.00  0.00     0.002 A 
ATOM      7  C8  UNL d   1       2.074  -0.335  -0.328  0.00  0.00     0.006 A 
ENDROOT
BRANCH   1   8
ATOM      8  C1  UNL d   1       3.652  -1.489   1.267  0.00  0.00     0.054 C 
ATOM      9  C   UNL d   1       2.723  -2.468   1.970  0.00  0.00     0.018 C 
ENDBRANCH   1   8
TORSDOF 1
ENDMDL
