MODEL 1
REMARK minimizedAffinity 6.33373547
REMARK minimizedRMSD -1
REMARK  1 active torsions:
REMARK  status: ('A' for Active; 'I' for Inactive)
REMARK    1  A    between atoms: C1_2  and  C2_3 
ROOT
ATOM      1  C2  UNL d   1       2.061   0.677   0.141  0.00  0.00    -0.081 A 
ATOM      2  C3  UNL d   1       0.972   0.245  -0.626  0.00  0.00     0.006 A 
ATOM      3  C4  UNL d   1       0.756  -1.117  -0.844  0.00  0.00     0.002 A 
ATOM      4  C5  UNL d   1       1.618  -2.070  -0.292  0.00  0.00    -0.080 A 
ATOM      5  C6  UNL d   1       1.380  -3.537  -0.493  0.00  0.00     0.076 C 
ATOM      6  C7  UNL d   1       2.716  -1.638   0.460  0.00  0.00     0.002 A 
ATOM      7  C8  UNL d   1       2.934  -0.276   0.677  0.00  0.00     0.006 A 
ENDROOT
BRANCH   1   8
ATOM      8  C1  UNL d   1       2.261   2.143   0.432  0.00  0.00     0.054 C 
ATOM      9  C   UNL d   1       1.028   2.954   0.059  0.00  0.00     0.018 C 
ENDBRANCH   1   8
TORSDOF 1
ENDMDL
