MODEL 1
REMARK minimizedAffinity 3.35768127
REMARK minimizedRMSD -1
REMARK  1 active torsions:
REMARK  status: ('A' for Active; 'I' for Inactive)
REMARK    1  A    between atoms: C1_2  and  C2_3 
ROOT
ATOM      1  C2  UNL d   1      -4.856   0.728  -2.919  0.00  0.00    -0.081 A 
ATOM      2  C3  UNL d   1      -3.459   0.712  -3.017  0.00  0.00     0.006 A 
ATOM      3  C4  UNL d   1      -2.800   1.578  -3.893  0.00  0.00     0.002 A 
ATOM      4  C5  UNL d   1      -3.526   2.479  -4.679  0.00  0.00    -0.080 A 
ATOM      5  C6  UNL d   1      -2.829   3.435  -5.601  0.00  0.00     0.076 C 
ATOM      6  C7  UNL d   1      -4.922   2.483  -4.595  0.00  0.00     0.002 A 
ATOM      7  C8  UNL d   1      -5.581   1.617  -3.720  0.00  0.00     0.006 A 
ENDROOT
BRANCH   1   8
ATOM      8  C1  UNL d   1      -5.565  -0.159  -1.929  0.00  0.00     0.054 C 
ATOM      9  C   UNL d   1      -5.338   0.314  -0.500  0.00  0.00     0.018 C 
ENDBRANCH   1   8
TORSDOF 1
ENDMDL
