MODEL 1
REMARK minimizedAffinity 1.86355197
REMARK minimizedRMSD -1
REMARK  1 active torsions:
REMARK  status: ('A' for Active; 'I' for Inactive)
REMARK    1  A    between atoms: C1_2  and  C2_3 
ROOT
ATOM      1  C2  UNL d   1      -2.006   1.153   0.783  0.00  0.00    -0.081 A 
ATOM      2  C3  UNL d   1      -3.083   1.311   1.665  0.00  0.00     0.006 A 
ATOM      3  C4  UNL d   1      -4.376   0.959   1.273  0.00  0.00     0.002 A 
ATOM      4  C5  UNL d   1      -4.614   0.435  -0.002  0.00  0.00    -0.080 A 
ATOM      5  C6  UNL d   1      -5.994   0.024  -0.424  0.00  0.00     0.076 C 
ATOM      6  C7  UNL d   1      -3.542   0.293  -0.889  0.00  0.00     0.002 A 
ATOM      7  C8  UNL d   1      -2.248   0.646  -0.498  0.00  0.00     0.006 A 
ENDROOT
BRANCH   1   8
ATOM      8  C1  UNL d   1      -0.601   1.471   1.225  0.00  0.00     0.054 C 
ATOM      9  C   UNL d   1       0.307   1.737   0.033  0.00  0.00     0.018 C 
ENDBRANCH   1   8
TORSDOF 1
ENDMDL
