MODEL 1
REMARK minimizedAffinity 3.5682373
REMARK minimizedRMSD -1
REMARK  1 active torsions:
REMARK  status: ('A' for Active; 'I' for Inactive)
REMARK    1  A    between atoms: C1_2  and  C2_3 
ROOT
ATOM      1  C2  UNL d   1      -5.507   0.328  -1.265  0.00  0.00    -0.081 A 
ATOM      2  C3  UNL d   1      -5.940   1.460  -1.966  0.00  0.00     0.006 A 
ATOM      3  C4  UNL d   1      -5.590   1.641  -3.306  0.00  0.00     0.002 A 
ATOM      4  C5  UNL d   1      -4.808   0.690  -3.970  0.00  0.00    -0.080 A 
ATOM      5  C6  UNL d   1      -4.451   0.857  -5.417  0.00  0.00     0.076 C 
ATOM      6  C7  UNL d   1      -4.360  -0.433  -3.265  0.00  0.00     0.002 A 
ATOM      7  C8  UNL d   1      -4.709  -0.614  -1.925  0.00  0.00     0.006 A 
ENDROOT
BRANCH   1   8
ATOM      8  C1  UNL d   1      -5.936   0.097   0.161  0.00  0.00     0.054 C 
ATOM      9  C   UNL d   1      -5.175   1.000   1.121  0.00  0.00     0.018 C 
ENDBRANCH   1   8
TORSDOF 1
ENDMDL
