MODEL 1
REMARK minimizedAffinity -5.13206387
REMARK minimizedRMSD -1
REMARK  1 active torsions:
REMARK  status: ('A' for Active; 'I' for Inactive)
REMARK    1  A    between atoms: N_2  and  C1_3 
ROOT
ATOM      1  C1  UNL d   1       0.198  -0.127  -0.222  0.00  0.00     0.143 A 
ATOM      2  C2  UNL d   1       0.976  -1.289  -0.279  0.00  0.00    -0.057 A 
ATOM      3  C3  UNL d   1       2.333  -1.272   0.066  0.00  0.00     0.033 A 
ATOM      4  C4  UNL d   1       2.945  -0.083   0.449  0.00  0.00    -0.042 A 
ATOM      5  C5  UNL d   1       2.197   1.089   0.490  0.00  0.00     0.033 A 
ATOM      6  C6  UNL d   1       0.841   1.064   0.150  0.00  0.00    -0.057 A 
ENDROOT
BRANCH   1   7
ATOM      7  N   UNL d   1      -1.131  -0.059  -0.647  0.00  0.00    -0.732 N 
ATOM      8  C   UNL d   1      -1.476  -0.312  -2.029  0.00  0.00     0.284 C 
ATOM      9  H3  UNL d   1      -1.775  -0.470   0.024  0.00  0.00     0.395 HD
ENDBRANCH   1   7
TORSDOF 1
ENDMDL
