MODEL 1
REMARK minimizedAffinity -3.30050874
REMARK minimizedRMSD -1
REMARK  1 active torsions:
REMARK  status: ('A' for Active; 'I' for Inactive)
REMARK    1  A    between atoms: N_2  and  C1_3 
ROOT
ATOM      1  C1  UNL d   1       0.266   0.093   0.149  0.00  0.00     0.143 A 
ATOM      2  C2  UNL d   1       0.624  -1.220   0.471  0.00  0.00    -0.057 A 
ATOM      3  C3  UNL d   1       1.948  -1.557   0.778  0.00  0.00     0.033 A 
ATOM      4  C4  UNL d   1       2.946  -0.589   0.738  0.00  0.00    -0.042 A 
ATOM      5  C5  UNL d   1       2.617   0.718   0.395  0.00  0.00     0.033 A 
ATOM      6  C6  UNL d   1       1.292   1.050   0.097  0.00  0.00    -0.057 A 
ENDROOT
BRANCH   1   7
ATOM      7  N   UNL d   1      -1.015   0.472  -0.261  0.00  0.00    -0.732 N 
ATOM      8  C   UNL d   1      -1.609  -0.103  -1.449  0.00  0.00     0.284 C 
ATOM      9  H3  UNL d   1      -1.659   0.570   0.520  0.00  0.00     0.395 HD
ENDBRANCH   1   7
TORSDOF 1
ENDMDL
