MODEL 1
REMARK minimizedAffinity -5.07364035
REMARK minimizedRMSD -1
REMARK  1 active torsions:
REMARK  status: ('A' for Active; 'I' for Inactive)
REMARK    1  A    between atoms: N_2  and  C1_3 
ROOT
ATOM      1  C1  UNL d   1       0.043   0.131  -0.059  0.00  0.00     0.143 A 
ATOM      2  C2  UNL d   1       0.964   1.179   0.051  0.00  0.00    -0.057 A 
ATOM      3  C3  UNL d   1       2.280   0.948   0.471  0.00  0.00     0.033 A 
ATOM      4  C4  UNL d   1       2.690  -0.335   0.819  0.00  0.00    -0.042 A 
ATOM      5  C5  UNL d   1       1.785  -1.387   0.742  0.00  0.00     0.033 A 
ATOM      6  C6  UNL d   1       0.475  -1.151   0.315  0.00  0.00    -0.057 A 
ENDROOT
BRANCH   1   7
ATOM      7  N   UNL d   1      -1.305   0.311  -0.376  0.00  0.00    -0.732 N 
ATOM      8  C   UNL d   1      -1.783   0.077  -1.722  0.00  0.00     0.284 C 
ATOM      9  H3  UNL d   1      -1.925  -0.036   0.352  0.00  0.00     0.395 HD
ENDBRANCH   1   7
TORSDOF 1
ENDMDL
