MODEL 1
REMARK minimizedAffinity -4.31910944
REMARK minimizedRMSD -1
REMARK  1 active torsions:
REMARK  status: ('A' for Active; 'I' for Inactive)
REMARK    1  A    between atoms: N_2  and  C1_3 
ROOT
ATOM      1  C1  UNL d   1       0.928   0.266   0.180  0.00  0.00     0.143 A 
ATOM      2  C2  UNL d   1       2.089   0.699  -0.470  0.00  0.00    -0.057 A 
ATOM      3  C3  UNL d   1       3.328   0.094  -0.224  0.00  0.00     0.033 A 
ATOM      4  C4  UNL d   1       3.432  -0.939   0.701  0.00  0.00    -0.042 A 
ATOM      5  C5  UNL d   1       2.296  -1.369   1.377  0.00  0.00     0.033 A 
ATOM      6  C6  UNL d   1       1.061  -0.766   1.122  0.00  0.00    -0.057 A 
ENDROOT
BRANCH   1   7
ATOM      7  N   UNL d   1      -0.314   0.891   0.051  0.00  0.00    -0.732 N 
ATOM      8  C   UNL d   1      -1.538   0.125   0.148  0.00  0.00     0.284 C 
ATOM      9  H3  UNL d   1      -0.348   1.790   0.527  0.00  0.00     0.395 HD
ENDBRANCH   1   7
TORSDOF 1
ENDMDL
