MODEL 1
REMARK minimizedAffinity -4.61370373
REMARK minimizedRMSD -1
REMARK  1 active torsions:
REMARK  status: ('A' for Active; 'I' for Inactive)
REMARK    1  A    between atoms: N_2  and  C1_3 
ROOT
ATOM      1  C1  UNL d   1       1.095   0.039   0.598  0.00  0.00     0.143 A 
ATOM      2  C2  UNL d   1       2.315   0.716   0.693  0.00  0.00    -0.057 A 
ATOM      3  C3  UNL d   1       3.465   0.077   1.172  0.00  0.00     0.033 A 
ATOM      4  C4  UNL d   1       3.407  -1.248   1.593  0.00  0.00    -0.042 A 
ATOM      5  C5  UNL d   1       2.199  -1.933   1.531  0.00  0.00     0.033 A 
ATOM      6  C6  UNL d   1       1.056  -1.291   1.045  0.00  0.00    -0.057 A 
ENDROOT
BRANCH   1   7
ATOM      7  N   UNL d   1      -0.106   0.647   0.223  0.00  0.00    -0.732 N 
ATOM      8  C   UNL d   1      -1.250  -0.153  -0.158  0.00  0.00     0.284 C 
ATOM      9  H3  UNL d   1      -0.334   1.448   0.807  0.00  0.00     0.395 HD
ENDBRANCH   1   7
TORSDOF 1
ENDMDL
