MODEL 1
REMARK minimizedAffinity -3.45798206
REMARK minimizedRMSD -1
REMARK  1 active torsions:
REMARK  status: ('A' for Active; 'I' for Inactive)
REMARK    1  A    between atoms: C1_2  and  C2_3 
ROOT
ATOM      1  C2  UNL d   1       0.392   0.745   1.475  0.00  0.00    -0.076 A 
ATOM      2  C3  UNL d   1      -0.639   0.565   0.536  0.00  0.00     0.004 A 
ATOM      3  C4  UNL d   1      -0.481  -0.299  -0.546  0.00  0.00    -0.003 A 
ATOM      4  C5  UNL d   1       0.710  -0.997  -0.708  0.00  0.00     0.000 A 
ATOM      5  C6  UNL d   1       1.737  -0.844   0.223  0.00  0.00     0.000 A 
ATOM      6  C7  UNL d   1       1.588   0.010   1.329  0.00  0.00    -0.073 A 
ATOM      7  C8  UNL d   1       2.730   0.141   2.299  0.00  0.00     0.078 C 
ENDROOT
BRANCH   1   8
ATOM      8  C1  UNL d   1       0.173   1.715   2.614  0.00  0.00     0.053 C 
ATOM      9  C   UNL d   1      -0.875   1.227   3.602  0.00  0.00     0.018 C 
ENDBRANCH   1   8
TORSDOF 1
ENDMDL
