MODEL 1
REMARK minimizedAffinity -4.5119381
REMARK minimizedRMSD -1
REMARK  1 active torsions:
REMARK  status: ('A' for Active; 'I' for Inactive)
REMARK    1  A    between atoms: C1_2  and  C2_3 
ROOT
ATOM      1  C2  UNL d   1       0.155  -0.330   0.423  0.00  0.00    -0.076 A 
ATOM      2  C3  UNL d   1       1.267  -0.086   1.248  0.00  0.00     0.004 A 
ATOM      3  C4  UNL d   1       1.130   0.604   2.451  0.00  0.00    -0.003 A 
ATOM      4  C5  UNL d   1      -0.122   1.061   2.849  0.00  0.00     0.000 A 
ATOM      5  C6  UNL d   1      -1.238   0.813   2.052  0.00  0.00     0.000 A 
ATOM      6  C7  UNL d   1      -1.120   0.104   0.844  0.00  0.00    -0.073 A 
ATOM      7  C8  UNL d   1      -2.357  -0.130   0.021  0.00  0.00     0.078 C 
ENDROOT
BRANCH   1   8
ATOM      8  C1  UNL d   1       0.369  -1.060  -0.884  0.00  0.00     0.053 C 
ATOM      9  C   UNL d   1       0.558  -0.111  -2.057  0.00  0.00     0.018 C 
ENDBRANCH   1   8
TORSDOF 1
ENDMDL
