MODEL 1
REMARK minimizedAffinity 1.11555493
REMARK minimizedRMSD -1
REMARK  1 active torsions:
REMARK  status: ('A' for Active; 'I' for Inactive)
REMARK    1  A    between atoms: C1_2  and  C2_3 
ROOT
ATOM      1  C2  UNL d   1      -0.071   0.015   1.589  0.00  0.00    -0.076 A 
ATOM      2  C3  UNL d   1      -0.301  -0.842   0.500  0.00  0.00     0.004 A 
ATOM      3  C4  UNL d   1      -1.563  -0.938  -0.084  0.00  0.00    -0.003 A 
ATOM      4  C5  UNL d   1      -2.616  -0.177   0.412  0.00  0.00     0.000 A 
ATOM      5  C6  UNL d   1      -2.401   0.692   1.481  0.00  0.00     0.000 A 
ATOM      6  C7  UNL d   1      -1.131   0.813   2.071  0.00  0.00    -0.073 A 
ATOM      7  C8  UNL d   1      -0.958   1.761   3.225  0.00  0.00     0.078 C 
ENDROOT
BRANCH   1   8
ATOM      8  C1  UNL d   1       1.312   0.057   2.199  0.00  0.00     0.053 C 
ATOM      9  C   UNL d   1       2.122  -1.193   1.892  0.00  0.00     0.018 C 
ENDBRANCH   1   8
TORSDOF 1
ENDMDL
