MODEL 1
REMARK minimizedAffinity -2.43159342
REMARK minimizedRMSD -1
REMARK  1 active torsions:
REMARK  status: ('A' for Active; 'I' for Inactive)
REMARK    1  A    between atoms: C1_2  and  C2_3 
ROOT
ATOM      1  C2  UNL d   1      -0.586  -0.932   0.819  0.00  0.00    -0.076 A 
ATOM      2  C3  UNL d   1       0.519  -0.967  -0.050  0.00  0.00     0.004 A 
ATOM      3  C4  UNL d   1       1.616  -0.131   0.151  0.00  0.00    -0.003 A 
ATOM      4  C5  UNL d   1       1.626   0.754   1.223  0.00  0.00     0.000 A 
ATOM      5  C6  UNL d   1       0.547   0.790   2.105  0.00  0.00     0.000 A 
ATOM      6  C7  UNL d   1      -0.560  -0.058   1.927  0.00  0.00    -0.073 A 
ATOM      7  C8  UNL d   1      -1.699   0.027   2.906  0.00  0.00     0.078 C 
ENDROOT
BRANCH   1   8
ATOM      8  C1  UNL d   1      -1.759  -1.843   0.536  0.00  0.00     0.053 C 
ATOM      9  C   UNL d   1      -2.807  -1.186  -0.349  0.00  0.00     0.018 C 
ENDBRANCH   1   8
TORSDOF 1
ENDMDL
