MODEL 1
REMARK minimizedAffinity -5.04312325
REMARK minimizedRMSD -1
REMARK  0 active torsions:
REMARK  status: ('A' for Active; 'I' for Inactive)
ROOT
ATOM      1  C   UNL d   1       0.210  -3.438  -0.439  0.00  0.00     0.023 A 
ATOM      2  C1  UNL d   1       0.608  -2.694  -1.550  0.00  0.00     0.003 A 
ATOM      3  C2  UNL d   1       0.552  -1.299  -1.514  0.00  0.00     0.048 A 
ATOM      4  C3  UNL d   1       0.099  -0.655  -0.364  0.00  0.00     0.023 A 
ATOM      5  C4  UNL d   1      -0.300  -1.395   0.751  0.00  0.00     0.048 A 
ATOM      6  C5  UNL d   1      -0.243  -2.789   0.710  0.00  0.00     0.003 A 
ATOM      7  I   UNL d   1       0.016   1.421  -0.308  0.00  0.00    -0.146 I 
ENDROOT
TORSDOF 0
ENDMDL
