MODEL 1
REMARK minimizedAffinity -1.14392292
REMARK minimizedRMSD -1
REMARK  0 active torsions:
REMARK  status: ('A' for Active; 'I' for Inactive)
ROOT
ATOM      1  C   UNL d   1      -0.759  -0.696   1.613  0.00  0.00     0.023 A 
ATOM      2  C1  UNL d   1      -0.269  -0.141   0.431  0.00  0.00     0.003 A 
ATOM      3  C2  UNL d   1      -0.338  -0.864  -0.762  0.00  0.00     0.048 A 
ATOM      4  C3  UNL d   1      -0.898  -2.141  -0.765  0.00  0.00     0.023 A 
ATOM      5  C4  UNL d   1      -1.390  -2.700   0.415  0.00  0.00     0.048 A 
ATOM      6  C5  UNL d   1      -1.319  -1.974   1.606  0.00  0.00     0.003 A 
ATOM      7  I   UNL d   1      -1.001  -3.219  -2.539  0.00  0.00    -0.146 I 
ENDROOT
TORSDOF 0
ENDMDL
