MODEL 1
REMARK minimizedAffinity -4.20461226
REMARK minimizedRMSD -1
REMARK  0 active torsions:
REMARK  status: ('A' for Active; 'I' for Inactive)
ROOT
ATOM      1  C   UNL d   1      -1.470  -1.690   1.831  0.00  0.00     0.023 A 
ATOM      2  C1  UNL d   1      -1.140  -0.491   1.200  0.00  0.00     0.003 A 
ATOM      3  C2  UNL d   1      -0.501  -0.506  -0.042  0.00  0.00     0.048 A 
ATOM      4  C3  UNL d   1      -0.197  -1.725  -0.648  0.00  0.00     0.023 A 
ATOM      5  C4  UNL d   1      -0.526  -2.928  -0.020  0.00  0.00     0.048 A 
ATOM      6  C5  UNL d   1      -1.163  -2.907   1.221  0.00  0.00     0.003 A 
ATOM      7  I   UNL d   1       0.754  -1.751  -2.496  0.00  0.00    -0.146 I 
ENDROOT
TORSDOF 0
ENDMDL
