MODEL 1
REMARK minimizedAffinity -4.13099957
REMARK minimizedRMSD -1
REMARK  0 active torsions:
REMARK  status: ('A' for Active; 'I' for Inactive)
ROOT
ATOM      1  C   UNL d   1      -0.504  -3.198   0.284  0.00  0.00     0.023 A 
ATOM      2  C1  UNL d   1       0.505  -2.669  -0.521  0.00  0.00     0.003 A 
ATOM      3  C2  UNL d   1       0.722  -1.290  -0.555  0.00  0.00     0.048 A 
ATOM      4  C3  UNL d   1      -0.073  -0.446   0.219  0.00  0.00     0.023 A 
ATOM      5  C4  UNL d   1      -1.083  -0.971   1.027  0.00  0.00     0.048 A 
ATOM      6  C5  UNL d   1      -1.297  -2.350   1.057  0.00  0.00     0.003 A 
ATOM      7  I   UNL d   1       0.249   1.607   0.171  0.00  0.00    -0.146 I 
ENDROOT
TORSDOF 0
ENDMDL
