MODEL 1
REMARK minimizedAffinity -4.18255281
REMARK minimizedRMSD -1
REMARK  0 active torsions:
REMARK  status: ('A' for Active; 'I' for Inactive)
ROOT
ATOM      1  C   UNL d   1      -1.062  -0.899   1.668  0.00  0.00     0.023 A 
ATOM      2  C1  UNL d   1      -1.117  -2.206   1.184  0.00  0.00     0.003 A 
ATOM      3  C2  UNL d   1      -0.767  -2.476  -0.141  0.00  0.00     0.048 A 
ATOM      4  C3  UNL d   1      -0.362  -1.434  -0.975  0.00  0.00     0.023 A 
ATOM      5  C4  UNL d   1      -0.305  -0.125  -0.494  0.00  0.00     0.048 A 
ATOM      6  C5  UNL d   1      -0.657   0.140   0.830  0.00  0.00     0.003 A 
ATOM      7  I   UNL d   1       0.159  -1.834  -2.947  0.00  0.00    -0.146 I 
ENDROOT
TORSDOF 0
ENDMDL
