MODEL 1
REMARK minimizedAffinity -2.15439677
REMARK minimizedRMSD -1
REMARK  0 active torsions:
REMARK  status: ('A' for Active; 'I' for Inactive)
ROOT
ATOM      1  C   UNL d   1      -0.987  -2.922   0.079  0.00  0.00     0.023 A 
ATOM      2  C1  UNL d   1      -1.429  -2.066   1.088  0.00  0.00     0.003 A 
ATOM      3  C2  UNL d   1      -1.177  -0.695   1.003  0.00  0.00     0.048 A 
ATOM      4  C3  UNL d   1      -0.482  -0.186  -0.094  0.00  0.00     0.023 A 
ATOM      5  C4  UNL d   1      -0.038  -1.039  -1.106  0.00  0.00     0.048 A 
ATOM      6  C5  UNL d   1      -0.292  -2.409  -1.017  0.00  0.00     0.003 A 
ATOM      7  I   UNL d   1      -0.106   1.853  -0.223  0.00  0.00    -0.146 I 
ENDROOT
TORSDOF 0
ENDMDL
