MODEL 1
REMARK minimizedAffinity -3.52145433
REMARK minimizedRMSD -1
REMARK  0 active torsions:
REMARK  status: ('A' for Active; 'I' for Inactive)
ROOT
ATOM      1  C   UNL d   1      -1.200  -3.178   0.191  0.00  0.00     0.023 A 
ATOM      2  C1  UNL d   1      -0.697  -2.693  -1.016  0.00  0.00     0.003 A 
ATOM      3  C2  UNL d   1      -0.280  -1.364  -1.116  0.00  0.00     0.048 A 
ATOM      4  C3  UNL d   1      -0.368  -0.526  -0.005  0.00  0.00     0.023 A 
ATOM      5  C4  UNL d   1      -0.869  -1.008   1.205  0.00  0.00     0.048 A 
ATOM      6  C5  UNL d   1      -1.286  -2.337   1.300  0.00  0.00     0.003 A 
ATOM      7  I   UNL d   1       0.253   1.452  -0.151  0.00  0.00    -0.146 I 
ENDROOT
TORSDOF 0
ENDMDL
