MODEL 1
REMARK minimizedAffinity -1.61607575
REMARK minimizedRMSD -1
REMARK  0 active torsions:
REMARK  status: ('A' for Active; 'I' for Inactive)
ROOT
ATOM      1  C   UNL d   1      -1.223  -3.134  -0.762  0.00  0.00     0.023 A 
ATOM      2  C1  UNL d   1      -0.540  -2.449  -1.767  0.00  0.00     0.003 A 
ATOM      3  C2  UNL d   1      -0.122  -1.134  -1.558  0.00  0.00     0.048 A 
ATOM      4  C3  UNL d   1      -0.390  -0.508  -0.341  0.00  0.00     0.023 A 
ATOM      5  C4  UNL d   1      -1.072  -1.189   0.669  0.00  0.00     0.048 A 
ATOM      6  C5  UNL d   1      -1.489  -2.505   0.455  0.00  0.00     0.003 A 
ATOM      7  I   UNL d   1       0.232   1.450  -0.027  0.00  0.00    -0.146 I 
ENDROOT
TORSDOF 0
ENDMDL
