MODEL 1
REMARK minimizedAffinity -3.41912246
REMARK minimizedRMSD -1
REMARK  0 active torsions:
REMARK  status: ('A' for Active; 'I' for Inactive)
ROOT
ATOM      1  C   UNL d   1      -1.509  -0.787   1.828  0.00  0.00     0.023 A 
ATOM      2  C1  UNL d   1      -0.794   0.181   1.123  0.00  0.00     0.003 A 
ATOM      3  C2  UNL d   1      -0.055  -0.180  -0.005  0.00  0.00     0.048 A 
ATOM      4  C3  UNL d   1      -0.037  -1.509  -0.424  0.00  0.00     0.023 A 
ATOM      5  C4  UNL d   1      -0.752  -2.481   0.277  0.00  0.00     0.048 A 
ATOM      6  C5  UNL d   1      -1.489  -2.116   1.406  0.00  0.00     0.003 A 
ATOM      7  I   UNL d   1       1.063  -2.048  -2.104  0.00  0.00    -0.146 I 
ENDROOT
TORSDOF 0
ENDMDL
