MODEL 1
REMARK minimizedAffinity -3.85459495
REMARK minimizedRMSD -1
REMARK  0 active torsions:
REMARK  status: ('A' for Active; 'I' for Inactive)
ROOT
ATOM      1  C   UNL d   1      -1.398  -2.084   0.555  0.00  0.00     0.023 A 
ATOM      2  C1  UNL d   1      -0.380  -1.938  -0.388  0.00  0.00     0.003 A 
ATOM      3  C2  UNL d   1       0.172  -0.679  -0.632  0.00  0.00     0.048 A 
ATOM      4  C3  UNL d   1      -0.298   0.430   0.071  0.00  0.00     0.023 A 
ATOM      5  C4  UNL d   1      -1.315   0.289   1.015  0.00  0.00     0.048 A 
ATOM      6  C5  UNL d   1      -1.865  -0.972   1.256  0.00  0.00     0.003 A 
ATOM      7  I   UNL d   1       0.523   2.305  -0.291  0.00  0.00    -0.146 I 
ENDROOT
TORSDOF 0
ENDMDL
