MODEL 1
REMARK minimizedAffinity -0.547948122
REMARK minimizedRMSD -1
REMARK  0 active torsions:
REMARK  status: ('A' for Active; 'I' for Inactive)
ROOT
ATOM      1  C   UNL d   1      -1.648  -2.424   2.208  0.00  0.00     0.023 A 
ATOM      2  C1  UNL d   1      -1.668  -1.090   2.617  0.00  0.00     0.003 A 
ATOM      3  C2  UNL d   1      -1.235  -0.086   1.749  0.00  0.00     0.048 A 
ATOM      4  C3  UNL d   1      -0.784  -0.421   0.473  0.00  0.00     0.023 A 
ATOM      5  C4  UNL d   1      -0.763  -1.754   0.059  0.00  0.00     0.048 A 
ATOM      6  C5  UNL d   1      -1.196  -2.755   0.930  0.00  0.00     0.003 A 
ATOM      7  I   UNL d   1      -0.139   1.072  -0.820  0.00  0.00    -0.146 I 
ENDROOT
TORSDOF 0
ENDMDL
