MODEL 1
REMARK minimizedAffinity -3.94823408
REMARK minimizedRMSD -1
REMARK  0 active torsions:
REMARK  status: ('A' for Active; 'I' for Inactive)
ROOT
ATOM      1  C   UNL d   1      -0.531  -2.442   1.371  0.00  0.00     0.023 A 
ATOM      2  C1  UNL d   1       0.278  -3.120   0.460  0.00  0.00     0.003 A 
ATOM      3  C2  UNL d   1       0.518  -2.574  -0.803  0.00  0.00     0.048 A 
ATOM      4  C3  UNL d   1      -0.054  -1.350  -1.148  0.00  0.00     0.023 A 
ATOM      5  C4  UNL d   1      -0.864  -0.668  -0.239  0.00  0.00     0.048 A 
ATOM      6  C5  UNL d   1      -1.102  -1.217   1.022  0.00  0.00     0.003 A 
ATOM      7  I   UNL d   1       0.303  -0.536  -3.027  0.00  0.00    -0.146 I 
ENDROOT
TORSDOF 0
ENDMDL
