MODEL 1
REMARK minimizedAffinity 7.95981884
REMARK minimizedRMSD -1
REMARK  0 active torsions:
REMARK  status: ('A' for Active; 'I' for Inactive)
ROOT
ATOM      1  C4' PXY d   1      -6.000  -0.089  -0.342  0.00  0.00     0.077 C 
ATOM      2  C1' PXY d   1      -2.366   3.011   2.913  0.00  0.00     0.077 C 
ATOM      3  C1  PXY d   1      -3.311   2.200   2.049  0.00  0.00    -0.082 A 
ATOM      4  C2  PXY d   1      -4.587   2.105   2.386  0.00  0.00     0.003 A 
ATOM      5  C3  PXY d   1      -5.449   1.349   1.634  0.00  0.00     0.003 A 
ATOM      6  C4  PXY d   1      -5.012   0.727   0.495  0.00  0.00    -0.082 A 
ATOM      7  C5  PXY d   1      -3.714   0.828   0.138  0.00  0.00     0.003 A 
ATOM      8  C6  PXY d   1      -2.846   1.566   0.938  0.00  0.00     0.003 A 
ENDROOT
TORSDOF 0
ENDMDL
