MODEL 1
REMARK minimizedAffinity 4.43699217
REMARK minimizedRMSD -1
REMARK  0 active torsions:
REMARK  status: ('A' for Active; 'I' for Inactive)
ROOT
ATOM      1  C4' PXY d   1      -5.153   0.861   0.795  0.00  0.00     0.077 C 
ATOM      2  C1' PXY d   1       0.337   2.284  -0.324  0.00  0.00     0.077 C 
ATOM      3  C1  PXY d   1      -1.100   1.912  -0.017  0.00  0.00    -0.082 A 
ATOM      4  C2  PXY d   1      -1.796   1.210  -0.898  0.00  0.00     0.003 A 
ATOM      5  C3  PXY d   1      -3.107   0.893  -0.651  0.00  0.00     0.003 A 
ATOM      6  C4  PXY d   1      -3.696   1.251   0.532  0.00  0.00    -0.082 A 
ATOM      7  C5  PXY d   1      -2.989   1.958   1.440  0.00  0.00     0.003 A 
ATOM      8  C6  PXY d   1      -1.672   2.306   1.152  0.00  0.00     0.003 A 
ENDROOT
TORSDOF 0
ENDMDL
