MODEL 1
REMARK minimizedAffinity 8.17288876
REMARK minimizedRMSD -1
REMARK  0 active torsions:
REMARK  status: ('A' for Active; 'I' for Inactive)
ROOT
ATOM      1  C4' PXY d   1       0.653   2.703  -0.455  0.00  0.00     0.077 C 
ATOM      2  C1' PXY d   1       4.006  -1.652   1.335  0.00  0.00     0.077 C 
ATOM      3  C1  PXY d   1       3.126  -0.505   0.878  0.00  0.00    -0.082 A 
ATOM      4  C2  PXY d   1       2.391  -0.640  -0.214  0.00  0.00     0.003 A 
ATOM      5  C3  PXY d   1       1.614   0.399  -0.659  0.00  0.00     0.003 A 
ATOM      6  C4  PXY d   1       1.548   1.569   0.049  0.00  0.00    -0.082 A 
ATOM      7  C5  PXY d   1       2.287   1.710   1.170  0.00  0.00     0.003 A 
ATOM      8  C6  PXY d   1       3.101   0.659   1.583  0.00  0.00     0.003 A 
ENDROOT
TORSDOF 0
ENDMDL
