MODEL 1
REMARK minimizedAffinity 4.25556469
REMARK minimizedRMSD -1
REMARK  0 active torsions:
REMARK  status: ('A' for Active; 'I' for Inactive)
ROOT
ATOM      1  C4' PXY d   1      -1.939   3.428   2.876  0.00  0.00     0.077 C 
ATOM      2  C1' PXY d   1       2.496   1.022   0.055  0.00  0.00     0.077 C 
ATOM      3  C1  PXY d   1       1.330   1.641   0.800  0.00  0.00    -0.082 A 
ATOM      4  C2  PXY d   1       0.767   2.744   0.333  0.00  0.00     0.003 A 
ATOM      5  C3  PXY d   1      -0.267   3.336   1.012  0.00  0.00     0.003 A 
ATOM      6  C4  PXY d   1      -0.766   2.763   2.151  0.00  0.00    -0.082 A 
ATOM      7  C5  PXY d   1      -0.204   1.632   2.628  0.00  0.00     0.003 A 
ATOM      8  C6  PXY d   1       0.872   1.070   1.947  0.00  0.00     0.003 A 
ENDROOT
TORSDOF 0
ENDMDL
