MODEL 1
REMARK minimizedAffinity -2.17116499
REMARK minimizedRMSD -1
REMARK  0 active torsions:
REMARK  status: ('A' for Active; 'I' for Inactive)
ROOT
ATOM      1  C4' PXY d   1       1.378   1.958   0.434  0.00  0.00     0.077 C 
ATOM      2  C1' PXY d   1      -4.176   1.378   1.929  0.00  0.00     0.077 C 
ATOM      3  C1  PXY d   1      -2.717   1.536   1.548  0.00  0.00    -0.082 A 
ATOM      4  C2  PXY d   1      -2.367   1.506   0.272  0.00  0.00     0.003 A 
ATOM      5  C3  PXY d   1      -1.048   1.615  -0.088  0.00  0.00     0.003 A 
ATOM      6  C4  PXY d   1      -0.084   1.811   0.864  0.00  0.00    -0.082 A 
ATOM      7  C5  PXY d   1      -0.434   1.855   2.167  0.00  0.00     0.003 A 
ATOM      8  C6  PXY d   1      -1.773   1.700   2.514  0.00  0.00     0.003 A 
ENDROOT
TORSDOF 0
ENDMDL
