MODEL 1
REMARK minimizedAffinity 1.964347
REMARK minimizedRMSD -1
REMARK  0 active torsions:
REMARK  status: ('A' for Active; 'I' for Inactive)
ROOT
ATOM      1  C4' PXY d   1      -5.561  -0.120  -1.564  0.00  0.00     0.077 C 
ATOM      2  C1' PXY d   1      -3.020   3.031  -5.691  0.00  0.00     0.077 C 
ATOM      3  C1  PXY d   1      -3.696   2.213  -4.609  0.00  0.00    -0.082 A 
ATOM      4  C2  PXY d   1      -2.966   1.446  -3.815  0.00  0.00     0.003 A 
ATOM      5  C3  PXY d   1      -3.564   0.675  -2.852  0.00  0.00     0.003 A 
ATOM      6  C4  PXY d   1      -4.920   0.730  -2.664  0.00  0.00    -0.082 A 
ATOM      7  C5  PXY d   1      -5.671   1.518  -3.463  0.00  0.00     0.003 A 
ATOM      8  C6  PXY d   1      -5.048   2.261  -4.461  0.00  0.00     0.003 A 
ENDROOT
TORSDOF 0
ENDMDL
