MODEL 1
REMARK minimizedAffinity 3.47642827
REMARK minimizedRMSD -1
REMARK  0 active torsions:
REMARK  status: ('A' for Active; 'I' for Inactive)
ROOT
ATOM      1  C4' PXY d   1      -0.450  -4.056  -0.790  0.00  0.00     0.077 C 
ATOM      2  C1' PXY d   1       3.724  -0.277   0.521  0.00  0.00     0.077 C 
ATOM      3  C1  PXY d   1       2.623  -1.259   0.171  0.00  0.00    -0.082 A 
ATOM      4  C2  PXY d   1       2.442  -2.334   0.921  0.00  0.00     0.003 A 
ATOM      5  C3  PXY d   1       1.472  -3.248   0.601  0.00  0.00     0.003 A 
ATOM      6  C4  PXY d   1       0.643  -3.033  -0.468  0.00  0.00    -0.082 A 
ATOM      7  C5  PXY d   1       0.815  -1.934  -1.233  0.00  0.00     0.003 A 
ATOM      8  C6  PXY d   1       1.832  -1.039  -0.914  0.00  0.00     0.003 A 
ENDROOT
TORSDOF 0
ENDMDL
