MODEL 1
REMARK minimizedAffinity -5.24247026
REMARK minimizedRMSD -1
REMARK  1 active torsions:
REMARK  status: ('A' for Active; 'I' for Inactive)
REMARK    1  A    between atoms: C1_2  and  C2_3 
ROOT
ATOM      1  C2  UNL d   1      -0.447   0.195   0.561  0.00  0.00    -0.073 A 
ATOM      2  C3  UNL d   1      -1.381   0.844   1.376  0.00  0.00    -0.002 A 
ATOM      3  C4  UNL d   1      -1.096   1.085   2.721  0.00  0.00     0.004 A 
ATOM      4  C5  UNL d   1       0.127   0.686   3.261  0.00  0.00    -0.004 A 
ATOM      5  C6  UNL d   1       1.078   0.048   2.459  0.00  0.00    -0.075 A 
ATOM      6  C7  UNL d   1       2.397  -0.389   3.026  0.00  0.00     0.076 C 
ATOM      7  C8  UNL d   1       0.783  -0.193   1.111  0.00  0.00     0.001 A 
ENDROOT
BRANCH   1   8
ATOM      8  C1  UNL d   1      -0.748  -0.061  -0.894  0.00  0.00     0.053 C 
ATOM      9  C   UNL d   1       0.508  -0.383  -1.687  0.00  0.00     0.018 C 
ENDBRANCH   1   8
TORSDOF 1
ENDMDL
