MODEL 1
REMARK minimizedAffinity -5.10369349
REMARK minimizedRMSD -1
REMARK  1 active torsions:
REMARK  status: ('A' for Active; 'I' for Inactive)
REMARK    1  A    between atoms: C1_2  and  C2_3 
ROOT
ATOM      1  C2  UNL d   1      -0.137   0.402   2.283  0.00  0.00    -0.073 A 
ATOM      2  C3  UNL d   1      -1.459   0.859   2.235  0.00  0.00    -0.002 A 
ATOM      3  C4  UNL d   1      -2.182   0.802   1.043  0.00  0.00     0.004 A 
ATOM      4  C5  UNL d   1      -1.594   0.282  -0.110  0.00  0.00    -0.004 A 
ATOM      5  C6  UNL d   1      -0.278  -0.191  -0.080  0.00  0.00    -0.075 A 
ATOM      6  C7  UNL d   1       0.369  -0.751  -1.312  0.00  0.00     0.076 C 
ATOM      7  C8  UNL d   1       0.442  -0.128   1.121  0.00  0.00     0.001 A 
ENDROOT
BRANCH   1   8
ATOM      8  C1  UNL d   1       0.646   0.455   3.570  0.00  0.00     0.053 C 
ATOM      9  C   UNL d   1       2.034  -0.146   3.418  0.00  0.00     0.018 C 
ENDBRANCH   1   8
TORSDOF 1
ENDMDL
