MODEL 1
REMARK minimizedAffinity -4.59705639
REMARK minimizedRMSD -1
REMARK  1 active torsions:
REMARK  status: ('A' for Active; 'I' for Inactive)
REMARK    1  A    between atoms: C1_2  and  C2_3 
ROOT
ATOM      1  C2  UNL d   1      -0.082   0.505   2.240  0.00  0.00    -0.073 A 
ATOM      2  C3  UNL d   1      -1.456   0.766   2.278  0.00  0.00    -0.002 A 
ATOM      3  C4  UNL d   1      -2.207   0.765   1.102  0.00  0.00     0.004 A 
ATOM      4  C5  UNL d   1      -1.594   0.496  -0.122  0.00  0.00    -0.004 A 
ATOM      5  C6  UNL d   1      -0.224   0.222  -0.179  0.00  0.00    -0.075 A 
ATOM      6  C7  UNL d   1       0.451  -0.067  -1.488  0.00  0.00     0.076 C 
ATOM      7  C8  UNL d   1       0.524   0.228   1.006  0.00  0.00     0.001 A 
ENDROOT
BRANCH   1   8
ATOM      8  C1  UNL d   1       0.732   0.500   3.508  0.00  0.00     0.053 C 
ATOM      9  C   UNL d   1       1.881  -0.494   3.444  0.00  0.00     0.018 C 
ENDBRANCH   1   8
TORSDOF 1
ENDMDL
