MODEL 1
REMARK minimizedAffinity -0.0138254622
REMARK minimizedRMSD -1
REMARK  1 active torsions:
REMARK  status: ('A' for Active; 'I' for Inactive)
REMARK    1  A    between atoms: C1_2  and  C2_3 
ROOT
ATOM      1  C2  UNL d   1      -1.027   0.330   1.320  0.00  0.00    -0.073 A 
ATOM      2  C3  UNL d   1      -1.577  -0.092   0.104  0.00  0.00    -0.002 A 
ATOM      3  C4  UNL d   1      -0.791  -0.770  -0.828  0.00  0.00     0.004 A 
ATOM      4  C5  UNL d   1       0.550  -1.040  -0.552  0.00  0.00    -0.004 A 
ATOM      5  C6  UNL d   1       1.115  -0.637   0.662  0.00  0.00    -0.075 A 
ATOM      6  C7  UNL d   1       2.555  -0.918   0.974  0.00  0.00     0.076 C 
ATOM      7  C8  UNL d   1       0.319   0.046   1.592  0.00  0.00     0.001 A 
ENDROOT
BRANCH   1   8
ATOM      8  C1  UNL d   1      -1.874   1.057   2.332  0.00  0.00     0.053 C 
ATOM      9  C   UNL d   1      -1.311   0.935   3.739  0.00  0.00     0.018 C 
ENDBRANCH   1   8
TORSDOF 1
ENDMDL
