MODEL 1
REMARK minimizedAffinity -5.36918831
REMARK minimizedRMSD -1
REMARK  1 active torsions:
REMARK  status: ('A' for Active; 'I' for Inactive)
REMARK    1  A    between atoms: C1_2  and  C2_3 
ROOT
ATOM      1  C2  UNL d   1      -0.483   0.140   1.133  0.00  0.00    -0.073 A 
ATOM      2  C3  UNL d   1      -1.455   0.600   2.028  0.00  0.00    -0.002 A 
ATOM      3  C4  UNL d   1      -1.100   0.971   3.325  0.00  0.00     0.004 A 
ATOM      4  C5  UNL d   1       0.230   0.894   3.738  0.00  0.00    -0.004 A 
ATOM      5  C6  UNL d   1       1.219   0.448   2.854  0.00  0.00    -0.075 A 
ATOM      6  C7  UNL d   1       2.653   0.357   3.284  0.00  0.00     0.076 C 
ATOM      7  C8  UNL d   1       0.853   0.074   1.554  0.00  0.00     0.001 A 
ENDROOT
BRANCH   1   8
ATOM      8  C1  UNL d   1      -0.861  -0.257  -0.271  0.00  0.00     0.053 C 
ATOM      9  C   UNL d   1       0.356  -0.388  -1.174  0.00  0.00     0.018 C 
ENDBRANCH   1   8
TORSDOF 1
ENDMDL
