MODEL 1
REMARK minimizedAffinity -6.42721939
REMARK minimizedRMSD -1
REMARK  1 active torsions:
REMARK  status: ('A' for Active; 'I' for Inactive)
REMARK    1  A    between atoms: C1_2  and  C2_3 
ROOT
ATOM      1  C2  UNL d   1      -0.196   0.518   2.118  0.00  0.00    -0.073 A 
ATOM      2  C3  UNL d   1      -1.539   0.912   2.113  0.00  0.00    -0.002 A 
ATOM      3  C4  UNL d   1      -2.272   0.903   0.925  0.00  0.00     0.004 A 
ATOM      4  C5  UNL d   1      -1.673   0.495  -0.266  0.00  0.00    -0.004 A 
ATOM      5  C6  UNL d   1      -0.336   0.086  -0.280  0.00  0.00    -0.075 A 
ATOM      6  C7  UNL d   1       0.323  -0.355  -1.554  0.00  0.00     0.076 C 
ATOM      7  C8  UNL d   1       0.394   0.100   0.916  0.00  0.00     0.001 A 
ENDROOT
BRANCH   1   8
ATOM      8  C1  UNL d   1       0.598   0.519   3.398  0.00  0.00     0.053 C 
ATOM      9  C   UNL d   1       1.874  -0.298   3.279  0.00  0.00     0.018 C 
ENDBRANCH   1   8
TORSDOF 1
ENDMDL
