MODEL 1
REMARK minimizedAffinity -4.88707161
REMARK minimizedRMSD -1
REMARK  1 active torsions:
REMARK  status: ('A' for Active; 'I' for Inactive)
REMARK    1  A    between atoms: C1_2  and  C2_3 
ROOT
ATOM      1  C2  UNL d   1       0.195   0.262   2.124  0.00  0.00    -0.073 A 
ATOM      2  C3  UNL d   1      -1.114   0.739   2.251  0.00  0.00    -0.002 A 
ATOM      3  C4  UNL d   1      -1.978   0.727   1.155  0.00  0.00     0.004 A 
ATOM      4  C5  UNL d   1      -1.545   0.233  -0.075  0.00  0.00    -0.004 A 
ATOM      5  C6  UNL d   1      -0.243  -0.258  -0.219  0.00  0.00    -0.075 A 
ATOM      6  C7  UNL d   1       0.239  -0.790  -1.536  0.00  0.00     0.076 C 
ATOM      7  C8  UNL d   1       0.619  -0.240   0.885  0.00  0.00     0.001 A 
ENDROOT
BRANCH   1   8
ATOM      8  C1  UNL d   1       1.130   0.267   3.306  0.00  0.00     0.053 C 
ATOM      9  C   UNL d   1       2.473  -0.364   2.974  0.00  0.00     0.018 C 
ENDBRANCH   1   8
TORSDOF 1
ENDMDL
