MODEL 1
REMARK minimizedAffinity -5.53841162
REMARK minimizedRMSD -1
REMARK  1 active torsions:
REMARK  status: ('A' for Active; 'I' for Inactive)
REMARK    1  A    between atoms: C1_2  and  C2_3 
ROOT
ATOM      1  C2  UNL d   1       0.139  -0.419  -0.132  0.00  0.00    -0.073 A 
ATOM      2  C3  UNL d   1      -1.166   0.083  -0.078  0.00  0.00    -0.002 A 
ATOM      3  C4  UNL d   1      -1.673   0.603   1.114  0.00  0.00     0.004 A 
ATOM      4  C5  UNL d   1      -0.879   0.633   2.260  0.00  0.00    -0.004 A 
ATOM      5  C6  UNL d   1       0.432   0.147   2.223  0.00  0.00    -0.075 A 
ATOM      6  C7  UNL d   1       1.298   0.169   3.449  0.00  0.00     0.076 C 
ATOM      7  C8  UNL d   1       0.933  -0.376   1.024  0.00  0.00     0.001 A 
ENDROOT
BRANCH   1   8
ATOM      8  C1  UNL d   1       0.693  -0.975  -1.418  0.00  0.00     0.053 C 
ATOM      9  C   UNL d   1       0.356  -0.095  -2.611  0.00  0.00     0.018 C 
ENDBRANCH   1   8
TORSDOF 1
ENDMDL
