MODEL 1
REMARK minimizedAffinity -3.90669489
REMARK minimizedRMSD -1
REMARK  2 active torsions:
REMARK  status: ('A' for Active; 'I' for Inactive)
REMARK    1  A    between atoms: C2'_3  and  C1'_4 
REMARK    2  A    between atoms: C1'_4  and  C1_5 
ROOT
ATOM      1  C1  I4B d   1       1.068   1.030   1.061  0.00  0.00    -0.075 A 
ATOM      2  C2  I4B d   1       0.972   0.476   2.313  0.00  0.00     0.003 A 
ATOM      3  C3  I4B d   1      -0.094  -0.401   2.625  0.00  0.00     0.002 A 
ATOM      4  C4  I4B d   1      -1.064  -0.656   1.677  0.00  0.00    -0.004 A 
ATOM      5  C5  I4B d   1      -0.953  -0.111   0.401  0.00  0.00     0.002 A 
ATOM      6  C6  I4B d   1       0.126   0.727   0.086  0.00  0.00     0.003 A 
ENDROOT
BRANCH   1   7
ATOM      7  C1' I4B d   1       2.189   1.979   0.776  0.00  0.00     0.060 C 
BRANCH   7   8
ATOM      8  C2' I4B d   1       1.769   2.865  -0.379  0.00  0.00    -0.013 C 
ATOM      9  C4' I4B d   1       2.273   4.272  -0.197  0.00  0.00     0.013 C 
ATOM     10  C3' I4B d   1       2.298   2.259  -1.644  0.00  0.00     0.013 C 
ENDBRANCH   7   8
ENDBRANCH   1   7
TORSDOF 2
ENDMDL
