MODEL 1
REMARK minimizedAffinity -2.33696008
REMARK minimizedRMSD -1
REMARK  2 active torsions:
REMARK  status: ('A' for Active; 'I' for Inactive)
REMARK    1  A    between atoms: C2'_3  and  C1'_4 
REMARK    2  A    between atoms: C1'_4  and  C1_5 
ROOT
ATOM      1  C1  I4B d   1      -0.014   0.263   0.588  0.00  0.00    -0.075 A 
ATOM      2  C2  I4B d   1      -1.352  -0.014   0.722  0.00  0.00     0.003 A 
ATOM      3  C3  I4B d   1      -2.006   0.208   1.958  0.00  0.00     0.002 A 
ATOM      4  C4  I4B d   1      -1.278   0.658   3.041  0.00  0.00    -0.004 A 
ATOM      5  C5  I4B d   1       0.073   0.960   2.897  0.00  0.00     0.002 A 
ATOM      6  C6  I4B d   1       0.707   0.774   1.660  0.00  0.00     0.003 A 
ENDROOT
BRANCH   1   7
ATOM      7  C1' I4B d   1       0.653  -0.015  -0.722  0.00  0.00     0.060 C 
BRANCH   7   8
ATOM      8  C2' I4B d   1       0.332  -1.443  -1.115  0.00  0.00    -0.013 C 
ATOM      9  C4' I4B d   1       0.825  -1.749  -2.504  0.00  0.00     0.013 C 
ATOM     10  C3' I4B d   1       0.962  -2.354  -0.103  0.00  0.00     0.013 C 
ENDBRANCH   7   8
ENDBRANCH   1   7
TORSDOF 2
ENDMDL
