MODEL 1
REMARK minimizedAffinity -3.95372415
REMARK minimizedRMSD -1
REMARK  2 active torsions:
REMARK  status: ('A' for Active; 'I' for Inactive)
REMARK    1  A    between atoms: C2'_3  and  C1'_4 
REMARK    2  A    between atoms: C1'_4  and  C1_5 
ROOT
ATOM      1  C1  I4B d   1       1.073   0.620   1.324  0.00  0.00    -0.075 A 
ATOM      2  C2  I4B d   1       0.292  -0.054   0.418  0.00  0.00     0.003 A 
ATOM      3  C3  I4B d   1      -0.887  -0.712   0.844  0.00  0.00     0.002 A 
ATOM      4  C4  I4B d   1      -1.219  -0.712   2.183  0.00  0.00    -0.004 A 
ATOM      5  C5  I4B d   1      -0.439  -0.009   3.096  0.00  0.00     0.002 A 
ATOM      6  C6  I4B d   1       0.708   0.672   2.662  0.00  0.00     0.003 A 
ENDROOT
BRANCH   1   7
ATOM      7  C1' I4B d   1       2.329   1.275   0.845  0.00  0.00     0.060 C 
BRANCH   7   8
ATOM      8  C2' I4B d   1       1.955   2.608   0.227  0.00  0.00    -0.013 C 
ATOM      9  C4' I4B d   1       3.067   3.611   0.379  0.00  0.00     0.013 C 
ATOM     10  C3' I4B d   1       1.630   2.373  -1.218  0.00  0.00     0.013 C 
ENDBRANCH   7   8
ENDBRANCH   1   7
TORSDOF 2
ENDMDL
