MODEL 1
REMARK minimizedAffinity 6.4364872
REMARK minimizedRMSD -1
REMARK  2 active torsions:
REMARK  status: ('A' for Active; 'I' for Inactive)
REMARK    1  A    between atoms: C2'_3  and  C1'_4 
REMARK    2  A    between atoms: C1'_4  and  C1_5 
ROOT
ATOM      1  C1  I4B d   1      -4.135  -3.525   1.014  0.00  0.00    -0.075 A 
ATOM      2  C2  I4B d   1      -5.356  -3.725   1.609  0.00  0.00     0.003 A 
ATOM      3  C3  I4B d   1      -5.992  -4.988   1.524  0.00  0.00     0.002 A 
ATOM      4  C4  I4B d   1      -5.399  -6.000   0.798  0.00  0.00    -0.004 A 
ATOM      5  C5  I4B d   1      -4.150  -5.802   0.214  0.00  0.00     0.002 A 
ATOM      6  C6  I4B d   1      -3.509  -4.561   0.333  0.00  0.00     0.003 A 
ENDROOT
BRANCH   1   7
ATOM      7  C1' I4B d   1      -3.508  -2.169   1.095  0.00  0.00     0.060 C 
BRANCH   7   8
ATOM      8  C2' I4B d   1      -2.307  -2.155   0.172  0.00  0.00    -0.013 C 
ATOM      9  C4' I4B d   1      -2.467  -1.126  -0.916  0.00  0.00     0.013 C 
ATOM     10  C3' I4B d   1      -1.088  -1.880   1.002  0.00  0.00     0.013 C 
ENDBRANCH   7   8
ENDBRANCH   1   7
TORSDOF 2
ENDMDL
