MODEL 1
REMARK minimizedAffinity 4.71991301
REMARK minimizedRMSD -1
REMARK  2 active torsions:
REMARK  status: ('A' for Active; 'I' for Inactive)
REMARK    1  A    between atoms: C2'_3  and  C1'_4 
REMARK    2  A    between atoms: C1'_4  and  C1_5 
ROOT
ATOM      1  C1  I4B d   1      -3.659  -4.564   2.781  0.00  0.00    -0.075 A 
ATOM      2  C2  I4B d   1      -2.545  -3.784   2.970  0.00  0.00     0.003 A 
ATOM      3  C3  I4B d   1      -1.816  -3.865   4.181  0.00  0.00     0.002 A 
ATOM      4  C4  I4B d   1      -2.262  -4.695   5.189  0.00  0.00    -0.004 A 
ATOM      5  C5  I4B d   1      -3.378  -5.501   4.987  0.00  0.00     0.002 A 
ATOM      6  C6  I4B d   1      -4.074  -5.445   3.770  0.00  0.00     0.003 A 
ENDROOT
BRANCH   1   7
ATOM      7  C1' I4B d   1      -4.424  -4.429   1.502  0.00  0.00     0.060 C 
BRANCH   7   8
ATOM      8  C2' I4B d   1      -4.595  -5.815   0.913  0.00  0.00    -0.013 C 
ATOM      9  C4' I4B d   1      -5.979  -6.000   0.349  0.00  0.00     0.013 C 
ATOM     10  C3' I4B d   1      -3.549  -6.000  -0.146  0.00  0.00     0.013 C 
ENDBRANCH   7   8
ENDBRANCH   1   7
TORSDOF 2
ENDMDL
