MODEL 1
REMARK minimizedAffinity 4.27380896
REMARK minimizedRMSD -1
REMARK  2 active torsions:
REMARK  status: ('A' for Active; 'I' for Inactive)
REMARK    1  A    between atoms: C2'_3  and  C1'_4 
REMARK    2  A    between atoms: C1'_4  and  C1_5 
ROOT
ATOM      1  C1  I4B d   1      -3.258  -4.980   1.854  0.00  0.00    -0.075 A 
ATOM      2  C2  I4B d   1      -3.846  -5.993   2.571  0.00  0.00     0.003 A 
ATOM      3  C3  I4B d   1      -3.840  -5.961   3.986  0.00  0.00     0.002 A 
ATOM      4  C4  I4B d   1      -3.196  -4.931   4.640  0.00  0.00    -0.004 A 
ATOM      5  C5  I4B d   1      -2.620  -3.893   3.912  0.00  0.00     0.002 A 
ATOM      6  C6  I4B d   1      -2.662  -3.911   2.511  0.00  0.00     0.003 A 
ENDROOT
BRANCH   1   7
ATOM      7  C1' I4B d   1      -3.254  -5.062   0.361  0.00  0.00     0.060 C 
BRANCH   7   8
ATOM      8  C2' I4B d   1      -4.664  -4.795  -0.125  0.00  0.00    -0.013 C 
ATOM      9  C4' I4B d   1      -5.601  -5.900   0.284  0.00  0.00     0.013 C 
ATOM     10  C3' I4B d   1      -5.104  -3.475   0.436  0.00  0.00     0.013 C 
ENDBRANCH   7   8
ENDBRANCH   1   7
TORSDOF 2
ENDMDL
