MODEL 1
REMARK minimizedAffinity 0.924765587
REMARK minimizedRMSD -1
REMARK  2 active torsions:
REMARK  status: ('A' for Active; 'I' for Inactive)
REMARK    1  A    between atoms: C2'_3  and  C1'_4 
REMARK    2  A    between atoms: C1'_4  and  C1_5 
ROOT
ATOM      1  C1  I4B d   1      -2.606   2.147   2.957  0.00  0.00    -0.075 A 
ATOM      2  C2  I4B d   1      -3.784   2.076   2.255  0.00  0.00     0.003 A 
ATOM      3  C3  I4B d   1      -4.992   2.521   2.844  0.00  0.00     0.002 A 
ATOM      4  C4  I4B d   1      -4.986   2.978   4.146  0.00  0.00    -0.004 A 
ATOM      5  C5  I4B d   1      -3.787   3.070   4.848  0.00  0.00     0.002 A 
ATOM      6  C6  I4B d   1      -2.588   2.664   4.246  0.00  0.00     0.003 A 
ENDROOT
BRANCH   1   7
ATOM      7  C1' I4B d   1      -1.354   1.638   2.316  0.00  0.00     0.060 C 
BRANCH   7   8
ATOM      8  C2' I4B d   1      -1.746   0.864   1.074  0.00  0.00    -0.013 C 
ATOM      9  C4' I4B d   1      -0.667   0.931   0.026  0.00  0.00     0.013 C 
ATOM     10  C3' I4B d   1      -2.020  -0.554   1.480  0.00  0.00     0.013 C 
ENDBRANCH   7   8
ENDBRANCH   1   7
TORSDOF 2
ENDMDL
