MODEL 1
REMARK minimizedAffinity -5.08522034
REMARK minimizedRMSD -1
REMARK  2 active torsions:
REMARK  status: ('A' for Active; 'I' for Inactive)
REMARK    1  A    between atoms: C2'_3  and  C1'_4 
REMARK    2  A    between atoms: C1'_4  and  C1_5 
ROOT
ATOM      1  C1  I4B d   1       0.698  -0.212  -0.001  0.00  0.00    -0.075 A 
ATOM      2  C2  I4B d   1       1.410  -0.798  -1.018  0.00  0.00     0.003 A 
ATOM      3  C3  I4B d   1       1.386  -0.239  -2.319  0.00  0.00     0.002 A 
ATOM      4  C4  I4B d   1       0.602   0.869  -2.568  0.00  0.00    -0.004 A 
ATOM      5  C5  I4B d   1      -0.101   1.475  -1.531  0.00  0.00     0.002 A 
ATOM      6  C6  I4B d   1      -0.043   0.938  -0.236  0.00  0.00     0.003 A 
ENDROOT
BRANCH   1   7
ATOM      7  C1' I4B d   1       0.719  -0.848   1.353  0.00  0.00     0.060 C 
BRANCH   7   8
ATOM      8  C2' I4B d   1       0.226   0.174   2.356  0.00  0.00    -0.013 C 
ATOM      9  C4' I4B d   1      -0.846  -0.405   3.242  0.00  0.00     0.013 C 
ATOM     10  C3' I4B d   1       1.402   0.638   3.162  0.00  0.00     0.013 C 
ENDBRANCH   7   8
ENDBRANCH   1   7
TORSDOF 2
ENDMDL
