MODEL 1
REMARK minimizedAffinity -5.20255327
REMARK minimizedRMSD -1
REMARK  2 active torsions:
REMARK  status: ('A' for Active; 'I' for Inactive)
REMARK    1  A    between atoms: C2'_3  and  C1'_4 
REMARK    2  A    between atoms: C1'_4  and  C1_5 
ROOT
ATOM      1  C1  I4B d   1       0.444   0.360   0.295  0.00  0.00    -0.075 A 
ATOM      2  C2  I4B d   1      -0.453  -0.632   0.604  0.00  0.00     0.003 A 
ATOM      3  C3  I4B d   1      -0.782  -0.899   1.955  0.00  0.00     0.002 A 
ATOM      4  C4  I4B d   1      -0.157  -0.189   2.960  0.00  0.00    -0.004 A 
ATOM      5  C5  I4B d   1       0.734   0.832   2.643  0.00  0.00     0.002 A 
ATOM      6  C6  I4B d   1       1.028   1.116   1.302  0.00  0.00     0.003 A 
ENDROOT
BRANCH   1   7
ATOM      7  C1' I4B d   1       0.793   0.593  -1.141  0.00  0.00     0.060 C 
BRANCH   7   8
ATOM      8  C2' I4B d   1       1.058  -0.754  -1.782  0.00  0.00    -0.013 C 
ATOM      9  C4' I4B d   1       0.149  -0.986  -2.960  0.00  0.00     0.013 C 
ATOM     10  C3' I4B d   1       2.500  -0.796  -2.193  0.00  0.00     0.013 C 
ENDBRANCH   7   8
ENDBRANCH   1   7
TORSDOF 2
ENDMDL
