MODEL 1
REMARK minimizedAffinity -4.9117794
REMARK minimizedRMSD -1
REMARK  2 active torsions:
REMARK  status: ('A' for Active; 'I' for Inactive)
REMARK    1  A    between atoms: C2'_3  and  C1'_4 
REMARK    2  A    between atoms: C1'_4  and  C1_5 
ROOT
ATOM      1  C1  I4B d   1       0.480  -0.570   0.087  0.00  0.00    -0.075 A 
ATOM      2  C2  I4B d   1       0.236  -0.608  -1.263  0.00  0.00     0.003 A 
ATOM      3  C3  I4B d   1       1.218  -1.111  -2.151  0.00  0.00     0.002 A 
ATOM      4  C4  I4B d   1       2.440  -1.517  -1.654  0.00  0.00    -0.004 A 
ATOM      5  C5  I4B d   1       2.677  -1.499  -0.283  0.00  0.00     0.002 A 
ATOM      6  C6  I4B d   1       1.687  -1.034   0.595  0.00  0.00     0.003 A 
ENDROOT
BRANCH   1   7
ATOM      7  C1' I4B d   1      -0.565  -0.001   0.993  0.00  0.00     0.060 C 
BRANCH   7   8
ATOM      8  C2' I4B d   1       0.002   0.033   2.398  0.00  0.00    -0.013 C 
ATOM      9  C4' I4B d   1       0.322   1.442   2.822  0.00  0.00     0.013 C 
ATOM     10  C3' I4B d   1      -1.002  -0.594   3.318  0.00  0.00     0.013 C 
ENDBRANCH   7   8
ENDBRANCH   1   7
TORSDOF 2
ENDMDL
