MODEL 1
REMARK minimizedAffinity -2.53497553
REMARK minimizedRMSD -1
REMARK  2 active torsions:
REMARK  status: ('A' for Active; 'I' for Inactive)
REMARK    1  A    between atoms: C2'_3  and  C1'_4 
REMARK    2  A    between atoms: C1'_4  and  C1_5 
ROOT
ATOM      1  C1  I4B d   1       0.958   0.075  -0.977  0.00  0.00    -0.075 A 
ATOM      2  C2  I4B d   1       2.034  -0.772  -1.074  0.00  0.00     0.003 A 
ATOM      3  C3  I4B d   1       2.191  -1.597  -2.214  0.00  0.00     0.002 A 
ATOM      4  C4  I4B d   1       1.228  -1.581  -3.202  0.00  0.00    -0.004 A 
ATOM      5  C5  I4B d   1       0.150  -0.705  -3.113  0.00  0.00     0.002 A 
ATOM      6  C6  I4B d   1       0.020   0.137  -1.999  0.00  0.00     0.003 A 
ENDROOT
BRANCH   1   7
ATOM      7  C1' I4B d   1       0.807   0.909   0.256  0.00  0.00     0.060 C 
BRANCH   7   8
ATOM      8  C2' I4B d   1       0.309   0.010   1.369  0.00  0.00    -0.013 C 
ATOM      9  C4' I4B d   1       1.289  -0.036   2.512  0.00  0.00     0.013 C 
ATOM     10  C3' I4B d   1      -1.025   0.527   1.820  0.00  0.00     0.013 C 
ENDBRANCH   7   8
ENDBRANCH   1   7
TORSDOF 2
ENDMDL
