MODEL 1
REMARK minimizedAffinity -4.13432646
REMARK minimizedRMSD -1
REMARK  2 active torsions:
REMARK  status: ('A' for Active; 'I' for Inactive)
REMARK    1  A    between atoms: C2'_3  and  C1'_4 
REMARK    2  A    between atoms: C1'_4  and  C1_5 
ROOT
ATOM      1  C1  I4B d   1       0.217   0.044  -0.021  0.00  0.00    -0.075 A 
ATOM      2  C2  I4B d   1      -0.807  -0.669   0.551  0.00  0.00     0.003 A 
ATOM      3  C3  I4B d   1      -0.988  -0.653   1.955  0.00  0.00     0.002 A 
ATOM      4  C4  I4B d   1      -0.098   0.042   2.748  0.00  0.00    -0.004 A 
ATOM      5  C5  I4B d   1       0.926   0.782   2.164  0.00  0.00     0.002 A 
ATOM      6  C6  I4B d   1       1.078   0.793   0.770  0.00  0.00     0.003 A 
ENDROOT
BRANCH   1   7
ATOM      7  C1' I4B d   1       0.400  -0.022  -1.504  0.00  0.00     0.060 C 
BRANCH   7   8
ATOM      8  C2' I4B d   1       1.033  -1.357  -1.839  0.00  0.00    -0.013 C 
ATOM      9  C4' I4B d   1       0.698  -1.783  -3.244  0.00  0.00     0.013 C 
ATOM     10  C3' I4B d   1       2.515  -1.227  -1.651  0.00  0.00     0.013 C 
ENDBRANCH   7   8
ENDBRANCH   1   7
TORSDOF 2
ENDMDL
