MODEL 1
REMARK minimizedAffinity 13.4941645
REMARK minimizedRMSD -1
REMARK  2 active torsions:
REMARK  status: ('A' for Active; 'I' for Inactive)
REMARK    1  A    between atoms: C2'_3  and  C1'_4 
REMARK    2  A    between atoms: C1'_4  and  C1_5 
ROOT
ATOM      1  C1  I4B d   1      -2.808  -5.943   0.068  0.00  0.00    -0.075 A 
ATOM      2  C2  I4B d   1      -2.230  -5.921   1.313  0.00  0.00     0.003 A 
ATOM      3  C3  I4B d   1      -0.820  -5.924   1.445  0.00  0.00     0.002 A 
ATOM      4  C4  I4B d   1      -0.032  -5.999   0.315  0.00  0.00    -0.004 A 
ATOM      5  C5  I4B d   1      -0.619  -5.998  -0.947  0.00  0.00     0.002 A 
ATOM      6  C6  I4B d   1      -2.015  -5.957  -1.072  0.00  0.00     0.003 A 
ENDROOT
BRANCH   1   7
ATOM      7  C1' I4B d   1      -4.300  -5.972  -0.034  0.00  0.00     0.060 C 
BRANCH   7   8
ATOM      8  C2' I4B d   1      -4.848  -4.849   0.823  0.00  0.00    -0.013 C 
ATOM      9  C4' I4B d   1      -5.280  -3.680  -0.022  0.00  0.00     0.013 C 
ATOM     10  C3' I4B d   1      -5.996  -5.394   1.620  0.00  0.00     0.013 C 
ENDBRANCH   7   8
ENDBRANCH   1   7
TORSDOF 2
ENDMDL
