MODEL 1
REMARK minimizedAffinity 18.1696205
REMARK minimizedRMSD -1
REMARK  2 active torsions:
REMARK  status: ('A' for Active; 'I' for Inactive)
REMARK    1  A    between atoms: C2'_3  and  C1'_4 
REMARK    2  A    between atoms: C1'_4  and  C1_5 
ROOT
ATOM      1  C1  I4B d   1       2.295  -0.566  -2.205  0.00  0.00    -0.075 A 
ATOM      2  C2  I4B d   1       3.323  -1.394  -2.581  0.00  0.00     0.003 A 
ATOM      3  C3  I4B d   1       4.498  -0.855  -3.158  0.00  0.00     0.002 A 
ATOM      4  C4  I4B d   1       4.582   0.504  -3.385  0.00  0.00    -0.004 A 
ATOM      5  C5  I4B d   1       3.549   1.345  -2.981  0.00  0.00     0.002 A 
ATOM      6  C6  I4B d   1       2.403   0.808  -2.377  0.00  0.00     0.003 A 
ENDROOT
BRANCH   1   7
ATOM      7  C1' I4B d   1       1.054  -1.172  -1.630  0.00  0.00     0.060 C 
BRANCH   7   8
ATOM      8  C2' I4B d   1      -0.078  -0.935  -2.608  0.00  0.00    -0.013 C 
ATOM      9  C4' I4B d   1      -0.270  -2.121  -3.517  0.00  0.00     0.013 C 
ATOM     10  C3' I4B d   1      -1.321  -0.652  -1.818  0.00  0.00     0.013 C 
ENDBRANCH   7   8
ENDBRANCH   1   7
TORSDOF 2
ENDMDL
