MODEL 1
REMARK minimizedAffinity -0.817189515
REMARK minimizedRMSD -1
REMARK  2 active torsions:
REMARK  status: ('A' for Active; 'I' for Inactive)
REMARK    1  A    between atoms: C2'_3  and  C1'_4 
REMARK    2  A    between atoms: C1'_4  and  C1_5 
ROOT
ATOM      1  C1  I4B d   1       2.192  -0.861  -3.014  0.00  0.00    -0.075 A 
ATOM      2  C2  I4B d   1       2.288   0.289  -2.270  0.00  0.00     0.003 A 
ATOM      3  C3  I4B d   1       3.432   1.116  -2.382  0.00  0.00     0.002 A 
ATOM      4  C4  I4B d   1       4.471   0.732  -3.205  0.00  0.00    -0.004 A 
ATOM      5  C5  I4B d   1       4.362  -0.422  -3.975  0.00  0.00     0.002 A 
ATOM      6  C6  I4B d   1       3.210  -1.218  -3.888  0.00  0.00     0.003 A 
ENDROOT
BRANCH   1   7
ATOM      7  C1' I4B d   1       0.984  -1.728  -2.847  0.00  0.00     0.060 C 
BRANCH   7   8
ATOM      8  C2' I4B d   1       0.700  -2.394  -4.178  0.00  0.00    -0.013 C 
ATOM      9  C4' I4B d   1       0.820  -3.892  -4.075  0.00  0.00     0.013 C 
ATOM     10  C3' I4B d   1      -0.676  -1.989  -4.614  0.00  0.00     0.013 C 
ENDBRANCH   7   8
ENDBRANCH   1   7
TORSDOF 2
ENDMDL
