MODEL 1
REMARK minimizedAffinity -4.60831785
REMARK minimizedRMSD -1
REMARK  2 active torsions:
REMARK  status: ('A' for Active; 'I' for Inactive)
REMARK    1  A    between atoms: C1_2  and  C2_3 
REMARK    2  A    between atoms: C2_3  and  C3_4 
ROOT
ATOM      1  C3  UNL d   1       0.017   1.015   0.995  0.00  0.00    -0.075 A 
ATOM      2  C4  UNL d   1       1.392   0.748   1.070  0.00  0.00     0.002 A 
ATOM      3  C5  UNL d   1       2.281   1.727   1.514  0.00  0.00     0.002 A 
ATOM      4  C6  UNL d   1       1.809   2.987   1.878  0.00  0.00    -0.004 A 
ATOM      5  C7  UNL d   1       0.447   3.268   1.792  0.00  0.00     0.002 A 
ATOM      6  C8  UNL d   1      -0.445   2.289   1.352  0.00  0.00     0.002 A 
ENDROOT
BRANCH   1   7
ATOM      7  C2  UNL d   1      -0.953  -0.050   0.543  0.00  0.00     0.056 C 
BRANCH   7   8
ATOM      8  C1  UNL d   1      -0.321  -1.140  -0.329  0.00  0.00     0.007 C 
ATOM      9  C   UNL d   1      -1.346  -1.959  -1.102  0.00  0.00     0.009 C 
ENDBRANCH   7   8
ENDBRANCH   1   7
TORSDOF 2
ENDMDL
