MODEL 1
REMARK minimizedAffinity -4.72921038
REMARK minimizedRMSD -1
REMARK  2 active torsions:
REMARK  status: ('A' for Active; 'I' for Inactive)
REMARK    1  A    between atoms: C1_2  and  C2_3 
REMARK    2  A    between atoms: C2_3  and  C3_4 
ROOT
ATOM      1  C3  UNL d   1       0.835   0.828   0.738  0.00  0.00    -0.075 A 
ATOM      2  C4  UNL d   1       0.849   2.093   1.343  0.00  0.00     0.002 A 
ATOM      3  C5  UNL d   1       1.914   2.969   1.129  0.00  0.00     0.002 A 
ATOM      4  C6  UNL d   1       2.980   2.589   0.318  0.00  0.00    -0.004 A 
ATOM      5  C7  UNL d   1       2.985   1.328  -0.275  0.00  0.00     0.002 A 
ATOM      6  C8  UNL d   1       1.919   0.451  -0.066  0.00  0.00     0.002 A 
ENDROOT
BRANCH   1   7
ATOM      7  C2  UNL d   1      -0.328  -0.113   0.942  0.00  0.00     0.056 C 
BRANCH   7   8
ATOM      8  C1  UNL d   1      -0.271  -1.372   0.070  0.00  0.00     0.007 C 
ATOM      9  C   UNL d   1      -1.175  -1.297  -1.153  0.00  0.00     0.009 C 
ENDBRANCH   7   8
ENDBRANCH   1   7
TORSDOF 2
ENDMDL
