MODEL 1
REMARK minimizedAffinity -5.08710337
REMARK minimizedRMSD -1
REMARK  2 active torsions:
REMARK  status: ('A' for Active; 'I' for Inactive)
REMARK    1  A    between atoms: C1_2  and  C2_3 
REMARK    2  A    between atoms: C2_3  and  C3_4 
ROOT
ATOM      1  C3  UNL d   1       0.842   0.791   0.397  0.00  0.00    -0.075 A 
ATOM      2  C4  UNL d   1       2.050   0.473  -0.241  0.00  0.00     0.002 A 
ATOM      3  C5  UNL d   1       3.206   1.208   0.023  0.00  0.00     0.002 A 
ATOM      4  C6  UNL d   1       3.167   2.275   0.918  0.00  0.00    -0.004 A 
ATOM      5  C7  UNL d   1       1.969   2.610   1.545  0.00  0.00     0.002 A 
ATOM      6  C8  UNL d   1       0.812   1.873   1.286  0.00  0.00     0.002 A 
ENDROOT
BRANCH   1   7
ATOM      7  C2  UNL d   1      -0.405  -0.020   0.138  0.00  0.00     0.056 C 
BRANCH   7   8
ATOM      8  C1  UNL d   1      -0.139  -1.388  -0.499  0.00  0.00     0.007 C 
ATOM      9  C   UNL d   1      -1.159  -1.761  -1.567  0.00  0.00     0.009 C 
ENDBRANCH   7   8
ENDBRANCH   1   7
TORSDOF 2
ENDMDL
