MODEL 1
REMARK minimizedAffinity -3.65518641
REMARK minimizedRMSD -1
REMARK  2 active torsions:
REMARK  status: ('A' for Active; 'I' for Inactive)
REMARK    1  A    between atoms: C1_2  and  C2_3 
REMARK    2  A    between atoms: C2_3  and  C3_4 
ROOT
ATOM      1  C3  UNL d   1      -0.507   0.269   0.446  0.00  0.00    -0.075 A 
ATOM      2  C4  UNL d   1      -0.493   0.405   1.841  0.00  0.00     0.002 A 
ATOM      3  C5  UNL d   1       0.383   1.299   2.457  0.00  0.00     0.002 A 
ATOM      4  C6  UNL d   1       1.262   2.059   1.689  0.00  0.00    -0.004 A 
ATOM      5  C7  UNL d   1       1.269   1.919   0.302  0.00  0.00     0.002 A 
ATOM      6  C8  UNL d   1       0.390   1.029  -0.317  0.00  0.00     0.002 A 
ENDROOT
BRANCH   1   7
ATOM      7  C2  UNL d   1      -1.473  -0.676  -0.229  0.00  0.00     0.056 C 
BRANCH   7   8
ATOM      8  C1  UNL d   1      -1.642  -0.426  -1.732  0.00  0.00     0.007 C 
ATOM      9  C   UNL d   1      -2.541  -1.450  -2.413  0.00  0.00     0.009 C 
ENDBRANCH   7   8
ENDBRANCH   1   7
TORSDOF 2
ENDMDL
