MODEL 1
REMARK minimizedAffinity -3.8733747
REMARK minimizedRMSD -1
REMARK  2 active torsions:
REMARK  status: ('A' for Active; 'I' for Inactive)
REMARK    1  A    between atoms: C1_2  and  C2_3 
REMARK    2  A    between atoms: C2_3  and  C3_4 
ROOT
ATOM      1  C3  UNL d   1      -0.623  -0.698  -0.140  0.00  0.00    -0.075 A 
ATOM      2  C4  UNL d   1      -1.528  -0.256   0.836  0.00  0.00     0.002 A 
ATOM      3  C5  UNL d   1      -1.311   0.946   1.509  0.00  0.00     0.002 A 
ATOM      4  C6  UNL d   1      -0.185   1.716   1.223  0.00  0.00    -0.004 A 
ATOM      5  C7  UNL d   1       0.728   1.278   0.267  0.00  0.00     0.002 A 
ATOM      6  C8  UNL d   1       0.512   0.077  -0.411  0.00  0.00     0.002 A 
ENDROOT
BRANCH   1   7
ATOM      7  C2  UNL d   1      -0.867  -1.984  -0.893  0.00  0.00     0.056 C 
BRANCH   7   8
ATOM      8  C1  UNL d   1      -2.183  -2.008  -1.678  0.00  0.00     0.007 C 
ATOM      9  C   UNL d   1      -2.048  -1.464  -3.094  0.00  0.00     0.009 C 
ENDBRANCH   7   8
ENDBRANCH   1   7
TORSDOF 2
ENDMDL
