MODEL 1
REMARK minimizedAffinity -5.49937105
REMARK minimizedRMSD -1
REMARK  2 active torsions:
REMARK  status: ('A' for Active; 'I' for Inactive)
REMARK    1  A    between atoms: C1_2  and  C2_3 
REMARK    2  A    between atoms: C2_3  and  C3_4 
ROOT
ATOM      1  C3  UNL d   1       0.072   0.043   0.030  0.00  0.00    -0.075 A 
ATOM      2  C4  UNL d   1       1.150   0.799  -0.453  0.00  0.00     0.002 A 
ATOM      3  C5  UNL d   1       1.661   1.860   0.294  0.00  0.00     0.002 A 
ATOM      4  C6  UNL d   1       1.095   2.186   1.525  0.00  0.00    -0.004 A 
ATOM      5  C7  UNL d   1       0.013   1.453   2.006  0.00  0.00     0.002 A 
ATOM      6  C8  UNL d   1      -0.497   0.387   1.263  0.00  0.00     0.002 A 
ENDROOT
BRANCH   1   7
ATOM      7  C2  UNL d   1      -0.467  -1.126  -0.760  0.00  0.00     0.056 C 
BRANCH   7   8
ATOM      8  C1  UNL d   1      -1.612  -0.762  -1.711  0.00  0.00     0.007 C 
ATOM      9  C   UNL d   1      -1.655  -1.632  -2.960  0.00  0.00     0.009 C 
ENDBRANCH   7   8
ENDBRANCH   1   7
TORSDOF 2
ENDMDL
