MODEL 1
REMARK minimizedAffinity -4.16549444
REMARK minimizedRMSD -1
REMARK  2 active torsions:
REMARK  status: ('A' for Active; 'I' for Inactive)
REMARK    1  A    between atoms: C1_2  and  C2_3 
REMARK    2  A    between atoms: C2_3  and  C3_4 
ROOT
ATOM      1  C3  UNL d   1      -0.362  -0.166   0.237  0.00  0.00    -0.075 A 
ATOM      2  C4  UNL d   1      -0.785   0.418   1.439  0.00  0.00     0.002 A 
ATOM      3  C5  UNL d   1      -0.119   1.529   1.960  0.00  0.00     0.002 A 
ATOM      4  C6  UNL d   1       0.981   2.062   1.291  0.00  0.00    -0.004 A 
ATOM      5  C7  UNL d   1       1.420   1.479   0.105  0.00  0.00     0.002 A 
ATOM      6  C8  UNL d   1       0.753   0.370  -0.421  0.00  0.00     0.002 A 
ENDROOT
BRANCH   1   7
ATOM      7  C2  UNL d   1      -1.095  -1.350  -0.347  0.00  0.00     0.056 C 
BRANCH   7   8
ATOM      8  C1  UNL d   1      -1.506  -1.169  -1.812  0.00  0.00     0.007 C 
ATOM      9  C   UNL d   1      -2.901  -1.699  -2.114  0.00  0.00     0.009 C 
ENDBRANCH   7   8
ENDBRANCH   1   7
TORSDOF 2
ENDMDL
