MODEL 1
REMARK minimizedAffinity -6.04511642
REMARK minimizedRMSD -1
REMARK  2 active torsions:
REMARK  status: ('A' for Active; 'I' for Inactive)
REMARK    1  A    between atoms: C1_2  and  C2_3 
REMARK    2  A    between atoms: C2_3  and  C3_4 
ROOT
ATOM      1  C3  UNL d   1       0.668   1.068   0.485  0.00  0.00    -0.075 A 
ATOM      2  C4  UNL d   1       1.899   0.548   0.060  0.00  0.00     0.002 A 
ATOM      3  C5  UNL d   1       3.079   1.265   0.263  0.00  0.00     0.002 A 
ATOM      4  C6  UNL d   1       3.042   2.512   0.883  0.00  0.00    -0.004 A 
ATOM      5  C7  UNL d   1       1.823   3.046   1.294  0.00  0.00     0.002 A 
ATOM      6  C8  UNL d   1       0.641   2.329   1.096  0.00  0.00     0.002 A 
ENDROOT
BRANCH   1   7
ATOM      7  C2  UNL d   1      -0.609   0.285   0.294  0.00  0.00     0.056 C 
BRANCH   7   8
ATOM      8  C1  UNL d   1      -0.409  -1.080  -0.373  0.00  0.00     0.007 C 
ATOM      9  C   UNL d   1      -1.234  -1.255  -1.641  0.00  0.00     0.009 C 
ENDBRANCH   7   8
ENDBRANCH   1   7
TORSDOF 2
ENDMDL
