MODEL 1
REMARK minimizedAffinity -5.47384167
REMARK minimizedRMSD -1
REMARK  2 active torsions:
REMARK  status: ('A' for Active; 'I' for Inactive)
REMARK    1  A    between atoms: C1_2  and  C2_3 
REMARK    2  A    between atoms: C2_3  and  C3_4 
ROOT
ATOM      1  C3  UNL d   1       0.020  -0.193   0.015  0.00  0.00    -0.075 A 
ATOM      2  C4  UNL d   1      -0.972   0.030   0.981  0.00  0.00     0.002 A 
ATOM      3  C5  UNL d   1      -0.910   1.145   1.816  0.00  0.00     0.002 A 
ATOM      4  C6  UNL d   1       0.148   2.045   1.704  0.00  0.00    -0.004 A 
ATOM      5  C7  UNL d   1       1.148   1.825   0.759  0.00  0.00     0.002 A 
ATOM      6  C8  UNL d   1       1.086   0.712  -0.081  0.00  0.00     0.002 A 
ENDROOT
BRANCH   1   7
ATOM      7  C2  UNL d   1      -0.058  -1.382  -0.912  0.00  0.00     0.056 C 
BRANCH   7   8
ATOM      8  C1  UNL d   1      -1.444  -1.607  -1.524  0.00  0.00     0.007 C 
ATOM      9  C   UNL d   1      -1.516  -1.239  -3.000  0.00  0.00     0.009 C 
ENDBRANCH   7   8
ENDBRANCH   1   7
TORSDOF 2
ENDMDL
