MODEL 1
REMARK minimizedAffinity -1.81198037
REMARK minimizedRMSD -1
REMARK  2 active torsions:
REMARK  status: ('A' for Active; 'I' for Inactive)
REMARK    1  A    between atoms: C1_2  and  C2_3 
REMARK    2  A    between atoms: C2_3  and  C3_4 
ROOT
ATOM      1  C3  UNL d   1       0.400   1.119   1.490  0.00  0.00    -0.075 A 
ATOM      2  C4  UNL d   1       0.889   2.365   1.072  0.00  0.00     0.002 A 
ATOM      3  C5  UNL d   1       1.870   3.026   1.811  0.00  0.00     0.002 A 
ATOM      4  C6  UNL d   1       2.367   2.456   2.981  0.00  0.00    -0.004 A 
ATOM      5  C7  UNL d   1       1.877   1.226   3.415  0.00  0.00     0.002 A 
ATOM      6  C8  UNL d   1       0.899   0.560   2.675  0.00  0.00     0.002 A 
ENDROOT
BRANCH   1   7
ATOM      7  C2  UNL d   1      -0.640   0.384   0.679  0.00  0.00     0.056 C 
BRANCH   7   8
ATOM      8  C1  UNL d   1      -0.122  -0.156  -0.658  0.00  0.00     0.007 C 
ATOM      9  C   UNL d   1      -0.780  -1.466  -1.072  0.00  0.00     0.009 C 
ENDBRANCH   7   8
ENDBRANCH   1   7
TORSDOF 2
ENDMDL
