MODEL 1
REMARK minimizedAffinity -5.99819136
REMARK minimizedRMSD -1
REMARK  2 active torsions:
REMARK  status: ('A' for Active; 'I' for Inactive)
REMARK    1  A    between atoms: C1_2  and  C2_3 
REMARK    2  A    between atoms: C2_3  and  C3_4 
ROOT
ATOM      1  C3  UNL d   1       0.453   0.286   0.650  0.00  0.00    -0.075 A 
ATOM      2  C4  UNL d   1      -0.071   1.128   1.641  0.00  0.00     0.002 A 
ATOM      3  C5  UNL d   1       0.591   2.303   1.995  0.00  0.00     0.002 A 
ATOM      4  C6  UNL d   1       1.788   2.647   1.370  0.00  0.00    -0.004 A 
ATOM      5  C7  UNL d   1       2.326   1.810   0.395  0.00  0.00     0.002 A 
ATOM      6  C8  UNL d   1       1.663   0.635   0.037  0.00  0.00     0.002 A 
ENDROOT
BRANCH   1   7
ATOM      7  C2  UNL d   1      -0.275  -0.973   0.242  0.00  0.00     0.056 C 
BRANCH   7   8
ATOM      8  C1  UNL d   1      -0.693  -1.002  -1.232  0.00  0.00     0.007 C 
ATOM      9  C   UNL d   1      -1.765  -2.041  -1.532  0.00  0.00     0.009 C 
ENDBRANCH   7   8
ENDBRANCH   1   7
TORSDOF 2
ENDMDL
