MODEL 1
REMARK minimizedAffinity 9.7772398
REMARK minimizedRMSD -1
REMARK  2 active torsions:
REMARK  status: ('A' for Active; 'I' for Inactive)
REMARK    1  A    between atoms: C1_2  and  C2_3 
REMARK    2  A    between atoms: C2_3  and  C3_4 
ROOT
ATOM      1  C3  UNL d   1      -4.540   2.253  -3.806  0.00  0.00    -0.075 A 
ATOM      2  C4  UNL d   1      -3.366   3.020  -3.825  0.00  0.00     0.002 A 
ATOM      3  C5  UNL d   1      -3.415   4.383  -4.117  0.00  0.00     0.002 A 
ATOM      4  C6  UNL d   1      -4.634   4.994  -4.404  0.00  0.00    -0.004 A 
ATOM      5  C7  UNL d   1      -5.804   4.239  -4.405  0.00  0.00     0.002 A 
ATOM      6  C8  UNL d   1      -5.759   2.875  -4.108  0.00  0.00     0.002 A 
ENDROOT
BRANCH   1   7
ATOM      7  C2  UNL d   1      -4.497   0.784  -3.461  0.00  0.00     0.056 C 
BRANCH   7   8
ATOM      8  C1  UNL d   1      -3.890   0.483  -2.087  0.00  0.00     0.007 C 
ATOM      9  C   UNL d   1      -3.334  -0.930  -1.973  0.00  0.00     0.009 C 
ENDBRANCH   7   8
ENDBRANCH   1   7
TORSDOF 2
ENDMDL
