MODEL 1
REMARK minimizedAffinity 6.74546385
REMARK minimizedRMSD -1
REMARK  2 active torsions:
REMARK  status: ('A' for Active; 'I' for Inactive)
REMARK    1  A    between atoms: C1_2  and  C2_3 
REMARK    2  A    between atoms: C2_3  and  C3_4 
ROOT
ATOM      1  C3  UNL d   1      -0.918  -1.552   3.040  0.00  0.00    -0.075 A 
ATOM      2  C4  UNL d   1      -0.044  -0.646   3.659  0.00  0.00     0.002 A 
ATOM      3  C5  UNL d   1       1.338  -0.806   3.547  0.00  0.00     0.002 A 
ATOM      4  C6  UNL d   1       1.862  -1.876   2.826  0.00  0.00    -0.004 A 
ATOM      5  C7  UNL d   1       1.003  -2.791   2.221  0.00  0.00     0.002 A 
ATOM      6  C8  UNL d   1      -0.379  -2.631   2.327  0.00  0.00     0.002 A 
ENDROOT
BRANCH   1   7
ATOM      7  C2  UNL d   1      -2.414  -1.368   3.133  0.00  0.00     0.056 C 
BRANCH   7   8
ATOM      8  C1  UNL d   1      -2.845   0.050   3.523  0.00  0.00     0.007 C 
ATOM      9  C   UNL d   1      -4.269   0.382   3.099  0.00  0.00     0.009 C 
ENDBRANCH   7   8
ENDBRANCH   1   7
TORSDOF 2
ENDMDL
