MODEL 1
REMARK minimizedAffinity 7.83613539
REMARK minimizedRMSD -1
REMARK  2 active torsions:
REMARK  status: ('A' for Active; 'I' for Inactive)
REMARK    1  A    between atoms: C1_2  and  C2_3 
REMARK    2  A    between atoms: C2_3  and  C3_4 
ROOT
ATOM      1  C3  UNL d   1       2.212  -3.197   1.645  0.00  0.00    -0.075 A 
ATOM      2  C4  UNL d   1       2.145  -4.556   1.988  0.00  0.00     0.002 A 
ATOM      3  C5  UNL d   1       3.292  -5.349   1.965  0.00  0.00     0.002 A 
ATOM      4  C6  UNL d   1       4.516  -4.799   1.590  0.00  0.00    -0.004 A 
ATOM      5  C7  UNL d   1       4.591  -3.455   1.232  0.00  0.00     0.002 A 
ATOM      6  C8  UNL d   1       3.445  -2.657   1.258  0.00  0.00     0.002 A 
ENDROOT
BRANCH   1   7
ATOM      7  C2  UNL d   1       0.979  -2.326   1.696  0.00  0.00     0.056 C 
BRANCH   7   8
ATOM      8  C1  UNL d   1       0.601  -1.862   3.107  0.00  0.00     0.007 C 
ATOM      9  C   UNL d   1      -0.862  -2.109   3.448  0.00  0.00     0.009 C 
ENDBRANCH   7   8
ENDBRANCH   1   7
TORSDOF 2
ENDMDL
