MODEL 1
REMARK minimizedAffinity 13.3206625
REMARK minimizedRMSD -1
REMARK  2 active torsions:
REMARK  status: ('A' for Active; 'I' for Inactive)
REMARK    1  A    between atoms: C1_2  and  C2_3 
REMARK    2  A    between atoms: C2_3  and  C3_4 
ROOT
ATOM      1  C3  UNL d   1       0.893  -0.865   0.728  0.00  0.00    -0.075 A 
ATOM      2  C4  UNL d   1      -0.064  -0.960  -0.292  0.00  0.00     0.002 A 
ATOM      3  C5  UNL d   1      -0.085  -0.031  -1.333  0.00  0.00     0.002 A 
ATOM      4  C6  UNL d   1       0.842   1.008  -1.363  0.00  0.00    -0.004 A 
ATOM      5  C7  UNL d   1       1.787   1.122  -0.346  0.00  0.00     0.002 A 
ATOM      6  C8  UNL d   1       1.813   0.192   0.695  0.00  0.00     0.002 A 
ENDROOT
BRANCH   1   7
ATOM      7  C2  UNL d   1       0.940  -1.883   1.841  0.00  0.00     0.056 C 
BRANCH   7   8
ATOM      8  C1  UNL d   1       1.816  -3.103   1.535  0.00  0.00     0.007 C 
ATOM      9  C   UNL d   1       3.184  -3.042   2.201  0.00  0.00     0.009 C 
ENDBRANCH   7   8
ENDBRANCH   1   7
TORSDOF 2
ENDMDL
