MODEL 1
REMARK minimizedAffinity 5.82603931
REMARK minimizedRMSD -1
REMARK  2 active torsions:
REMARK  status: ('A' for Active; 'I' for Inactive)
REMARK    1  A    between atoms: C1_2  and  C2_3 
REMARK    2  A    between atoms: C2_3  and  C3_4 
ROOT
ATOM      1  C3  UNL d   1      -0.527   1.621  -1.905  0.00  0.00    -0.075 A 
ATOM      2  C4  UNL d   1       0.872   1.552  -1.972  0.00  0.00     0.002 A 
ATOM      3  C5  UNL d   1       1.542   0.385  -1.603  0.00  0.00     0.002 A 
ATOM      4  C6  UNL d   1       0.825  -0.721  -1.152  0.00  0.00    -0.004 A 
ATOM      5  C7  UNL d   1      -0.564  -0.657  -1.064  0.00  0.00     0.002 A 
ATOM      6  C8  UNL d   1      -1.238   0.508  -1.438  0.00  0.00     0.002 A 
ENDROOT
BRANCH   1   7
ATOM      7  C2  UNL d   1      -1.260   2.871  -2.331  0.00  0.00     0.056 C 
BRANCH   7   8
ATOM      8  C1  UNL d   1      -2.780   2.792  -2.157  0.00  0.00     0.007 C 
ATOM      9  C   UNL d   1      -3.496   4.080  -2.543  0.00  0.00     0.009 C 
ENDBRANCH   7   8
ENDBRANCH   1   7
TORSDOF 2
ENDMDL
