MODEL 1
REMARK minimizedAffinity 2.783988
REMARK minimizedRMSD -1
REMARK  2 active torsions:
REMARK  status: ('A' for Active; 'I' for Inactive)
REMARK    1  A    between atoms: C1_2  and  C2_3 
REMARK    2  A    between atoms: C2_3  and  C3_4 
ROOT
ATOM      1  C3  UNL d   1      -1.415  -0.947   3.358  0.00  0.00    -0.075 A 
ATOM      2  C4  UNL d   1      -2.779  -0.922   3.033  0.00  0.00     0.002 A 
ATOM      3  C5  UNL d   1      -3.473   0.288   2.981  0.00  0.00     0.002 A 
ATOM      4  C6  UNL d   1      -2.815   1.484   3.261  0.00  0.00    -0.004 A 
ATOM      5  C7  UNL d   1      -1.464   1.469   3.600  0.00  0.00     0.002 A 
ATOM      6  C8  UNL d   1      -0.767   0.260   3.649  0.00  0.00     0.002 A 
ENDROOT
BRANCH   1   7
ATOM      7  C2  UNL d   1      -0.652  -2.250   3.388  0.00  0.00     0.056 C 
BRANCH   7   8
ATOM      8  C1  UNL d   1       0.825  -2.116   3.004  0.00  0.00     0.007 C 
ATOM      9  C   UNL d   1       1.067  -2.205   1.503  0.00  0.00     0.009 C 
ENDBRANCH   7   8
ENDBRANCH   1   7
TORSDOF 2
ENDMDL
