MODEL 1
REMARK minimizedAffinity 4.647223
REMARK minimizedRMSD -1
REMARK  2 active torsions:
REMARK  status: ('A' for Active; 'I' for Inactive)
REMARK    1  A    between atoms: C1_2  and  C2_3 
REMARK    2  A    between atoms: C2_3  and  C3_4 
ROOT
ATOM      1  C3  UNL d   1       2.618  -3.634   1.296  0.00  0.00    -0.075 A 
ATOM      2  C4  UNL d   1       2.013  -4.677   2.012  0.00  0.00     0.002 A 
ATOM      3  C5  UNL d   1       0.790  -4.480   2.653  0.00  0.00     0.002 A 
ATOM      4  C6  UNL d   1       0.163  -3.237   2.597  0.00  0.00    -0.004 A 
ATOM      5  C7  UNL d   1       0.763  -2.189   1.904  0.00  0.00     0.002 A 
ATOM      6  C8  UNL d   1       1.985  -2.384   1.257  0.00  0.00     0.002 A 
ENDROOT
BRANCH   1   7
ATOM      7  C2  UNL d   1       3.927  -3.849   0.575  0.00  0.00     0.056 C 
BRANCH   7   8
ATOM      8  C1  UNL d   1       5.163  -3.473   1.399  0.00  0.00     0.007 C 
ATOM      9  C   UNL d   1       5.619  -2.037   1.176  0.00  0.00     0.009 C 
ENDBRANCH   7   8
ENDBRANCH   1   7
TORSDOF 2
ENDMDL
