MODEL 1
REMARK minimizedAffinity -5.63886118
REMARK minimizedRMSD -1
REMARK  2 active torsions:
REMARK  status: ('A' for Active; 'I' for Inactive)
REMARK    1  A    between atoms: C2'_3  and  C1'_4 
REMARK    2  A    between atoms: C1'_4  and  C1_5 
ROOT
ATOM      1  C1  I4B d   1       0.207  -0.986  -0.846  0.00  0.00    -0.075 A 
ATOM      2  C2  I4B d   1       0.396   0.081  -1.687  0.00  0.00     0.003 A 
ATOM      3  C3  I4B d   1      -0.119   1.356  -1.350  0.00  0.00     0.002 A 
ATOM      4  C4  I4B d   1      -0.857   1.506  -0.193  0.00  0.00    -0.004 A 
ATOM      5  C5  I4B d   1      -1.029   0.428   0.671  0.00  0.00     0.002 A 
ATOM      6  C6  I4B d   1      -0.483  -0.823   0.349  0.00  0.00     0.003 A 
ENDROOT
BRANCH   1   7
ATOM      7  C1' I4B d   1       0.736  -2.325  -1.249  0.00  0.00     0.060 C 
BRANCH   7   8
ATOM      8  C2' I4B d   1      -0.446  -3.241  -1.495  0.00  0.00    -0.013 C 
ATOM      9  C4' I4B d   1      -1.088  -2.956  -2.828  0.00  0.00     0.013 C 
ATOM     10  C3' I4B d   1       0.041  -4.657  -1.419  0.00  0.00     0.013 C 
ENDBRANCH   7   8
ENDBRANCH   1   7
TORSDOF 2
ENDMDL
