MODEL 1
REMARK minimizedAffinity 0.0414659344
REMARK minimizedRMSD -1
REMARK  2 active torsions:
REMARK  status: ('A' for Active; 'I' for Inactive)
REMARK    1  A    between atoms: C2'_3  and  C1'_4 
REMARK    2  A    between atoms: C1'_4  and  C1_5 
ROOT
ATOM      1  C1  I4B d   1       0.325  -1.709  -0.631  0.00  0.00    -0.075 A 
ATOM      2  C2  I4B d   1       1.361  -0.984  -0.096  0.00  0.00     0.003 A 
ATOM      3  C3  I4B d   1       1.099   0.197   0.639  0.00  0.00     0.002 A 
ATOM      4  C4  I4B d   1      -0.201   0.642   0.771  0.00  0.00    -0.004 A 
ATOM      5  C5  I4B d   1      -1.251  -0.107   0.248  0.00  0.00     0.002 A 
ATOM      6  C6  I4B d   1      -0.988  -1.296  -0.447  0.00  0.00     0.003 A 
ENDROOT
BRANCH   1   7
ATOM      7  C1' I4B d   1       0.640  -2.934  -1.430  0.00  0.00     0.060 C 
BRANCH   7   8
ATOM      8  C2' I4B d   1      -0.433  -3.965  -1.146  0.00  0.00    -0.013 C 
ATOM      9  C4' I4B d   1      -1.035  -4.491  -2.422  0.00  0.00     0.013 C 
ATOM     10  C3' I4B d   1       0.187  -5.070  -0.344  0.00  0.00     0.013 C 
ENDBRANCH   7   8
ENDBRANCH   1   7
TORSDOF 2
ENDMDL
