MODEL 1
REMARK minimizedAffinity -3.98884082
REMARK minimizedRMSD -1
REMARK  2 active torsions:
REMARK  status: ('A' for Active; 'I' for Inactive)
REMARK    1  A    between atoms: C2'_3  and  C1'_4 
REMARK    2  A    between atoms: C1'_4  and  C1_5 
ROOT
ATOM      1  C1  I4B d   1       0.061  -0.535  -0.426  0.00  0.00    -0.075 A 
ATOM      2  C2  I4B d   1      -0.740   0.478  -0.893  0.00  0.00     0.003 A 
ATOM      3  C3  I4B d   1      -1.167   1.508  -0.021  0.00  0.00     0.002 A 
ATOM      4  C4  I4B d   1      -0.815   1.460   1.312  0.00  0.00    -0.004 A 
ATOM      5  C5  I4B d   1       0.015   0.445   1.779  0.00  0.00     0.002 A 
ATOM      6  C6  I4B d   1       0.466  -0.552   0.902  0.00  0.00     0.003 A 
ENDROOT
BRANCH   1   7
ATOM      7  C1' I4B d   1       0.467  -1.625  -1.366  0.00  0.00     0.060 C 
BRANCH   7   8
ATOM      8  C2' I4B d   1      -0.457  -2.804  -1.141  0.00  0.00    -0.013 C 
ATOM      9  C4' I4B d   1      -1.505  -2.890  -2.220  0.00  0.00     0.013 C 
ATOM     10  C3' I4B d   1       0.380  -4.047  -1.100  0.00  0.00     0.013 C 
ENDBRANCH   7   8
ENDBRANCH   1   7
TORSDOF 2
ENDMDL
