MODEL 1
REMARK minimizedAffinity 10.5094614
REMARK minimizedRMSD -1
REMARK  2 active torsions:
REMARK  status: ('A' for Active; 'I' for Inactive)
REMARK    1  A    between atoms: C2'_3  and  C1'_4 
REMARK    2  A    between atoms: C1'_4  and  C1_5 
ROOT
ATOM      1  C1  I4B d   1      -0.479   1.907   0.009  0.00  0.00    -0.075 A 
ATOM      2  C2  I4B d   1       0.339   0.833  -0.237  0.00  0.00     0.003 A 
ATOM      3  C3  I4B d   1       0.591   0.419  -1.567  0.00  0.00     0.002 A 
ATOM      4  C4  I4B d   1      -0.032   1.071  -2.612  0.00  0.00    -0.004 A 
ATOM      5  C5  I4B d   1      -0.843   2.174  -2.361  0.00  0.00     0.002 A 
ATOM      6  C6  I4B d   1      -1.058   2.603  -1.044  0.00  0.00     0.003 A 
ENDROOT
BRANCH   1   7
ATOM      7  C1' I4B d   1      -0.749   2.297   1.428  0.00  0.00     0.060 C 
BRANCH   7   8
ATOM      8  C2' I4B d   1       0.422   1.836   2.270  0.00  0.00    -0.013 C 
ATOM      9  C4' I4B d   1       1.139   3.005   2.894  0.00  0.00     0.013 C 
ATOM     10  C3' I4B d   1      -0.101   0.900   3.319  0.00  0.00     0.013 C 
ENDBRANCH   7   8
ENDBRANCH   1   7
TORSDOF 2
ENDMDL
