MODEL 1
REMARK minimizedAffinity -5.01145554
REMARK minimizedRMSD -1
REMARK  2 active torsions:
REMARK  status: ('A' for Active; 'I' for Inactive)
REMARK    1  A    between atoms: C2'_3  and  C1'_4 
REMARK    2  A    between atoms: C1'_4  and  C1_5 
ROOT
ATOM      1  C1  I4B d   1       0.099  -0.208  -0.135  0.00  0.00    -0.075 A 
ATOM      2  C2  I4B d   1       0.633  -0.541   1.085  0.00  0.00     0.003 A 
ATOM      3  C3  I4B d   1       0.356   0.251   2.225  0.00  0.00     0.002 A 
ATOM      4  C4  I4B d   1      -0.413   1.389   2.092  0.00  0.00    -0.004 A 
ATOM      5  C5  I4B d   1      -0.973   1.712   0.859  0.00  0.00     0.002 A 
ATOM      6  C6  I4B d   1      -0.726   0.903  -0.259  0.00  0.00     0.003 A 
ENDROOT
BRANCH   1   7
ATOM      7  C1' I4B d   1       0.439  -1.048  -1.325  0.00  0.00     0.060 C 
BRANCH   7   8
ATOM      8  C2' I4B d   1       0.054  -2.479  -1.011  0.00  0.00    -0.013 C 
ATOM      9  C4' I4B d   1      -1.203  -2.877  -1.737  0.00  0.00     0.013 C 
ATOM     10  C3' I4B d   1       1.204  -3.363  -1.395  0.00  0.00     0.013 C 
ENDBRANCH   7   8
ENDBRANCH   1   7
TORSDOF 2
ENDMDL
