MODEL 1
REMARK minimizedAffinity -5.41817188
REMARK minimizedRMSD -1
REMARK  2 active torsions:
REMARK  status: ('A' for Active; 'I' for Inactive)
REMARK    1  A    between atoms: C2'_3  and  C1'_4 
REMARK    2  A    between atoms: C1'_4  and  C1_5 
ROOT
ATOM      1  C1  I4B d   1       0.117   0.636   1.018  0.00  0.00    -0.075 A 
ATOM      2  C2  I4B d   1       0.734   1.394   1.981  0.00  0.00     0.003 A 
ATOM      3  C3  I4B d   1       0.068   2.508   2.546  0.00  0.00     0.002 A 
ATOM      4  C4  I4B d   1      -1.185   2.856   2.085  0.00  0.00    -0.004 A 
ATOM      5  C5  I4B d   1      -1.818   2.073   1.125  0.00  0.00     0.002 A 
ATOM      6  C6  I4B d   1      -1.168   0.948   0.596  0.00  0.00     0.003 A 
ENDROOT
BRANCH   1   7
ATOM      7  C1' I4B d   1       0.863  -0.515   0.419  0.00  0.00     0.060 C 
BRANCH   7   8
ATOM      8  C2' I4B d   1       0.329  -0.739  -0.982  0.00  0.00    -0.013 C 
ATOM      9  C4' I4B d   1       1.105   0.061  -1.995  0.00  0.00     0.013 C 
ATOM     10  C3' I4B d   1       0.406  -2.207  -1.277  0.00  0.00     0.013 C 
ENDBRANCH   7   8
ENDBRANCH   1   7
TORSDOF 2
ENDMDL
