MODEL 1
REMARK minimizedAffinity -3.16310287
REMARK minimizedRMSD -1
REMARK  2 active torsions:
REMARK  status: ('A' for Active; 'I' for Inactive)
REMARK    1  A    between atoms: C2'_3  and  C1'_4 
REMARK    2  A    between atoms: C1'_4  and  C1_5 
ROOT
ATOM      1  C1  I4B d   1      -0.581   0.657   0.678  0.00  0.00    -0.075 A 
ATOM      2  C2  I4B d   1      -0.116   1.150   1.872  0.00  0.00     0.003 A 
ATOM      3  C3  I4B d   1      -0.138   2.543   2.125  0.00  0.00     0.002 A 
ATOM      4  C4  I4B d   1      -0.585   3.405   1.145  0.00  0.00    -0.004 A 
ATOM      5  C5  I4B d   1      -1.078   2.902  -0.056  0.00  0.00     0.002 A 
ATOM      6  C6  I4B d   1      -1.087   1.518  -0.286  0.00  0.00     0.003 A 
ENDROOT
BRANCH   1   7
ATOM      7  C1' I4B d   1      -0.512  -0.817   0.431  0.00  0.00     0.060 C 
BRANCH   7   8
ATOM      8  C2' I4B d   1       0.232  -1.037  -0.871  0.00  0.00    -0.013 C 
ATOM      9  C4' I4B d   1       1.720  -0.913  -0.677  0.00  0.00     0.013 C 
ATOM     10  C3' I4B d   1      -0.135  -2.396  -1.389  0.00  0.00     0.013 C 
ENDBRANCH   7   8
ENDBRANCH   1   7
TORSDOF 2
ENDMDL
