MODEL 1
REMARK minimizedAffinity -4.69138432
REMARK minimizedRMSD -1
REMARK  2 active torsions:
REMARK  status: ('A' for Active; 'I' for Inactive)
REMARK    1  A    between atoms: C2'_3  and  C1'_4 
REMARK    2  A    between atoms: C1'_4  and  C1_5 
ROOT
ATOM      1  C1  I4B d   1      -0.712   1.352  -0.160  0.00  0.00    -0.075 A 
ATOM      2  C2  I4B d   1      -0.743   1.797   1.138  0.00  0.00     0.003 A 
ATOM      3  C3  I4B d   1      -0.658   3.183   1.419  0.00  0.00     0.002 A 
ATOM      4  C4  I4B d   1      -0.494   4.078   0.381  0.00  0.00    -0.004 A 
ATOM      5  C5  I4B d   1      -0.486   3.626  -0.935  0.00  0.00     0.002 A 
ATOM      6  C6  I4B d   1      -0.608   2.256  -1.209  0.00  0.00     0.003 A 
ENDROOT
BRANCH   1   7
ATOM      7  C1' I4B d   1      -0.770  -0.120  -0.419  0.00  0.00     0.060 C 
BRANCH   7   8
ATOM      8  C2' I4B d   1       0.649  -0.649  -0.424  0.00  0.00    -0.013 C 
ATOM      9  C4' I4B d   1       1.274  -0.550   0.942  0.00  0.00     0.013 C 
ATOM     10  C3' I4B d   1       0.611  -2.071  -0.900  0.00  0.00     0.013 C 
ENDBRANCH   7   8
ENDBRANCH   1   7
TORSDOF 2
ENDMDL
