MODEL 1
REMARK minimizedAffinity -2.2115922
REMARK minimizedRMSD -1
REMARK  2 active torsions:
REMARK  status: ('A' for Active; 'I' for Inactive)
REMARK    1  A    between atoms: C2'_3  and  C1'_4 
REMARK    2  A    between atoms: C1'_4  and  C1_5 
ROOT
ATOM      1  C1  I4B d   1       0.061  -0.479  -0.711  0.00  0.00    -0.075 A 
ATOM      2  C2  I4B d   1       0.042  -0.958   0.575  0.00  0.00     0.003 A 
ATOM      3  C3  I4B d   1       0.003  -0.060   1.669  0.00  0.00     0.002 A 
ATOM      4  C4  I4B d   1       0.035   1.299   1.435  0.00  0.00    -0.004 A 
ATOM      5  C5  I4B d   1       0.031   1.783   0.130  0.00  0.00     0.002 A 
ATOM      6  C6  I4B d   1       0.032   0.889  -0.951  0.00  0.00     0.003 A 
ENDROOT
BRANCH   1   7
ATOM      7  C1' I4B d   1       0.136  -1.454  -1.843  0.00  0.00     0.060 C 
BRANCH   7   8
ATOM      8  C2' I4B d   1      -0.322  -2.803  -1.327  0.00  0.00    -0.013 C 
ATOM      9  C4' I4B d   1      -1.397  -3.387  -2.205  0.00  0.00     0.013 C 
ATOM     10  C3' I4B d   1       0.875  -3.705  -1.264  0.00  0.00     0.013 C 
ENDBRANCH   7   8
ENDBRANCH   1   7
TORSDOF 2
ENDMDL
