MODEL 1
REMARK minimizedAffinity -1.53732669
REMARK minimizedRMSD -1
REMARK  2 active torsions:
REMARK  status: ('A' for Active; 'I' for Inactive)
REMARK    1  A    between atoms: C1_2  and  C2_3 
REMARK    2  A    between atoms: C2_3  and  C3_4 
ROOT
ATOM      1  C3  UNL d   1      -4.143   2.895  -3.252  0.00  0.00    -0.075 A 
ATOM      2  C4  UNL d   1      -2.782   3.169  -3.445  0.00  0.00     0.002 A 
ATOM      3  C5  UNL d   1      -2.354   3.879  -4.567  0.00  0.00     0.002 A 
ATOM      4  C6  UNL d   1      -3.279   4.314  -5.513  0.00  0.00    -0.004 A 
ATOM      5  C7  UNL d   1      -4.632   4.033  -5.340  0.00  0.00     0.002 A 
ATOM      6  C8  UNL d   1      -5.063   3.327  -4.216  0.00  0.00     0.002 A 
ENDROOT
BRANCH   1   7
ATOM      7  C2  UNL d   1      -4.616   2.152  -2.024  0.00  0.00     0.056 C 
BRANCH   7   8
ATOM      8  C1  UNL d   1      -5.592   2.948  -1.152  0.00  0.00     0.007 C 
ATOM      9  C   UNL d   1      -5.057   3.228   0.246  0.00  0.00     0.009 C 
ENDBRANCH   7   8
ENDBRANCH   1   7
TORSDOF 2
ENDMDL
