MODEL 1
REMARK minimizedAffinity -0.772444606
REMARK minimizedRMSD -1
REMARK  2 active torsions:
REMARK  status: ('A' for Active; 'I' for Inactive)
REMARK    1  A    between atoms: C1_2  and  C2_3 
REMARK    2  A    between atoms: C2_3  and  C3_4 
ROOT
ATOM      1  C3  UNL d   1       1.917   0.887  -0.908  0.00  0.00    -0.075 A 
ATOM      2  C4  UNL d   1       2.195  -0.280  -1.635  0.00  0.00     0.002 A 
ATOM      3  C5  UNL d   1       1.904  -1.535  -1.100  0.00  0.00     0.002 A 
ATOM      4  C6  UNL d   1       1.344  -1.640   0.171  0.00  0.00    -0.004 A 
ATOM      5  C7  UNL d   1       1.079  -0.489   0.910  0.00  0.00     0.002 A 
ATOM      6  C8  UNL d   1       1.364   0.768   0.374  0.00  0.00     0.002 A 
ENDROOT
BRANCH   1   7
ATOM      7  C2  UNL d   1       2.201   2.249  -1.494  0.00  0.00     0.056 C 
BRANCH   7   8
ATOM      8  C1  UNL d   1       3.687   2.515  -1.761  0.00  0.00     0.007 C 
ATOM      9  C   UNL d   1       4.155   3.870  -1.246  0.00  0.00     0.009 C 
ENDBRANCH   7   8
ENDBRANCH   1   7
TORSDOF 2
ENDMDL
