MODEL 1
REMARK minimizedAffinity 1.13264596
REMARK minimizedRMSD -1
REMARK  2 active torsions:
REMARK  status: ('A' for Active; 'I' for Inactive)
REMARK    1  A    between atoms: C1_2  and  C2_3 
REMARK    2  A    between atoms: C2_3  and  C3_4 
ROOT
ATOM      1  C3  UNL d   1       2.484  -0.761  -0.732  0.00  0.00    -0.075 A 
ATOM      2  C4  UNL d   1       2.254   0.571  -0.359  0.00  0.00     0.002 A 
ATOM      3  C5  UNL d   1       1.244   0.889   0.549  0.00  0.00     0.002 A 
ATOM      4  C6  UNL d   1       0.447  -0.118   1.089  0.00  0.00    -0.004 A 
ATOM      5  C7  UNL d   1       0.655  -1.444   0.714  0.00  0.00     0.002 A 
ATOM      6  C8  UNL d   1       1.668  -1.765  -0.192  0.00  0.00     0.002 A 
ENDROOT
BRANCH   1   7
ATOM      7  C2  UNL d   1       3.594  -1.115  -1.692  0.00  0.00     0.056 C 
BRANCH   7   8
ATOM      8  C1  UNL d   1       4.330   0.099  -2.269  0.00  0.00     0.007 C 
ATOM      9  C   UNL d   1       5.593  -0.272  -3.034  0.00  0.00     0.009 C 
ENDBRANCH   7   8
ENDBRANCH   1   7
TORSDOF 2
ENDMDL
