MODEL 1
REMARK minimizedAffinity 3.48565149
REMARK minimizedRMSD -1
REMARK  2 active torsions:
REMARK  status: ('A' for Active; 'I' for Inactive)
REMARK    1  A    between atoms: C1_2  and  C2_3 
REMARK    2  A    between atoms: C2_3  and  C3_4 
ROOT
ATOM      1  C3  UNL d   1       2.921   0.106  -0.929  0.00  0.00    -0.075 A 
ATOM      2  C4  UNL d   1       2.444   0.930   0.101  0.00  0.00     0.002 A 
ATOM      3  C5  UNL d   1       1.662   0.400   1.128  0.00  0.00     0.002 A 
ATOM      4  C6  UNL d   1       1.339  -0.955   1.133  0.00  0.00    -0.004 A 
ATOM      5  C7  UNL d   1       1.794  -1.780   0.107  0.00  0.00     0.002 A 
ATOM      6  C8  UNL d   1       2.580  -1.254  -0.920  0.00  0.00     0.002 A 
ENDROOT
BRANCH   1   7
ATOM      7  C2  UNL d   1       3.791   0.667  -2.027  0.00  0.00     0.056 C 
BRANCH   7   8
ATOM      8  C1  UNL d   1       4.481  -0.400  -2.883  0.00  0.00     0.007 C 
ATOM      9  C   UNL d   1       5.999  -0.384  -2.756  0.00  0.00     0.009 C 
ENDBRANCH   7   8
ENDBRANCH   1   7
TORSDOF 2
ENDMDL
