MODEL 1
REMARK minimizedAffinity 2.64437771
REMARK minimizedRMSD -1
REMARK  2 active torsions:
REMARK  status: ('A' for Active; 'I' for Inactive)
REMARK    1  A    between atoms: C1_2  and  C2_3 
REMARK    2  A    between atoms: C2_3  and  C3_4 
ROOT
ATOM      1  C3  UNL d   1      -0.801  -1.334   2.030  0.00  0.00    -0.075 A 
ATOM      2  C4  UNL d   1      -1.158  -0.056   2.483  0.00  0.00     0.002 A 
ATOM      3  C5  UNL d   1      -2.499   0.279   2.673  0.00  0.00     0.002 A 
ATOM      4  C6  UNL d   1      -3.498  -0.654   2.403  0.00  0.00    -0.004 A 
ATOM      5  C7  UNL d   1      -3.155  -1.921   1.936  0.00  0.00     0.002 A 
ATOM      6  C8  UNL d   1      -1.814  -2.260   1.750  0.00  0.00     0.002 A 
ENDROOT
BRANCH   1   7
ATOM      7  C2  UNL d   1       0.650  -1.712   1.851  0.00  0.00     0.056 C 
BRANCH   7   8
ATOM      8  C1  UNL d   1       1.389  -0.870   0.805  0.00  0.00     0.007 C 
ATOM      9  C   UNL d   1       2.111  -1.710  -0.241  0.00  0.00     0.009 C 
ENDBRANCH   7   8
ENDBRANCH   1   7
TORSDOF 2
ENDMDL
