MODEL 1
REMARK minimizedAffinity 1.81462646
REMARK minimizedRMSD -1
REMARK  2 active torsions:
REMARK  status: ('A' for Active; 'I' for Inactive)
REMARK    1  A    between atoms: C1_2  and  C2_3 
REMARK    2  A    between atoms: C2_3  and  C3_4 
ROOT
ATOM      1  C3  UNL d   1       0.273  -1.231   1.101  0.00  0.00    -0.075 A 
ATOM      2  C4  UNL d   1       0.234   0.129   1.443  0.00  0.00     0.002 A 
ATOM      3  C5  UNL d   1       1.067   1.045   0.800  0.00  0.00     0.002 A 
ATOM      4  C6  UNL d   1       1.955   0.613  -0.183  0.00  0.00    -0.004 A 
ATOM      5  C7  UNL d   1       2.014  -0.738  -0.519  0.00  0.00     0.002 A 
ATOM      6  C8  UNL d   1       1.179  -1.656   0.119  0.00  0.00     0.002 A 
ENDROOT
BRANCH   1   7
ATOM      7  C2  UNL d   1      -0.646  -2.223   1.772  0.00  0.00     0.056 C 
BRANCH   7   8
ATOM      8  C1  UNL d   1      -2.089  -2.183   1.257  0.00  0.00     0.007 C 
ATOM      9  C   UNL d   1      -3.114  -1.952   2.359  0.00  0.00     0.009 C 
ENDBRANCH   7   8
ENDBRANCH   1   7
TORSDOF 2
ENDMDL
