MODEL 1
REMARK minimizedAffinity -3.54852939
REMARK minimizedRMSD -1
REMARK  2 active torsions:
REMARK  status: ('A' for Active; 'I' for Inactive)
REMARK    1  A    between atoms: C1_2  and  C2_3 
REMARK    2  A    between atoms: C2_3  and  C3_4 
ROOT
ATOM      1  C3  UNL d   1       1.003  -1.133   0.117  0.00  0.00    -0.075 A 
ATOM      2  C4  UNL d   1       2.050  -1.704  -0.622  0.00  0.00     0.002 A 
ATOM      3  C5  UNL d   1       2.989  -0.895  -1.262  0.00  0.00     0.002 A 
ATOM      4  C6  UNL d   1       2.888   0.492  -1.182  0.00  0.00    -0.004 A 
ATOM      5  C7  UNL d   1       1.842   1.071  -0.465  0.00  0.00     0.002 A 
ATOM      6  C8  UNL d   1       0.904   0.263   0.181  0.00  0.00     0.002 A 
ENDROOT
BRANCH   1   7
ATOM      7  C2  UNL d   1       0.001  -2.003   0.837  0.00  0.00     0.056 C 
BRANCH   7   8
ATOM      8  C1  UNL d   1      -0.868  -1.248   1.848  0.00  0.00     0.007 C 
ATOM      9  C   UNL d   1      -2.307  -1.744   1.891  0.00  0.00     0.009 C 
ENDBRANCH   7   8
ENDBRANCH   1   7
TORSDOF 2
ENDMDL
