MODEL 1
REMARK minimizedAffinity 1.58551621
REMARK minimizedRMSD -1
REMARK  2 active torsions:
REMARK  status: ('A' for Active; 'I' for Inactive)
REMARK    1  A    between atoms: C1_2  and  C2_3 
REMARK    2  A    between atoms: C2_3  and  C3_4 
ROOT
ATOM      1  C3  UNL d   1       1.516  -0.837  -0.552  0.00  0.00    -0.075 A 
ATOM      2  C4  UNL d   1       1.916   0.488  -0.323  0.00  0.00     0.002 A 
ATOM      3  C5  UNL d   1       1.344   1.233   0.708  0.00  0.00     0.002 A 
ATOM      4  C6  UNL d   1       0.359   0.668   1.516  0.00  0.00    -0.004 A 
ATOM      5  C7  UNL d   1      -0.058  -0.641   1.287  0.00  0.00     0.002 A 
ATOM      6  C8  UNL d   1       0.516  -1.390   0.259  0.00  0.00     0.002 A 
ENDROOT
BRANCH   1   7
ATOM      7  C2  UNL d   1       2.153  -1.658  -1.647  0.00  0.00     0.056 C 
BRANCH   7   8
ATOM      8  C1  UNL d   1       3.662  -1.861  -1.477  0.00  0.00     0.007 C 
ATOM      9  C   UNL d   1       4.488  -1.142  -2.536  0.00  0.00     0.009 C 
ENDBRANCH   7   8
ENDBRANCH   1   7
TORSDOF 2
ENDMDL
