MODEL 1
REMARK minimizedAffinity -3.08475661
REMARK minimizedRMSD -1
REMARK  2 active torsions:
REMARK  status: ('A' for Active; 'I' for Inactive)
REMARK    1  A    between atoms: C1_2  and  C2_3 
REMARK    2  A    between atoms: C2_3  and  C3_4 
ROOT
ATOM      1  C3  UNL d   1       0.476  -0.850   1.225  0.00  0.00    -0.075 A 
ATOM      2  C4  UNL d   1       0.688   0.498   0.902  0.00  0.00     0.002 A 
ATOM      3  C5  UNL d   1       1.435   0.848  -0.224  0.00  0.00     0.002 A 
ATOM      4  C6  UNL d   1       1.986  -0.142  -1.033  0.00  0.00    -0.004 A 
ATOM      5  C7  UNL d   1       1.796  -1.485  -0.713  0.00  0.00     0.002 A 
ATOM      6  C8  UNL d   1       1.046  -1.838   0.410  0.00  0.00     0.002 A 
ENDROOT
BRANCH   1   7
ATOM      7  C2  UNL d   1      -0.355  -1.236   2.424  0.00  0.00     0.056 C 
BRANCH   7   8
ATOM      8  C1  UNL d   1      -1.765  -1.726   2.075  0.00  0.00     0.007 C 
ATOM      9  C   UNL d   1      -2.864  -0.804   2.585  0.00  0.00     0.009 C 
ENDBRANCH   7   8
ENDBRANCH   1   7
TORSDOF 2
ENDMDL
