MODEL 1
REMARK minimizedAffinity 2.74189854
REMARK minimizedRMSD -1
REMARK  2 active torsions:
REMARK  status: ('A' for Active; 'I' for Inactive)
REMARK    1  A    between atoms: C1_2  and  C2_3 
REMARK    2  A    between atoms: C2_3  and  C3_4 
ROOT
ATOM      1  C3  UNL d   1       0.276   2.939  -4.406  0.00  0.00    -0.075 A 
ATOM      2  C4  UNL d   1      -0.070   1.703  -4.972  0.00  0.00     0.002 A 
ATOM      3  C5  UNL d   1      -1.358   1.189  -4.820  0.00  0.00     0.002 A 
ATOM      4  C6  UNL d   1      -2.312   1.898  -4.094  0.00  0.00    -0.004 A 
ATOM      5  C7  UNL d   1      -1.976   3.119  -3.513  0.00  0.00     0.002 A 
ATOM      6  C8  UNL d   1      -0.688   3.637  -3.668  0.00  0.00     0.002 A 
ENDROOT
BRANCH   1   7
ATOM      7  C2  UNL d   1       1.660   3.513  -4.592  0.00  0.00     0.056 C 
BRANCH   7   8
ATOM      8  C1  UNL d   1       2.234   3.315  -5.998  0.00  0.00     0.007 C 
ATOM      9  C   UNL d   1       3.701   2.903  -5.995  0.00  0.00     0.009 C 
ENDBRANCH   7   8
ENDBRANCH   1   7
TORSDOF 2
ENDMDL
