MODEL 1
REMARK minimizedAffinity 2.52025747
REMARK minimizedRMSD -1
REMARK  2 active torsions:
REMARK  status: ('A' for Active; 'I' for Inactive)
REMARK    1  A    between atoms: C1_2  and  C2_3 
REMARK    2  A    between atoms: C2_3  and  C3_4 
ROOT
ATOM      1  C3  UNL d   1       2.219  -1.050  -0.897  0.00  0.00    -0.075 A 
ATOM      2  C4  UNL d   1       2.327   0.342  -0.774  0.00  0.00     0.002 A 
ATOM      3  C5  UNL d   1       1.500   1.043   0.104  0.00  0.00     0.002 A 
ATOM      4  C6  UNL d   1       0.548   0.363   0.860  0.00  0.00    -0.004 A 
ATOM      5  C7  UNL d   1       0.420  -1.019   0.734  0.00  0.00     0.002 A 
ATOM      6  C8  UNL d   1       1.250  -1.723  -0.141  0.00  0.00     0.002 A 
ENDROOT
BRANCH   1   7
ATOM      7  C2  UNL d   1       3.132  -1.818  -1.824  0.00  0.00     0.056 C 
BRANCH   7   8
ATOM      8  C1  UNL d   1       2.705  -3.270  -2.058  0.00  0.00     0.007 C 
ATOM      9  C   UNL d   1       2.923  -3.736  -3.492  0.00  0.00     0.009 C 
ENDBRANCH   7   8
ENDBRANCH   1   7
TORSDOF 2
ENDMDL
