MODEL 1
REMARK minimizedAffinity 7.07507944
REMARK minimizedRMSD -1
REMARK  2 active torsions:
REMARK  status: ('A' for Active; 'I' for Inactive)
REMARK    1  A    between atoms: C1_2  and  C2_3 
REMARK    2  A    between atoms: C2_3  and  C3_4 
ROOT
ATOM      1  C3  UNL d   1       1.539   0.021   0.687  0.00  0.00    -0.075 A 
ATOM      2  C4  UNL d   1       2.095   1.026  -0.118  0.00  0.00     0.002 A 
ATOM      3  C5  UNL d   1       2.709   2.138   0.460  0.00  0.00     0.002 A 
ATOM      4  C6  UNL d   1       2.765   2.264   1.847  0.00  0.00    -0.004 A 
ATOM      5  C7  UNL d   1       2.201   1.280   2.656  0.00  0.00     0.002 A 
ATOM      6  C8  UNL d   1       1.591   0.164   2.080  0.00  0.00     0.002 A 
ENDROOT
BRANCH   1   7
ATOM      7  C2  UNL d   1       0.900  -1.199   0.068  0.00  0.00     0.056 C 
BRANCH   7   8
ATOM      8  C1  UNL d   1       1.790  -2.446   0.084  0.00  0.00     0.007 C 
ATOM      9  C   UNL d   1       3.040  -2.301  -0.775  0.00  0.00     0.009 C 
ENDBRANCH   7   8
ENDBRANCH   1   7
TORSDOF 2
ENDMDL
