MODEL 1
REMARK minimizedAffinity 1.51700258
REMARK minimizedRMSD -1
REMARK  3 active torsions:
REMARK  status: ('A' for Active; 'I' for Inactive)
REMARK    1  A    between atoms: C3'_2  and  C2'_3 
REMARK    2  A    between atoms: C2'_3  and  C1'_4 
REMARK    3  A    between atoms: C1'_4  and  C1_5 
ROOT
ATOM      1  C1  N4B d   1      -0.557  -1.334  -2.639  0.00  0.00    -0.075 A 
ATOM      2  C2  N4B d   1      -0.285  -2.137  -3.768  0.00  0.00     0.002 A 
ATOM      3  C3  N4B d   1      -0.434  -1.618  -5.031  0.00  0.00     0.002 A 
ATOM      4  C4  N4B d   1      -0.869  -0.310  -5.189  0.00  0.00    -0.004 A 
ATOM      5  C5  N4B d   1      -1.104   0.467  -4.092  0.00  0.00     0.002 A 
ATOM      6  C6  N4B d   1      -0.955  -0.041  -2.817  0.00  0.00     0.002 A 
ENDROOT
BRANCH   1   7
ATOM      7  C1' N4B d   1      -0.491  -1.883  -1.240  0.00  0.00     0.057 C 
BRANCH   7   8
ATOM      8  C2' N4B d   1      -1.791  -1.555  -0.512  0.00  0.00     0.009 C 
BRANCH   8   9
ATOM      9  C3' N4B d   1      -1.658  -1.724   0.992  0.00  0.00     0.004 C 
ATOM     10  C4' N4B d   1      -1.582  -0.414   1.719  0.00  0.00     0.003 C 
ENDBRANCH   8   9
ENDBRANCH   7   8
ENDBRANCH   1   7
TORSDOF 3
ENDMDL
