MODEL 1
REMARK minimizedAffinity -1.3918277
REMARK minimizedRMSD -1
REMARK  3 active torsions:
REMARK  status: ('A' for Active; 'I' for Inactive)
REMARK    1  A    between atoms: C3'_2  and  C2'_3 
REMARK    2  A    between atoms: C2'_3  and  C1'_4 
REMARK    3  A    between atoms: C1'_4  and  C1_5 
ROOT
ATOM      1  C1  N4B d   1       1.011  -0.001  -5.084  0.00  0.00    -0.075 A 
ATOM      2  C2  N4B d   1       0.772   0.412  -3.755  0.00  0.00     0.002 A 
ATOM      3  C3  N4B d   1      -0.478   0.844  -3.385  0.00  0.00     0.002 A 
ATOM      4  C4  N4B d   1      -1.495   0.890  -4.328  0.00  0.00    -0.004 A 
ATOM      5  C5  N4B d   1      -1.262   0.466  -5.603  0.00  0.00     0.002 A 
ATOM      6  C6  N4B d   1      -0.011   0.025  -5.988  0.00  0.00     0.002 A 
ENDROOT
BRANCH   1   7
ATOM      7  C1' N4B d   1       2.383  -0.400  -5.557  0.00  0.00     0.057 C 
BRANCH   7   8
ATOM      8  C2' N4B d   1       3.210   0.856  -5.812  0.00  0.00     0.009 C 
BRANCH   8   9
ATOM      9  C3' N4B d   1       4.683   0.538  -5.999  0.00  0.00     0.004 C 
ATOM     10  C4' N4B d   1       4.964  -0.935  -5.998  0.00  0.00     0.003 C 
ENDBRANCH   8   9
ENDBRANCH   7   8
ENDBRANCH   1   7
TORSDOF 3
ENDMDL
