MODEL 1
REMARK minimizedAffinity 0.0425990485
REMARK minimizedRMSD -1
REMARK  3 active torsions:
REMARK  status: ('A' for Active; 'I' for Inactive)
REMARK    1  A    between atoms: C3'_2  and  C2'_3 
REMARK    2  A    between atoms: C2'_3  and  C1'_4 
REMARK    3  A    between atoms: C1'_4  and  C1_5 
ROOT
ATOM      1  C1  N4B d   1      -0.351  -1.882  -2.235  0.00  0.00    -0.075 A 
ATOM      2  C2  N4B d   1       0.292  -2.772  -3.123  0.00  0.00     0.002 A 
ATOM      3  C3  N4B d   1       0.402  -2.454  -4.454  0.00  0.00     0.002 A 
ATOM      4  C4  N4B d   1      -0.137  -1.265  -4.922  0.00  0.00    -0.004 A 
ATOM      5  C5  N4B d   1      -0.734  -0.399  -4.053  0.00  0.00     0.002 A 
ATOM      6  C6  N4B d   1      -0.849  -0.704  -2.712  0.00  0.00     0.002 A 
ENDROOT
BRANCH   1   7
ATOM      7  C1' N4B d   1      -0.572  -2.226  -0.787  0.00  0.00     0.057 C 
BRANCH   7   8
ATOM      8  C2' N4B d   1      -1.812  -1.494  -0.282  0.00  0.00     0.009 C 
BRANCH   8   9
ATOM      9  C3' N4B d   1      -1.870  -1.455   1.235  0.00  0.00     0.004 C 
ATOM     10  C4' N4B d   1      -1.153  -0.272   1.814  0.00  0.00     0.003 C 
ENDBRANCH   8   9
ENDBRANCH   7   8
ENDBRANCH   1   7
TORSDOF 3
ENDMDL
