MODEL 1
REMARK minimizedAffinity 2.92881227
REMARK minimizedRMSD -1
REMARK  3 active torsions:
REMARK  status: ('A' for Active; 'I' for Inactive)
REMARK    1  A    between atoms: C3'_2  and  C2'_3 
REMARK    2  A    between atoms: C2'_3  and  C1'_4 
REMARK    3  A    between atoms: C1'_4  and  C1_5 
ROOT
ATOM      1  C1  N4B d   1      -2.383  -0.039   1.732  0.00  0.00    -0.075 A 
ATOM      2  C2  N4B d   1      -1.094  -0.357   2.214  0.00  0.00     0.002 A 
ATOM      3  C3  N4B d   1      -0.342  -1.317   1.582  0.00  0.00     0.002 A 
ATOM      4  C4  N4B d   1      -0.863  -1.981   0.482  0.00  0.00    -0.004 A 
ATOM      5  C5  N4B d   1      -2.098  -1.650   0.007  0.00  0.00     0.002 A 
ATOM      6  C6  N4B d   1      -2.864  -0.685   0.631  0.00  0.00     0.002 A 
ENDROOT
BRANCH   1   7
ATOM      7  C1' N4B d   1      -3.276   0.941   2.442  0.00  0.00     0.057 C 
BRANCH   7   8
ATOM      8  C2' N4B d   1      -3.998   1.800   1.408  0.00  0.00     0.009 C 
BRANCH   8   9
ATOM      9  C3' N4B d   1      -5.478   1.466   1.326  0.00  0.00     0.004 C 
ATOM     10  C4' N4B d   1      -5.990   1.442  -0.083  0.00  0.00     0.003 C 
ENDBRANCH   8   9
ENDBRANCH   7   8
ENDBRANCH   1   7
TORSDOF 3
ENDMDL
