MODEL 1
REMARK minimizedAffinity -1.56731355
REMARK minimizedRMSD -1
REMARK  2 active torsions:
REMARK  status: ('A' for Active; 'I' for Inactive)
REMARK    1  A    between atoms: C2'_3  and  C1'_4 
REMARK    2  A    between atoms: C1'_4  and  C1_5 
ROOT
ATOM      1  C1  I4B d   1      -0.911   1.343  -1.210  0.00  0.00    -0.075 A 
ATOM      2  C2  I4B d   1      -0.825   2.493  -1.955  0.00  0.00     0.003 A 
ATOM      3  C3  I4B d   1      -1.704   2.703  -3.045  0.00  0.00     0.002 A 
ATOM      4  C4  I4B d   1      -2.613   1.722  -3.384  0.00  0.00    -0.004 A 
ATOM      5  C5  I4B d   1      -2.714   0.568  -2.613  0.00  0.00     0.002 A 
ATOM      6  C6  I4B d   1      -1.866   0.382  -1.512  0.00  0.00     0.003 A 
ENDROOT
BRANCH   1   7
ATOM      7  C1' I4B d   1       0.055   1.139  -0.086  0.00  0.00     0.060 C 
BRANCH   7   8
ATOM      8  C2' I4B d   1       0.322  -0.347   0.035  0.00  0.00    -0.013 C 
ATOM      9  C4' I4B d   1       1.760  -0.670  -0.276  0.00  0.00     0.013 C 
ATOM     10  C3' I4B d   1      -0.038  -0.771   1.428  0.00  0.00     0.013 C 
ENDBRANCH   7   8
ENDBRANCH   1   7
TORSDOF 2
ENDMDL
