MODEL 1
REMARK minimizedAffinity -1.67257071
REMARK minimizedRMSD -1
REMARK  2 active torsions:
REMARK  status: ('A' for Active; 'I' for Inactive)
REMARK    1  A    between atoms: C2'_3  and  C1'_4 
REMARK    2  A    between atoms: C1'_4  and  C1_5 
ROOT
ATOM      1  C1  I4B d   1      -0.132  -0.568   1.621  0.00  0.00    -0.075 A 
ATOM      2  C2  I4B d   1      -1.273   0.190   1.712  0.00  0.00     0.003 A 
ATOM      3  C3  I4B d   1      -1.554   1.176   0.735  0.00  0.00     0.002 A 
ATOM      4  C4  I4B d   1      -0.648   1.403  -0.281  0.00  0.00    -0.004 A 
ATOM      5  C5  I4B d   1       0.496   0.617  -0.385  0.00  0.00     0.002 A 
ATOM      6  C6  I4B d   1       0.750  -0.383   0.564  0.00  0.00     0.003 A 
ENDROOT
BRANCH   1   7
ATOM      7  C1' I4B d   1       0.149  -1.578   2.688  0.00  0.00     0.060 C 
BRANCH   7   8
ATOM      8  C2' I4B d   1       1.642  -1.838   2.702  0.00  0.00    -0.013 C 
ATOM      9  C4' I4B d   1       2.275  -1.311   3.962  0.00  0.00     0.013 C 
ATOM     10  C3' I4B d   1       1.855  -3.316   2.566  0.00  0.00     0.013 C 
ENDBRANCH   7   8
ENDBRANCH   1   7
TORSDOF 2
ENDMDL
