MODEL 1
REMARK minimizedAffinity -4.02491903
REMARK minimizedRMSD -1
REMARK  2 active torsions:
REMARK  status: ('A' for Active; 'I' for Inactive)
REMARK    1  A    between atoms: C2'_3  and  C1'_4 
REMARK    2  A    between atoms: C1'_4  and  C1_5 
ROOT
ATOM      1  C1  I4B d   1      -0.135   0.783  -1.053  0.00  0.00    -0.075 A 
ATOM      2  C2  I4B d   1      -0.795   1.975  -0.887  0.00  0.00     0.003 A 
ATOM      3  C3  I4B d   1      -1.860   2.327  -1.750  0.00  0.00     0.002 A 
ATOM      4  C4  I4B d   1      -2.198   1.486  -2.791  0.00  0.00    -0.004 A 
ATOM      5  C5  I4B d   1      -1.543   0.267  -2.944  0.00  0.00     0.002 A 
ATOM      6  C6  I4B d   1      -0.514  -0.093  -2.063  0.00  0.00     0.003 A 
ENDROOT
BRANCH   1   7
ATOM      7  C1' I4B d   1       1.007   0.458  -0.144  0.00  0.00     0.060 C 
BRANCH   7   8
ATOM      8  C2' I4B d   1       0.760  -0.917   0.444  0.00  0.00    -0.013 C 
ATOM      9  C4' I4B d   1       2.047  -1.560   0.888  0.00  0.00     0.013 C 
ATOM     10  C3' I4B d   1      -0.194  -0.765   1.591  0.00  0.00     0.013 C 
ENDBRANCH   7   8
ENDBRANCH   1   7
TORSDOF 2
ENDMDL
