MODEL 1
REMARK minimizedAffinity -4.60152292
REMARK minimizedRMSD -1
REMARK  2 active torsions:
REMARK  status: ('A' for Active; 'I' for Inactive)
REMARK    1  A    between atoms: C2'_3  and  C1'_4 
REMARK    2  A    between atoms: C1'_4  and  C1_5 
ROOT
ATOM      1  C1  I4B d   1      -0.398   0.963  -0.762  0.00  0.00    -0.075 A 
ATOM      2  C2  I4B d   1      -0.610   2.300  -0.986  0.00  0.00     0.003 A 
ATOM      3  C3  I4B d   1      -1.512   2.719  -1.994  0.00  0.00     0.002 A 
ATOM      4  C4  I4B d   1      -2.137   1.775  -2.783  0.00  0.00    -0.004 A 
ATOM      5  C5  I4B d   1      -1.938   0.419  -2.539  0.00  0.00     0.002 A 
ATOM      6  C6  I4B d   1      -1.073   0.010  -1.514  0.00  0.00     0.003 A 
ENDROOT
BRANCH   1   7
ATOM      7  C1' I4B d   1       0.586   0.555   0.289  0.00  0.00     0.060 C 
BRANCH   7   8
ATOM      8  C2' I4B d   1       0.653  -0.958   0.304  0.00  0.00    -0.013 C 
ATOM      9  C4' I4B d   1       1.966  -1.452  -0.243  0.00  0.00     0.013 C 
ATOM     10  C3' I4B d   1       0.449  -1.417   1.718  0.00  0.00     0.013 C 
ENDBRANCH   7   8
ENDBRANCH   1   7
TORSDOF 2
ENDMDL
