MODEL 1
REMARK minimizedAffinity 3.71142077
REMARK minimizedRMSD -1
REMARK  2 active torsions:
REMARK  status: ('A' for Active; 'I' for Inactive)
REMARK    1  A    between atoms: C2'_3  and  C1'_4 
REMARK    2  A    between atoms: C1'_4  and  C1_5 
ROOT
ATOM      1  C1  I4B d   1      -0.392   1.345  -1.151  0.00  0.00    -0.075 A 
ATOM      2  C2  I4B d   1      -0.113   2.253  -2.142  0.00  0.00     0.003 A 
ATOM      3  C3  I4B d   1      -1.050   2.488  -3.178  0.00  0.00     0.002 A 
ATOM      4  C4  I4B d   1      -2.223   1.762  -3.211  0.00  0.00    -0.004 A 
ATOM      5  C5  I4B d   1      -2.514   0.858  -2.193  0.00  0.00     0.002 A 
ATOM      6  C6  I4B d   1      -1.598   0.657  -1.149  0.00  0.00     0.003 A 
ENDROOT
BRANCH   1   7
ATOM      7  C1' I4B d   1       0.634   1.097  -0.091  0.00  0.00     0.060 C 
BRANCH   7   8
ATOM      8  C2' I4B d   1       1.383  -0.169  -0.454  0.00  0.00    -0.013 C 
ATOM      9  C4' I4B d   1       2.487   0.113  -1.438  0.00  0.00     0.013 C 
ATOM     10  C3' I4B d   1       1.925  -0.764   0.812  0.00  0.00     0.013 C 
ENDBRANCH   7   8
ENDBRANCH   1   7
TORSDOF 2
ENDMDL
