MODEL 1
REMARK minimizedAffinity -4.50147057
REMARK minimizedRMSD -1
REMARK  2 active torsions:
REMARK  status: ('A' for Active; 'I' for Inactive)
REMARK    1  A    between atoms: C2'_3  and  C1'_4 
REMARK    2  A    between atoms: C1'_4  and  C1_5 
ROOT
ATOM      1  C1  I4B d   1      -0.079   0.172   0.046  0.00  0.00    -0.075 A 
ATOM      2  C2  I4B d   1       1.071   0.233  -0.701  0.00  0.00     0.003 A 
ATOM      3  C3  I4B d   1       2.148  -0.644  -0.425  0.00  0.00     0.002 A 
ATOM      4  C4  I4B d   1       2.052  -1.526   0.632  0.00  0.00    -0.004 A 
ATOM      5  C5  I4B d   1       0.877  -1.601   1.374  0.00  0.00     0.002 A 
ATOM      6  C6  I4B d   1      -0.200  -0.756   1.072  0.00  0.00     0.003 A 
ENDROOT
BRANCH   1   7
ATOM      7  C1' I4B d   1      -1.184   1.136  -0.252  0.00  0.00     0.060 C 
BRANCH   7   8
ATOM      8  C2' I4B d   1      -1.356   1.198  -1.756  0.00  0.00    -0.013 C 
ATOM      9  C4' I4B d   1      -2.678   0.612  -2.178  0.00  0.00     0.013 C 
ATOM     10  C3' I4B d   1      -1.241   2.633  -2.176  0.00  0.00     0.013 C 
ENDBRANCH   7   8
ENDBRANCH   1   7
TORSDOF 2
ENDMDL
