MODEL 1
REMARK minimizedAffinity -4.41661835
REMARK minimizedRMSD -1
REMARK  2 active torsions:
REMARK  status: ('A' for Active; 'I' for Inactive)
REMARK    1  A    between atoms: C2'_3  and  C1'_4 
REMARK    2  A    between atoms: C1'_4  and  C1_5 
ROOT
ATOM      1  C1  I4B d   1      -0.537   0.958  -0.804  0.00  0.00    -0.075 A 
ATOM      2  C2  I4B d   1      -0.564   2.268  -1.211  0.00  0.00     0.003 A 
ATOM      3  C3  I4B d   1      -1.493   2.691  -2.193  0.00  0.00     0.002 A 
ATOM      4  C4  I4B d   1      -2.336   1.766  -2.774  0.00  0.00    -0.004 A 
ATOM      5  C5  I4B d   1      -2.323   0.442  -2.344  0.00  0.00     0.002 A 
ATOM      6  C6  I4B d   1      -1.427   0.038  -1.345  0.00  0.00     0.003 A 
ENDROOT
BRANCH   1   7
ATOM      7  C1' I4B d   1       0.478   0.538   0.211  0.00  0.00     0.060 C 
BRANCH   7   8
ATOM      8  C2' I4B d   1       1.352  -0.529  -0.416  0.00  0.00    -0.013 C 
ATOM      9  C4' I4B d   1       2.389   0.079  -1.324  0.00  0.00     0.013 C 
ATOM     10  C3' I4B d   1       1.993  -1.311   0.691  0.00  0.00     0.013 C 
ENDBRANCH   7   8
ENDBRANCH   1   7
TORSDOF 2
ENDMDL
