MODEL 1
REMARK minimizedAffinity -2.38278794
REMARK minimizedRMSD -1
REMARK  2 active torsions:
REMARK  status: ('A' for Active; 'I' for Inactive)
REMARK    1  A    between atoms: C2'_3  and  C1'_4 
REMARK    2  A    between atoms: C1'_4  and  C1_5 
ROOT
ATOM      1  C1  I4B d   1      -0.285   0.628   0.121  0.00  0.00    -0.075 A 
ATOM      2  C2  I4B d   1       0.964   0.622  -0.449  0.00  0.00     0.003 A 
ATOM      3  C3  I4B d   1       1.934  -0.320  -0.030  0.00  0.00     0.002 A 
ATOM      4  C4  I4B d   1       1.632  -1.199   0.990  0.00  0.00    -0.004 A 
ATOM      5  C5  I4B d   1       0.358  -1.207   1.551  0.00  0.00     0.002 A 
ATOM      6  C6  I4B d   1      -0.611  -0.296   1.105  0.00  0.00     0.003 A 
ENDROOT
BRANCH   1   7
ATOM      7  C1' I4B d   1      -1.275   1.658  -0.323  0.00  0.00     0.060 C 
BRANCH   7   8
ATOM      8  C2' I4B d   1      -1.282   1.677  -1.838  0.00  0.00    -0.013 C 
ATOM      9  C4' I4B d   1      -2.643   1.332  -2.381  0.00  0.00     0.013 C 
ATOM     10  C3' I4B d   1      -0.850   3.042  -2.285  0.00  0.00     0.013 C 
ENDBRANCH   7   8
ENDBRANCH   1   7
TORSDOF 2
ENDMDL
