MODEL 1
REMARK minimizedAffinity -0.353080988
REMARK minimizedRMSD -1
REMARK  2 active torsions:
REMARK  status: ('A' for Active; 'I' for Inactive)
REMARK    1  A    between atoms: C2'_3  and  C1'_4 
REMARK    2  A    between atoms: C1'_4  and  C1_5 
ROOT
ATOM      1  C1  I4B d   1      -0.511   0.599   0.014  0.00  0.00    -0.075 A 
ATOM      2  C2  I4B d   1       0.714   0.210  -0.469  0.00  0.00     0.003 A 
ATOM      3  C3  I4B d   1       1.404  -0.873   0.127  0.00  0.00     0.002 A 
ATOM      4  C4  I4B d   1       0.861  -1.502   1.228  0.00  0.00    -0.004 A 
ATOM      5  C5  I4B d   1      -0.391  -1.122   1.702  0.00  0.00     0.002 A 
ATOM      6  C6  I4B d   1      -1.088  -0.073   1.084  0.00  0.00     0.003 A 
ENDROOT
BRANCH   1   7
ATOM      7  C1' I4B d   1      -1.198   1.767  -0.618  0.00  0.00     0.060 C 
BRANCH   7   8
ATOM      8  C2' I4B d   1      -1.813   1.299  -1.921  0.00  0.00    -0.013 C 
ATOM      9  C4' I4B d   1      -3.255   0.906  -1.732  0.00  0.00     0.013 C 
ATOM     10  C3' I4B d   1      -1.680   2.408  -2.921  0.00  0.00     0.013 C 
ENDBRANCH   7   8
ENDBRANCH   1   7
TORSDOF 2
ENDMDL
