MODEL 1
REMARK minimizedAffinity 0.0117037045
REMARK minimizedRMSD -1
REMARK  2 active torsions:
REMARK  status: ('A' for Active; 'I' for Inactive)
REMARK    1  A    between atoms: C2'_3  and  C1'_4 
REMARK    2  A    between atoms: C1'_4  and  C1_5 
ROOT
ATOM      1  C1  I4B d   1      -0.280   0.478   0.181  0.00  0.00    -0.075 A 
ATOM      2  C2  I4B d   1      -1.236   0.878   1.081  0.00  0.00     0.003 A 
ATOM      3  C3  I4B d   1      -1.597   0.034   2.159  0.00  0.00     0.002 A 
ATOM      4  C4  I4B d   1      -1.019  -1.214   2.269  0.00  0.00    -0.004 A 
ATOM      5  C5  I4B d   1      -0.034  -1.609   1.368  0.00  0.00     0.002 A 
ATOM      6  C6  I4B d   1       0.347  -0.753   0.324  0.00  0.00     0.003 A 
ENDROOT
BRANCH   1   7
ATOM      7  C1' I4B d   1       0.054   1.381  -0.964  0.00  0.00     0.060 C 
BRANCH   7   8
ATOM      8  C2' I4B d   1      -1.214   2.101  -1.376  0.00  0.00    -0.013 C 
ATOM      9  C4' I4B d   1      -0.938   3.116  -2.454  0.00  0.00     0.013 C 
ATOM     10  C3' I4B d   1      -2.201   1.072  -1.841  0.00  0.00     0.013 C 
ENDBRANCH   7   8
ENDBRANCH   1   7
TORSDOF 2
ENDMDL
