MODEL 1
REMARK minimizedAffinity -3.52966833
REMARK minimizedRMSD -1
REMARK  2 active torsions:
REMARK  status: ('A' for Active; 'I' for Inactive)
REMARK    1  A    between atoms: C2'_3  and  C1'_4 
REMARK    2  A    between atoms: C1'_4  and  C1_5 
ROOT
ATOM      1  C1  I4B d   1       0.324   0.404  -0.263  0.00  0.00    -0.075 A 
ATOM      2  C2  I4B d   1       0.601  -0.250   0.912  0.00  0.00     0.003 A 
ATOM      3  C3  I4B d   1       1.662  -1.185   0.974  0.00  0.00     0.002 A 
ATOM      4  C4  I4B d   1       2.383  -1.472  -0.167  0.00  0.00    -0.004 A 
ATOM      5  C5  I4B d   1       2.116  -0.792  -1.351  0.00  0.00     0.002 A 
ATOM      6  C6  I4B d   1       1.088   0.161  -1.398  0.00  0.00     0.003 A 
ENDROOT
BRANCH   1   7
ATOM      7  C1' I4B d   1      -0.824   1.361  -0.303  0.00  0.00     0.060 C 
BRANCH   7   8
ATOM      8  C2' I4B d   1      -1.405   1.336  -1.702  0.00  0.00    -0.013 C 
ATOM      9  C4' I4B d   1      -2.911   1.328  -1.667  0.00  0.00     0.013 C 
ATOM     10  C3' I4B d   1      -0.887   2.535  -2.439  0.00  0.00     0.013 C 
ENDBRANCH   7   8
ENDBRANCH   1   7
TORSDOF 2
ENDMDL
