MODEL 1
REMARK minimizedAffinity -2.10951662
REMARK minimizedRMSD -1
REMARK  2 active torsions:
REMARK  status: ('A' for Active; 'I' for Inactive)
REMARK    1  A    between atoms: C2'_3  and  C1'_4 
REMARK    2  A    between atoms: C1'_4  and  C1_5 
ROOT
ATOM      1  C1  I4B d   1       1.022  -1.476   1.221  0.00  0.00    -0.075 A 
ATOM      2  C2  I4B d   1       0.090  -0.700   0.577  0.00  0.00     0.003 A 
ATOM      3  C3  I4B d   1       0.463   0.073  -0.550  0.00  0.00     0.002 A 
ATOM      4  C4  I4B d   1       1.779   0.080  -0.964  0.00  0.00    -0.004 A 
ATOM      5  C5  I4B d   1       2.717  -0.725  -0.323  0.00  0.00     0.002 A 
ATOM      6  C6  I4B d   1       2.334  -1.517   0.769  0.00  0.00     0.003 A 
ENDROOT
BRANCH   1   7
ATOM      7  C1' I4B d   1       0.601  -2.254   2.428  0.00  0.00     0.060 C 
BRANCH   7   8
ATOM      8  C2' I4B d   1      -0.210  -1.334   3.317  0.00  0.00    -0.013 C 
ATOM      9  C4' I4B d   1      -1.624  -1.829   3.469  0.00  0.00     0.013 C 
ATOM     10  C3' I4B d   1       0.480  -1.249   4.646  0.00  0.00     0.013 C 
ENDBRANCH   7   8
ENDBRANCH   1   7
TORSDOF 2
ENDMDL
