MODEL 1
REMARK minimizedAffinity -4.58329868
REMARK minimizedRMSD -1
REMARK  2 active torsions:
REMARK  status: ('A' for Active; 'I' for Inactive)
REMARK    1  A    between atoms: C2'_3  and  C1'_4 
REMARK    2  A    between atoms: C1'_4  and  C1_5 
ROOT
ATOM      1  C1  I4B d   1      -0.062   0.560  -0.351  0.00  0.00    -0.075 A 
ATOM      2  C2  I4B d   1       0.206   0.081   0.908  0.00  0.00     0.003 A 
ATOM      3  C3  I4B d   1       1.315  -0.772   1.124  0.00  0.00     0.002 A 
ATOM      4  C4  I4B d   1       2.094  -1.160   0.053  0.00  0.00    -0.004 A 
ATOM      5  C5  I4B d   1       1.834  -0.656  -1.218  0.00  0.00     0.002 A 
ATOM      6  C6  I4B d   1       0.757   0.219  -1.420  0.00  0.00     0.003 A 
ENDROOT
BRANCH   1   7
ATOM      7  C1' I4B d   1      -1.261   1.432  -0.550  0.00  0.00     0.060 C 
BRANCH   7   8
ATOM      8  C2' I4B d   1      -1.550   1.496  -2.036  0.00  0.00    -0.013 C 
ATOM      9  C4' I4B d   1      -2.920   0.953  -2.348  0.00  0.00     0.013 C 
ATOM     10  C3' I4B d   1      -1.422   2.925  -2.471  0.00  0.00     0.013 C 
ENDBRANCH   7   8
ENDBRANCH   1   7
TORSDOF 2
ENDMDL
