MODEL 1
REMARK minimizedAffinity -1.26416123
REMARK minimizedRMSD -1
REMARK  2 active torsions:
REMARK  status: ('A' for Active; 'I' for Inactive)
REMARK    1  A    between atoms: C2'_3  and  C1'_4 
REMARK    2  A    between atoms: C1'_4  and  C1_5 
ROOT
ATOM      1  C1  I4B d   1      -0.834   0.925  -0.218  0.00  0.00    -0.075 A 
ATOM      2  C2  I4B d   1       0.400   0.394  -0.499  0.00  0.00     0.003 A 
ATOM      3  C3  I4B d   1       0.958  -0.598   0.344  0.00  0.00     0.002 A 
ATOM      4  C4  I4B d   1       0.274  -0.991   1.476  0.00  0.00    -0.004 A 
ATOM      5  C5  I4B d   1      -0.987  -0.469   1.747  0.00  0.00     0.002 A 
ATOM      6  C6  I4B d   1      -1.551   0.486   0.888  0.00  0.00     0.003 A 
ENDROOT
BRANCH   1   7
ATOM      7  C1' I4B d   1      -1.379   1.995  -1.110  0.00  0.00     0.060 C 
BRANCH   7   8
ATOM      8  C2' I4B d   1      -1.943   1.327  -2.348  0.00  0.00    -0.013 C 
ATOM      9  C4' I4B d   1      -3.448   1.373  -2.354  0.00  0.00     0.013 C 
ATOM     10  C3' I4B d   1      -1.375   2.024  -3.549  0.00  0.00     0.013 C 
ENDBRANCH   7   8
ENDBRANCH   1   7
TORSDOF 2
ENDMDL
