MODEL 1
REMARK minimizedAffinity -2.52686501
REMARK minimizedRMSD -1
REMARK  2 active torsions:
REMARK  status: ('A' for Active; 'I' for Inactive)
REMARK    1  A    between atoms: C2'_3  and  C1'_4 
REMARK    2  A    between atoms: C1'_4  and  C1_5 
ROOT
ATOM      1  C1  I4B d   1      -0.386   0.942  -0.533  0.00  0.00    -0.075 A 
ATOM      2  C2  I4B d   1      -0.708   1.794  -1.560  0.00  0.00     0.003 A 
ATOM      3  C3  I4B d   1      -2.031   1.837  -2.063  0.00  0.00     0.002 A 
ATOM      4  C4  I4B d   1      -2.982   0.979  -1.548  0.00  0.00    -0.004 A 
ATOM      5  C5  I4B d   1      -2.659   0.132  -0.492  0.00  0.00     0.002 A 
ATOM      6  C6  I4B d   1      -1.357   0.121   0.027  0.00  0.00     0.003 A 
ENDROOT
BRANCH   1   7
ATOM      7  C1' I4B d   1       1.028   0.899  -0.048  0.00  0.00     0.060 C 
BRANCH   7   8
ATOM      8  C2' I4B d   1       1.539  -0.517  -0.222  0.00  0.00    -0.013 C 
ATOM      9  C4' I4B d   1       2.251  -0.682  -1.539  0.00  0.00     0.013 C 
ATOM     10  C3' I4B d   1       2.450  -0.825   0.929  0.00  0.00     0.013 C 
ENDBRANCH   7   8
ENDBRANCH   1   7
TORSDOF 2
ENDMDL
