MODEL 1
REMARK minimizedAffinity -3.32373619
REMARK minimizedRMSD -1
REMARK  2 active torsions:
REMARK  status: ('A' for Active; 'I' for Inactive)
REMARK    1  A    between atoms: C1_2  and  C2_3 
REMARK    2  A    between atoms: C2_3  and  C3_4 
ROOT
ATOM      1  C3  UNL d   1      -0.151  -0.056   0.091  0.00  0.00    -0.075 A 
ATOM      2  C4  UNL d   1       0.567  -1.103  -0.507  0.00  0.00     0.002 A 
ATOM      3  C5  UNL d   1       0.396  -2.418  -0.074  0.00  0.00     0.002 A 
ATOM      4  C6  UNL d   1      -0.485  -2.702   0.967  0.00  0.00    -0.004 A 
ATOM      5  C7  UNL d   1      -1.191  -1.668   1.580  0.00  0.00     0.002 A 
ATOM      6  C8  UNL d   1      -1.025  -0.352   1.145  0.00  0.00     0.002 A 
ENDROOT
BRANCH   1   7
ATOM      7  C2  UNL d   1       0.008   1.365  -0.393  0.00  0.00     0.056 C 
BRANCH   7   8
ATOM      8  C1  UNL d   1       0.475   2.344   0.689  0.00  0.00     0.007 C 
ATOM      9  C   UNL d   1       1.118   3.603   0.123  0.00  0.00     0.009 C 
ENDBRANCH   7   8
ENDBRANCH   1   7
TORSDOF 2
ENDMDL
