MODEL 1
REMARK minimizedAffinity -2.18392158
REMARK minimizedRMSD -1
REMARK  2 active torsions:
REMARK  status: ('A' for Active; 'I' for Inactive)
REMARK    1  A    between atoms: C1_2  and  C2_3 
REMARK    2  A    between atoms: C2_3  and  C3_4 
ROOT
ATOM      1  C3  UNL d   1      -0.041  -0.295   0.383  0.00  0.00    -0.075 A 
ATOM      2  C4  UNL d   1       1.030  -0.902  -0.288  0.00  0.00     0.002 A 
ATOM      3  C5  UNL d   1       1.023  -2.275  -0.537  0.00  0.00     0.002 A 
ATOM      4  C6  UNL d   1      -0.047  -3.058  -0.110  0.00  0.00    -0.004 A 
ATOM      5  C7  UNL d   1      -1.109  -2.468   0.572  0.00  0.00     0.002 A 
ATOM      6  C8  UNL d   1      -1.106  -1.094   0.819  0.00  0.00     0.002 A 
ENDROOT
BRANCH   1   7
ATOM      7  C2  UNL d   1      -0.053   1.195   0.630  0.00  0.00     0.056 C 
BRANCH   7   8
ATOM      8  C1  UNL d   1       1.286   1.885   0.349  0.00  0.00     0.007 C 
ATOM      9  C   UNL d   1       1.479   3.169   1.144  0.00  0.00     0.009 C 
ENDBRANCH   7   8
ENDBRANCH   1   7
TORSDOF 2
ENDMDL
