MODEL 1
REMARK minimizedAffinity -5.15105391
REMARK minimizedRMSD -1
REMARK  2 active torsions:
REMARK  status: ('A' for Active; 'I' for Inactive)
REMARK    1  A    between atoms: C1_2  and  C2_3 
REMARK    2  A    between atoms: C2_3  and  C3_4 
ROOT
ATOM      1  C3  UNL d   1       0.316   0.799   0.074  0.00  0.00    -0.075 A 
ATOM      2  C4  UNL d   1       0.116  -0.033   1.185  0.00  0.00     0.002 A 
ATOM      3  C5  UNL d   1      -0.020  -1.412   1.021  0.00  0.00     0.002 A 
ATOM      4  C6  UNL d   1       0.030  -1.974  -0.253  0.00  0.00    -0.004 A 
ATOM      5  C7  UNL d   1       0.212  -1.155  -1.365  0.00  0.00     0.002 A 
ATOM      6  C8  UNL d   1       0.353   0.225  -1.204  0.00  0.00     0.002 A 
ENDROOT
BRANCH   1   7
ATOM      7  C2  UNL d   1       0.494   2.289   0.247  0.00  0.00     0.056 C 
BRANCH   7   8
ATOM      8  C1  UNL d   1       1.951   2.725   0.432  0.00  0.00     0.007 C 
ATOM      9  C   UNL d   1       2.239   3.284   1.819  0.00  0.00     0.009 C 
ENDBRANCH   7   8
ENDBRANCH   1   7
TORSDOF 2
ENDMDL
