MODEL 1
REMARK minimizedAffinity -4.94555044
REMARK minimizedRMSD -1
REMARK  2 active torsions:
REMARK  status: ('A' for Active; 'I' for Inactive)
REMARK    1  A    between atoms: C1_2  and  C2_3 
REMARK    2  A    between atoms: C2_3  and  C3_4 
ROOT
ATOM      1  C3  UNL d   1       0.149  -0.396  -0.315  0.00  0.00    -0.075 A 
ATOM      2  C4  UNL d   1       0.746  -1.415  -1.071  0.00  0.00     0.002 A 
ATOM      3  C5  UNL d   1       0.554  -2.755  -0.732  0.00  0.00     0.002 A 
ATOM      4  C6  UNL d   1      -0.228  -3.092   0.370  0.00  0.00    -0.004 A 
ATOM      5  C7  UNL d   1      -0.813  -2.087   1.138  0.00  0.00     0.002 A 
ATOM      6  C8  UNL d   1      -0.626  -0.746   0.798  0.00  0.00     0.002 A 
ENDROOT
BRANCH   1   7
ATOM      7  C2  UNL d   1       0.329   1.054  -0.695  0.00  0.00     0.056 C 
BRANCH   7   8
ATOM      8  C1  UNL d   1       0.428   2.004   0.503  0.00  0.00     0.007 C 
ATOM      9  C   UNL d   1       1.714   2.820   0.518  0.00  0.00     0.009 C 
ENDBRANCH   7   8
ENDBRANCH   1   7
TORSDOF 2
ENDMDL
