MODEL 1
REMARK minimizedAffinity -5.63915205
REMARK minimizedRMSD -1
REMARK  2 active torsions:
REMARK  status: ('A' for Active; 'I' for Inactive)
REMARK    1  A    between atoms: C1_2  and  C2_3 
REMARK    2  A    between atoms: C2_3  and  C3_4 
ROOT
ATOM      1  C3  UNL d   1      -0.333   0.358  -0.403  0.00  0.00    -0.075 A 
ATOM      2  C4  UNL d   1       0.210  -0.799  -0.979  0.00  0.00     0.002 A 
ATOM      3  C5  UNL d   1      -0.029  -2.052  -0.413  0.00  0.00     0.002 A 
ATOM      4  C6  UNL d   1      -0.804  -2.162   0.740  0.00  0.00    -0.004 A 
ATOM      5  C7  UNL d   1      -1.335  -1.017   1.330  0.00  0.00     0.002 A 
ATOM      6  C8  UNL d   1      -1.101   0.237   0.763  0.00  0.00     0.002 A 
ENDROOT
BRANCH   1   7
ATOM      7  C2  UNL d   1      -0.102   1.713  -1.028  0.00  0.00     0.056 C 
BRANCH   7   8
ATOM      8  C1  UNL d   1       0.322   2.796  -0.031  0.00  0.00     0.007 C 
ATOM      9  C   UNL d   1       1.699   3.377  -0.324  0.00  0.00     0.009 C 
ENDBRANCH   7   8
ENDBRANCH   1   7
TORSDOF 2
ENDMDL
