MODEL 1
REMARK minimizedAffinity -3.99092293
REMARK minimizedRMSD -1
REMARK  2 active torsions:
REMARK  status: ('A' for Active; 'I' for Inactive)
REMARK    1  A    between atoms: C1_2  and  C2_3 
REMARK    2  A    between atoms: C2_3  and  C3_4 
ROOT
ATOM      1  C3  UNL d   1      -0.097   0.200   0.229  0.00  0.00    -0.075 A 
ATOM      2  C4  UNL d   1      -0.989  -0.514   1.042  0.00  0.00     0.002 A 
ATOM      3  C5  UNL d   1      -1.021  -1.908   1.005  0.00  0.00     0.002 A 
ATOM      4  C6  UNL d   1      -0.170  -2.605   0.150  0.00  0.00    -0.004 A 
ATOM      5  C7  UNL d   1       0.709  -1.906  -0.674  0.00  0.00     0.002 A 
ATOM      6  C8  UNL d   1       0.746  -0.511  -0.636  0.00  0.00     0.002 A 
ENDROOT
BRANCH   1   7
ATOM      7  C2  UNL d   1      -0.037   1.708   0.285  0.00  0.00     0.056 C 
BRANCH   7   8
ATOM      8  C1  UNL d   1       1.378   2.269   0.462  0.00  0.00     0.007 C 
ATOM      9  C   UNL d   1       1.424   3.515   1.338  0.00  0.00     0.009 C 
ENDBRANCH   7   8
ENDBRANCH   1   7
TORSDOF 2
ENDMDL
