MODEL 1
REMARK minimizedAffinity -5.89066792
REMARK minimizedRMSD -1
REMARK  2 active torsions:
REMARK  status: ('A' for Active; 'I' for Inactive)
REMARK    1  A    between atoms: C1_2  and  C2_3 
REMARK    2  A    between atoms: C2_3  and  C3_4 
ROOT
ATOM      1  C3  UNL d   1      -0.127   0.532  -0.326  0.00  0.00    -0.075 A 
ATOM      2  C4  UNL d   1      -0.594   0.477   0.996  0.00  0.00     0.002 A 
ATOM      3  C5  UNL d   1      -0.732  -0.748   1.648  0.00  0.00     0.002 A 
ATOM      4  C6  UNL d   1      -0.415  -1.932   0.987  0.00  0.00    -0.004 A 
ATOM      5  C7  UNL d   1       0.034  -1.891  -0.331  0.00  0.00     0.002 A 
ATOM      6  C8  UNL d   1       0.177  -0.666  -0.985  0.00  0.00     0.002 A 
ENDROOT
BRANCH   1   7
ATOM      7  C2  UNL d   1       0.051   1.857  -1.028  0.00  0.00     0.056 C 
BRANCH   7   8
ATOM      8  C1  UNL d   1       0.324   3.032  -0.082  0.00  0.00     0.007 C 
ATOM      9  C   UNL d   1       1.798   3.198   0.260  0.00  0.00     0.009 C 
ENDBRANCH   7   8
ENDBRANCH   1   7
TORSDOF 2
ENDMDL
