MODEL 1
REMARK minimizedAffinity -4.97876883
REMARK minimizedRMSD -1
REMARK  2 active torsions:
REMARK  status: ('A' for Active; 'I' for Inactive)
REMARK    1  A    between atoms: C1_2  and  C2_3 
REMARK    2  A    between atoms: C2_3  and  C3_4 
ROOT
ATOM      1  C3  UNL d   1      -0.117  -0.895  -0.443  0.00  0.00    -0.075 A 
ATOM      2  C4  UNL d   1       0.779  -1.911  -0.804  0.00  0.00     0.002 A 
ATOM      3  C5  UNL d   1       0.778  -3.131  -0.126  0.00  0.00     0.002 A 
ATOM      4  C6  UNL d   1      -0.111  -3.345   0.925  0.00  0.00    -0.004 A 
ATOM      5  C7  UNL d   1      -0.994  -2.336   1.303  0.00  0.00     0.002 A 
ATOM      6  C8  UNL d   1      -0.997  -1.117   0.624  0.00  0.00     0.002 A 
ENDROOT
BRANCH   1   7
ATOM      7  C2  UNL d   1      -0.140   0.416  -1.192  0.00  0.00     0.056 C 
BRANCH   7   8
ATOM      8  C1  UNL d   1      -0.201   1.651  -0.287  0.00  0.00     0.007 C 
ATOM      9  C   UNL d   1       1.146   2.013   0.326  0.00  0.00     0.009 C 
ENDBRANCH   7   8
ENDBRANCH   1   7
TORSDOF 2
ENDMDL
