MODEL 1
REMARK minimizedAffinity -3.5692234
REMARK minimizedRMSD -1
REMARK  2 active torsions:
REMARK  status: ('A' for Active; 'I' for Inactive)
REMARK    1  A    between atoms: C1_2  and  C2_3 
REMARK    2  A    between atoms: C2_3  and  C3_4 
ROOT
ATOM      1  C3  UNL d   1      -0.026   0.405   0.114  0.00  0.00    -0.075 A 
ATOM      2  C4  UNL d   1       0.737  -0.771   0.151  0.00  0.00     0.002 A 
ATOM      3  C5  UNL d   1       0.220  -1.933   0.724  0.00  0.00     0.002 A 
ATOM      4  C6  UNL d   1      -1.059  -1.932   1.275  0.00  0.00    -0.004 A 
ATOM      5  C7  UNL d   1      -1.820  -0.765   1.259  0.00  0.00     0.002 A 
ATOM      6  C8  UNL d   1      -1.307   0.398   0.682  0.00  0.00     0.002 A 
ENDROOT
BRANCH   1   7
ATOM      7  C2  UNL d   1       0.516   1.658  -0.531  0.00  0.00     0.056 C 
BRANCH   7   8
ATOM      8  C1  UNL d   1       1.953   1.999  -0.122  0.00  0.00     0.007 C 
ATOM      9  C   UNL d   1       2.031   3.034   0.992  0.00  0.00     0.009 C 
ENDBRANCH   7   8
ENDBRANCH   1   7
TORSDOF 2
ENDMDL
