MODEL 1
REMARK minimizedAffinity -5.22238588
REMARK minimizedRMSD -1
REMARK  2 active torsions:
REMARK  status: ('A' for Active; 'I' for Inactive)
REMARK    1  A    between atoms: C1_2  and  C2_3 
REMARK    2  A    between atoms: C2_3  and  C3_4 
ROOT
ATOM      1  C3  UNL d   1       0.184   0.181  -0.114  0.00  0.00    -0.075 A 
ATOM      2  C4  UNL d   1      -0.506  -0.402   0.959  0.00  0.00     0.002 A 
ATOM      3  C5  UNL d   1      -0.656  -1.787   1.035  0.00  0.00     0.002 A 
ATOM      4  C6  UNL d   1      -0.128  -2.604   0.037  0.00  0.00    -0.004 A 
ATOM      5  C7  UNL d   1       0.544  -2.034  -1.042  0.00  0.00     0.002 A 
ATOM      6  C8  UNL d   1       0.699  -0.649  -1.118  0.00  0.00     0.002 A 
ENDROOT
BRANCH   1   7
ATOM      7  C2  UNL d   1       0.375   1.678  -0.187  0.00  0.00     0.056 C 
BRANCH   7   8
ATOM      8  C1  UNL d   1       1.841   2.121  -0.166  0.00  0.00     0.007 C 
ATOM      9  C   UNL d   1       2.109   3.261   0.807  0.00  0.00     0.009 C 
ENDBRANCH   7   8
ENDBRANCH   1   7
TORSDOF 2
ENDMDL
