MODEL 1
REMARK minimizedAffinity -5.3342514
REMARK minimizedRMSD -1
REMARK  2 active torsions:
REMARK  status: ('A' for Active; 'I' for Inactive)
REMARK    1  A    between atoms: C1_2  and  C2_3 
REMARK    2  A    between atoms: C2_3  and  C3_4 
ROOT
ATOM      1  C3  UNL d   1       0.341   0.004   0.278  0.00  0.00    -0.075 A 
ATOM      2  C4  UNL d   1       0.913  -1.143  -0.291  0.00  0.00     0.002 A 
ATOM      3  C5  UNL d   1       0.438  -2.412   0.042  0.00  0.00     0.002 A 
ATOM      4  C6  UNL d   1      -0.606  -2.551   0.954  0.00  0.00    -0.004 A 
ATOM      5  C7  UNL d   1      -1.171  -1.419   1.538  0.00  0.00     0.002 A 
ATOM      6  C8  UNL d   1      -0.700  -0.148   1.204  0.00  0.00     0.002 A 
ENDROOT
BRANCH   1   7
ATOM      7  C2  UNL d   1       0.831   1.381  -0.100  0.00  0.00     0.056 C 
BRANCH   7   8
ATOM      8  C1  UNL d   1       1.246   2.246   1.095  0.00  0.00     0.007 C 
ATOM      9  C   UNL d   1       1.037   3.736   0.858  0.00  0.00     0.009 C 
ENDBRANCH   7   8
ENDBRANCH   1   7
TORSDOF 2
ENDMDL
