MODEL 1
REMARK minimizedAffinity 2.20451045
REMARK minimizedRMSD -1
REMARK  0 active torsions:
REMARK  status: ('A' for Active; 'I' for Inactive)
ROOT
ATOM      1  C   UNL d   1      -2.300   3.631   3.128  0.00  0.00     0.124 A 
ATOM      2  C1  UNL d   1      -2.539   4.633   2.198  0.00  0.00     0.062 A 
ATOM      3  C2  UNL d   1      -1.676   4.809   1.121  0.00  0.00     0.162 A 
ATOM      4  C3  UNL d   1      -0.565   3.979   0.966  0.00  0.00    -0.034 A 
ATOM      5  C4  UNL d   1      -0.331   2.973   1.906  0.00  0.00     0.162 A 
ATOM      6  C5  UNL d   1      -1.196   2.802   2.981  0.00  0.00     0.062 A 
ATOM      7  F   UNL d   1      -0.964   1.833   3.878  0.00  0.00    -0.097 F 
ATOM      8  F1  UNL d   1       0.727   2.158   1.787  0.00  0.00    -0.096 F 
ATOM      9  I   UNL d   1       0.728   4.238  -0.644  0.00  0.00    -0.060 I 
ATOM     10  F2  UNL d   1      -1.931   5.786   0.238  0.00  0.00    -0.096 F 
ATOM     11  F3  UNL d   1      -3.604   5.436   2.339  0.00  0.00    -0.097 F 
ATOM     12  F4  UNL d   1      -3.131   3.465   4.165  0.00  0.00    -0.092 F 
ENDROOT
TORSDOF 0
ENDMDL
