MODEL 1
REMARK minimizedAffinity 14.8377533
REMARK minimizedRMSD -1
REMARK  0 active torsions:
REMARK  status: ('A' for Active; 'I' for Inactive)
ROOT
ATOM      1  C   UNL d   1       4.134  -2.488  -0.988  0.00  0.00     0.124 A 
ATOM      2  C1  UNL d   1       4.043  -2.090  -2.314  0.00  0.00     0.062 A 
ATOM      3  C2  UNL d   1       4.254  -3.010  -3.337  0.00  0.00     0.162 A 
ATOM      4  C3  UNL d   1       4.557  -4.338  -3.038  0.00  0.00    -0.034 A 
ATOM      5  C4  UNL d   1       4.648  -4.731  -1.701  0.00  0.00     0.162 A 
ATOM      6  C5  UNL d   1       4.436  -3.807  -0.682  0.00  0.00     0.062 A 
ATOM      7  F   UNL d   1       4.524  -4.194   0.599  0.00  0.00    -0.097 F 
ATOM      8  F1  UNL d   1       4.937  -6.000  -1.377  0.00  0.00    -0.096 F 
ATOM      9  I   UNL d   1       4.873  -5.717  -4.564  0.00  0.00    -0.060 I 
ATOM     10  F2  UNL d   1       4.159  -2.598  -4.610  0.00  0.00    -0.096 F 
ATOM     11  F3  UNL d   1       3.751  -0.816  -2.612  0.00  0.00    -0.097 F 
ATOM     12  F4  UNL d   1       3.931  -1.600  -0.006  0.00  0.00    -0.092 F 
ENDROOT
TORSDOF 0
ENDMDL
