MODEL 1
REMARK minimizedAffinity 1.77968192
REMARK minimizedRMSD -1
REMARK  0 active torsions:
REMARK  status: ('A' for Active; 'I' for Inactive)
ROOT
ATOM      1  C   UNL d   1      -3.865   2.356  -2.484  0.00  0.00     0.124 A 
ATOM      2  C1  UNL d   1      -3.679   2.320  -3.859  0.00  0.00     0.062 A 
ATOM      3  C2  UNL d   1      -4.268   3.286  -4.670  0.00  0.00     0.162 A 
ATOM      4  C3  UNL d   1      -5.048   4.297  -4.108  0.00  0.00    -0.034 A 
ATOM      5  C4  UNL d   1      -5.231   4.325  -2.724  0.00  0.00     0.162 A 
ATOM      6  C5  UNL d   1      -4.640   3.358  -1.918  0.00  0.00     0.062 A 
ATOM      7  F   UNL d   1      -4.820   3.393  -0.590  0.00  0.00    -0.097 F 
ATOM      8  F1  UNL d   1      -5.974   5.283  -2.150  0.00  0.00    -0.096 F 
ATOM      9  I   UNL d   1      -5.931   5.743  -5.316  0.00  0.00    -0.060 I 
ATOM     10  F2  UNL d   1      -4.072   3.228  -5.996  0.00  0.00    -0.096 F 
ATOM     11  F3  UNL d   1      -2.931   1.353  -4.409  0.00  0.00    -0.097 F 
ATOM     12  F4  UNL d   1      -3.297   1.424  -1.707  0.00  0.00    -0.092 F 
ENDROOT
TORSDOF 0
ENDMDL
