MODEL 1
REMARK minimizedAffinity 9.77394295
REMARK minimizedRMSD -1
REMARK  0 active torsions:
REMARK  status: ('A' for Active; 'I' for Inactive)
ROOT
ATOM      1  C   UNL d   1      -0.333   4.162   1.017  0.00  0.00     0.124 A 
ATOM      2  C1  UNL d   1      -0.706   3.286   2.027  0.00  0.00     0.062 A 
ATOM      3  C2  UNL d   1       0.262   2.707   2.843  0.00  0.00     0.162 A 
ATOM      4  C3  UNL d   1       1.612   3.002   2.653  0.00  0.00    -0.034 A 
ATOM      5  C4  UNL d   1       1.979   3.883   1.634  0.00  0.00     0.162 A 
ATOM      6  C5  UNL d   1       1.008   4.460   0.821  0.00  0.00     0.062 A 
ATOM      7  F   UNL d   1       1.370   5.305  -0.155  0.00  0.00    -0.097 F 
ATOM      8  F1  UNL d   1       3.268   4.189   1.423  0.00  0.00    -0.096 F 
ATOM      9  I   UNL d   1       3.061   2.137   3.870  0.00  0.00    -0.060 I 
ATOM     10  F2  UNL d   1      -0.127   1.864   3.812  0.00  0.00    -0.096 F 
ATOM     11  F3  UNL d   1      -2.001   2.997   2.218  0.00  0.00    -0.097 F 
ATOM     12  F4  UNL d   1      -1.266   4.718   0.233  0.00  0.00    -0.092 F 
ENDROOT
TORSDOF 0
ENDMDL
