MODEL 1
REMARK minimizedAffinity -1.2086947
REMARK minimizedRMSD -1
REMARK  0 active torsions:
REMARK  status: ('A' for Active; 'I' for Inactive)
ROOT
ATOM      1  C   UNL d   1      -5.448   3.008  -1.333  0.00  0.00     0.124 A 
ATOM      2  C1  UNL d   1      -5.648   4.326  -1.721  0.00  0.00     0.062 A 
ATOM      3  C2  UNL d   1      -5.485   4.695  -3.053  0.00  0.00     0.162 A 
ATOM      4  C3  UNL d   1      -5.120   3.745  -4.007  0.00  0.00    -0.034 A 
ATOM      5  C4  UNL d   1      -4.919   2.423  -3.609  0.00  0.00     0.162 A 
ATOM      6  C5  UNL d   1      -5.083   2.058  -2.276  0.00  0.00     0.062 A 
ATOM      7  F   UNL d   1      -4.889   0.785  -1.903  0.00  0.00    -0.097 F 
ATOM      8  F1  UNL d   1      -4.567   1.484  -4.500  0.00  0.00    -0.096 F 
ATOM      9  I   UNL d   1      -4.875   4.294  -6.000  0.00  0.00    -0.060 I 
ATOM     10  F2  UNL d   1      -5.686   5.975  -3.400  0.00  0.00    -0.096 F 
ATOM     11  F3  UNL d   1      -6.000   5.245  -0.811  0.00  0.00    -0.097 F 
ATOM     12  F4  UNL d   1      -5.604   2.656  -0.050  0.00  0.00    -0.092 F 
ENDROOT
TORSDOF 0
ENDMDL
