MODEL 1
REMARK minimizedAffinity 13.7391148
REMARK minimizedRMSD -1
REMARK  0 active torsions:
REMARK  status: ('A' for Active; 'I' for Inactive)
ROOT
ATOM      1  C   UNL d   1      -0.070  -2.873  -1.266  0.00  0.00     0.124 A 
ATOM      2  C1  UNL d   1      -1.206  -2.172  -0.884  0.00  0.00     0.062 A 
ATOM      3  C2  UNL d   1      -1.121  -0.818  -0.572  0.00  0.00     0.162 A 
ATOM      4  C3  UNL d   1       0.104  -0.156  -0.642  0.00  0.00    -0.034 A 
ATOM      5  C4  UNL d   1       1.242  -0.867  -1.025  0.00  0.00     0.162 A 
ATOM      6  C5  UNL d   1       1.152  -2.220  -1.336  0.00  0.00     0.062 A 
ATOM      7  F   UNL d   1       2.251  -2.896  -1.704  0.00  0.00    -0.097 F 
ATOM      8  F1  UNL d   1       2.436  -0.261  -1.102  0.00  0.00    -0.096 F 
ATOM      9  I   UNL d   1       0.235   1.869  -0.176  0.00  0.00    -0.060 I 
ATOM     10  F2  UNL d   1      -2.235  -0.166  -0.207  0.00  0.00    -0.096 F 
ATOM     11  F3  UNL d   1      -2.388  -2.801  -0.815  0.00  0.00    -0.097 F 
ATOM     12  F4  UNL d   1      -0.155  -4.176  -1.564  0.00  0.00    -0.092 F 
ENDROOT
TORSDOF 0
ENDMDL
