MODEL 1
REMARK minimizedAffinity 19.5296936
REMARK minimizedRMSD -1
REMARK  0 active torsions:
REMARK  status: ('A' for Active; 'I' for Inactive)
ROOT
ATOM      1  C   UNL d   1       0.016   2.783   0.906  0.00  0.00     0.124 A 
ATOM      2  C1  UNL d   1      -0.968   2.645   1.875  0.00  0.00     0.062 A 
ATOM      3  C2  UNL d   1      -2.013   3.563   1.947  0.00  0.00     0.162 A 
ATOM      4  C3  UNL d   1      -2.079   4.626   1.046  0.00  0.00    -0.034 A 
ATOM      5  C4  UNL d   1      -1.085   4.758   0.075  0.00  0.00     0.162 A 
ATOM      6  C5  UNL d   1      -0.043   3.839   0.007  0.00  0.00     0.062 A 
ATOM      7  F   UNL d   1       0.907   3.973  -0.930  0.00  0.00    -0.097 F 
ATOM      8  F1  UNL d   1      -1.118   5.768  -0.807  0.00  0.00    -0.096 F 
ATOM      9  I   UNL d   1      -3.639   6.000   1.151  0.00  0.00    -0.060 I 
ATOM     10  F2  UNL d   1      -2.950   3.405   2.893  0.00  0.00    -0.096 F 
ATOM     11  F3  UNL d   1      -0.913   1.627   2.745  0.00  0.00    -0.097 F 
ATOM     12  F4  UNL d   1       1.020   1.899   0.839  0.00  0.00    -0.092 F 
ENDROOT
TORSDOF 0
ENDMDL
