MODEL 1
REMARK minimizedAffinity 7.10860157
REMARK minimizedRMSD -1
REMARK  0 active torsions:
REMARK  status: ('A' for Active; 'I' for Inactive)
ROOT
ATOM      1  C   UNL d   1      -5.103   2.999  -1.195  0.00  0.00     0.124 A 
ATOM      2  C1  UNL d   1      -5.428   4.251  -1.699  0.00  0.00     0.062 A 
ATOM      3  C2  UNL d   1      -5.375   4.489  -3.070  0.00  0.00     0.162 A 
ATOM      4  C3  UNL d   1      -4.996   3.472  -3.947  0.00  0.00    -0.034 A 
ATOM      5  C4  UNL d   1      -4.670   2.216  -3.432  0.00  0.00     0.162 A 
ATOM      6  C5  UNL d   1      -4.724   1.983  -2.062  0.00  0.00     0.062 A 
ATOM      7  F   UNL d   1      -4.410   0.773  -1.576  0.00  0.00    -0.097 F 
ATOM      8  F1  UNL d   1      -4.302   1.216  -4.247  0.00  0.00    -0.096 F 
ATOM      9  I   UNL d   1      -4.916   3.824  -5.996  0.00  0.00    -0.060 I 
ATOM     10  F2  UNL d   1      -5.694   5.708  -3.529  0.00  0.00    -0.096 F 
ATOM     11  F3  UNL d   1      -5.793   5.234  -0.864  0.00  0.00    -0.097 F 
ATOM     12  F4  UNL d   1      -5.154   2.773   0.124  0.00  0.00    -0.092 F 
ENDROOT
TORSDOF 0
ENDMDL
