MODEL 1
REMARK minimizedAffinity -1.55075753
REMARK minimizedRMSD -1
REMARK  0 active torsions:
REMARK  status: ('A' for Active; 'I' for Inactive)
ROOT
ATOM      1  C   UNL d   1      -5.972   3.991  -2.393  0.00  0.00     0.124 A 
ATOM      2  C1  UNL d   1      -5.963   4.302  -3.746  0.00  0.00     0.062 A 
ATOM      3  C2  UNL d   1      -5.965   3.287  -4.698  0.00  0.00     0.162 A 
ATOM      4  C3  UNL d   1      -5.978   1.950  -4.301  0.00  0.00    -0.034 A 
ATOM      5  C4  UNL d   1      -5.987   1.644  -2.939  0.00  0.00     0.162 A 
ATOM      6  C5  UNL d   1      -5.984   2.663  -1.991  0.00  0.00     0.062 A 
ATOM      7  F   UNL d   1      -5.993   2.360  -0.685  0.00  0.00    -0.097 F 
ATOM      8  F1  UNL d   1      -6.000   0.370  -2.522  0.00  0.00    -0.096 F 
ATOM      9  I   UNL d   1      -5.983   0.429  -5.721  0.00  0.00    -0.060 I 
ATOM     10  F2  UNL d   1      -5.956   3.617  -5.998  0.00  0.00    -0.096 F 
ATOM     11  F3  UNL d   1      -5.950   5.585  -4.137  0.00  0.00    -0.097 F 
ATOM     12  F4  UNL d   1      -5.968   4.970  -1.479  0.00  0.00    -0.092 F 
ENDROOT
TORSDOF 0
ENDMDL
