MODEL 1
REMARK minimizedAffinity 19.6790333
REMARK minimizedRMSD -1
REMARK  0 active torsions:
REMARK  status: ('A' for Active; 'I' for Inactive)
ROOT
ATOM      1  C4' PXY d   1       1.176  -0.323   3.960  0.00  0.00     0.077 C 
ATOM      2  C1' PXY d   1      -3.799   2.590   3.537  0.00  0.00     0.077 C 
ATOM      3  C1  PXY d   1      -2.488   1.836   3.644  0.00  0.00    -0.082 A 
ATOM      4  C2  PXY d   1      -2.488   0.514   3.600  0.00  0.00     0.003 A 
ATOM      5  C3  PXY d   1      -1.315  -0.184   3.727  0.00  0.00     0.003 A 
ATOM      6  C4  PXY d   1      -0.123   0.479   3.847  0.00  0.00    -0.082 A 
ATOM      7  C5  PXY d   1      -0.114   1.829   3.882  0.00  0.00     0.003 A 
ATOM      8  C6  PXY d   1      -1.320   2.518   3.793  0.00  0.00     0.003 A 
ENDROOT
TORSDOF 0
ENDMDL
