MODEL 1
REMARK minimizedAffinity 14.5436268
REMARK minimizedRMSD -1
REMARK  0 active torsions:
REMARK  status: ('A' for Active; 'I' for Inactive)
ROOT
ATOM      1  C4' PXY d   1      -6.000  -6.000  -3.004  0.00  0.00     0.077 C 
ATOM      2  C1' PXY d   1      -2.573  -1.556  -1.617  0.00  0.00     0.077 C 
ATOM      3  C1  PXY d   1      -3.462  -2.729  -1.979  0.00  0.00    -0.082 A 
ATOM      4  C2  PXY d   1      -4.550  -2.527  -2.704  0.00  0.00     0.003 A 
ATOM      5  C3  PXY d   1      -5.382  -3.572  -3.014  0.00  0.00     0.003 A 
ATOM      6  C4  PXY d   1      -5.069  -4.846  -2.623  0.00  0.00    -0.082 A 
ATOM      7  C5  PXY d   1      -3.954  -5.063  -1.892  0.00  0.00     0.003 A 
ATOM      8  C6  PXY d   1      -3.145  -3.982  -1.553  0.00  0.00     0.003 A 
ENDROOT
TORSDOF 0
ENDMDL
