MODEL 1
REMARK minimizedAffinity 19.1790714
REMARK minimizedRMSD -1
REMARK  0 active torsions:
REMARK  status: ('A' for Active; 'I' for Inactive)
ROOT
ATOM      1  C4' PXY d   1      -3.135  -2.539  -2.252  0.00  0.00     0.077 C 
ATOM      2  C1' PXY d   1       0.747  -5.841  -4.979  0.00  0.00     0.077 C 
ATOM      3  C1  PXY d   1      -0.279  -4.985  -4.262  0.00  0.00    -0.082 A 
ATOM      4  C2  PXY d   1      -0.278  -3.674  -4.442  0.00  0.00     0.003 A 
ATOM      5  C3  PXY d   1      -1.178  -2.882  -3.778  0.00  0.00     0.003 A 
ATOM      6  C4  PXY d   1      -2.124  -3.443  -2.962  0.00  0.00    -0.082 A 
ATOM      7  C5  PXY d   1      -2.138  -4.781  -2.781  0.00  0.00     0.003 A 
ATOM      8  C6  PXY d   1      -1.190  -5.563  -3.433  0.00  0.00     0.003 A 
ENDROOT
TORSDOF 0
ENDMDL
