MODEL 1
REMARK minimizedAffinity 14.6771011
REMARK minimizedRMSD -1
REMARK  0 active torsions:
REMARK  status: ('A' for Active; 'I' for Inactive)
ROOT
ATOM      1  C4' PXY d   1      -5.209   4.957   5.999  0.00  0.00     0.077 C 
ATOM      2  C1' PXY d   1      -4.508  -0.041   3.181  0.00  0.00     0.077 C 
ATOM      3  C1  PXY d   1      -4.704   1.266   3.924  0.00  0.00    -0.082 A 
ATOM      4  C2  PXY d   1      -4.008   2.333   3.565  0.00  0.00     0.003 A 
ATOM      5  C3  PXY d   1      -4.149   3.515   4.246  0.00  0.00     0.003 A 
ATOM      6  C4  PXY d   1      -5.051   3.619   5.272  0.00  0.00    -0.082 A 
ATOM      7  C5  PXY d   1      -5.772   2.538   5.637  0.00  0.00     0.003 A 
ATOM      8  C6  PXY d   1      -5.584   1.337   4.959  0.00  0.00     0.003 A 
ENDROOT
TORSDOF 0
ENDMDL
