MODEL 1
REMARK minimizedAffinity 7.24542046
REMARK minimizedRMSD -1
REMARK  0 active torsions:
REMARK  status: ('A' for Active; 'I' for Inactive)
ROOT
ATOM      1  C4' PXY d   1      -2.848  -5.999   0.836  0.00  0.00     0.077 C 
ATOM      2  C1' PXY d   1      -0.257  -1.028   2.248  0.00  0.00     0.077 C 
ATOM      3  C1  PXY d   1      -0.926  -2.338   1.881  0.00  0.00    -0.082 A 
ATOM      4  C2  PXY d   1      -1.940  -2.339   1.031  0.00  0.00     0.003 A 
ATOM      5  C3  PXY d   1      -2.577  -3.511   0.713  0.00  0.00     0.003 A 
ATOM      6  C4  PXY d   1      -2.137  -4.701   1.228  0.00  0.00    -0.082 A 
ATOM      7  C5  PXY d   1      -1.095  -4.709   2.087  0.00  0.00     0.003 A 
ATOM      8  C6  PXY d   1      -0.489  -3.504   2.430  0.00  0.00     0.003 A 
ENDROOT
TORSDOF 0
ENDMDL
