MODEL 1
REMARK minimizedAffinity 10.7338791
REMARK minimizedRMSD -1
REMARK  0 active torsions:
REMARK  status: ('A' for Active; 'I' for Inactive)
ROOT
ATOM      1  C4' PXY d   1      -5.374   2.948   5.995  0.00  0.00     0.077 C 
ATOM      2  C1' PXY d   1      -4.207  -0.808   1.760  0.00  0.00     0.077 C 
ATOM      3  C1  PXY d   1      -4.502   0.184   2.867  0.00  0.00    -0.082 A 
ATOM      4  C2  PXY d   1      -5.245  -0.188   3.897  0.00  0.00     0.003 A 
ATOM      5  C3  PXY d   1      -5.548   0.706   4.892  0.00  0.00     0.003 A 
ATOM      6  C4  PXY d   1      -5.043   1.978   4.859  0.00  0.00    -0.082 A 
ATOM      7  C5  PXY d   1      -4.275   2.361   3.816  0.00  0.00     0.003 A 
ATOM      8  C6  PXY d   1      -4.013   1.452   2.796  0.00  0.00     0.003 A 
ENDROOT
TORSDOF 0
ENDMDL
