MODEL 1
REMARK minimizedAffinity 17.0025787
REMARK minimizedRMSD -1
REMARK  0 active torsions:
REMARK  status: ('A' for Active; 'I' for Inactive)
ROOT
ATOM      1  C4' PXY d   1       0.246  -2.630   0.763  0.00  0.00     0.077 C 
ATOM      2  C1' PXY d   1      -4.334  -5.999   1.804  0.00  0.00     0.077 C 
ATOM      3  C1  PXY d   1      -3.126  -5.122   1.539  0.00  0.00    -0.082 A 
ATOM      4  C2  PXY d   1      -3.298  -3.880   1.117  0.00  0.00     0.003 A 
ATOM      5  C3  PXY d   1      -2.216  -3.085   0.842  0.00  0.00     0.003 A 
ATOM      6  C4  PXY d   1      -0.945  -3.547   1.052  0.00  0.00    -0.082 A 
ATOM      7  C5  PXY d   1      -0.761  -4.810   1.493  0.00  0.00     0.003 A 
ATOM      8  C6  PXY d   1      -1.872  -5.615   1.727  0.00  0.00     0.003 A 
ENDROOT
TORSDOF 0
ENDMDL
