MODEL 1
REMARK minimizedAffinity 21.6163673
REMARK minimizedRMSD -1
REMARK  0 active torsions:
REMARK  status: ('A' for Active; 'I' for Inactive)
ROOT
ATOM      1  C4' PXY d   1      -2.313  -1.592  -3.200  0.00  0.00     0.077 C 
ATOM      2  C1' PXY d   1      -6.000  -6.000  -2.573  0.00  0.00     0.077 C 
ATOM      3  C1  PXY d   1      -5.028  -4.847  -2.726  0.00  0.00    -0.082 A 
ATOM      4  C2  PXY d   1      -5.350  -3.817  -3.491  0.00  0.00     0.003 A 
ATOM      5  C3  PXY d   1      -4.469  -2.780  -3.666  0.00  0.00     0.003 A 
ATOM      6  C4  PXY d   1      -3.268  -2.774  -3.009  0.00  0.00    -0.082 A 
ATOM      7  C5  PXY d   1      -2.936  -3.816  -2.218  0.00  0.00     0.003 A 
ATOM      8  C6  PXY d   1      -3.827  -4.878  -2.087  0.00  0.00     0.003 A 
ENDROOT
TORSDOF 0
ENDMDL
