MODEL 1
REMARK minimizedAffinity 12.3974123
REMARK minimizedRMSD -1
REMARK  0 active torsions:
REMARK  status: ('A' for Active; 'I' for Inactive)
ROOT
ATOM      1  C4' PXY d   1       1.605   5.980  -5.072  0.00  0.00     0.077 C 
ATOM      2  C1' PXY d   1       3.933   0.720  -4.497  0.00  0.00     0.077 C 
ATOM      3  C1  PXY d   1       3.324   2.099  -4.661  0.00  0.00    -0.082 A 
ATOM      4  C2  PXY d   1       3.340   2.946  -3.644  0.00  0.00     0.003 A 
ATOM      5  C3  PXY d   1       2.766   4.185  -3.765  0.00  0.00     0.003 A 
ATOM      6  C4  PXY d   1       2.216   4.581  -4.955  0.00  0.00    -0.082 A 
ATOM      7  C5  PXY d   1       2.205   3.727  -6.000  0.00  0.00     0.003 A 
ATOM      8  C6  PXY d   1       2.757   2.458  -5.844  0.00  0.00     0.003 A 
ENDROOT
TORSDOF 0
ENDMDL
