MODEL 1
REMARK minimizedAffinity 10.7624664
REMARK minimizedRMSD -1
REMARK  0 active torsions:
REMARK  status: ('A' for Active; 'I' for Inactive)
ROOT
ATOM      1  C4' PXY d   1       0.454   0.789   2.172  0.00  0.00     0.077 C 
ATOM      2  C1' PXY d   1      -2.335  -4.274   2.095  0.00  0.00     0.077 C 
ATOM      3  C1  PXY d   1      -1.608  -2.944   2.127  0.00  0.00    -0.082 A 
ATOM      4  C2  PXY d   1      -1.307  -2.336   0.992  0.00  0.00     0.003 A 
ATOM      5  C3  PXY d   1      -0.621  -1.148   1.002  0.00  0.00     0.003 A 
ATOM      6  C4  PXY d   1      -0.288  -0.551   2.188  0.00  0.00    -0.082 A 
ATOM      7  C5  PXY d   1      -0.601  -1.160   3.351  0.00  0.00     0.003 A 
ATOM      8  C6  PXY d   1      -1.260  -2.385   3.318  0.00  0.00     0.003 A 
ENDROOT
TORSDOF 0
ENDMDL
