MODEL 1
REMARK minimizedAffinity 12.8596611
REMARK minimizedRMSD -1
REMARK  0 active torsions:
REMARK  status: ('A' for Active; 'I' for Inactive)
ROOT
ATOM      1  C4' PXY d   1       3.636   1.509  -2.024  0.00  0.00     0.077 C 
ATOM      2  C1' PXY d   1       1.308  -0.031   3.038  0.00  0.00     0.077 C 
ATOM      3  C1  PXY d   1       1.908   0.381   1.708  0.00  0.00    -0.082 A 
ATOM      4  C2  PXY d   1       2.765  -0.424   1.100  0.00  0.00     0.003 A 
ATOM      5  C3  PXY d   1       3.342  -0.053  -0.087  0.00  0.00     0.003 A 
ATOM      6  C4  PXY d   1       2.998   1.130  -0.685  0.00  0.00    -0.082 A 
ATOM      7  C5  PXY d   1       2.117   1.952  -0.076  0.00  0.00     0.003 A 
ATOM      8  C6  PXY d   1       1.574   1.575   1.149  0.00  0.00     0.003 A 
ENDROOT
TORSDOF 0
ENDMDL
