MODEL 1
REMARK minimizedAffinity 15.7854996
REMARK minimizedRMSD -1
REMARK  0 active torsions:
REMARK  status: ('A' for Active; 'I' for Inactive)
ROOT
ATOM      1  C4' PXY d   1      -6.000   5.999   4.515  0.00  0.00     0.077 C 
ATOM      2  C1' PXY d   1      -2.884   1.293   3.267  0.00  0.00     0.077 C 
ATOM      3  C1  PXY d   1      -3.701   2.524   3.607  0.00  0.00    -0.082 A 
ATOM      4  C2  PXY d   1      -4.477   3.069   2.685  0.00  0.00     0.003 A 
ATOM      5  C3  PXY d   1      -5.198   4.201   2.965  0.00  0.00     0.003 A 
ATOM      6  C4  PXY d   1      -5.165   4.750   4.219  0.00  0.00    -0.082 A 
ATOM      7  C5  PXY d   1      -4.383   4.194   5.169  0.00  0.00     0.003 A 
ATOM      8  C6  PXY d   1      -3.627   3.069   4.852  0.00  0.00     0.003 A 
ENDROOT
TORSDOF 0
ENDMDL
