MODEL 1
REMARK minimizedAffinity 9.36899948
REMARK minimizedRMSD -1
REMARK  0 active torsions:
REMARK  status: ('A' for Active; 'I' for Inactive)
ROOT
ATOM      1  C4' PXY d   1      -3.753  -6.000  -1.113  0.00  0.00     0.077 C 
ATOM      2  C1' PXY d   1      -1.666  -2.212  -4.949  0.00  0.00     0.077 C 
ATOM      3  C1  PXY d   1      -2.207  -3.215  -3.949  0.00  0.00    -0.082 A 
ATOM      4  C2  PXY d   1      -3.347  -2.968  -3.325  0.00  0.00     0.003 A 
ATOM      5  C3  PXY d   1      -3.835  -3.849  -2.395  0.00  0.00     0.003 A 
ATOM      6  C4  PXY d   1      -3.175  -5.020  -2.138  0.00  0.00    -0.082 A 
ATOM      7  C5  PXY d   1      -2.016  -5.285  -2.777  0.00  0.00     0.003 A 
ATOM      8  C6  PXY d   1      -1.517  -4.359  -3.688  0.00  0.00     0.003 A 
ENDROOT
TORSDOF 0
ENDMDL
