MODEL 1
REMARK minimizedAffinity 16.9047127
REMARK minimizedRMSD -1
REMARK  0 active torsions:
REMARK  status: ('A' for Active; 'I' for Inactive)
ROOT
ATOM      1  C4' PXY d   1      -5.992  -5.421  -2.193  0.00  0.00     0.077 C 
ATOM      2  C1' PXY d   1      -0.613  -4.071  -3.824  0.00  0.00     0.077 C 
ATOM      3  C1  PXY d   1      -2.026  -4.413  -3.393  0.00  0.00    -0.082 A 
ATOM      4  C2  PXY d   1      -2.325  -5.658  -3.059  0.00  0.00     0.003 A 
ATOM      5  C3  PXY d   1      -3.605  -5.991  -2.698  0.00  0.00     0.003 A 
ATOM      6  C4  PXY d   1      -4.577  -5.029  -2.626  0.00  0.00    -0.082 A 
ATOM      7  C5  PXY d   1      -4.277  -3.754  -2.954  0.00  0.00     0.003 A 
ATOM      8  C6  PXY d   1      -2.982  -3.445  -3.358  0.00  0.00     0.003 A 
ENDROOT
TORSDOF 0
ENDMDL
