MODEL 1
REMARK minimizedAffinity 5.64947367
REMARK minimizedRMSD -1
REMARK  0 active torsions:
REMARK  status: ('A' for Active; 'I' for Inactive)
ROOT
ATOM      1  C4' PXY d   1      -5.921   6.000  -0.718  0.00  0.00     0.077 C 
ATOM      2  C1' PXY d   1      -3.804   2.044   2.926  0.00  0.00     0.077 C 
ATOM      3  C1  PXY d   1      -4.347   3.083   1.966  0.00  0.00    -0.082 A 
ATOM      4  C2  PXY d   1      -5.478   3.709   2.250  0.00  0.00     0.003 A 
ATOM      5  C3  PXY d   1      -6.000   4.628   1.377  0.00  0.00     0.003 A 
ATOM      6  C4  PXY d   1      -5.330   4.950   0.227  0.00  0.00    -0.082 A 
ATOM      7  C5  PXY d   1      -4.170   4.324  -0.065  0.00  0.00     0.003 A 
ATOM      8  C6  PXY d   1      -3.678   3.364   0.814  0.00  0.00     0.003 A 
ENDROOT
TORSDOF 0
ENDMDL
