MODEL 1
REMARK minimizedAffinity 10.1849222
REMARK minimizedRMSD -1
REMARK  0 active torsions:
REMARK  status: ('A' for Active; 'I' for Inactive)
ROOT
ATOM      1  C4' PXY d   1       5.999   1.470  -3.018  0.00  0.00     0.077 C 
ATOM      2  C1' PXY d   1       1.607   4.617  -5.073  0.00  0.00     0.077 C 
ATOM      3  C1  PXY d   1       2.766   3.795  -4.545  0.00  0.00    -0.082 A 
ATOM      4  C2  PXY d   1       2.535   2.818  -3.682  0.00  0.00     0.003 A 
ATOM      5  C3  PXY d   1       3.575   2.086  -3.170  0.00  0.00     0.003 A 
ATOM      6  C4  PXY d   1       4.858   2.320  -3.585  0.00  0.00    -0.082 A 
ATOM      7  C5  PXY d   1       5.100   3.307  -4.474  0.00  0.00     0.003 A 
ATOM      8  C6  PXY d   1       4.036   4.067  -4.950  0.00  0.00     0.003 A 
ENDROOT
TORSDOF 0
ENDMDL
