MODEL 1
REMARK minimizedAffinity 6.94958401
REMARK minimizedRMSD -1
REMARK  0 active torsions:
REMARK  status: ('A' for Active; 'I' for Inactive)
ROOT
ATOM      1  C4' PXY d   1       3.383   1.046  -1.399  0.00  0.00     0.077 C 
ATOM      2  C1' PXY d   1      -0.015   1.577   3.247  0.00  0.00     0.077 C 
ATOM      3  C1  PXY d   1       0.880   1.426   2.033  0.00  0.00    -0.082 A 
ATOM      4  C2  PXY d   1       1.306   2.504   1.396  0.00  0.00     0.003 A 
ATOM      5  C3  PXY d   1       2.090   2.385   0.277  0.00  0.00     0.003 A 
ATOM      6  C4  PXY d   1       2.486   1.151  -0.163  0.00  0.00    -0.082 A 
ATOM      7  C5  PXY d   1       2.064   0.046   0.488  0.00  0.00     0.003 A 
ATOM      8  C6  PXY d   1       1.236   0.187   1.597  0.00  0.00     0.003 A 
ENDROOT
TORSDOF 0
ENDMDL
