MODEL 1
REMARK minimizedAffinity 7.823071
REMARK minimizedRMSD -1
REMARK  0 active torsions:
REMARK  status: ('A' for Active; 'I' for Inactive)
ROOT
ATOM      1  C4' PXY d   1       5.999   1.637  -3.283  0.00  0.00     0.077 C 
ATOM      2  C1' PXY d   1       1.393   4.646  -5.056  0.00  0.00     0.077 C 
ATOM      3  C1  PXY d   1       2.608   3.863  -4.599  0.00  0.00    -0.082 A 
ATOM      4  C2  PXY d   1       2.450   2.669  -4.052  0.00  0.00     0.003 A 
ATOM      5  C3  PXY d   1       3.536   1.962  -3.605  0.00  0.00     0.003 A 
ATOM      6  C4  PXY d   1       4.801   2.459  -3.767  0.00  0.00    -0.082 A 
ATOM      7  C5  PXY d   1       4.972   3.672  -4.334  0.00  0.00     0.003 A 
ATOM      8  C6  PXY d   1       3.854   4.392  -4.744  0.00  0.00     0.003 A 
ENDROOT
TORSDOF 0
ENDMDL
