MODEL 1
REMARK minimizedAffinity 3.68042207
REMARK minimizedRMSD -1
REMARK  0 active torsions:
REMARK  status: ('A' for Active; 'I' for Inactive)
ROOT
ATOM      1  C4' PXY d   1       1.367   5.277  -5.999  0.00  0.00     0.077 C 
ATOM      2  C1' PXY d   1       6.000   2.163  -4.496  0.00  0.00     0.077 C 
ATOM      3  C1  PXY d   1       4.792   2.991  -4.888  0.00  0.00    -0.082 A 
ATOM      4  C2  PXY d   1       3.581   2.466  -4.794  0.00  0.00     0.003 A 
ATOM      5  C3  PXY d   1       2.480   3.189  -5.174  0.00  0.00     0.003 A 
ATOM      6  C4  PXY d   1       2.615   4.481  -5.606  0.00  0.00    -0.082 A 
ATOM      7  C5  PXY d   1       3.846   5.028  -5.695  0.00  0.00     0.003 A 
ATOM      8  C6  PXY d   1       4.954   4.263  -5.343  0.00  0.00     0.003 A 
ENDROOT
TORSDOF 0
ENDMDL
