MODEL 1
REMARK minimizedAffinity -4.58605337
REMARK minimizedRMSD -1
REMARK  0 active torsions:
REMARK  status: ('A' for Active; 'I' for Inactive)
ROOT
ATOM      1  C2' OXE d   1      -0.447  -1.328   2.579  0.00  0.00     0.078 C 
ATOM      2  C1' OXE d   1       1.822   0.309   2.358  0.00  0.00     0.078 C 
ATOM      3  C1  OXE d   1       0.957   0.138   1.135  0.00  0.00    -0.078 A 
ATOM      4  C2  OXE d   1      -0.126  -0.702   1.239  0.00  0.00    -0.078 A 
ATOM      5  C3  OXE d   1      -0.988  -0.853   0.157  0.00  0.00     0.003 A 
ATOM      6  C4  OXE d   1      -0.678  -0.279  -1.082  0.00  0.00    -0.002 A 
ATOM      7  C5  OXE d   1       0.442   0.549  -1.220  0.00  0.00    -0.002 A 
ATOM      8  C6  OXE d   1       1.244   0.801  -0.113  0.00  0.00     0.003 A 
ENDROOT
TORSDOF 0
ENDMDL
