MODEL 1
REMARK minimizedAffinity 6.34988356
REMARK minimizedRMSD -1
REMARK  0 active torsions:
REMARK  status: ('A' for Active; 'I' for Inactive)
ROOT
ATOM      1  C2' OXE d   1       2.470  -5.817   1.943  0.00  0.00     0.078 C 
ATOM      2  C1' OXE d   1       1.928  -3.872  -0.008  0.00  0.00     0.078 C 
ATOM      3  C1  OXE d   1       3.370  -4.119   0.357  0.00  0.00    -0.078 A 
ATOM      4  C2  OXE d   1       3.623  -5.040   1.346  0.00  0.00    -0.078 A 
ATOM      5  C3  OXE d   1       4.939  -5.346   1.682  0.00  0.00     0.003 A 
ATOM      6  C4  OXE d   1       5.999  -4.615   1.133  0.00  0.00    -0.002 A 
ATOM      7  C5  OXE d   1       5.761  -3.646   0.153  0.00  0.00    -0.002 A 
ATOM      8  C6  OXE d   1       4.459  -3.416  -0.276  0.00  0.00     0.003 A 
ENDROOT
TORSDOF 0
ENDMDL
