MODEL 1
REMARK minimizedAffinity 6.80012035
REMARK minimizedRMSD -1
REMARK  0 active torsions:
REMARK  status: ('A' for Active; 'I' for Inactive)
ROOT
ATOM      1  C2' OXE d   1      -1.275  -3.586   2.155  0.00  0.00     0.078 C 
ATOM      2  C1' OXE d   1      -0.561  -0.944   1.532  0.00  0.00     0.078 C 
ATOM      3  C1  OXE d   1       0.392  -2.043   1.134  0.00  0.00    -0.078 A 
ATOM      4  C2  OXE d   1       0.057  -3.328   1.484  0.00  0.00    -0.078 A 
ATOM      5  C3  OXE d   1       0.874  -4.385   1.093  0.00  0.00     0.003 A 
ATOM      6  C4  OXE d   1       2.109  -4.137   0.481  0.00  0.00    -0.002 A 
ATOM      7  C5  OXE d   1       2.488  -2.832   0.151  0.00  0.00    -0.002 A 
ATOM      8  C6  OXE d   1       1.624  -1.779   0.431  0.00  0.00     0.003 A 
ENDROOT
TORSDOF 0
ENDMDL
