MODEL 1
REMARK minimizedAffinity -1.29450345
REMARK minimizedRMSD -1
REMARK  0 active torsions:
REMARK  status: ('A' for Active; 'I' for Inactive)
ROOT
ATOM      1  C2' OXE d   1       2.603  -3.771   1.147  0.00  0.00     0.078 C 
ATOM      2  C1' OXE d   1       5.324  -3.402   0.563  0.00  0.00     0.078 C 
ATOM      3  C1  OXE d   1       4.348  -2.375   0.046  0.00  0.00    -0.078 A 
ATOM      4  C2  OXE d   1       3.014  -2.588   0.297  0.00  0.00    -0.078 A 
ATOM      5  C3  OXE d   1       2.076  -1.643  -0.110  0.00  0.00     0.003 A 
ATOM      6  C4  OXE d   1       2.463  -0.557  -0.905  0.00  0.00    -0.002 A 
ATOM      7  C5  OXE d   1       3.813  -0.343  -1.206  0.00  0.00    -0.002 A 
ATOM      8  C6  OXE d   1       4.770  -1.217  -0.703  0.00  0.00     0.003 A 
ENDROOT
TORSDOF 0
ENDMDL
