MODEL 1
REMARK minimizedAffinity 4.39489317
REMARK minimizedRMSD -1
REMARK  0 active torsions:
REMARK  status: ('A' for Active; 'I' for Inactive)
ROOT
ATOM      1  C2' OXE d   1       3.243   1.434  -0.369  0.00  0.00     0.078 C 
ATOM      2  C1' OXE d   1       1.700  -0.900  -0.143  0.00  0.00     0.078 C 
ATOM      3  C1  OXE d   1       1.817  -0.013   1.072  0.00  0.00    -0.078 A 
ATOM      4  C2  OXE d   1       2.612   1.103   0.966  0.00  0.00    -0.078 A 
ATOM      5  C3  OXE d   1       2.710   1.983   2.040  0.00  0.00     0.003 A 
ATOM      6  C4  OXE d   1       2.131   1.664   3.274  0.00  0.00    -0.002 A 
ATOM      7  C5  OXE d   1       1.350   0.512   3.414  0.00  0.00    -0.002 A 
ATOM      8  C6  OXE d   1       1.148  -0.314   2.313  0.00  0.00     0.003 A 
ENDROOT
TORSDOF 0
ENDMDL
