MODEL 1
REMARK minimizedAffinity 0.511063576
REMARK minimizedRMSD -1
REMARK  0 active torsions:
REMARK  status: ('A' for Active; 'I' for Inactive)
ROOT
ATOM      1  C2' OXE d   1      -3.029  -0.759  -2.576  0.00  0.00     0.078 C 
ATOM      2  C1' OXE d   1      -2.342  -1.118  -5.273  0.00  0.00     0.078 C 
ATOM      3  C1  OXE d   1      -3.625  -0.388  -4.966  0.00  0.00    -0.078 A 
ATOM      4  C2  OXE d   1      -3.977  -0.258  -3.644  0.00  0.00    -0.078 A 
ATOM      5  C3  OXE d   1      -5.123   0.454  -3.302  0.00  0.00     0.003 A 
ATOM      6  C4  OXE d   1      -6.000   0.906  -4.296  0.00  0.00    -0.002 A 
ATOM      7  C5  OXE d   1      -5.680   0.748  -5.649  0.00  0.00    -0.002 A 
ATOM      8  C6  OXE d   1      -4.479   0.143  -6.000  0.00  0.00     0.003 A 
ENDROOT
TORSDOF 0
ENDMDL
