MODEL 1
REMARK minimizedAffinity 4.0567522
REMARK minimizedRMSD -1
REMARK  0 active torsions:
REMARK  status: ('A' for Active; 'I' for Inactive)
ROOT
ATOM      1  C2' OXE d   1       0.440  -0.962   2.778  0.00  0.00     0.078 C 
ATOM      2  C1' OXE d   1       1.842  -2.641   1.018  0.00  0.00     0.078 C 
ATOM      3  C1  OXE d   1       2.099  -1.157   0.929  0.00  0.00    -0.078 A 
ATOM      4  C2  OXE d   1       1.374  -0.339   1.763  0.00  0.00    -0.078 A 
ATOM      5  C3  OXE d   1       1.612   1.032   1.760  0.00  0.00     0.003 A 
ATOM      6  C4  OXE d   1       2.470   1.601   0.811  0.00  0.00    -0.002 A 
ATOM      7  C5  OXE d   1       3.188   0.790  -0.073  0.00  0.00    -0.002 A 
ATOM      8  C6  OXE d   1       3.046  -0.592   0.001  0.00  0.00     0.003 A 
ENDROOT
TORSDOF 0
ENDMDL
