MODEL 1
REMARK minimizedAffinity 1.3926003
REMARK minimizedRMSD -1
REMARK  0 active torsions:
REMARK  status: ('A' for Active; 'I' for Inactive)
ROOT
ATOM      1  C2' OXE d   1       5.445  -3.000   5.992  0.00  0.00     0.078 C 
ATOM      2  C1' OXE d   1       5.446  -5.807   6.000  0.00  0.00     0.078 C 
ATOM      3  C1  OXE d   1       4.760  -5.107   4.853  0.00  0.00    -0.078 A 
ATOM      4  C2  OXE d   1       4.724  -3.734   4.882  0.00  0.00    -0.078 A 
ATOM      5  C3  OXE d   1       4.152  -3.037   3.822  0.00  0.00     0.003 A 
ATOM      6  C4  OXE d   1       3.479  -3.723   2.804  0.00  0.00    -0.002 A 
ATOM      7  C5  OXE d   1       3.469  -5.121   2.776  0.00  0.00    -0.002 A 
ATOM      8  C6  OXE d   1       4.140  -5.827   3.769  0.00  0.00     0.003 A 
ENDROOT
TORSDOF 0
ENDMDL
