MODEL 1
REMARK minimizedAffinity 3.37265325
REMARK minimizedRMSD -1
REMARK  0 active torsions:
REMARK  status: ('A' for Active; 'I' for Inactive)
ROOT
ATOM      1  C2' OXE d   1      -2.176  -1.452  -4.024  0.00  0.00     0.078 C 
ATOM      2  C1' OXE d   1      -4.584  -1.828  -2.632  0.00  0.00     0.078 C 
ATOM      3  C1  OXE d   1      -4.561  -0.796  -3.732  0.00  0.00    -0.078 A 
ATOM      4  C2  OXE d   1      -3.366  -0.586  -4.376  0.00  0.00    -0.078 A 
ATOM      5  C3  OXE d   1      -3.303   0.316  -5.435  0.00  0.00     0.003 A 
ATOM      6  C4  OXE d   1      -4.405   1.120  -5.748  0.00  0.00    -0.002 A 
ATOM      7  C5  OXE d   1      -5.621   0.950  -5.077  0.00  0.00    -0.002 A 
ATOM      8  C6  OXE d   1      -5.728  -0.031  -4.097  0.00  0.00     0.003 A 
ENDROOT
TORSDOF 0
ENDMDL
