MODEL 1
REMARK minimizedAffinity 16.4152966
REMARK minimizedRMSD -1
REMARK  0 active torsions:
REMARK  status: ('A' for Active; 'I' for Inactive)
ROOT
ATOM      1  C   UNL d   1      -2.791   0.751   2.170  0.00  0.00     0.020 A 
ATOM      2  C1  UNL d   1      -3.135  -0.583   1.955  0.00  0.00     0.020 A 
ATOM      3  C2  UNL d   1      -3.677  -1.341   2.995  0.00  0.00     0.034 A 
ATOM      4  C3  UNL d   1      -3.876  -0.766   4.255  0.00  0.00     0.017 A 
ATOM      5  C4  UNL d   1      -3.531   0.573   4.471  0.00  0.00     0.017 A 
ATOM      6  C5  UNL d   1      -2.989   1.327   3.426  0.00  0.00     0.034 A 
ATOM      7 Cl   UNL d   1      -3.747   1.352   5.998  0.00  0.00    -0.070 Cl
ATOM      8 Cl1  UNL d   1      -4.551  -1.762   5.496  0.00  0.00    -0.070 Cl
ENDROOT
TORSDOF 0
ENDMDL
