MODEL 1
REMARK minimizedAffinity 7.70946264
REMARK minimizedRMSD -1
REMARK  0 active torsions:
REMARK  status: ('A' for Active; 'I' for Inactive)
ROOT
ATOM      1  C   UNL d   1      -3.478   0.651   4.856  0.00  0.00     0.020 A 
ATOM      2  C1  UNL d   1      -4.199   1.093   3.748  0.00  0.00     0.020 A 
ATOM      3  C2  UNL d   1      -4.892   0.175   2.955  0.00  0.00     0.034 A 
ATOM      4  C3  UNL d   1      -4.864  -1.188   3.269  0.00  0.00     0.017 A 
ATOM      5  C4  UNL d   1      -4.140  -1.631   4.381  0.00  0.00     0.017 A 
ATOM      6  C5  UNL d   1      -3.448  -0.708   5.172  0.00  0.00     0.034 A 
ATOM      7 Cl   UNL d   1      -4.059  -3.298   4.832  0.00  0.00    -0.070 Cl
ATOM      8 Cl1  UNL d   1      -5.744  -2.267   2.244  0.00  0.00    -0.070 Cl
ENDROOT
TORSDOF 0
ENDMDL
