MODEL 1
REMARK minimizedAffinity 6.70823574
REMARK minimizedRMSD -1
REMARK  0 active torsions:
REMARK  status: ('A' for Active; 'I' for Inactive)
ROOT
ATOM      1  C   UNL d   1      -2.250   4.711  -5.999  0.00  0.00     0.020 A 
ATOM      2  C1  UNL d   1      -3.485   4.184  -5.625  0.00  0.00     0.020 A 
ATOM      3  C2  UNL d   1      -3.543   3.003  -4.881  0.00  0.00     0.034 A 
ATOM      4  C3  UNL d   1      -2.364   2.346  -4.510  0.00  0.00     0.017 A 
ATOM      5  C4  UNL d   1      -1.125   2.876  -4.886  0.00  0.00     0.017 A 
ATOM      6  C5  UNL d   1      -1.072   4.059  -5.631  0.00  0.00     0.034 A 
ATOM      7 Cl   UNL d   1       0.372   2.123  -4.465  0.00  0.00    -0.070 Cl
ATOM      8 Cl1  UNL d   1      -2.511   0.891  -3.590  0.00  0.00    -0.070 Cl
ENDROOT
TORSDOF 0
ENDMDL
