MODEL 1
REMARK minimizedAffinity 20.228405
REMARK minimizedRMSD -1
REMARK  0 active torsions:
REMARK  status: ('A' for Active; 'I' for Inactive)
ROOT
ATOM      1  C   UNL d   1       2.604   0.595  -1.837  0.00  0.00     0.020 A 
ATOM      2  C1  UNL d   1       3.046   0.281  -0.553  0.00  0.00     0.020 A 
ATOM      3  C2  UNL d   1       2.664  -0.924   0.042  0.00  0.00     0.034 A 
ATOM      4  C3  UNL d   1       1.837  -1.818  -0.648  0.00  0.00     0.017 A 
ATOM      5  C4  UNL d   1       1.395  -1.502  -1.937  0.00  0.00     0.017 A 
ATOM      6  C5  UNL d   1       1.780  -0.295  -2.528  0.00  0.00     0.034 A 
ATOM      7 Cl   UNL d   1       0.373  -2.555  -2.851  0.00  0.00    -0.070 Cl
ATOM      8 Cl1  UNL d   1       1.405  -3.290   0.148  0.00  0.00    -0.070 Cl
ENDROOT
TORSDOF 0
ENDMDL
