MODEL 1
REMARK minimizedAffinity 8.99989986
REMARK minimizedRMSD -1
REMARK  0 active torsions:
REMARK  status: ('A' for Active; 'I' for Inactive)
ROOT
ATOM      1  C   UNL d   1       1.594  -0.643  -1.354  0.00  0.00     0.020 A 
ATOM      2  C1  UNL d   1       2.691  -0.708  -0.496  0.00  0.00     0.020 A 
ATOM      3  C2  UNL d   1       3.309  -1.935  -0.245  0.00  0.00     0.034 A 
ATOM      4  C3  UNL d   1       2.831  -3.101  -0.853  0.00  0.00     0.017 A 
ATOM      5  C4  UNL d   1       1.730  -3.035  -1.715  0.00  0.00     0.017 A 
ATOM      6  C5  UNL d   1       1.115  -1.804  -1.962  0.00  0.00     0.034 A 
ATOM      7 Cl   UNL d   1       1.083  -4.431  -2.502  0.00  0.00    -0.070 Cl
ATOM      8 Cl1  UNL d   1       3.644  -4.584  -0.498  0.00  0.00    -0.070 Cl
ENDROOT
TORSDOF 0
ENDMDL
