MODEL 1
REMARK minimizedAffinity 13.70082
REMARK minimizedRMSD -1
REMARK  0 active torsions:
REMARK  status: ('A' for Active; 'I' for Inactive)
ROOT
ATOM      1  C   UNL d   1      -5.080  -5.092   0.495  0.00  0.00     0.020 A 
ATOM      2  C1  UNL d   1      -5.999  -4.056   0.661  0.00  0.00     0.020 A 
ATOM      3  C2  UNL d   1      -5.649  -2.925   1.402  0.00  0.00     0.034 A 
ATOM      4  C3  UNL d   1      -4.378  -2.828   1.980  0.00  0.00     0.017 A 
ATOM      5  C4  UNL d   1      -3.457  -3.868   1.812  0.00  0.00     0.017 A 
ATOM      6  C5  UNL d   1      -3.812  -4.998   1.069  0.00  0.00     0.034 A 
ATOM      7 Cl   UNL d   1      -1.869  -3.820   2.495  0.00  0.00    -0.070 Cl
ATOM      8 Cl1  UNL d   1      -4.013  -1.401   2.882  0.00  0.00    -0.070 Cl
ENDROOT
TORSDOF 0
ENDMDL
