MODEL 1
REMARK minimizedAffinity 13.5898695
REMARK minimizedRMSD -1
REMARK  0 active torsions:
REMARK  status: ('A' for Active; 'I' for Inactive)
ROOT
ATOM      1  C   UNL d   1      -4.156  -1.220   2.908  0.00  0.00     0.020 A 
ATOM      2  C1  UNL d   1      -2.916  -1.244   2.271  0.00  0.00     0.020 A 
ATOM      3  C2  UNL d   1      -2.127  -0.092   2.236  0.00  0.00     0.034 A 
ATOM      4  C3  UNL d   1      -2.577   1.088   2.839  0.00  0.00     0.017 A 
ATOM      5  C4  UNL d   1      -3.822   1.111   3.479  0.00  0.00     0.017 A 
ATOM      6  C5  UNL d   1      -4.608  -0.046   3.511  0.00  0.00     0.034 A 
ATOM      7 Cl   UNL d   1      -4.444   2.529   4.245  0.00  0.00    -0.070 Cl
ATOM      8 Cl1  UNL d   1      -1.549   2.475   2.757  0.00  0.00    -0.070 Cl
ENDROOT
TORSDOF 0
ENDMDL
