MODEL 1
REMARK minimizedAffinity 9.78265858
REMARK minimizedRMSD -1
REMARK  0 active torsions:
REMARK  status: ('A' for Active; 'I' for Inactive)
ROOT
ATOM      1  C   UNL d   1      -2.626   0.713   2.063  0.00  0.00     0.020 A 
ATOM      2  C1  UNL d   1      -2.959  -0.607   1.764  0.00  0.00     0.020 A 
ATOM      3  C2  UNL d   1      -3.445  -1.449   2.767  0.00  0.00     0.034 A 
ATOM      4  C3  UNL d   1      -3.598  -0.971   4.074  0.00  0.00     0.017 A 
ATOM      5  C4  UNL d   1      -3.263   0.354   4.373  0.00  0.00     0.017 A 
ATOM      6  C5  UNL d   1      -2.777   1.193   3.365  0.00  0.00     0.034 A 
ATOM      7 Cl   UNL d   1      -3.425   1.016   5.961  0.00  0.00    -0.070 Cl
ATOM      8 Cl1  UNL d   1      -4.204  -2.067   5.264  0.00  0.00    -0.070 Cl
ENDROOT
TORSDOF 0
ENDMDL
