MODEL 1
REMARK minimizedAffinity 9.36897278
REMARK minimizedRMSD -1
REMARK  0 active torsions:
REMARK  status: ('A' for Active; 'I' for Inactive)
ROOT
ATOM      1  C   UNL d   1      -4.106  -0.585   1.738  0.00  0.00     0.020 A 
ATOM      2  C1  UNL d   1      -3.747   0.725   2.055  0.00  0.00     0.020 A 
ATOM      3  C2  UNL d   1      -3.457   1.069   3.377  0.00  0.00     0.034 A 
ATOM      4  C3  UNL d   1      -3.525   0.102   4.386  0.00  0.00     0.017 A 
ATOM      5  C4  UNL d   1      -3.885  -1.212   4.067  0.00  0.00     0.017 A 
ATOM      6  C5  UNL d   1      -4.175  -1.551   2.742  0.00  0.00     0.034 A 
ATOM      7 Cl   UNL d   1      -3.990  -2.460   5.259  0.00  0.00    -0.070 Cl
ATOM      8 Cl1  UNL d   1      -3.153   0.597   5.999  0.00  0.00    -0.070 Cl
ENDROOT
TORSDOF 0
ENDMDL
