MODEL 1
REMARK minimizedAffinity 9.30179977
REMARK minimizedRMSD -1
REMARK  0 active torsions:
REMARK  status: ('A' for Active; 'I' for Inactive)
ROOT
ATOM      1  C   UNL d   1       2.039  -1.991  -0.798  0.00  0.00     0.020 A 
ATOM      2  C1  UNL d   1       3.168  -2.271  -0.028  0.00  0.00     0.020 A 
ATOM      3  C2  UNL d   1       4.159  -1.301   0.135  0.00  0.00     0.034 A 
ATOM      4  C3  UNL d   1       4.024  -0.047  -0.473  0.00  0.00     0.017 A 
ATOM      5  C4  UNL d   1       2.891   0.232  -1.246  0.00  0.00     0.017 A 
ATOM      6  C5  UNL d   1       1.901  -0.743  -1.405  0.00  0.00     0.034 A 
ATOM      7 Cl   UNL d   1       2.654   1.756  -2.026  0.00  0.00    -0.070 Cl
ATOM      8 Cl1  UNL d   1       5.289   1.105  -0.228  0.00  0.00    -0.070 Cl
ENDROOT
TORSDOF 0
ENDMDL
