MODEL 1
REMARK minimizedAffinity 8.02666664
REMARK minimizedRMSD -1
REMARK  0 active torsions:
REMARK  status: ('A' for Active; 'I' for Inactive)
ROOT
ATOM      1  C   UNL d   1      -6.000  -4.811  -5.960  0.00  0.00     0.020 A 
ATOM      2  C1  UNL d   1      -5.174  -5.934  -5.960  0.00  0.00     0.020 A 
ATOM      3  C2  UNL d   1      -3.786  -5.781  -5.969  0.00  0.00     0.034 A 
ATOM      4  C3  UNL d   1      -3.220  -4.501  -5.977  0.00  0.00     0.017 A 
ATOM      5  C4  UNL d   1      -4.049  -3.374  -5.978  0.00  0.00     0.017 A 
ATOM      6  C5  UNL d   1      -5.438  -3.533  -5.969  0.00  0.00     0.034 A 
ATOM      7 Cl   UNL d   1      -3.424  -1.763  -5.988  0.00  0.00    -0.070 Cl
ATOM      8 Cl1  UNL d   1      -1.496  -4.385  -5.987  0.00  0.00    -0.070 Cl
ENDROOT
TORSDOF 0
ENDMDL
