MODEL 1
REMARK minimizedAffinity 3.40023565
REMARK minimizedRMSD -1
REMARK  0 active torsions:
REMARK  status: ('A' for Active; 'I' for Inactive)
ROOT
ATOM      1  C   UNL d   1       3.335  -5.838  -1.307  0.00  0.00     0.020 A 
ATOM      2  C1  UNL d   1       2.661  -5.054  -0.372  0.00  0.00     0.020 A 
ATOM      3  C2  UNL d   1       2.329  -3.733  -0.679  0.00  0.00     0.034 A 
ATOM      4  C3  UNL d   1       2.671  -3.192  -1.923  0.00  0.00     0.017 A 
ATOM      5  C4  UNL d   1       3.348  -3.980  -2.861  0.00  0.00     0.017 A 
ATOM      6  C5  UNL d   1       3.678  -5.302  -2.549  0.00  0.00     0.034 A 
ATOM      7 Cl   UNL d   1       3.804  -3.382  -4.418  0.00  0.00    -0.070 Cl
ATOM      8 Cl1  UNL d   1       2.230  -1.551  -2.235  0.00  0.00    -0.070 Cl
ENDROOT
TORSDOF 0
ENDMDL
