MODEL 1
REMARK minimizedAffinity 8.29932594
REMARK minimizedRMSD -1
REMARK  0 active torsions:
REMARK  status: ('A' for Active; 'I' for Inactive)
ROOT
ATOM      1  C   UNL d   1       1.234  -3.469  -3.238  0.00  0.00     0.020 A 
ATOM      2  C1  UNL d   1       0.880  -2.139  -3.463  0.00  0.00     0.020 A 
ATOM      3  C2  UNL d   1       1.391  -1.132  -2.642  0.00  0.00     0.034 A 
ATOM      4  C3  UNL d   1       2.259  -1.453  -1.592  0.00  0.00     0.017 A 
ATOM      5  C4  UNL d   1       2.614  -2.788  -1.367  0.00  0.00     0.017 A 
ATOM      6  C5  UNL d   1       2.100  -3.792  -2.192  0.00  0.00     0.034 A 
ATOM      7 Cl   UNL d   1       3.680  -3.261  -0.091  0.00  0.00    -0.070 Cl
ATOM      8 Cl1  UNL d   1       2.854  -0.156  -0.617  0.00  0.00    -0.070 Cl
ENDROOT
TORSDOF 0
ENDMDL
