MODEL 1
REMARK minimizedAffinity 4.47844744
REMARK minimizedRMSD -1
REMARK  0 active torsions:
REMARK  status: ('A' for Active; 'I' for Inactive)
ROOT
ATOM      1  C   UNL d   1       3.388  -0.369  -0.554  0.00  0.00     0.020 A 
ATOM      2  C1  UNL d   1       2.562   0.008  -1.613  0.00  0.00     0.020 A 
ATOM      3  C2  UNL d   1       1.716  -0.931  -2.207  0.00  0.00     0.034 A 
ATOM      4  C3  UNL d   1       1.694  -2.252  -1.744  0.00  0.00     0.017 A 
ATOM      5  C4  UNL d   1       2.524  -2.629  -0.681  0.00  0.00     0.017 A 
ATOM      6  C5  UNL d   1       3.368  -1.685  -0.090  0.00  0.00     0.034 A 
ATOM      7 Cl   UNL d   1       2.552  -4.240  -0.055  0.00  0.00    -0.070 Cl
ATOM      8 Cl1  UNL d   1       0.624  -3.360  -2.526  0.00  0.00    -0.070 Cl
ENDROOT
TORSDOF 0
ENDMDL
