MODEL 1
REMARK minimizedAffinity 6.74105787
REMARK minimizedRMSD -1
REMARK  0 active torsions:
REMARK  status: ('A' for Active; 'I' for Inactive)
ROOT
ATOM      1  C   UNL d   1       1.866  -2.912  -1.633  0.00  0.00     0.020 A 
ATOM      2  C1  UNL d   1       2.633  -2.724  -0.484  0.00  0.00     0.020 A 
ATOM      3  C2  UNL d   1       3.120  -1.453  -0.169  0.00  0.00     0.034 A 
ATOM      4  C3  UNL d   1       2.840  -0.366  -1.005  0.00  0.00     0.017 A 
ATOM      5  C4  UNL d   1       2.070  -0.555  -2.158  0.00  0.00     0.017 A 
ATOM      6  C5  UNL d   1       1.585  -1.830  -2.468  0.00  0.00     0.034 A 
ATOM      7 Cl   UNL d   1       1.683   0.738  -3.237  0.00  0.00    -0.070 Cl
ATOM      8 Cl1  UNL d   1       3.473   1.178  -0.554  0.00  0.00    -0.070 Cl
ENDROOT
TORSDOF 0
ENDMDL
