MODEL 1
REMARK minimizedAffinity 10.7929125
REMARK minimizedRMSD -1
REMARK  0 active torsions:
REMARK  status: ('A' for Active; 'I' for Inactive)
ROOT
ATOM      1  C   UNL d   1       1.491  -2.637  -3.414  0.00  0.00     0.020 A 
ATOM      2  C1  UNL d   1       1.437  -1.247  -3.508  0.00  0.00     0.020 A 
ATOM      3  C2  UNL d   1       1.823  -0.458  -2.422  0.00  0.00     0.034 A 
ATOM      4  C3  UNL d   1       2.265  -1.059  -1.238  0.00  0.00     0.017 A 
ATOM      5  C4  UNL d   1       2.318  -2.454  -1.144  0.00  0.00     0.017 A 
ATOM      6  C5  UNL d   1       1.931  -3.239  -2.234  0.00  0.00     0.034 A 
ATOM      7 Cl   UNL d   1       2.852  -3.268   0.285  0.00  0.00    -0.070 Cl
ATOM      8 Cl1  UNL d   1       2.727  -0.022   0.065  0.00  0.00    -0.070 Cl
ENDROOT
TORSDOF 0
ENDMDL
