MODEL 1
REMARK minimizedAffinity 7.22258091
REMARK minimizedRMSD -1
REMARK  0 active torsions:
REMARK  status: ('A' for Active; 'I' for Inactive)
ROOT
ATOM      1  C   UNL d   1       1.658   0.113  -2.122  0.00  0.00     0.020 A 
ATOM      2  C1  UNL d   1       2.217   0.085  -0.845  0.00  0.00     0.020 A 
ATOM      3  C2  UNL d   1       2.552  -1.136  -0.256  0.00  0.00     0.034 A 
ATOM      4  C3  UNL d   1       2.327  -2.334  -0.943  0.00  0.00     0.017 A 
ATOM      5  C4  UNL d   1       1.765  -2.305  -2.225  0.00  0.00     0.017 A 
ATOM      6  C5  UNL d   1       1.432  -1.079  -2.810  0.00  0.00     0.034 A 
ATOM      7 Cl   UNL d   1       1.459  -3.742  -3.135  0.00  0.00    -0.070 Cl
ATOM      8 Cl1  UNL d   1       2.765  -3.807  -0.155  0.00  0.00    -0.070 Cl
ENDROOT
TORSDOF 0
ENDMDL
