MODEL 1
REMARK minimizedAffinity 9.98262215
REMARK minimizedRMSD -1
REMARK  0 active torsions:
REMARK  status: ('A' for Active; 'I' for Inactive)
ROOT
ATOM      1  C   UNL d   1       2.218  -1.563  -3.843  0.00  0.00     0.020 A 
ATOM      2  C1  UNL d   1       2.935  -2.758  -3.827  0.00  0.00     0.020 A 
ATOM      3  C2  UNL d   1       3.483  -3.228  -2.632  0.00  0.00     0.034 A 
ATOM      4  C3  UNL d   1       3.315  -2.502  -1.447  0.00  0.00     0.017 A 
ATOM      5  C4  UNL d   1       2.596  -1.302  -1.464  0.00  0.00     0.017 A 
ATOM      6  C5  UNL d   1       2.049  -0.836  -2.664  0.00  0.00     0.034 A 
ATOM      7 Cl   UNL d   1       2.346  -0.350  -0.043  0.00  0.00    -0.070 Cl
ATOM      8 Cl1  UNL d   1       4.020  -3.142  -0.006  0.00  0.00    -0.070 Cl
ENDROOT
TORSDOF 0
ENDMDL
