MODEL 1
REMARK minimizedAffinity 12.6072931
REMARK minimizedRMSD -1
REMARK  0 active torsions:
REMARK  status: ('A' for Active; 'I' for Inactive)
ROOT
ATOM      1  C   UNL d   1      -1.751  -5.943  -1.501  0.00  0.00     0.020 A 
ATOM      2  C1  UNL d   1      -1.214  -4.809  -0.894  0.00  0.00     0.020 A 
ATOM      3  C2  UNL d   1      -1.258  -3.577  -1.551  0.00  0.00     0.034 A 
ATOM      4  C3  UNL d   1      -1.841  -3.478  -2.820  0.00  0.00     0.017 A 
ATOM      5  C4  UNL d   1      -2.379  -4.617  -3.429  0.00  0.00     0.017 A 
ATOM      6  C5  UNL d   1      -2.332  -5.847  -2.766  0.00  0.00     0.034 A 
ATOM      7 Cl   UNL d   1      -3.114  -4.573  -4.993  0.00  0.00    -0.070 Cl
ATOM      8 Cl1  UNL d   1      -1.862  -1.924  -3.575  0.00  0.00    -0.070 Cl
ENDROOT
TORSDOF 0
ENDMDL
