MODEL 1
REMARK minimizedAffinity -3.75471377
REMARK minimizedRMSD -1
REMARK  0 active torsions:
REMARK  status: ('A' for Active; 'I' for Inactive)
ROOT
ATOM      1  C1  DEN d   1      -1.528   1.857   0.274  0.00  0.00     0.130 A 
ATOM      2  C2  DEN d   1      -1.951   1.851   1.672  0.00  0.00    -0.031 A 
ATOM      3  C3  DEN d   1      -1.318   0.694   2.335  0.00  0.00     0.027 A 
ATOM      4  C4  DEN d   1       0.272  -1.077   1.341  0.00  0.00     0.027 A 
ATOM      5  C5  DEN d   1       0.911  -1.494   0.195  0.00  0.00    -0.003 A 
ATOM      6  C6  DEN d   1       0.757  -0.849  -1.003  0.00  0.00     0.001 A 
ATOM      7  C7  DEN d   1      -0.021   0.276  -1.073  0.00  0.00     0.017 A 
ATOM      8  C8  DEN d   1      -0.675   0.699   0.077  0.00  0.00    -0.094 A 
ATOM      9  C9  DEN d   1      -0.496   0.040   1.282  0.00  0.00    -0.072 A 
ENDROOT
TORSDOF 0
ENDMDL
