MODEL 1
REMARK minimizedAffinity -4.32909536
REMARK minimizedRMSD -1
REMARK  0 active torsions:
REMARK  status: ('A' for Active; 'I' for Inactive)
ROOT
ATOM      1  C1  DEN d   1      -1.731   2.202  -0.056  0.00  0.00     0.130 A 
ATOM      2  C2  DEN d   1      -2.008   2.361   1.369  0.00  0.00    -0.031 A 
ATOM      3  C3  DEN d   1      -1.349   1.253   2.088  0.00  0.00     0.027 A 
ATOM      4  C4  DEN d   1       0.069  -0.682   1.140  0.00  0.00     0.027 A 
ATOM      5  C5  DEN d   1       0.572  -1.245  -0.011  0.00  0.00    -0.003 A 
ATOM      6  C6  DEN d   1       0.316  -0.723  -1.252  0.00  0.00     0.001 A 
ATOM      7  C7  DEN d   1      -0.426   0.422  -1.366  0.00  0.00     0.017 A 
ATOM      8  C8  DEN d   1      -0.942   0.992  -0.210  0.00  0.00    -0.094 A 
ATOM      9  C9  DEN d   1      -0.662   0.456   1.036  0.00  0.00    -0.072 A 
ENDROOT
TORSDOF 0
ENDMDL
