MODEL 1
REMARK minimizedAffinity -5.16181087
REMARK minimizedRMSD -1
REMARK  0 active torsions:
REMARK  status: ('A' for Active; 'I' for Inactive)
ROOT
ATOM      1  C1  DEN d   1       0.215  -1.304   1.068  0.00  0.00     0.130 A 
ATOM      2  C2  DEN d   1       0.408  -1.736  -0.313  0.00  0.00    -0.031 A 
ATOM      3  C3  DEN d   1      -0.209  -0.728  -1.198  0.00  0.00     0.027 A 
ATOM      4  C4  DEN d   1      -1.433   1.453  -0.567  0.00  0.00     0.027 A 
ATOM      5  C5  DEN d   1      -1.856   2.240   0.482  0.00  0.00    -0.003 A 
ATOM      6  C6  DEN d   1      -1.650   1.887   1.789  0.00  0.00     0.001 A 
ATOM      7  C7  DEN d   1      -0.963   0.738   2.082  0.00  0.00     0.017 A 
ATOM      8  C8  DEN d   1      -0.540  -0.064   1.030  0.00  0.00    -0.094 A 
ATOM      9  C9  DEN d   1      -0.748   0.316  -0.285  0.00  0.00    -0.072 A 
ENDROOT
TORSDOF 0
ENDMDL
