MODEL 1
REMARK minimizedAffinity -2.73037052
REMARK minimizedRMSD -1
REMARK  0 active torsions:
REMARK  status: ('A' for Active; 'I' for Inactive)
ROOT
ATOM      1  C1  DEN d   1       1.415  -1.055   0.665  0.00  0.00     0.130 A 
ATOM      2  C2  DEN d   1       2.081  -1.049  -0.635  0.00  0.00    -0.031 A 
ATOM      3  C3  DEN d   1       1.500   0.044  -1.441  0.00  0.00     0.027 A 
ATOM      4  C4  DEN d   1      -0.352   1.722  -0.802  0.00  0.00     0.027 A 
ATOM      5  C5  DEN d   1      -1.227   2.104   0.190  0.00  0.00    -0.003 A 
ATOM      6  C6  DEN d   1      -1.307   1.444   1.388  0.00  0.00     0.001 A 
ATOM      7  C7  DEN d   1      -0.464   0.394   1.641  0.00  0.00     0.017 A 
ATOM      8  C8  DEN d   1       0.416  -0.002   0.642  0.00  0.00    -0.094 A 
ATOM      9  C9  DEN d   1       0.490   0.686  -0.557  0.00  0.00    -0.072 A 
ENDROOT
TORSDOF 0
ENDMDL
