MODEL 1
REMARK minimizedAffinity -5.12909937
REMARK minimizedRMSD -1
REMARK  0 active torsions:
REMARK  status: ('A' for Active; 'I' for Inactive)
ROOT
ATOM      1  C1  DEN d   1       1.286  -2.667  -1.875  0.00  0.00     0.130 A 
ATOM      2  C2  DEN d   1       0.255  -3.043  -2.838  0.00  0.00    -0.031 A 
ATOM      3  C3  DEN d   1      -0.995  -2.352  -2.461  0.00  0.00     0.027 A 
ATOM      4  C4  DEN d   1      -1.430  -0.743  -0.493  0.00  0.00     0.027 A 
ATOM      5  C5  DEN d   1      -0.863  -0.131   0.603  0.00  0.00    -0.003 A 
ATOM      6  C6  DEN d   1       0.440  -0.346   0.967  0.00  0.00     0.001 A 
ATOM      7  C7  DEN d   1       1.233  -1.160   0.201  0.00  0.00     0.017 A 
ATOM      8  C8  DEN d   1       0.666  -1.787  -0.901  0.00  0.00    -0.094 A 
ATOM      9  C9  DEN d   1      -0.649  -1.547  -1.259  0.00  0.00    -0.072 A 
ENDROOT
TORSDOF 0
ENDMDL
