MODEL 1
REMARK minimizedAffinity -4.51211786
REMARK minimizedRMSD -1
REMARK  0 active torsions:
REMARK  status: ('A' for Active; 'I' for Inactive)
ROOT
ATOM      1  C1  DEN d   1      -0.686   0.454  -0.773  0.00  0.00     0.130 A 
ATOM      2  C2  DEN d   1      -0.332   0.570   0.639  0.00  0.00    -0.031 A 
ATOM      3  C3  DEN d   1       0.577  -0.544   0.974  0.00  0.00     0.027 A 
ATOM      4  C4  DEN d   1       1.470  -2.424  -0.548  0.00  0.00     0.027 A 
ATOM      5  C5  DEN d   1       1.440  -2.947  -1.822  0.00  0.00    -0.003 A 
ATOM      6  C6  DEN d   1       0.678  -2.397  -2.819  0.00  0.00     0.001 A 
ATOM      7  C7  DEN d   1      -0.050  -1.264  -2.570  0.00  0.00     0.017 A 
ATOM      8  C8  DEN d   1      -0.030  -0.735  -1.286  0.00  0.00    -0.094 A 
ATOM      9  C9  DEN d   1       0.756  -1.299  -0.295  0.00  0.00    -0.072 A 
ENDROOT
TORSDOF 0
ENDMDL
