MODEL 1
REMARK minimizedAffinity -4.20208549
REMARK minimizedRMSD -1
REMARK  0 active torsions:
REMARK  status: ('A' for Active; 'I' for Inactive)
ROOT
ATOM      1  C1  DEN d   1      -1.404   2.176   0.006  0.00  0.00     0.130 A 
ATOM      2  C2  DEN d   1      -2.107   1.325   0.962  0.00  0.00    -0.031 A 
ATOM      3  C3  DEN d   1      -1.378   0.044   1.056  0.00  0.00     0.027 A 
ATOM      4  C4  DEN d   1       0.764  -0.698  -0.175  0.00  0.00     0.027 A 
ATOM      5  C5  DEN d   1       1.717  -0.322  -1.095  0.00  0.00    -0.003 A 
ATOM      6  C6  DEN d   1       1.678   0.890  -1.733  0.00  0.00     0.001 A 
ATOM      7  C7  DEN d   1       0.690   1.787  -1.426  0.00  0.00     0.017 A 
ATOM      8  C8  DEN d   1      -0.279   1.412  -0.504  0.00  0.00    -0.094 A 
ATOM      9  C9  DEN d   1      -0.215   0.188   0.139  0.00  0.00    -0.072 A 
ENDROOT
TORSDOF 0
ENDMDL
