MODEL 1
REMARK minimizedAffinity -4.23543692
REMARK minimizedRMSD -1
REMARK  0 active torsions:
REMARK  status: ('A' for Active; 'I' for Inactive)
ROOT
ATOM      1  C1  DEN d   1      -1.541   2.106   0.471  0.00  0.00     0.130 A 
ATOM      2  C2  DEN d   1      -2.064   2.154   1.834  0.00  0.00    -0.031 A 
ATOM      3  C3  DEN d   1      -1.472   1.032   2.589  0.00  0.00     0.027 A 
ATOM      4  C4  DEN d   1       0.199  -0.762   1.787  0.00  0.00     0.027 A 
ATOM      5  C5  DEN d   1       0.922  -1.220   0.708  0.00  0.00    -0.003 A 
ATOM      6  C6  DEN d   1       0.849  -0.627  -0.525  0.00  0.00     0.001 A 
ATOM      7  C7  DEN d   1       0.070   0.486  -0.697  0.00  0.00     0.017 A 
ATOM      8  C8  DEN d   1      -0.667   0.950   0.385  0.00  0.00    -0.094 A 
ATOM      9  C9  DEN d   1      -0.571   0.344   1.626  0.00  0.00    -0.072 A 
ENDROOT
TORSDOF 0
ENDMDL
