MODEL 1
REMARK minimizedAffinity -3.92628145
REMARK minimizedRMSD -1
REMARK  0 active torsions:
REMARK  status: ('A' for Active; 'I' for Inactive)
ROOT
ATOM      1  C1  DEN d   1      -1.856   1.538   0.036  0.00  0.00     0.130 A 
ATOM      2  C2  DEN d   1      -2.129   1.925   1.417  0.00  0.00    -0.031 A 
ATOM      3  C3  DEN d   1      -1.131   1.265   2.283  0.00  0.00     0.027 A 
ATOM      4  C4  DEN d   1       0.803  -0.308   1.621  0.00  0.00     0.027 A 
ATOM      5  C5  DEN d   1       1.426  -0.939   0.567  0.00  0.00    -0.003 A 
ATOM      6  C6  DEN d   1       0.983  -0.816  -0.723  0.00  0.00     0.001 A 
ATOM      7  C7  DEN d   1      -0.089  -0.009  -0.998  0.00  0.00     0.017 A 
ATOM      8  C8  DEN d   1      -0.728   0.624   0.060  0.00  0.00    -0.094 A 
ATOM      9  C9  DEN d   1      -0.257   0.497   1.356  0.00  0.00    -0.072 A 
ENDROOT
TORSDOF 0
ENDMDL
