MODEL 1
REMARK minimizedAffinity -5.21291828
REMARK minimizedRMSD -1
REMARK  0 active torsions:
REMARK  status: ('A' for Active; 'I' for Inactive)
ROOT
ATOM      1  C1  DEN d   1       0.368  -0.945   1.201  0.00  0.00     0.130 A 
ATOM      2  C2  DEN d   1       1.193  -0.924  -0.004  0.00  0.00    -0.031 A 
ATOM      3  C3  DEN d   1       0.762   0.220  -0.833  0.00  0.00     0.027 A 
ATOM      4  C4  DEN d   1      -1.091   1.953  -0.368  0.00  0.00     0.027 A 
ATOM      5  C5  DEN d   1      -2.071   2.338   0.520  0.00  0.00    -0.003 A 
ATOM      6  C6  DEN d   1      -2.328   1.641   1.671  0.00  0.00     0.001 A 
ATOM      7  C7  DEN d   1      -1.565   0.548   1.988  0.00  0.00     0.017 A 
ATOM      8  C8  DEN d   1      -0.580   0.150   1.093  0.00  0.00    -0.094 A 
ATOM      9  C9  DEN d   1      -0.328   0.874  -0.059  0.00  0.00    -0.072 A 
ENDROOT
TORSDOF 0
ENDMDL
