MODEL 1
REMARK minimizedAffinity -3.67585301
REMARK minimizedRMSD -1
REMARK  0 active torsions:
REMARK  status: ('A' for Active; 'I' for Inactive)
ROOT
ATOM      1  C1  DEN d   1       0.033   1.973  -1.091  0.00  0.00     0.130 A 
ATOM      2  C2  DEN d   1       1.133   1.083  -1.452  0.00  0.00    -0.031 A 
ATOM      3  C3  DEN d   1       1.104  -0.073  -0.533  0.00  0.00     0.027 A 
ATOM      4  C4  DEN d   1      -0.530  -0.570   1.399  0.00  0.00     0.027 A 
ATOM      5  C5  DEN d   1      -1.623  -0.100   2.094  0.00  0.00    -0.003 A 
ATOM      6  C6  DEN d   1      -2.214   1.100   1.801  0.00  0.00     0.001 A 
ATOM      7  C7  DEN d   1      -1.743   1.851   0.756  0.00  0.00     0.017 A 
ATOM      8  C8  DEN d   1      -0.638   1.387   0.055  0.00  0.00    -0.094 A 
ATOM      9  C9  DEN d   1      -0.062   0.165   0.359  0.00  0.00    -0.072 A 
ENDROOT
TORSDOF 0
ENDMDL
