MODEL 1
REMARK minimizedAffinity 1.89746797
REMARK minimizedRMSD -1
REMARK  0 active torsions:
REMARK  status: ('A' for Active; 'I' for Inactive)
ROOT
ATOM      1  C   UNL d   1       3.032  -1.618   1.070  0.00  0.00     0.020 A 
ATOM      2  C1  UNL d   1       2.261  -2.124   0.024  0.00  0.00     0.020 A 
ATOM      3  C2  UNL d   1       1.342  -1.299  -0.629  0.00  0.00     0.034 A 
ATOM      4  C3  UNL d   1       1.192   0.036  -0.236  0.00  0.00     0.017 A 
ATOM      5  C4  UNL d   1       1.966   0.543   0.814  0.00  0.00     0.017 A 
ATOM      6  C5  UNL d   1       2.884  -0.288   1.464  0.00  0.00     0.034 A 
ATOM      7 Cl   UNL d   1       1.836   2.179   1.356  0.00  0.00    -0.070 Cl
ATOM      8 Cl1  UNL d   1       0.037   0.998  -1.087  0.00  0.00    -0.070 Cl
ENDROOT
TORSDOF 0
ENDMDL
