MODEL 1
REMARK minimizedAffinity 4.7326932
REMARK minimizedRMSD -1
REMARK  0 active torsions:
REMARK  status: ('A' for Active; 'I' for Inactive)
ROOT
ATOM      1  C   UNL d   1       1.505   1.413   0.024  0.00  0.00     0.020 A 
ATOM      2  C1  UNL d   1       1.598   2.803   0.055  0.00  0.00     0.020 A 
ATOM      3  C2  UNL d   1       0.703   3.546   0.829  0.00  0.00     0.034 A 
ATOM      4  C3  UNL d   1      -0.289   2.897   1.574  0.00  0.00     0.017 A 
ATOM      5  C4  UNL d   1      -0.381   1.501   1.542  0.00  0.00     0.017 A 
ATOM      6  C5  UNL d   1       0.518   0.763   0.766  0.00  0.00     0.034 A 
ATOM      7 Cl   UNL d   1      -1.578   0.631   2.435  0.00  0.00    -0.070 Cl
ATOM      8 Cl1  UNL d   1      -1.362   3.878   2.509  0.00  0.00    -0.070 Cl
ENDROOT
TORSDOF 0
ENDMDL
