MODEL 1
REMARK minimizedAffinity 3.82158256
REMARK minimizedRMSD -1
REMARK  0 active torsions:
REMARK  status: ('A' for Active; 'I' for Inactive)
ROOT
ATOM      1  C   UNL d   1       2.817  -2.144   0.588  0.00  0.00     0.020 A 
ATOM      2  C1  UNL d   1       2.859  -0.793   0.243  0.00  0.00     0.020 A 
ATOM      3  C2  UNL d   1       1.871  -0.252  -0.582  0.00  0.00     0.034 A 
ATOM      4  C3  UNL d   1       0.837  -1.062  -1.066  0.00  0.00     0.017 A 
ATOM      5  C4  UNL d   1       0.795  -2.417  -0.719  0.00  0.00     0.017 A 
ATOM      6  C5  UNL d   1       1.787  -2.954   0.108  0.00  0.00     0.034 A 
ATOM      7 Cl   UNL d   1      -0.449  -3.478  -1.277  0.00  0.00    -0.070 Cl
ATOM      8 Cl1  UNL d   1      -0.351  -0.326  -2.083  0.00  0.00    -0.070 Cl
ENDROOT
TORSDOF 0
ENDMDL
