MODEL 1
REMARK minimizedAffinity 0.269203186
REMARK minimizedRMSD -1
REMARK  0 active torsions:
REMARK  status: ('A' for Active; 'I' for Inactive)
ROOT
ATOM      1  C   UNL d   1       1.085  -3.632   0.562  0.00  0.00     0.020 A 
ATOM      2  C1  UNL d   1      -0.050  -3.680  -0.247  0.00  0.00     0.020 A 
ATOM      3  C2  UNL d   1      -0.429  -2.557  -0.985  0.00  0.00     0.034 A 
ATOM      4  C3  UNL d   1       0.327  -1.381  -0.916  0.00  0.00     0.017 A 
ATOM      5  C4  UNL d   1       1.466  -1.334  -0.104  0.00  0.00     0.017 A 
ATOM      6  C5  UNL d   1       1.842  -2.462   0.633  0.00  0.00     0.034 A 
ATOM      7 Cl   UNL d   1       2.450   0.081   0.033  0.00  0.00    -0.070 Cl
ATOM      8 Cl1  UNL d   1      -0.200  -0.030  -1.855  0.00  0.00    -0.070 Cl
ENDROOT
TORSDOF 0
ENDMDL
