MODEL 1
REMARK minimizedAffinity 6.16058493
REMARK minimizedRMSD -1
REMARK  0 active torsions:
REMARK  status: ('A' for Active; 'I' for Inactive)
ROOT
ATOM      1  C   UNL d   1       3.405  -1.904   0.780  0.00  0.00     0.020 A 
ATOM      2  C1  UNL d   1       2.531  -2.083  -0.292  0.00  0.00     0.020 A 
ATOM      3  C2  UNL d   1       1.689  -1.042  -0.688  0.00  0.00     0.034 A 
ATOM      4  C3  UNL d   1       1.718   0.183  -0.011  0.00  0.00     0.017 A 
ATOM      5  C4  UNL d   1       2.596   0.362   1.064  0.00  0.00     0.017 A 
ATOM      6  C5  UNL d   1       3.437  -0.684   1.456  0.00  0.00     0.034 A 
ATOM      7 Cl   UNL d   1       2.689   1.845   1.947  0.00  0.00    -0.070 Cl
ATOM      8 Cl1  UNL d   1       0.649   1.427  -0.555  0.00  0.00    -0.070 Cl
ENDROOT
TORSDOF 0
ENDMDL
