MODEL 1
REMARK minimizedAffinity 2.77202559
REMARK minimizedRMSD -1
REMARK  0 active torsions:
REMARK  status: ('A' for Active; 'I' for Inactive)
ROOT
ATOM      1  C   UNL d   1       2.633  -2.236  -0.687  0.00  0.00     0.020 A 
ATOM      2  C1  UNL d   1       1.276  -2.202  -0.366  0.00  0.00     0.020 A 
ATOM      3  C2  UNL d   1       0.638  -0.976  -0.164  0.00  0.00     0.034 A 
ATOM      4  C3  UNL d   1       1.356   0.219  -0.280  0.00  0.00     0.017 A 
ATOM      5  C4  UNL d   1       2.718   0.183  -0.602  0.00  0.00     0.017 A 
ATOM      6  C5  UNL d   1       3.352  -1.046  -0.804  0.00  0.00     0.034 A 
ATOM      7 Cl   UNL d   1       3.670   1.616  -0.763  0.00  0.00    -0.070 Cl
ATOM      8 Cl1  UNL d   1       0.503   1.699  -0.016  0.00  0.00    -0.070 Cl
ENDROOT
TORSDOF 0
ENDMDL
