MODEL 1
REMARK minimizedAffinity -2.96864581
REMARK minimizedRMSD -1
REMARK  0 active torsions:
REMARK  status: ('A' for Active; 'I' for Inactive)
ROOT
ATOM      1  C   UNL d   1       1.772  -2.233  -0.703  0.00  0.00     0.020 A 
ATOM      2  C1  UNL d   1       2.063  -2.767  -1.957  0.00  0.00     0.020 A 
ATOM      3  C2  UNL d   1       2.940  -2.100  -2.814  0.00  0.00     0.034 A 
ATOM      4  C3  UNL d   1       3.530  -0.894  -2.418  0.00  0.00     0.017 A 
ATOM      5  C4  UNL d   1       3.238  -0.359  -1.158  0.00  0.00     0.017 A 
ATOM      6  C5  UNL d   1       2.358  -1.031  -0.304  0.00  0.00     0.034 A 
ATOM      7 Cl   UNL d   1       3.926   1.125  -0.599  0.00  0.00    -0.070 Cl
ATOM      8 Cl1  UNL d   1       4.606  -0.122  -3.528  0.00  0.00    -0.070 Cl
ENDROOT
TORSDOF 0
ENDMDL
