MODEL 1
REMARK minimizedAffinity -4.75712347
REMARK minimizedRMSD -1
REMARK  0 active torsions:
REMARK  status: ('A' for Active; 'I' for Inactive)
ROOT
ATOM      1  C   UNL d   1      -0.914   0.405  -0.580  0.00  0.00     0.078 C 
ATOM      2  C1  UNL d   1       0.446   0.454   0.050  0.00  0.00    -0.077 A 
ATOM      3  C2  UNL d   1       1.136   1.665   0.181  0.00  0.00    -0.001 A 
ATOM      4  C3  UNL d   1       2.406   1.695   0.761  0.00  0.00     0.003 A 
ATOM      5  C4  UNL d   1       2.996   0.516   1.213  0.00  0.00    -0.005 A 
ATOM      6  C5  UNL d   1       2.317  -0.694   1.086  0.00  0.00     0.003 A 
ATOM      7  C6  UNL d   1       1.048  -0.725   0.506  0.00  0.00    -0.001 A 
ENDROOT
TORSDOF 0
ENDMDL
