MODEL 1
REMARK minimizedAffinity -0.795589745
REMARK minimizedRMSD -1
REMARK  0 active torsions:
REMARK  status: ('A' for Active; 'I' for Inactive)
ROOT
ATOM      1  C   UNL d   1       0.678   1.885   0.375  0.00  0.00     0.078 C 
ATOM      2  C1  UNL d   1       0.403   0.452   0.028  0.00  0.00    -0.077 A 
ATOM      3  C2  UNL d   1      -0.825   0.066  -0.523  0.00  0.00    -0.001 A 
ATOM      4  C3  UNL d   1      -1.071  -1.273  -0.831  0.00  0.00     0.003 A 
ATOM      5  C4  UNL d   1      -0.094  -2.237  -0.590  0.00  0.00    -0.005 A 
ATOM      6  C5  UNL d   1       1.130  -1.863  -0.040  0.00  0.00     0.003 A 
ATOM      7  C6  UNL d   1       1.378  -0.524   0.269  0.00  0.00    -0.001 A 
ENDROOT
TORSDOF 0
ENDMDL
