MODEL 1
REMARK minimizedAffinity -0.597115159
REMARK minimizedRMSD -1
REMARK  0 active torsions:
REMARK  status: ('A' for Active; 'I' for Inactive)
ROOT
ATOM      1  C   UNL d   1      -2.961   1.019  -0.272  0.00  0.00     0.078 C 
ATOM      2  C1  UNL d   1      -1.567   0.469  -0.304  0.00  0.00    -0.077 A 
ATOM      3  C2  UNL d   1      -1.337  -0.910  -0.384  0.00  0.00    -0.001 A 
ATOM      4  C3  UNL d   1      -0.034  -1.408  -0.404  0.00  0.00     0.003 A 
ATOM      5  C4  UNL d   1       1.050  -0.535  -0.342  0.00  0.00    -0.005 A 
ATOM      6  C5  UNL d   1       0.832   0.838  -0.260  0.00  0.00     0.003 A 
ATOM      7  C6  UNL d   1      -0.471   1.339  -0.241  0.00  0.00    -0.001 A 
ENDROOT
TORSDOF 0
ENDMDL
