MODEL 1
REMARK minimizedAffinity -3.13379216
REMARK minimizedRMSD -1
REMARK  0 active torsions:
REMARK  status: ('A' for Active; 'I' for Inactive)
ROOT
ATOM      1  C   UNL d   1       2.034  -2.271   0.032  0.00  0.00     0.078 C 
ATOM      2  C1  UNL d   1       0.734  -1.526   0.091  0.00  0.00    -0.077 A 
ATOM      3  C2  UNL d   1      -0.477  -2.203   0.277  0.00  0.00    -0.001 A 
ATOM      4  C3  UNL d   1      -1.681  -1.497   0.320  0.00  0.00     0.003 A 
ATOM      5  C4  UNL d   1      -1.685  -0.111   0.176  0.00  0.00    -0.005 A 
ATOM      6  C5  UNL d   1      -0.485   0.571  -0.012  0.00  0.00     0.003 A 
ATOM      7  C6  UNL d   1       0.720  -0.133  -0.055  0.00  0.00    -0.001 A 
ENDROOT
TORSDOF 0
ENDMDL
