MODEL 1
REMARK minimizedAffinity -2.67779875
REMARK minimizedRMSD -1
REMARK  0 active torsions:
REMARK  status: ('A' for Active; 'I' for Inactive)
ROOT
ATOM      1  C   UNL d   1      -0.052  -0.709  -0.725  0.00  0.00     0.078 C 
ATOM      2  C1  UNL d   1      -1.156   0.011  -0.009  0.00  0.00    -0.077 A 
ATOM      3  C2  UNL d   1      -1.178   0.091   1.388  0.00  0.00    -0.001 A 
ATOM      4  C3  UNL d   1      -2.217   0.756   2.041  0.00  0.00     0.003 A 
ATOM      5  C4  UNL d   1      -3.243   1.344   1.304  0.00  0.00    -0.005 A 
ATOM      6  C5  UNL d   1      -3.231   1.268  -0.087  0.00  0.00     0.003 A 
ATOM      7  C6  UNL d   1      -2.193   0.603  -0.741  0.00  0.00    -0.001 A 
ENDROOT
TORSDOF 0
ENDMDL
