MODEL 1
REMARK minimizedAffinity -2.73449707
REMARK minimizedRMSD -1
REMARK  0 active torsions:
REMARK  status: ('A' for Active; 'I' for Inactive)
ROOT
ATOM      1  C   UNL d   1      -2.394   0.738  -0.348  0.00  0.00     0.078 C 
ATOM      2  C1  UNL d   1      -0.987   0.222  -0.397  0.00  0.00    -0.077 A 
ATOM      3  C2  UNL d   1      -0.726  -1.150  -0.503  0.00  0.00    -0.001 A 
ATOM      4  C3  UNL d   1       0.589  -1.617  -0.538  0.00  0.00     0.003 A 
ATOM      5  C4  UNL d   1       1.653  -0.720  -0.465  0.00  0.00    -0.005 A 
ATOM      6  C5  UNL d   1       1.402   0.647  -0.358  0.00  0.00     0.003 A 
ATOM      7  C6  UNL d   1       0.088   1.116  -0.323  0.00  0.00    -0.001 A 
ENDROOT
TORSDOF 0
ENDMDL
