MODEL 1
REMARK minimizedAffinity -3.19612122
REMARK minimizedRMSD -1
REMARK  0 active torsions:
REMARK  status: ('A' for Active; 'I' for Inactive)
ROOT
ATOM      1  C   UNL d   1       3.705  -0.715   0.581  0.00  0.00     0.078 C 
ATOM      2  C1  UNL d   1       2.382  -0.130   0.184  0.00  0.00    -0.077 A 
ATOM      3  C2  UNL d   1       2.112   1.231   0.370  0.00  0.00    -0.001 A 
ATOM      4  C3  UNL d   1       0.873   1.761   0.005  0.00  0.00     0.003 A 
ATOM      5  C4  UNL d   1      -0.106   0.936  -0.547  0.00  0.00    -0.005 A 
ATOM      6  C5  UNL d   1       0.154  -0.420  -0.733  0.00  0.00     0.003 A 
ATOM      7  C6  UNL d   1       1.392  -0.951  -0.369  0.00  0.00    -0.001 A 
ENDROOT
TORSDOF 0
ENDMDL
