MODEL 1
REMARK minimizedAffinity -4.23506641
REMARK minimizedRMSD -1
REMARK  0 active torsions:
REMARK  status: ('A' for Active; 'I' for Inactive)
ROOT
ATOM      1  C   UNL d   1       2.609  -1.786   0.262  0.00  0.00     0.078 C 
ATOM      2  C1  UNL d   1       1.335  -1.025   0.049  0.00  0.00    -0.077 A 
ATOM      3  C2  UNL d   1       0.273  -1.583  -0.673  0.00  0.00    -0.001 A 
ATOM      4  C3  UNL d   1      -0.903  -0.859  -0.872  0.00  0.00     0.003 A 
ATOM      5  C4  UNL d   1      -1.029   0.428  -0.353  0.00  0.00    -0.005 A 
ATOM      6  C5  UNL d   1       0.023   0.993   0.365  0.00  0.00     0.003 A 
ATOM      7  C6  UNL d   1       1.200   0.270   0.565  0.00  0.00    -0.001 A 
ENDROOT
TORSDOF 0
ENDMDL
