MODEL 1
REMARK minimizedAffinity -1.96275711
REMARK minimizedRMSD -1
REMARK  0 active torsions:
REMARK  status: ('A' for Active; 'I' for Inactive)
ROOT
ATOM      1  N1  IND d   1       4.275  -2.419   4.054  0.00  0.00    -0.196 N 
ATOM      2  C2  IND d   1       5.227  -1.623   4.627  0.00  0.00     0.054 A 
ATOM      3  C3  IND d   1       5.994  -2.345   5.474  0.00  0.00    -0.031 A 
ATOM      4  C4  IND d   1       5.930  -4.866   5.995  0.00  0.00     0.051 A 
ATOM      5  C5  IND d   1       5.211  -6.000   5.742  0.00  0.00    -0.031 A 
ATOM      6  C6  IND d   1       4.122  -5.999   4.894  0.00  0.00     0.015 A 
ATOM      7  C7  IND d   1       3.718  -4.861   4.255  0.00  0.00    -0.016 A 
ATOM      8  C8  IND d   1       4.441  -3.706   4.516  0.00  0.00    -0.047 A 
ATOM      9  C9  IND d   1       5.521  -3.691   5.408  0.00  0.00    -0.096 A 
ATOM     10  HN1 IND d   1       3.672  -2.159   3.498  0.00  0.00     0.298 HD
ENDROOT
TORSDOF 0
ENDMDL
