MODEL 1
REMARK minimizedAffinity 23.8600101
REMARK minimizedRMSD -1
REMARK  0 active torsions:
REMARK  status: ('A' for Active; 'I' for Inactive)
ROOT
ATOM      1  N1  IND d   1      -2.941   6.000   6.000  0.00  0.00    -0.196 N 
ATOM      2  C2  IND d   1      -1.586   5.822   5.962  0.00  0.00     0.054 A 
ATOM      3  C3  IND d   1      -1.186   5.521   4.707  0.00  0.00    -0.031 A 
ATOM      4  C4  IND d   1      -2.570   5.367   2.542  0.00  0.00     0.051 A 
ATOM      5  C5  IND d   1      -3.855   5.413   2.079  0.00  0.00    -0.031 A 
ATOM      6  C6  IND d   1      -4.923   5.665   2.916  0.00  0.00     0.015 A 
ATOM      7  C7  IND d   1      -4.743   5.892   4.251  0.00  0.00    -0.016 A 
ATOM      8  C8  IND d   1      -3.440   5.839   4.726  0.00  0.00    -0.047 A 
ATOM      9  C9  IND d   1      -2.357   5.542   3.888  0.00  0.00    -0.096 A 
ATOM     10  HN1 IND d   1      -3.404   6.182   6.701  0.00  0.00     0.298 HD
ENDROOT
TORSDOF 0
ENDMDL
