MODEL 1
REMARK minimizedAffinity 0.921912968
REMARK minimizedRMSD -1
REMARK  0 active torsions:
REMARK  status: ('A' for Active; 'I' for Inactive)
ROOT
ATOM      1  N1  IND d   1       3.900   5.998   3.210  0.00  0.00    -0.196 N 
ATOM      2  C2  IND d   1       5.023   5.662   3.914  0.00  0.00     0.054 A 
ATOM      3  C3  IND d   1       5.996   5.242   3.074  0.00  0.00    -0.031 A 
ATOM      4  C4  IND d   1       5.999   5.123   0.503  0.00  0.00     0.051 A 
ATOM      5  C5  IND d   1       5.188   5.291  -0.584  0.00  0.00    -0.031 A 
ATOM      6  C6  IND d   1       3.880   5.715  -0.460  0.00  0.00     0.015 A 
ATOM      7  C7  IND d   1       3.337   5.998   0.761  0.00  0.00    -0.016 A 
ATOM      8  C8  IND d   1       4.155   5.822   1.867  0.00  0.00    -0.047 A 
ATOM      9  C9  IND d   1       5.469   5.351   1.751  0.00  0.00    -0.096 A 
ATOM     10  HN1 IND d   1       3.159   6.273   3.548  0.00  0.00     0.298 HD
ENDROOT
TORSDOF 0
ENDMDL
