MODEL 1
REMARK minimizedAffinity 10.3985491
REMARK minimizedRMSD -1
REMARK  0 active torsions:
REMARK  status: ('A' for Active; 'I' for Inactive)
ROOT
ATOM      1  N1  IND d   1      -2.779   2.214   3.655  0.00  0.00    -0.196 N 
ATOM      2  C2  IND d   1      -2.674   3.464   3.111  0.00  0.00     0.054 A 
ATOM      3  C3  IND d   1      -2.580   3.384   1.764  0.00  0.00    -0.031 A 
ATOM      4  C4  IND d   1      -2.680   1.313   0.238  0.00  0.00     0.051 A 
ATOM      5  C5  IND d   1      -2.733  -0.052   0.277  0.00  0.00    -0.031 A 
ATOM      6  C6  IND d   1      -2.808  -0.746   1.468  0.00  0.00     0.015 A 
ATOM      7  C7  IND d   1      -2.844  -0.096   2.669  0.00  0.00    -0.016 A 
ATOM      8  C8  IND d   1      -2.784   1.290   2.634  0.00  0.00    -0.047 A 
ATOM      9  C9  IND d   1      -2.665   1.997   1.431  0.00  0.00    -0.096 A 
ATOM     10  HN1 IND d   1      -2.833   2.036   4.495  0.00  0.00     0.298 HD
ENDROOT
TORSDOF 0
ENDMDL
