MODEL 1
REMARK minimizedAffinity 11.4649763
REMARK minimizedRMSD -1
REMARK  0 active torsions:
REMARK  status: ('A' for Active; 'I' for Inactive)
ROOT
ATOM      1  N1  IND d   1      -1.232   3.947   4.496  0.00  0.00    -0.196 N 
ATOM      2  C2  IND d   1      -1.585   5.230   4.184  0.00  0.00     0.054 A 
ATOM      3  C3  IND d   1      -2.331   5.252   3.056  0.00  0.00    -0.031 A 
ATOM      4  C4  IND d   1      -3.176   3.293   1.616  0.00  0.00     0.051 A 
ATOM      5  C5  IND d   1      -3.082   1.936   1.481  0.00  0.00    -0.031 A 
ATOM      6  C6  IND d   1      -2.354   1.165   2.363  0.00  0.00     0.015 A 
ATOM      7  C7  IND d   1      -1.699   1.722   3.425  0.00  0.00    -0.016 A 
ATOM      8  C8  IND d   1      -1.787   3.100   3.561  0.00  0.00    -0.047 A 
ATOM      9  C9  IND d   1      -2.489   3.893   2.645  0.00  0.00    -0.096 A 
ATOM     10  HN1 IND d   1      -0.745   3.708   5.163  0.00  0.00     0.298 HD
ENDROOT
TORSDOF 0
ENDMDL
