MODEL 1
REMARK minimizedAffinity 10.2073498
REMARK minimizedRMSD -1
REMARK  0 active torsions:
REMARK  status: ('A' for Active; 'I' for Inactive)
ROOT
ATOM      1  N1  IND d   1      -1.620   4.373   4.879  0.00  0.00    -0.196 N 
ATOM      2  C2  IND d   1      -1.555   5.219   5.950  0.00  0.00     0.054 A 
ATOM      3  C3  IND d   1      -2.657   6.000   6.000  0.00  0.00    -0.031 A 
ATOM      4  C4  IND d   1      -4.739   5.989   4.485  0.00  0.00     0.051 A 
ATOM      5  C5  IND d   1      -5.243   5.418   3.351  0.00  0.00    -0.031 A 
ATOM      6  C6  IND d   1      -4.552   4.447   2.655  0.00  0.00     0.015 A 
ATOM      7  C7  IND d   1      -3.331   4.001   3.076  0.00  0.00    -0.016 A 
ATOM      8  C8  IND d   1      -2.813   4.585   4.224  0.00  0.00    -0.047 A 
ATOM      9  C9  IND d   1      -3.491   5.601   4.910  0.00  0.00    -0.096 A 
ATOM     10  HN1 IND d   1      -1.017   3.803   4.652  0.00  0.00     0.298 HD
ENDROOT
TORSDOF 0
ENDMDL
