MODEL 1
REMARK minimizedAffinity 1.51534367
REMARK minimizedRMSD -1
REMARK  0 active torsions:
REMARK  status: ('A' for Active; 'I' for Inactive)
ROOT
ATOM      1  N1  IND d   1       0.395   1.570  -5.011  0.00  0.00    -0.196 N 
ATOM      2  C2  IND d   1       1.091   2.208  -6.000  0.00  0.00     0.054 A 
ATOM      3  C3  IND d   1       2.359   2.452  -5.601  0.00  0.00    -0.031 A 
ATOM      4  C4  IND d   1       3.537   1.800  -3.407  0.00  0.00     0.051 A 
ATOM      5  C5  IND d   1       3.302   1.238  -2.183  0.00  0.00    -0.031 A 
ATOM      6  C6  IND d   1       2.061   0.745  -1.834  0.00  0.00     0.015 A 
ATOM      7  C7  IND d   1       1.008   0.786  -2.703  0.00  0.00    -0.016 A 
ATOM      8  C8  IND d   1       1.241   1.363  -3.944  0.00  0.00    -0.047 A 
ATOM      9  C9  IND d   1       2.487   1.903  -4.288  0.00  0.00    -0.096 A 
ATOM     10  HN1 IND d   1      -0.432   1.337  -5.049  0.00  0.00     0.298 HD
ENDROOT
TORSDOF 0
ENDMDL
