MODEL 1
REMARK minimizedAffinity 11.8278704
REMARK minimizedRMSD -1
REMARK  0 active torsions:
REMARK  status: ('A' for Active; 'I' for Inactive)
ROOT
ATOM      1  N1  IND d   1       3.847   5.988   4.693  0.00  0.00    -0.196 N 
ATOM      2  C2  IND d   1       4.969   5.692   5.416  0.00  0.00     0.054 A 
ATOM      3  C3  IND d   1       5.899   5.110   4.624  0.00  0.00    -0.031 A 
ATOM      4  C4  IND d   1       5.830   4.642   2.094  0.00  0.00     0.051 A 
ATOM      5  C5  IND d   1       5.000   4.703   1.009  0.00  0.00    -0.031 A 
ATOM      6  C6  IND d   1       3.719   5.209   1.098  0.00  0.00     0.015 A 
ATOM      7  C7  IND d   1       3.222   5.684   2.279  0.00  0.00    -0.016 A 
ATOM      8  C8  IND d   1       4.059   5.617   3.384  0.00  0.00    -0.047 A 
ATOM      9  C9  IND d   1       5.344   5.066   3.308  0.00  0.00    -0.096 A 
ATOM     10  HN1 IND d   1       3.130   6.345   5.005  0.00  0.00     0.298 HD
ENDROOT
TORSDOF 0
ENDMDL
