MODEL 1
REMARK minimizedAffinity 17.1848316
REMARK minimizedRMSD -1
REMARK  0 active torsions:
REMARK  status: ('A' for Active; 'I' for Inactive)
ROOT
ATOM      1  N1  IND d   1       4.666   5.972   3.815  0.00  0.00    -0.196 N 
ATOM      2  C2  IND d   1       5.624   5.179   4.380  0.00  0.00     0.054 A 
ATOM      3  C3  IND d   1       5.989   4.199   3.523  0.00  0.00    -0.031 A 
ATOM      4  C4  IND d   1       5.218   3.771   1.104  0.00  0.00     0.051 A 
ATOM      5  C5  IND d   1       4.328   4.209   0.164  0.00  0.00    -0.031 A 
ATOM      6  C6  IND d   1       3.490   5.281   0.396  0.00  0.00     0.015 A 
ATOM      7  C7  IND d   1       3.519   5.964   1.579  0.00  0.00    -0.016 A 
ATOM      8  C8  IND d   1       4.416   5.518   2.538  0.00  0.00    -0.047 A 
ATOM      9  C9  IND d   1       5.239   4.405   2.324  0.00  0.00    -0.096 A 
ATOM     10  HN1 IND d   1       4.283   6.643   4.193  0.00  0.00     0.298 HD
ENDROOT
TORSDOF 0
ENDMDL
