MODEL 1
REMARK minimizedAffinity 17.9673996
REMARK minimizedRMSD -1
REMARK  0 active torsions:
REMARK  status: ('A' for Active; 'I' for Inactive)
ROOT
ATOM      1  N1  IND d   1      -1.971   0.717   4.010  0.00  0.00    -0.196 N 
ATOM      2  C2  IND d   1      -2.096   0.945   2.668  0.00  0.00     0.054 A 
ATOM      3  C3  IND d   1      -3.293   0.500   2.224  0.00  0.00    -0.031 A 
ATOM      4  C4  IND d   1      -5.242  -0.543   3.545  0.00  0.00     0.051 A 
ATOM      5  C5  IND d   1      -5.582  -0.985   4.792  0.00  0.00    -0.031 A 
ATOM      6  C6  IND d   1      -4.721  -0.879   5.865  0.00  0.00     0.015 A 
ATOM      7  C7  IND d   1      -3.484  -0.312   5.732  0.00  0.00    -0.016 A 
ATOM      8  C8  IND d   1      -3.132   0.132   4.465  0.00  0.00    -0.047 A 
ATOM      9  C9  IND d   1      -3.986  -0.012   3.364  0.00  0.00    -0.096 A 
ATOM     10  HN1 IND d   1      -1.283   0.906   4.489  0.00  0.00     0.298 HD
ENDROOT
TORSDOF 0
ENDMDL
