MODEL 1
REMARK minimizedAffinity 9.28019619
REMARK minimizedRMSD -1
REMARK  0 active torsions:
REMARK  status: ('A' for Active; 'I' for Inactive)
ROOT
ATOM      1  N1  IND d   1      -2.378   1.443  -1.405  0.00  0.00    -0.196 N 
ATOM      2  C2  IND d   1      -2.874   0.524  -0.523  0.00  0.00     0.054 A 
ATOM      3  C3  IND d   1      -2.088  -0.576  -0.498  0.00  0.00    -0.031 A 
ATOM      4  C4  IND d   1       0.114  -1.040  -1.748  0.00  0.00     0.051 A 
ATOM      5  C5  IND d   1       0.948  -0.514  -2.695  0.00  0.00    -0.031 A 
ATOM      6  C6  IND d   1       0.711   0.718  -3.270  0.00  0.00     0.015 A 
ATOM      7  C7  IND d   1      -0.365   1.478  -2.909  0.00  0.00    -0.016 A 
ATOM      8  C8  IND d   1      -1.217   0.943  -1.953  0.00  0.00    -0.047 A 
ATOM      9  C9  IND d   1      -1.006  -0.325  -1.397  0.00  0.00    -0.096 A 
ATOM     10  HN1 IND d   1      -2.732   2.206  -1.587  0.00  0.00     0.298 HD
ENDROOT
TORSDOF 0
ENDMDL
