MODEL 1
REMARK minimizedAffinity 11.8981094
REMARK minimizedRMSD -1
REMARK  0 active torsions:
REMARK  status: ('A' for Active; 'I' for Inactive)
ROOT
ATOM      1  N1  IND d   1      -1.581   0.576  -1.671  0.00  0.00    -0.196 N 
ATOM      2  C2  IND d   1      -0.828   1.664  -2.012  0.00  0.00     0.054 A 
ATOM      3  C3  IND d   1       0.459   1.303  -2.210  0.00  0.00    -0.031 A 
ATOM      4  C4  IND d   1       1.532  -1.036  -2.128  0.00  0.00     0.051 A 
ATOM      5  C5  IND d   1       1.253  -2.339  -1.824  0.00  0.00    -0.031 A 
ATOM      6  C6  IND d   1      -0.011  -2.746  -1.448  0.00  0.00     0.015 A 
ATOM      7  C7  IND d   1      -1.050  -1.862  -1.374  0.00  0.00    -0.016 A 
ATOM      8  C8  IND d   1      -0.769  -0.537  -1.675  0.00  0.00    -0.047 A 
ATOM      9  C9  IND d   1       0.521  -0.111  -2.016  0.00  0.00    -0.096 A 
ATOM     10  HN1 IND d   1      -2.421   0.584  -1.486  0.00  0.00     0.298 HD
ENDROOT
TORSDOF 0
ENDMDL
