MODEL 1
REMARK minimizedAffinity -0.675686777
REMARK minimizedRMSD -1
REMARK  0 active torsions:
REMARK  status: ('A' for Active; 'I' for Inactive)
ROOT
ATOM      1  N1  IND d   1      -3.543   0.340   2.803  0.00  0.00    -0.196 N 
ATOM      2  C2  IND d   1      -2.193   0.399   2.592  0.00  0.00     0.054 A 
ATOM      3  C3  IND d   1      -1.878  -0.162   1.403  0.00  0.00    -0.031 A 
ATOM      4  C4  IND d   1      -3.427  -1.146  -0.403  0.00  0.00     0.051 A 
ATOM      5  C5  IND d   1      -4.736  -1.454  -0.648  0.00  0.00    -0.031 A 
ATOM      6  C6  IND d   1      -5.734  -1.173   0.262  0.00  0.00     0.015 A 
ATOM      7  C7  IND d   1      -5.461  -0.558   1.451  0.00  0.00    -0.016 A 
ATOM      8  C8  IND d   1      -4.133  -0.250   1.707  0.00  0.00    -0.047 A 
ATOM      9  C9  IND d   1      -3.110  -0.572   0.806  0.00  0.00    -0.096 A 
ATOM     10  HN1 IND d   1      -3.954   0.624   3.503  0.00  0.00     0.298 HD
ENDROOT
TORSDOF 0
ENDMDL
