MODEL 1
REMARK minimizedAffinity 11.7099571
REMARK minimizedRMSD -1
REMARK  0 active torsions:
REMARK  status: ('A' for Active; 'I' for Inactive)
ROOT
ATOM      1  N1  IND d   1       3.100   5.966  -2.903  0.00  0.00    -0.196 N 
ATOM      2  C2  IND d   1       2.655   5.928  -4.195  0.00  0.00     0.054 A 
ATOM      3  C3  IND d   1       1.304   5.893  -4.227  0.00  0.00    -0.031 A 
ATOM      4  C4  IND d   1      -0.380   5.995  -2.283  0.00  0.00     0.051 A 
ATOM      5  C5  IND d   1      -0.451   6.000  -0.918  0.00  0.00    -0.031 A 
ATOM      6  C6  IND d   1       0.681   5.996  -0.129  0.00  0.00     0.015 A 
ATOM      7  C7  IND d   1       1.932   5.999  -0.678  0.00  0.00    -0.016 A 
ATOM      8  C8  IND d   1       2.008   5.987  -2.064  0.00  0.00    -0.047 A 
ATOM      9  C9  IND d   1       0.862   5.948  -2.869  0.00  0.00    -0.096 A 
ATOM     10  HN1 IND d   1       3.924   5.975  -2.656  0.00  0.00     0.298 HD
ENDROOT
TORSDOF 0
ENDMDL
