MODEL 1
REMARK minimizedAffinity 6.04993105
REMARK minimizedRMSD -1
REMARK  0 active torsions:
REMARK  status: ('A' for Active; 'I' for Inactive)
ROOT
ATOM      1  N1  IND d   1      -2.705   0.309   2.280  0.00  0.00    -0.196 N 
ATOM      2  C2  IND d   1      -1.973   1.207   3.006  0.00  0.00     0.054 A 
ATOM      3  C3  IND d   1      -2.646   1.569   4.122  0.00  0.00    -0.031 A 
ATOM      4  C4  IND d   1      -4.916   0.736   5.005  0.00  0.00     0.051 A 
ATOM      5  C5  IND d   1      -5.976  -0.058   4.670  0.00  0.00    -0.031 A 
ATOM      6  C6  IND d   1      -6.000  -0.787   3.499  0.00  0.00     0.015 A 
ATOM      7  C7  IND d   1      -4.954  -0.758   2.621  0.00  0.00    -0.016 A 
ATOM      8  C8  IND d   1      -3.878   0.053   2.954  0.00  0.00    -0.047 A 
ATOM      9  C9  IND d   1      -3.867   0.828   4.121  0.00  0.00    -0.096 A 
ATOM     10  HN1 IND d   1      -2.471  -0.037   1.528  0.00  0.00     0.298 HD
ENDROOT
TORSDOF 0
ENDMDL
