MODEL 1
REMARK minimizedAffinity 21.3559914
REMARK minimizedRMSD -1
REMARK  0 active torsions:
REMARK  status: ('A' for Active; 'I' for Inactive)
ROOT
ATOM      1  C   UNL d   1       3.099   4.872   3.451  0.00  0.00     0.124 A 
ATOM      2  C1  UNL d   1       1.748   4.876   3.131  0.00  0.00     0.062 A 
ATOM      3  C2  UNL d   1       0.992   3.715   3.272  0.00  0.00     0.162 A 
ATOM      4  C3  UNL d   1       1.585   2.542   3.738  0.00  0.00    -0.034 A 
ATOM      5  C4  UNL d   1       2.944   2.546   4.057  0.00  0.00     0.162 A 
ATOM      6  C5  UNL d   1       3.695   3.708   3.914  0.00  0.00     0.062 A 
ATOM      7  F   UNL d   1       5.000   3.703   4.224  0.00  0.00    -0.097 F 
ATOM      8  F1  UNL d   1       3.546   1.435   4.507  0.00  0.00    -0.096 F 
ATOM      9  I   UNL d   1       0.458   0.805   3.950  0.00  0.00    -0.060 I 
ATOM     10  F2  UNL d   1      -0.311   3.748   2.955  0.00  0.00    -0.096 F 
ATOM     11  F3  UNL d   1       1.170   5.999   2.683  0.00  0.00    -0.097 F 
ATOM     12  F4  UNL d   1       3.824   5.990   3.313  0.00  0.00    -0.092 F 
ENDROOT
TORSDOF 0
ENDMDL
