MODEL 1
REMARK minimizedAffinity 15.4765415
REMARK minimizedRMSD -1
REMARK  0 active torsions:
REMARK  status: ('A' for Active; 'I' for Inactive)
ROOT
ATOM      1  C   UNL d   1       1.517  -3.023  -0.909  0.00  0.00     0.124 A 
ATOM      2  C1  UNL d   1       1.793  -2.194  -1.987  0.00  0.00     0.062 A 
ATOM      3  C2  UNL d   1       2.223  -0.887  -1.772  0.00  0.00     0.162 A 
ATOM      4  C3  UNL d   1       2.379  -0.402  -0.474  0.00  0.00    -0.034 A 
ATOM      5  C4  UNL d   1       2.098  -1.242   0.605  0.00  0.00     0.162 A 
ATOM      6  C5  UNL d   1       1.669  -2.547   0.385  0.00  0.00     0.062 A 
ATOM      7  F   UNL d   1       1.402  -3.348   1.428  0.00  0.00    -0.097 F 
ATOM      8  F1  UNL d   1       2.237  -0.808   1.866  0.00  0.00    -0.096 F 
ATOM      9  I   UNL d   1       3.020   1.551  -0.149  0.00  0.00    -0.060 I 
ATOM     10  F2  UNL d   1       2.483  -0.108  -2.832  0.00  0.00    -0.096 F 
ATOM     11  F3  UNL d   1       1.646  -2.651  -3.239  0.00  0.00    -0.097 F 
ATOM     12  F4  UNL d   1       1.103  -4.280  -1.119  0.00  0.00    -0.092 F 
ENDROOT
TORSDOF 0
ENDMDL
