MODEL 1
REMARK minimizedAffinity 9.43091202
REMARK minimizedRMSD -1
REMARK  0 active torsions:
REMARK  status: ('A' for Active; 'I' for Inactive)
ROOT
ATOM      1  C   UNL d   1       0.070  -1.451   4.244  0.00  0.00     0.124 A 
ATOM      2  C1  UNL d   1      -1.023  -2.296   4.107  0.00  0.00     0.062 A 
ATOM      3  C2  UNL d   1      -0.972  -3.593   4.607  0.00  0.00     0.162 A 
ATOM      4  C3  UNL d   1       0.176  -4.055   5.250  0.00  0.00    -0.034 A 
ATOM      5  C4  UNL d   1       1.272  -3.200   5.383  0.00  0.00     0.162 A 
ATOM      6  C5  UNL d   1       1.216  -1.904   4.881  0.00  0.00     0.062 A 
ATOM      7  F   UNL d   1       2.273  -1.090   5.014  0.00  0.00    -0.097 F 
ATOM      8  F1  UNL d   1       2.392  -3.612   5.996  0.00  0.00    -0.096 F 
ATOM      9  I   UNL d   1       0.257  -5.995   6.000  0.00  0.00    -0.060 I 
ATOM     10  F2  UNL d   1      -2.043  -4.387   4.461  0.00  0.00    -0.096 F 
ATOM     11  F3  UNL d   1      -2.132  -1.861   3.490  0.00  0.00    -0.097 F 
ATOM     12  F4  UNL d   1       0.018  -0.203   3.760  0.00  0.00    -0.092 F 
ENDROOT
TORSDOF 0
ENDMDL
