MODEL 1
REMARK minimizedAffinity 16.9254475
REMARK minimizedRMSD -1
REMARK  0 active torsions:
REMARK  status: ('A' for Active; 'I' for Inactive)
ROOT
ATOM      1  C   UNL d   1      -0.263  -4.818   5.189  0.00  0.00     0.124 A 
ATOM      2  C1  UNL d   1       1.070  -4.482   5.379  0.00  0.00     0.062 A 
ATOM      3  C2  UNL d   1       1.554  -3.258   4.928  0.00  0.00     0.162 A 
ATOM      4  C3  UNL d   1       0.704  -2.359   4.282  0.00  0.00    -0.034 A 
ATOM      5  C4  UNL d   1      -0.635  -2.705   4.094  0.00  0.00     0.162 A 
ATOM      6  C5  UNL d   1      -1.114  -3.930   4.547  0.00  0.00     0.062 A 
ATOM      7  F   UNL d   1      -2.402  -4.254   4.363  0.00  0.00    -0.097 F 
ATOM      8  F1  UNL d   1      -1.480  -1.865   3.477  0.00  0.00    -0.096 F 
ATOM      9  I   UNL d   1       1.424  -0.528   3.605  0.00  0.00    -0.060 I 
ATOM     10  F2  UNL d   1       2.847  -2.959   5.125  0.00  0.00    -0.096 F 
ATOM     11  F3  UNL d   1       1.895  -5.339   5.999  0.00  0.00    -0.097 F 
ATOM     12  F4  UNL d   1      -0.726  -5.997   5.624  0.00  0.00    -0.092 F 
ENDROOT
TORSDOF 0
ENDMDL
