MODEL 1
REMARK minimizedAffinity 22.2302475
REMARK minimizedRMSD -1
REMARK  0 active torsions:
REMARK  status: ('A' for Active; 'I' for Inactive)
ROOT
ATOM      1  C   UNL d   1       1.334  -2.143   4.843  0.00  0.00     0.124 A 
ATOM      2  C1  UNL d   1       0.015  -2.052   4.422  0.00  0.00     0.062 A 
ATOM      3  C2  UNL d   1      -0.832  -3.151   4.530  0.00  0.00     0.162 A 
ATOM      4  C3  UNL d   1      -0.361  -4.352   5.062  0.00  0.00    -0.034 A 
ATOM      5  C4  UNL d   1       0.967  -4.436   5.482  0.00  0.00     0.162 A 
ATOM      6  C5  UNL d   1       1.809  -3.334   5.372  0.00  0.00     0.062 A 
ATOM      7  F   UNL d   1       3.084  -3.424   5.780  0.00  0.00    -0.097 F 
ATOM      8  F1  UNL d   1       1.452  -5.575   5.998  0.00  0.00    -0.096 F 
ATOM      9  I   UNL d   1      -1.624  -5.999   5.224  0.00  0.00    -0.060 I 
ATOM     10  F2  UNL d   1      -2.102  -3.035   4.115  0.00  0.00    -0.096 F 
ATOM     11  F3  UNL d   1      -0.446  -0.902   3.910  0.00  0.00    -0.097 F 
ATOM     12  F4  UNL d   1       2.147  -1.083   4.738  0.00  0.00    -0.092 F 
ENDROOT
TORSDOF 0
ENDMDL
