MODEL 1
REMARK minimizedAffinity 10.6872435
REMARK minimizedRMSD -1
REMARK  0 active torsions:
REMARK  status: ('A' for Active; 'I' for Inactive)
ROOT
ATOM      1  C   UNL d   1       1.156  -2.202   4.606  0.00  0.00     0.124 A 
ATOM      2  C1  UNL d   1      -0.223  -2.141   4.461  0.00  0.00     0.062 A 
ATOM      3  C2  UNL d   1      -1.015  -3.224   4.834  0.00  0.00     0.162 A 
ATOM      4  C3  UNL d   1      -0.430  -4.377   5.357  0.00  0.00    -0.034 A 
ATOM      5  C4  UNL d   1       0.958  -4.431   5.499  0.00  0.00     0.162 A 
ATOM      6  C5  UNL d   1       1.745  -3.347   5.125  0.00  0.00     0.062 A 
ATOM      7  F   UNL d   1       3.077  -3.407   5.267  0.00  0.00    -0.097 F 
ATOM      8  F1  UNL d   1       1.553  -5.524   5.999  0.00  0.00    -0.096 F 
ATOM      9  I   UNL d   1      -1.610  -5.997   5.916  0.00  0.00    -0.060 I 
ATOM     10  F2  UNL d   1      -2.345  -3.137   4.682  0.00  0.00    -0.096 F 
ATOM     11  F3  UNL d   1      -0.795  -1.037   3.958  0.00  0.00    -0.097 F 
ATOM     12  F4  UNL d   1       1.915  -1.160   4.246  0.00  0.00    -0.092 F 
ENDROOT
TORSDOF 0
ENDMDL
