MODEL 1
REMARK minimizedAffinity 11.1243782
REMARK minimizedRMSD -1
REMARK  0 active torsions:
REMARK  status: ('A' for Active; 'I' for Inactive)
ROOT
ATOM      1  C   UNL d   1      -2.495   0.615  -3.240  0.00  0.00     0.124 A 
ATOM      2  C1  UNL d   1      -3.772   0.194  -3.585  0.00  0.00     0.062 A 
ATOM      3  C2  UNL d   1      -4.774   1.128  -3.831  0.00  0.00     0.162 A 
ATOM      4  C3  UNL d   1      -4.504   2.493  -3.732  0.00  0.00    -0.034 A 
ATOM      5  C4  UNL d   1      -3.217   2.909  -3.383  0.00  0.00     0.162 A 
ATOM      6  C5  UNL d   1      -2.219   1.971  -3.139  0.00  0.00     0.062 A 
ATOM      7  F   UNL d   1      -0.986   2.380  -2.805  0.00  0.00    -0.097 F 
ATOM      8  F1  UNL d   1      -2.923   4.213  -3.280  0.00  0.00    -0.096 F 
ATOM      9  I   UNL d   1      -6.000   3.893  -4.098  0.00  0.00    -0.060 I 
ATOM     10  F2  UNL d   1      -5.999   0.693  -4.163  0.00  0.00    -0.096 F 
ATOM     11  F3  UNL d   1      -4.041  -1.116  -3.683  0.00  0.00    -0.097 F 
ATOM     12  F4  UNL d   1      -1.533  -0.286  -3.004  0.00  0.00    -0.092 F 
ENDROOT
TORSDOF 0
ENDMDL
