MODEL 1
REMARK minimizedAffinity 1.54040515
REMARK minimizedRMSD -1
REMARK  1 active torsions:
REMARK  status: ('A' for Active; 'I' for Inactive)
REMARK    1  A    between atoms: C1_2  and  C2_3 
ROOT
ATOM      1  C2  UNL d   1       0.615   1.801   1.489  0.00  0.00    -0.073 A 
ATOM      2  C3  UNL d   1      -0.015   1.233   0.377  0.00  0.00    -0.002 A 
ATOM      3  C4  UNL d   1      -0.036  -0.153   0.210  0.00  0.00     0.004 A 
ATOM      4  C5  UNL d   1       0.566  -0.983   1.156  0.00  0.00    -0.004 A 
ATOM      5  C6  UNL d   1       1.191  -0.434   2.280  0.00  0.00    -0.075 A 
ATOM      6  C7  UNL d   1       1.845  -1.312   3.306  0.00  0.00     0.076 C 
ATOM      7  C8  UNL d   1       1.210   0.959   2.439  0.00  0.00     0.001 A 
ENDROOT
BRANCH   1   8
ATOM      8  C1  UNL d   1       0.634   3.296   1.677  0.00  0.00     0.053 C 
ATOM      9  C   UNL d   1       0.959   4.029   0.385  0.00  0.00     0.018 C 
ENDBRANCH   1   8
TORSDOF 1
ENDMDL
