MODEL 1
REMARK minimizedAffinity 6.14308596
REMARK minimizedRMSD -1
REMARK  1 active torsions:
REMARK  status: ('A' for Active; 'I' for Inactive)
REMARK    1  A    between atoms: C1_2  and  C2_3 
ROOT
ATOM      1  C2  UNL d   1      -0.559   2.181  -0.749  0.00  0.00    -0.073 A 
ATOM      2  C3  UNL d   1      -1.168   3.395  -1.085  0.00  0.00    -0.002 A 
ATOM      3  C4  UNL d   1      -1.710   4.211  -0.091  0.00  0.00     0.004 A 
ATOM      4  C5  UNL d   1      -1.644   3.825   1.247  0.00  0.00    -0.004 A 
ATOM      5  C6  UNL d   1      -1.028   2.621   1.604  0.00  0.00    -0.075 A 
ATOM      6  C7  UNL d   1      -0.950   2.190   3.039  0.00  0.00     0.076 C 
ATOM      7  C8  UNL d   1      -0.488   1.806   0.600  0.00  0.00     0.001 A 
ENDROOT
BRANCH   1   8
ATOM      8  C1  UNL d   1       0.034   1.300  -1.819  0.00  0.00     0.053 C 
ATOM      9  C   UNL d   1       0.824   0.143  -1.230  0.00  0.00     0.018 C 
ENDBRANCH   1   8
TORSDOF 1
ENDMDL
