MODEL 1
REMARK minimizedAffinity 5.18009806
REMARK minimizedRMSD -1
REMARK  1 active torsions:
REMARK  status: ('A' for Active; 'I' for Inactive)
REMARK    1  A    between atoms: C1_2  and  C2_3 
ROOT
ATOM      1  C2  UNL d   1      -0.714   2.525  -0.499  0.00  0.00    -0.073 A 
ATOM      2  C3  UNL d   1      -1.250   3.814  -0.393  0.00  0.00    -0.002 A 
ATOM      3  C4  UNL d   1      -1.518   4.364   0.861  0.00  0.00     0.004 A 
ATOM      4  C5  UNL d   1      -1.248   3.637   2.019  0.00  0.00    -0.004 A 
ATOM      5  C6  UNL d   1      -0.701   2.352   1.934  0.00  0.00    -0.075 A 
ATOM      6  C7  UNL d   1      -0.407   1.555   3.171  0.00  0.00     0.076 C 
ATOM      7  C8  UNL d   1      -0.437   1.805   0.671  0.00  0.00     0.001 A 
ENDROOT
BRANCH   1   8
ATOM      8  C1  UNL d   1      -0.416   1.929  -1.851  0.00  0.00     0.053 C 
ATOM      9  C   UNL d   1      -0.421   2.979  -2.951  0.00  0.00     0.018 C 
ENDBRANCH   1   8
TORSDOF 1
ENDMDL
