MODEL 1
REMARK minimizedAffinity 7.0666275
REMARK minimizedRMSD -1
REMARK  1 active torsions:
REMARK  status: ('A' for Active; 'I' for Inactive)
REMARK    1  A    between atoms: C1_2  and  C2_3 
ROOT
ATOM      1  C2  UNL d   1      -1.175   2.611   1.919  0.00  0.00    -0.073 A 
ATOM      2  C3  UNL d   1      -0.534   2.430   0.688  0.00  0.00    -0.002 A 
ATOM      3  C4  UNL d   1      -0.660   3.388  -0.319  0.00  0.00     0.004 A 
ATOM      4  C5  UNL d   1      -1.420   4.538  -0.103  0.00  0.00    -0.004 A 
ATOM      5  C6  UNL d   1      -2.058   4.742   1.125  0.00  0.00    -0.075 A 
ATOM      6  C7  UNL d   1      -2.881   5.972   1.371  0.00  0.00     0.076 C 
ATOM      7  C8  UNL d   1      -1.930   3.774   2.130  0.00  0.00     0.001 A 
ENDROOT
BRANCH   1   8
ATOM      8  C1  UNL d   1      -1.037   1.582   3.012  0.00  0.00     0.053 C 
ATOM      9  C   UNL d   1       0.150   0.661   2.781  0.00  0.00     0.018 C 
ENDBRANCH   1   8
TORSDOF 1
ENDMDL
