MODEL 1
REMARK minimizedAffinity 12.7177534
REMARK minimizedRMSD -1
REMARK  0 active torsions:
REMARK  status: ('A' for Active; 'I' for Inactive)
ROOT
ATOM      1  C   UNL d   1      -0.582  -3.862  -3.769  0.00  0.00    -0.002 A 
ATOM      2  C1  UNL d   1      -1.098  -2.604  -3.492  0.00  0.00     0.010 A 
ATOM      3  C2  UNL d   1      -2.326  -2.467  -2.842  0.00  0.00     0.041 A 
ATOM      4  C3  UNL d   1      -3.032  -3.627  -2.469  0.00  0.00    -0.075 A 
ATOM      5  S   UNL d   1      -4.554  -3.703  -1.662  0.00  0.00     0.015 SA
ATOM      6  C4  UNL d   1      -4.555  -5.408  -1.665  0.00  0.00     0.022 A 
ATOM      7  C5  UNL d   1      -3.429  -5.923  -2.263  0.00  0.00     0.026 A 
ATOM      8  C6  UNL d   1      -2.533  -4.905  -2.736  0.00  0.00    -0.082 A 
ATOM      9  C7  UNL d   1      -1.286  -5.011  -3.397  0.00  0.00     0.045 A 
ENDROOT
TORSDOF 0
ENDMDL
