MODEL 1
REMARK minimizedAffinity 15.8760796
REMARK minimizedRMSD -1
REMARK  0 active torsions:
REMARK  status: ('A' for Active; 'I' for Inactive)
ROOT
ATOM      1  C   UNL d   1       0.340   2.649   1.500  0.00  0.00    -0.002 A 
ATOM      2  C1  UNL d   1       0.345   1.410   2.125  0.00  0.00     0.010 A 
ATOM      3  C2  UNL d   1       1.460   0.575   2.037  0.00  0.00     0.041 A 
ATOM      4  C3  UNL d   1       2.582   1.010   1.304  0.00  0.00    -0.075 A 
ATOM      5  S   UNL d   1       4.059   0.156   1.060  0.00  0.00     0.015 SA
ATOM      6  C4  UNL d   1       4.719   1.416   0.120  0.00  0.00     0.022 A 
ATOM      7  C5  UNL d   1       3.846   2.469  -0.015  0.00  0.00     0.026 A 
ATOM      8  C6  UNL d   1       2.600   2.253   0.666  0.00  0.00    -0.082 A 
ATOM      9  C7  UNL d   1       1.454   3.077   0.773  0.00  0.00     0.045 A 
ENDROOT
TORSDOF 0
ENDMDL
