MODEL 1
REMARK minimizedAffinity 9.3183918
REMARK minimizedRMSD -1
REMARK  0 active torsions:
REMARK  status: ('A' for Active; 'I' for Inactive)
ROOT
ATOM      1  C   UNL d   1       0.337   1.522   2.709  0.00  0.00    -0.002 A 
ATOM      2  C1  UNL d   1       0.586   2.707   2.033  0.00  0.00     0.010 A 
ATOM      3  C2  UNL d   1       1.753   2.865   1.282  0.00  0.00     0.041 A 
ATOM      4  C3  UNL d   1       2.673   1.801   1.221  0.00  0.00    -0.075 A 
ATOM      5  S   UNL d   1       4.169   1.767   0.364  0.00  0.00     0.015 SA
ATOM      6  C4  UNL d   1       4.512   0.178   0.875  0.00  0.00     0.022 A 
ATOM      7  C5  UNL d   1       3.520  -0.330   1.681  0.00  0.00     0.026 A 
ATOM      8  C6  UNL d   1       2.444   0.597   1.893  0.00  0.00    -0.082 A 
ATOM      9  C7  UNL d   1       1.252   0.468   2.646  0.00  0.00     0.045 A 
ENDROOT
TORSDOF 0
ENDMDL
