MODEL 1
REMARK minimizedAffinity 15.7697039
REMARK minimizedRMSD -1
REMARK  0 active torsions:
REMARK  status: ('A' for Active; 'I' for Inactive)
ROOT
ATOM      1  C   UNL d   1       3.329   0.013   1.554  0.00  0.00    -0.002 A 
ATOM      2  C1  UNL d   1       3.567   1.154   0.801  0.00  0.00     0.010 A 
ATOM      3  C2  UNL d   1       2.597   2.153   0.697  0.00  0.00     0.041 A 
ATOM      4  C3  UNL d   1       1.372   1.985   1.372  0.00  0.00    -0.075 A 
ATOM      5  S   UNL d   1       0.037   3.077   1.390  0.00  0.00     0.015 SA
ATOM      6  C4  UNL d   1      -0.881   2.055   2.398  0.00  0.00     0.022 A 
ATOM      7  C5  UNL d   1      -0.201   0.905   2.723  0.00  0.00     0.026 A 
ATOM      8  C6  UNL d   1       1.108   0.846   2.137  0.00  0.00    -0.082 A 
ATOM      9  C7  UNL d   1       2.112  -0.149   2.222  0.00  0.00     0.045 A 
ENDROOT
TORSDOF 0
ENDMDL
