MODEL 1
REMARK minimizedAffinity -2.82590175
REMARK minimizedRMSD -1
REMARK  0 active torsions:
REMARK  status: ('A' for Active; 'I' for Inactive)
ROOT
ATOM      1  C   UNL d   1      -4.829   1.269   3.882  0.00  0.00    -0.002 A 
ATOM      2  C1  UNL d   1      -4.893   1.226   5.268  0.00  0.00     0.010 A 
ATOM      3  C2  UNL d   1      -5.217   2.370   6.000  0.00  0.00     0.041 A 
ATOM      4  C3  UNL d   1      -5.479   3.569   5.309  0.00  0.00    -0.075 A 
ATOM      5  S   UNL d   1      -5.896   5.095   5.997  0.00  0.00     0.015 SA
ATOM      6  C4  UNL d   1      -6.000   5.840   4.467  0.00  0.00     0.022 A 
ATOM      7  C5  UNL d   1      -5.725   4.961   3.446  0.00  0.00     0.026 A 
ATOM      8  C6  UNL d   1      -5.421   3.638   3.915  0.00  0.00    -0.082 A 
ATOM      9  C7  UNL d   1      -5.090   2.461   3.201  0.00  0.00     0.045 A 
ENDROOT
TORSDOF 0
ENDMDL
