MODEL 1
REMARK minimizedAffinity 22.3508663
REMARK minimizedRMSD -1
REMARK  0 active torsions:
REMARK  status: ('A' for Active; 'I' for Inactive)
ROOT
ATOM      1  C   UNL d   1       2.524   1.047  -0.350  0.00  0.00    -0.002 A 
ATOM      2  C1  UNL d   1       3.767   0.586   0.062  0.00  0.00     0.010 A 
ATOM      3  C2  UNL d   1       3.996   0.260   1.400  0.00  0.00     0.041 A 
ATOM      4  C3  UNL d   1       2.944   0.404   2.326  0.00  0.00    -0.075 A 
ATOM      5  S   UNL d   1       2.994   0.064   4.016  0.00  0.00     0.015 SA
ATOM      6  C4  UNL d   1       1.366   0.522   4.231  0.00  0.00     0.022 A 
ATOM      7  C5  UNL d   1       0.784   0.927   3.053  0.00  0.00     0.026 A 
ATOM      8  C6  UNL d   1       1.684   0.865   1.936  0.00  0.00    -0.082 A 
ATOM      9  C7  UNL d   1       1.484   1.189   0.572  0.00  0.00     0.045 A 
ENDROOT
TORSDOF 0
ENDMDL
