MODEL 1
REMARK minimizedAffinity 18.312561
REMARK minimizedRMSD -1
REMARK  0 active torsions:
REMARK  status: ('A' for Active; 'I' for Inactive)
ROOT
ATOM      1  C   UNL d   1       0.007  -2.862  -6.000  0.00  0.00    -0.002 A 
ATOM      2  C1  UNL d   1       1.066  -3.368  -5.260  0.00  0.00     0.010 A 
ATOM      3  C2  UNL d   1       1.049  -3.311  -3.865  0.00  0.00     0.041 A 
ATOM      4  C3  UNL d   1      -0.062  -2.733  -3.220  0.00  0.00    -0.075 A 
ATOM      5  S   UNL d   1      -0.302  -2.555  -1.522  0.00  0.00     0.015 SA
ATOM      6  C4  UNL d   1      -1.816  -1.803  -1.739  0.00  0.00     0.022 A 
ATOM      7  C5  UNL d   1      -2.146  -1.683  -3.068  0.00  0.00     0.026 A 
ATOM      8  C6  UNL d   1      -1.141  -2.217  -3.944  0.00  0.00    -0.082 A 
ATOM      9  C7  UNL d   1      -1.093  -2.289  -5.357  0.00  0.00     0.045 A 
ENDROOT
TORSDOF 0
ENDMDL
