MODEL 1
REMARK minimizedAffinity 19.9557095
REMARK minimizedRMSD -1
REMARK  0 active torsions:
REMARK  status: ('A' for Active; 'I' for Inactive)
ROOT
ATOM      1  C   UNL d   1       0.054   1.401   4.263  0.00  0.00    -0.002 A 
ATOM      2  C1  UNL d   1       0.782   0.502   5.030  0.00  0.00     0.010 A 
ATOM      3  C2  UNL d   1       1.965  -0.054   4.540  0.00  0.00     0.041 A 
ATOM      4  C3  UNL d   1       2.410   0.313   3.254  0.00  0.00    -0.075 A 
ATOM      5  S   UNL d   1       3.830  -0.240   2.448  0.00  0.00     0.015 SA
ATOM      6  C4  UNL d   1       3.504   0.705   1.068  0.00  0.00     0.022 A 
ATOM      7  C5  UNL d   1       2.344   1.430   1.201  0.00  0.00     0.026 A 
ATOM      8  C6  UNL d   1       1.694   1.217   2.464  0.00  0.00    -0.082 A 
ATOM      9  C7  UNL d   1       0.498   1.763   2.989  0.00  0.00     0.045 A 
ENDROOT
TORSDOF 0
ENDMDL
