MODEL 1
REMARK minimizedAffinity 12.1102381
REMARK minimizedRMSD -1
REMARK  0 active torsions:
REMARK  status: ('A' for Active; 'I' for Inactive)
ROOT
ATOM      1  C   UNL d   1       5.535  -0.364   1.876  0.00  0.00    -0.002 A 
ATOM      2  C1  UNL d   1       5.061  -0.703   3.135  0.00  0.00     0.010 A 
ATOM      3  C2  UNL d   1       3.739  -0.431   3.494  0.00  0.00     0.041 A 
ATOM      4  C3  UNL d   1       2.893   0.191   2.555  0.00  0.00    -0.075 A 
ATOM      5  S   UNL d   1       1.237   0.619   2.772  0.00  0.00     0.015 SA
ATOM      6  C4  UNL d   1       1.119   1.261   1.197  0.00  0.00     0.022 A 
ATOM      7  C5  UNL d   1       2.305   1.159   0.509  0.00  0.00     0.026 A 
ATOM      8  C6  UNL d   1       3.347   0.541   1.280  0.00  0.00    -0.082 A 
ATOM      9  C7  UNL d   1       4.693   0.253   0.947  0.00  0.00     0.045 A 
ENDROOT
TORSDOF 0
ENDMDL
