MODEL 1
REMARK minimizedAffinity 16.5640488
REMARK minimizedRMSD -1
REMARK  0 active torsions:
REMARK  status: ('A' for Active; 'I' for Inactive)
ROOT
ATOM      1  C   UNL d   1      -1.485  -2.775   1.996  0.00  0.00    -0.002 A 
ATOM      2  C1  UNL d   1      -0.265  -2.532   1.381  0.00  0.00     0.010 A 
ATOM      3  C2  UNL d   1      -0.169  -2.482  -0.012  0.00  0.00     0.041 A 
ATOM      4  C3  UNL d   1      -1.331  -2.679  -0.782  0.00  0.00    -0.075 A 
ATOM      5  S   UNL d   1      -1.454  -2.661  -2.502  0.00  0.00     0.015 SA
ATOM      6  C4  UNL d   1      -3.129  -2.973  -2.461  0.00  0.00     0.022 A 
ATOM      7  C5  UNL d   1      -3.600  -3.091  -1.174  0.00  0.00     0.026 A 
ATOM      8  C6  UNL d   1      -2.572  -2.924  -0.186  0.00  0.00    -0.082 A 
ATOM      9  C7  UNL d   1      -2.636  -2.970   1.228  0.00  0.00     0.045 A 
ENDROOT
TORSDOF 0
ENDMDL
