MODEL 1
REMARK minimizedAffinity 11.0849447
REMARK minimizedRMSD -1
REMARK  0 active torsions:
REMARK  status: ('A' for Active; 'I' for Inactive)
ROOT
ATOM      1  C   UNL d   1      -2.792  -3.373  -2.946  0.00  0.00    -0.002 A 
ATOM      2  C1  UNL d   1      -1.522  -3.841  -3.252  0.00  0.00     0.010 A 
ATOM      3  C2  UNL d   1      -0.539  -3.926  -2.264  0.00  0.00     0.041 A 
ATOM      4  C3  UNL d   1      -0.858  -3.531  -0.950  0.00  0.00    -0.075 A 
ATOM      5  S   UNL d   1       0.186  -3.549   0.422  0.00  0.00     0.015 SA
ATOM      6  C4  UNL d   1      -1.030  -2.938   1.448  0.00  0.00     0.022 A 
ATOM      7  C5  UNL d   1      -2.210  -2.719   0.776  0.00  0.00     0.026 A 
ATOM      8  C6  UNL d   1      -2.130  -3.057  -0.617  0.00  0.00    -0.082 A 
ATOM      9  C7  UNL d   1      -3.104  -2.982  -1.641  0.00  0.00     0.045 A 
ENDROOT
TORSDOF 0
ENDMDL
