MODEL 1
REMARK minimizedAffinity -2.40409088
REMARK minimizedRMSD -1
REMARK  0 active torsions:
REMARK  status: ('A' for Active; 'I' for Inactive)
ROOT
ATOM      1  C   UNL d   1      -0.065   0.075  -0.862  0.00  0.00     0.172 C 
ATOM      2  N   UNL d   1       0.183  -0.348   0.496  0.00  0.00    -0.070 N 
ATOM      3  C1  UNL d   1      -0.549   0.020   1.593  0.00  0.00    -0.004 A 
ATOM      4  C2  UNL d   1       0.006  -0.593   2.696  0.00  0.00    -0.047 A 
ATOM      5  C3  UNL d   1       1.109  -1.356   2.246  0.00  0.00    -0.047 A 
ATOM      6  C4  UNL d   1       1.196  -1.186   0.880  0.00  0.00    -0.004 A 
ENDROOT
TORSDOF 0
ENDMDL
