MODEL 1
REMARK minimizedAffinity -3.06600237
REMARK minimizedRMSD -1
REMARK  0 active torsions:
REMARK  status: ('A' for Active; 'I' for Inactive)
ROOT
ATOM      1  C   UNL d   1      -0.725   1.378  -1.159  0.00  0.00     0.172 C 
ATOM      2  N   UNL d   1      -0.601   0.599   0.050  0.00  0.00    -0.070 N 
ATOM      3  C1  UNL d   1      -1.071   0.959   1.285  0.00  0.00    -0.004 A 
ATOM      4  C2  UNL d   1      -0.754  -0.050   2.168  0.00  0.00    -0.047 A 
ATOM      5  C3  UNL d   1      -0.070  -1.051   1.440  0.00  0.00    -0.047 A 
ATOM      6  C4  UNL d   1       0.011  -0.624   0.131  0.00  0.00    -0.004 A 
ENDROOT
TORSDOF 0
ENDMDL
