MODEL 1
REMARK minimizedAffinity -0.7757653
REMARK minimizedRMSD -1
REMARK  0 active torsions:
REMARK  status: ('A' for Active; 'I' for Inactive)
ROOT
ATOM      1  C   UNL d   1      -0.006  -0.040  -0.712  0.00  0.00     0.172 C 
ATOM      2  N   UNL d   1      -0.338   1.044  -1.607  0.00  0.00    -0.070 N 
ATOM      3  C1  UNL d   1      -1.532   1.714  -1.640  0.00  0.00    -0.004 A 
ATOM      4  C2  UNL d   1      -1.450   2.672  -2.627  0.00  0.00    -0.047 A 
ATOM      5  C3  UNL d   1      -0.164   2.574  -3.208  0.00  0.00    -0.047 A 
ATOM      6  C4  UNL d   1       0.504   1.558  -2.557  0.00  0.00    -0.004 A 
ENDROOT
TORSDOF 0
ENDMDL
