MODEL 1
REMARK minimizedAffinity -1.19071305
REMARK minimizedRMSD -1
REMARK  0 active torsions:
REMARK  status: ('A' for Active; 'I' for Inactive)
ROOT
ATOM      1  C   UNL d   1       1.801  -1.586  -0.377  0.00  0.00     0.172 C 
ATOM      2  N   UNL d   1       0.608  -0.882   0.031  0.00  0.00    -0.070 N 
ATOM      3  C1  UNL d   1      -0.301  -0.299  -0.811  0.00  0.00    -0.004 A 
ATOM      4  C2  UNL d   1      -1.291   0.267  -0.036  0.00  0.00    -0.047 A 
ATOM      5  C3  UNL d   1      -0.965   0.016   1.318  0.00  0.00    -0.047 A 
ATOM      6  C4  UNL d   1       0.216  -0.697   1.330  0.00  0.00    -0.004 A 
ENDROOT
TORSDOF 0
ENDMDL
