MODEL 1
REMARK minimizedAffinity -2.94694924
REMARK minimizedRMSD -1
REMARK  0 active torsions:
REMARK  status: ('A' for Active; 'I' for Inactive)
ROOT
ATOM      1  C   UNL d   1      -0.772   1.841  -2.176  0.00  0.00     0.172 C 
ATOM      2  N   UNL d   1      -0.776   1.088  -0.943  0.00  0.00    -0.070 N 
ATOM      3  C1  UNL d   1      -0.345  -0.203  -0.794  0.00  0.00    -0.004 A 
ATOM      4  C2  UNL d   1      -0.512  -0.554   0.528  0.00  0.00    -0.047 A 
ATOM      5  C3  UNL d   1      -1.063   0.564   1.197  0.00  0.00    -0.047 A 
ATOM      6  C4  UNL d   1      -1.216   1.567   0.263  0.00  0.00    -0.004 A 
ENDROOT
TORSDOF 0
ENDMDL
