MODEL 1
REMARK minimizedAffinity -1.0839448
REMARK minimizedRMSD -1
REMARK  0 active torsions:
REMARK  status: ('A' for Active; 'I' for Inactive)
ROOT
ATOM      1  C   UNL d   1      -0.314   0.410  -1.172  0.00  0.00     0.172 C 
ATOM      2  N   UNL d   1      -0.542   0.046   0.206  0.00  0.00    -0.070 N 
ATOM      3  C1  UNL d   1      -0.227   0.812   1.297  0.00  0.00    -0.004 A 
ATOM      4  C2  UNL d   1      -0.601   0.114   2.425  0.00  0.00    -0.047 A 
ATOM      5  C3  UNL d   1      -1.159  -1.114   1.998  0.00  0.00    -0.047 A 
ATOM      6  C4  UNL d   1      -1.110  -1.130   0.620  0.00  0.00    -0.004 A 
ENDROOT
TORSDOF 0
ENDMDL
