MODEL 1
REMARK minimizedAffinity -2.24951386
REMARK minimizedRMSD -1
REMARK  0 active torsions:
REMARK  status: ('A' for Active; 'I' for Inactive)
ROOT
ATOM      1  C   UNL d   1      -0.689   2.289  -2.232  0.00  0.00     0.172 C 
ATOM      2  N   UNL d   1      -0.559   1.229  -1.260  0.00  0.00    -0.070 N 
ATOM      3  C1  UNL d   1      -0.516   1.392   0.099  0.00  0.00    -0.004 A 
ATOM      4  C2  UNL d   1      -0.388   0.145   0.671  0.00  0.00    -0.047 A 
ATOM      5  C3  UNL d   1      -0.353  -0.801  -0.381  0.00  0.00    -0.047 A 
ATOM      6  C4  UNL d   1      -0.460  -0.103  -1.565  0.00  0.00    -0.004 A 
ENDROOT
TORSDOF 0
ENDMDL
