MODEL 1
REMARK minimizedAffinity -2.51437426
REMARK minimizedRMSD -1
REMARK  0 active torsions:
REMARK  status: ('A' for Active; 'I' for Inactive)
ROOT
ATOM      1  C   UNL d   1       0.335  -1.212   2.474  0.00  0.00     0.172 C 
ATOM      2  N   UNL d   1       0.203  -0.807   1.094  0.00  0.00    -0.070 N 
ATOM      3  C1  UNL d   1       1.075  -1.116   0.084  0.00  0.00    -0.004 A 
ATOM      4  C2  UNL d   1       0.596  -0.547  -1.076  0.00  0.00    -0.047 A 
ATOM      5  C3  UNL d   1      -0.604   0.129  -0.752  0.00  0.00    -0.047 A 
ATOM      6  C4  UNL d   1      -0.824  -0.049   0.598  0.00  0.00    -0.004 A 
ENDROOT
TORSDOF 0
ENDMDL
