MODEL 1
REMARK minimizedAffinity 1.41498911
REMARK minimizedRMSD -1
REMARK  1 active torsions:
REMARK  status: ('A' for Active; 'I' for Inactive)
REMARK    1  A    between atoms: C1_2  and  C2_3 
ROOT
ATOM      1  C2  UNL d   1       2.405  -1.144   2.300  0.00  0.00    -0.077 A 
ATOM      2  C3  UNL d   1       2.453  -1.140   3.701  0.00  0.00     0.002 A 
ATOM      3  C4  UNL d   1       3.652  -0.875   4.365  0.00  0.00     0.002 A 
ATOM      4  C5  UNL d   1       4.809  -0.607   3.638  0.00  0.00    -0.004 A 
ATOM      5  C6  UNL d   1       4.772  -0.609   2.244  0.00  0.00     0.002 A 
ATOM      6  C7  UNL d   1       3.575  -0.876   1.578  0.00  0.00     0.002 A 
ENDROOT
BRANCH   1   7
ATOM      7  C1  UNL d   1       1.102  -1.381   1.582  0.00  0.00     0.055 C 
ATOM      8  C   UNL d   1       0.722  -0.189   0.716  0.00  0.00     0.019 C 
ENDBRANCH   1   7
TORSDOF 1
ENDMDL
