MODEL 1
REMARK minimizedAffinity -0.161210597
REMARK minimizedRMSD -1
REMARK  1 active torsions:
REMARK  status: ('A' for Active; 'I' for Inactive)
REMARK    1  A    between atoms: C1_2  and  C2_3 
ROOT
ATOM      1  C2  UNL d   1      -2.613   1.443  -3.561  0.00  0.00    -0.077 A 
ATOM      2  C3  UNL d   1      -1.364   1.062  -3.050  0.00  0.00     0.002 A 
ATOM      3  C4  UNL d   1      -0.223   1.811  -3.343  0.00  0.00     0.002 A 
ATOM      4  C5  UNL d   1      -0.320   2.948  -4.142  0.00  0.00    -0.004 A 
ATOM      5  C6  UNL d   1      -1.557   3.334  -4.657  0.00  0.00     0.002 A 
ATOM      6  C7  UNL d   1      -2.698   2.585  -4.367  0.00  0.00     0.002 A 
ENDROOT
BRANCH   1   7
ATOM      7  C1  UNL d   1      -3.852   0.664  -3.207  0.00  0.00     0.055 C 
ATOM      8  C   UNL d   1      -4.354   1.025  -1.816  0.00  0.00     0.019 C 
ENDBRANCH   1   7
TORSDOF 1
ENDMDL
