MODEL 1
REMARK minimizedAffinity -2.59531641
REMARK minimizedRMSD -1
REMARK  1 active torsions:
REMARK  status: ('A' for Active; 'I' for Inactive)
REMARK    1  A    between atoms: C1_2  and  C2_3 
ROOT
ATOM      1  C2  UNL d   1       1.816  -0.554   1.264  0.00  0.00    -0.077 A 
ATOM      2  C3  UNL d   1       1.002  -0.451   2.401  0.00  0.00     0.002 A 
ATOM      3  C4  UNL d   1       1.519  -0.734   3.667  0.00  0.00     0.002 A 
ATOM      4  C5  UNL d   1       2.851  -1.117   3.808  0.00  0.00    -0.004 A 
ATOM      5  C6  UNL d   1       3.668  -1.224   2.683  0.00  0.00     0.002 A 
ATOM      6  C7  UNL d   1       3.153  -0.943   1.417  0.00  0.00     0.002 A 
ENDROOT
BRANCH   1   7
ATOM      7  C1  UNL d   1       1.274  -0.201  -0.097  0.00  0.00     0.055 C 
ATOM      8  C   UNL d   1       2.333   0.474  -0.956  0.00  0.00     0.019 C 
ENDBRANCH   1   7
TORSDOF 1
ENDMDL
