MODEL 1
REMARK minimizedAffinity -1.49714541
REMARK minimizedRMSD -1
REMARK  1 active torsions:
REMARK  status: ('A' for Active; 'I' for Inactive)
REMARK    1  A    between atoms: C1_2  and  C2_3 
ROOT
ATOM      1  C2  UNL d   1      -0.317   0.194   0.662  0.00  0.00    -0.077 A 
ATOM      2  C3  UNL d   1       0.168   1.290  -0.064  0.00  0.00     0.002 A 
ATOM      3  C4  UNL d   1       1.466   1.278  -0.579  0.00  0.00     0.002 A 
ATOM      4  C5  UNL d   1       2.287   0.170  -0.377  0.00  0.00    -0.004 A 
ATOM      5  C6  UNL d   1       1.814  -0.925   0.345  0.00  0.00     0.002 A 
ATOM      6  C7  UNL d   1       0.518  -0.913   0.862  0.00  0.00     0.002 A 
ENDROOT
BRANCH   1   7
ATOM      7  C1  UNL d   1      -1.733   0.185   1.176  0.00  0.00     0.055 C 
ATOM      8  C   UNL d   1      -2.554  -0.915   0.518  0.00  0.00     0.019 C 
ENDBRANCH   1   7
TORSDOF 1
ENDMDL
