MODEL 1
REMARK minimizedAffinity -4.48715401
REMARK minimizedRMSD -1
REMARK  1 active torsions:
REMARK  status: ('A' for Active; 'I' for Inactive)
REMARK    1  A    between atoms: C1_2  and  C2_3 
ROOT
ATOM      1  C2  UNL d   1      -4.669  -5.979   0.749  0.00  0.00    -0.077 A 
ATOM      2  C3  UNL d   1      -3.404  -5.987   0.147  0.00  0.00     0.002 A 
ATOM      3  C4  UNL d   1      -3.284  -5.999  -1.244  0.00  0.00     0.002 A 
ATOM      4  C5  UNL d   1      -4.425  -5.999  -2.044  0.00  0.00    -0.004 A 
ATOM      5  C6  UNL d   1      -5.688  -5.993  -1.454  0.00  0.00     0.002 A 
ATOM      6  C7  UNL d   1      -5.810  -5.982  -0.064  0.00  0.00     0.002 A 
ENDROOT
BRANCH   1   7
ATOM      7  C1  UNL d   1      -4.801  -5.916   2.249  0.00  0.00     0.055 C 
ATOM      8  C   UNL d   1      -3.439  -5.973   2.926  0.00  0.00     0.019 C 
ENDBRANCH   1   7
TORSDOF 1
ENDMDL
