MODEL 1
REMARK minimizedAffinity 2.36806035
REMARK minimizedRMSD -1
REMARK  1 active torsions:
REMARK  status: ('A' for Active; 'I' for Inactive)
REMARK    1  A    between atoms: C1_2  and  C2_3 
ROOT
ATOM      1  C2  UNL d   1      -2.221  -4.741   1.017  0.00  0.00    -0.077 A 
ATOM      2  C3  UNL d   1      -1.942  -4.787   2.390  0.00  0.00     0.002 A 
ATOM      3  C4  UNL d   1      -2.830  -5.407   3.271  0.00  0.00     0.002 A 
ATOM      4  C5  UNL d   1      -3.999  -5.990   2.788  0.00  0.00    -0.004 A 
ATOM      5  C6  UNL d   1      -4.287  -5.948   1.424  0.00  0.00     0.002 A 
ATOM      6  C7  UNL d   1      -3.401  -5.327   0.542  0.00  0.00     0.002 A 
ENDROOT
BRANCH   1   7
ATOM      7  C1  UNL d   1      -1.241  -4.115   0.059  0.00  0.00     0.055 C 
ATOM      8  C   UNL d   1      -0.191  -3.298   0.797  0.00  0.00     0.019 C 
ENDBRANCH   1   7
TORSDOF 1
ENDMDL
