MODEL 1
REMARK minimizedAffinity 2.94305658
REMARK minimizedRMSD -1
REMARK  1 active torsions:
REMARK  status: ('A' for Active; 'I' for Inactive)
REMARK    1  A    between atoms: C1_2  and  C2_3 
ROOT
ATOM      1  C2  UNL d   1      -1.500  -5.507  -3.630  0.00  0.00    -0.077 A 
ATOM      2  C3  UNL d   1      -0.190  -5.009  -3.633  0.00  0.00     0.002 A 
ATOM      3  C4  UNL d   1       0.561  -5.005  -4.810  0.00  0.00     0.002 A 
ATOM      4  C5  UNL d   1       0.010  -5.494  -5.992  0.00  0.00    -0.004 A 
ATOM      5  C6  UNL d   1      -1.292  -5.994  -5.998  0.00  0.00     0.002 A 
ATOM      6  C7  UNL d   1      -2.044  -5.999  -4.823  0.00  0.00     0.002 A 
ENDROOT
BRANCH   1   7
ATOM      7  C1  UNL d   1      -2.330  -5.467  -2.372  0.00  0.00     0.055 C 
ATOM      8  C   UNL d   1      -1.551  -4.859  -1.215  0.00  0.00     0.019 C 
ENDBRANCH   1   7
TORSDOF 1
ENDMDL
