MODEL 1
REMARK minimizedAffinity 1.4579401
REMARK minimizedRMSD -1
REMARK  1 active torsions:
REMARK  status: ('A' for Active; 'I' for Inactive)
REMARK    1  A    between atoms: C1_2  and  C2_3 
ROOT
ATOM      1  C2  UNL d   1       0.026   1.273  -0.853  0.00  0.00    -0.077 A 
ATOM      2  C3  UNL d   1       0.138   2.566  -0.321  0.00  0.00     0.002 A 
ATOM      3  C4  UNL d   1      -0.180   3.680  -1.100  0.00  0.00     0.002 A 
ATOM      4  C5  UNL d   1      -0.616   3.513  -2.413  0.00  0.00    -0.004 A 
ATOM      5  C6  UNL d   1      -0.729   2.232  -2.952  0.00  0.00     0.002 A 
ATOM      6  C7  UNL d   1      -0.410   1.117  -2.175  0.00  0.00     0.002 A 
ENDROOT
BRANCH   1   7
ATOM      7  C1  UNL d   1       0.321   0.068   0.001  0.00  0.00     0.055 C 
ATOM      8  C   UNL d   1       1.537  -0.690  -0.513  0.00  0.00     0.019 C 
ENDBRANCH   1   7
TORSDOF 1
ENDMDL
