MODEL 1
REMARK minimizedAffinity 0.594809175
REMARK minimizedRMSD -1
REMARK  1 active torsions:
REMARK  status: ('A' for Active; 'I' for Inactive)
REMARK    1  A    between atoms: C1_2  and  C2_3 
ROOT
ATOM      1  C2  UNL d   1      -0.662   1.881  -2.735  0.00  0.00    -0.077 A 
ATOM      2  C3  UNL d   1      -1.992   1.599  -3.076  0.00  0.00     0.002 A 
ATOM      3  C4  UNL d   1      -2.735   2.508  -3.832  0.00  0.00     0.002 A 
ATOM      4  C5  UNL d   1      -2.155   3.701  -4.258  0.00  0.00    -0.004 A 
ATOM      5  C6  UNL d   1      -0.833   3.991  -3.922  0.00  0.00     0.002 A 
ATOM      6  C7  UNL d   1      -0.090   3.084  -3.165  0.00  0.00     0.002 A 
ENDROOT
BRANCH   1   7
ATOM      7  C1  UNL d   1       0.156   0.880  -1.961  0.00  0.00     0.055 C 
ATOM      8  C   UNL d   1      -0.251   0.847  -0.496  0.00  0.00     0.019 C 
ENDBRANCH   1   7
TORSDOF 1
ENDMDL
