MODEL 1
REMARK minimizedAffinity 1.80056345
REMARK minimizedRMSD -1
REMARK  1 active torsions:
REMARK  status: ('A' for Active; 'I' for Inactive)
REMARK    1  A    between atoms: C1_2  and  C2_3 
ROOT
ATOM      1  C2  UNL d   1      -0.867  -5.805  -4.894  0.00  0.00    -0.077 A 
ATOM      2  C3  UNL d   1      -0.005  -5.778  -6.000  0.00  0.00     0.002 A 
ATOM      3  C4  UNL d   1       1.378  -5.847  -5.819  0.00  0.00     0.002 A 
ATOM      4  C5  UNL d   1       1.911  -5.947  -4.536  0.00  0.00    -0.004 A 
ATOM      5  C6  UNL d   1       1.062  -5.972  -3.430  0.00  0.00     0.002 A 
ATOM      6  C7  UNL d   1      -0.320  -5.902  -3.608  0.00  0.00     0.002 A 
ENDROOT
BRANCH   1   7
ATOM      7  C1  UNL d   1      -2.360  -5.780  -5.089  0.00  0.00     0.055 C 
ATOM      8  C   UNL d   1      -3.094  -5.998  -3.774  0.00  0.00     0.019 C 
ENDBRANCH   1   7
TORSDOF 1
ENDMDL
