MODEL 1
REMARK minimizedAffinity 1.75038171
REMARK minimizedRMSD -1
REMARK  1 active torsions:
REMARK  status: ('A' for Active; 'I' for Inactive)
REMARK    1  A    between atoms: C1_2  and  C2_3 
ROOT
ATOM      1  C2  UNL d   1      -2.429   2.714  -3.478  0.00  0.00    -0.077 A 
ATOM      2  C3  UNL d   1      -2.260   3.822  -4.320  0.00  0.00     0.002 A 
ATOM      3  C4  UNL d   1      -0.981   4.304  -4.605  0.00  0.00     0.002 A 
ATOM      4  C5  UNL d   1       0.138   3.682  -4.056  0.00  0.00    -0.004 A 
ATOM      5  C6  UNL d   1      -0.019   2.582  -3.215  0.00  0.00     0.002 A 
ATOM      6  C7  UNL d   1      -1.297   2.099  -2.928  0.00  0.00     0.002 A 
ENDROOT
BRANCH   1   7
ATOM      7  C1  UNL d   1      -3.804   2.163  -3.208  0.00  0.00     0.055 C 
ATOM      8  C   UNL d   1      -3.773   1.107  -2.112  0.00  0.00     0.019 C 
ENDBRANCH   1   7
TORSDOF 1
ENDMDL
