MODEL 1
REMARK minimizedAffinity -1.2784704
REMARK minimizedRMSD -1
REMARK  1 active torsions:
REMARK  status: ('A' for Active; 'I' for Inactive)
REMARK    1  A    between atoms: C1_2  and  C2_3 
ROOT
ATOM      1  C2  UNL d   1       0.792  -0.314   0.865  0.00  0.00    -0.077 A 
ATOM      2  C3  UNL d   1       1.668  -0.247  -0.228  0.00  0.00     0.002 A 
ATOM      3  C4  UNL d   1       2.965  -0.754  -0.125  0.00  0.00     0.002 A 
ATOM      4  C5  UNL d   1       3.396  -1.334   1.066  0.00  0.00    -0.004 A 
ATOM      5  C6  UNL d   1       2.533  -1.403   2.159  0.00  0.00     0.002 A 
ATOM      6  C7  UNL d   1       1.236  -0.896   2.059  0.00  0.00     0.002 A 
ENDROOT
BRANCH   1   7
ATOM      7  C1  UNL d   1      -0.623   0.187   0.741  0.00  0.00     0.055 C 
ATOM      8  C   UNL d   1      -1.556  -0.906   0.240  0.00  0.00     0.019 C 
ENDBRANCH   1   7
TORSDOF 1
ENDMDL
