MODEL 1
REMARK minimizedAffinity -3.87580228
REMARK minimizedRMSD -1
REMARK  1 active torsions:
REMARK  status: ('A' for Active; 'I' for Inactive)
REMARK    1  A    between atoms: C1_2  and  C2_3 
ROOT
ATOM      1  C2  UNL d   1      -0.319  -0.158  -0.563  0.00  0.00    -0.081 A 
ATOM      2  C3  UNL d   1      -1.007  -0.127   0.656  0.00  0.00     0.006 A 
ATOM      3  C4  UNL d   1      -0.343  -0.415   1.852  0.00  0.00     0.002 A 
ATOM      4  C5  UNL d   1       1.020  -0.730   1.849  0.00  0.00    -0.080 A 
ATOM      5  C6  UNL d   1       1.751  -1.011   3.128  0.00  0.00     0.076 C 
ATOM      6  C7  UNL d   1       1.703  -0.778   0.629  0.00  0.00     0.002 A 
ATOM      7  C8  UNL d   1       1.040  -0.491  -0.566  0.00  0.00     0.006 A 
ENDROOT
BRANCH   1   8
ATOM      8  C1  UNL d   1      -1.016   0.214  -1.846  0.00  0.00     0.054 C 
ATOM      9  C   UNL d   1      -1.198   1.721  -1.959  0.00  0.00     0.018 C 
ENDBRANCH   1   8
TORSDOF 1
ENDMDL
