MODEL 1
REMARK minimizedAffinity -4.54732513
REMARK minimizedRMSD -1
REMARK  1 active torsions:
REMARK  status: ('A' for Active; 'I' for Inactive)
REMARK    1  A    between atoms: C1_2  and  C2_3 
ROOT
ATOM      1  C2  UNL d   1       0.098   0.164  -0.303  0.00  0.00    -0.081 A 
ATOM      2  C3  UNL d   1       1.439  -0.232  -0.218  0.00  0.00     0.006 A 
ATOM      3  C4  UNL d   1       1.981  -0.638   1.004  0.00  0.00     0.002 A 
ATOM      4  C5  UNL d   1       1.191  -0.663   2.158  0.00  0.00    -0.080 A 
ATOM      5  C6  UNL d   1       1.752  -1.125   3.470  0.00  0.00     0.076 C 
ATOM      6  C7  UNL d   1      -0.144  -0.250   2.077  0.00  0.00     0.002 A 
ATOM      7  C8  UNL d   1      -0.686   0.157   0.856  0.00  0.00     0.006 A 
ENDROOT
BRANCH   1   8
ATOM      8  C1  UNL d   1      -0.507   0.541  -1.631  0.00  0.00     0.054 C 
ATOM      9  C   UNL d   1      -0.167   1.976  -2.007  0.00  0.00     0.018 C 
ENDBRANCH   1   8
TORSDOF 1
ENDMDL
