MODEL 1
REMARK minimizedAffinity -4.3598752
REMARK minimizedRMSD -1
REMARK  1 active torsions:
REMARK  status: ('A' for Active; 'I' for Inactive)
REMARK    1  A    between atoms: C1_2  and  C2_3 
ROOT
ATOM      1  C2  UNL d   1      -0.107   0.288  -0.598  0.00  0.00    -0.081 A 
ATOM      2  C3  UNL d   1      -0.756   0.451   0.632  0.00  0.00     0.006 A 
ATOM      3  C4  UNL d   1      -0.139   0.045   1.817  0.00  0.00     0.002 A 
ATOM      4  C5  UNL d   1       1.139  -0.523   1.794  0.00  0.00    -0.080 A 
ATOM      5  C6  UNL d   1       1.825  -0.935   3.063  0.00  0.00     0.076 C 
ATOM      6  C7  UNL d   1       1.780  -0.702   0.564  0.00  0.00     0.002 A 
ATOM      7  C8  UNL d   1       1.163  -0.297  -0.622  0.00  0.00     0.006 A 
ENDROOT
BRANCH   1   8
ATOM      8  C1  UNL d   1      -0.743   0.784  -1.872  0.00  0.00     0.054 C 
ATOM      9  C   UNL d   1      -0.391   2.241  -2.135  0.00  0.00     0.018 C 
ENDBRANCH   1   8
TORSDOF 1
ENDMDL
