MODEL 1
REMARK minimizedAffinity -2.85818005
REMARK minimizedRMSD -1
REMARK  1 active torsions:
REMARK  status: ('A' for Active; 'I' for Inactive)
REMARK    1  A    between atoms: C1_2  and  C2_3 
ROOT
ATOM      1  C2  UNL d   1      -0.650   0.872  -1.363  0.00  0.00    -0.081 A 
ATOM      2  C3  UNL d   1      -1.377   0.949  -0.168  0.00  0.00     0.006 A 
ATOM      3  C4  UNL d   1      -0.785   0.588   1.045  0.00  0.00     0.002 A 
ATOM      4  C5  UNL d   1       0.544   0.152   1.085  0.00  0.00    -0.080 A 
ATOM      5  C6  UNL d   1       1.200  -0.209   2.384  0.00  0.00     0.076 C 
ATOM      6  C7  UNL d   1       1.264   0.058  -0.111  0.00  0.00     0.002 A 
ATOM      7  C8  UNL d   1       0.673   0.418  -1.324  0.00  0.00     0.006 A 
ENDROOT
BRANCH   1   8
ATOM      8  C1  UNL d   1      -1.265   1.322  -2.664  0.00  0.00     0.054 C 
ATOM      9  C   UNL d   1      -1.400   2.837  -2.717  0.00  0.00     0.018 C 
ENDBRANCH   1   8
TORSDOF 1
ENDMDL
