MODEL 1
REMARK minimizedAffinity -3.65313506
REMARK minimizedRMSD -1
REMARK  1 active torsions:
REMARK  status: ('A' for Active; 'I' for Inactive)
REMARK    1  A    between atoms: C1_2  and  C2_3 
ROOT
ATOM      1  C2  UNL d   1      -0.374   0.164  -0.776  0.00  0.00    -0.081 A 
ATOM      2  C3  UNL d   1      -1.033   0.465   0.422  0.00  0.00     0.006 A 
ATOM      3  C4  UNL d   1      -0.518   0.026   1.644  0.00  0.00     0.002 A 
ATOM      4  C5  UNL d   1       0.668  -0.715   1.689  0.00  0.00    -0.080 A 
ATOM      5  C6  UNL d   1       1.247  -1.167   2.997  0.00  0.00     0.076 C 
ATOM      6  C7  UNL d   1       1.317  -1.031   0.491  0.00  0.00     0.002 A 
ATOM      7  C8  UNL d   1       0.802  -0.593  -0.731  0.00  0.00     0.006 A 
ENDROOT
BRANCH   1   8
ATOM      8  C1  UNL d   1      -0.892   0.691  -2.090  0.00  0.00     0.054 C 
ATOM      9  C   UNL d   1      -0.687   2.195  -2.201  0.00  0.00     0.018 C 
ENDBRANCH   1   8
TORSDOF 1
ENDMDL
