MODEL 1
REMARK minimizedAffinity 3.012923
REMARK minimizedRMSD -1
REMARK  1 active torsions:
REMARK  status: ('A' for Active; 'I' for Inactive)
REMARK    1  A    between atoms: N_2  and  C1_3 
ROOT
ATOM      1  C1  UNL d   1       2.383  -2.098   1.287  0.00  0.00     0.143 A 
ATOM      2  C2  UNL d   1       1.590  -3.048   0.634  0.00  0.00    -0.057 A 
ATOM      3  C3  UNL d   1       1.200  -2.876  -0.700  0.00  0.00     0.033 A 
ATOM      4  C4  UNL d   1       1.575  -1.732  -1.398  0.00  0.00    -0.042 A 
ATOM      5  C5  UNL d   1       2.342  -0.763  -0.761  0.00  0.00     0.033 A 
ATOM      6  C6  UNL d   1       2.734  -0.944   0.569  0.00  0.00    -0.057 A 
ENDROOT
BRANCH   1   7
ATOM      7  N   UNL d   1       2.721  -2.165   2.641  0.00  0.00    -0.732 N 
ATOM      8  C   UNL d   1       1.710  -2.434   3.640  0.00  0.00     0.284 C 
ATOM      9  H3  UNL d   1       3.601  -2.650   2.798  0.00  0.00     0.395 HD
ENDBRANCH   1   7
TORSDOF 1
ENDMDL
