MODEL 1
REMARK minimizedAffinity -1.40481901
REMARK minimizedRMSD -1
REMARK  1 active torsions:
REMARK  status: ('A' for Active; 'I' for Inactive)
REMARK    1  A    between atoms: N_2  and  C1_3 
ROOT
ATOM      1  C1  UNL d   1       2.363  -0.260   0.531  0.00  0.00     0.143 A 
ATOM      2  C2  UNL d   1       1.553  -1.178   1.208  0.00  0.00    -0.057 A 
ATOM      3  C3  UNL d   1       1.317  -2.458   0.692  0.00  0.00     0.033 A 
ATOM      4  C4  UNL d   1       1.867  -2.834  -0.529  0.00  0.00    -0.042 A 
ATOM      5  C5  UNL d   1       2.655  -1.929  -1.232  0.00  0.00     0.033 A 
ATOM      6  C6  UNL d   1       2.892  -0.655  -0.708  0.00  0.00    -0.057 A 
ENDROOT
BRANCH   1   7
ATOM      7  N   UNL d   1       2.556   1.060   0.944  0.00  0.00    -0.732 N 
ATOM      8  C   UNL d   1       1.936   2.154   0.227  0.00  0.00     0.284 C 
ATOM      9  H3  UNL d   1       2.529   1.159   1.956  0.00  0.00     0.395 HD
ENDBRANCH   1   7
TORSDOF 1
ENDMDL
