MODEL 1
REMARK minimizedAffinity 2.43615365
REMARK minimizedRMSD -1
REMARK  1 active torsions:
REMARK  status: ('A' for Active; 'I' for Inactive)
REMARK    1  A    between atoms: N_2  and  C1_3 
ROOT
ATOM      1  C1  UNL d   1       2.953  -0.481   0.199  0.00  0.00     0.143 A 
ATOM      2  C2  UNL d   1       3.320  -1.776   0.582  0.00  0.00    -0.057 A 
ATOM      3  C3  UNL d   1       2.475  -2.868   0.350  0.00  0.00     0.033 A 
ATOM      4  C4  UNL d   1       1.232  -2.680  -0.245  0.00  0.00    -0.042 A 
ATOM      5  C5  UNL d   1       0.836  -1.398  -0.612  0.00  0.00     0.033 A 
ATOM      6  C6  UNL d   1       1.687  -0.313  -0.383  0.00  0.00    -0.057 A 
ENDROOT
BRANCH   1   7
ATOM      7  N   UNL d   1       3.706   0.659   0.491  0.00  0.00    -0.732 N 
ATOM      8  C   UNL d   1       3.055   1.895   0.869  0.00  0.00     0.284 C 
ATOM      9  H3  UNL d   1       4.540   0.445   1.033  0.00  0.00     0.395 HD
ENDBRANCH   1   7
TORSDOF 1
ENDMDL
