MODEL 1
REMARK minimizedAffinity 6.16730309
REMARK minimizedRMSD -1
REMARK  1 active torsions:
REMARK  status: ('A' for Active; 'I' for Inactive)
REMARK    1  A    between atoms: N_2  and  C1_3 
ROOT
ATOM      1  C1  UNL d   1      -3.877   0.882  -2.571  0.00  0.00     0.143 A 
ATOM      2  C2  UNL d   1      -4.776   1.336  -1.599  0.00  0.00    -0.057 A 
ATOM      3  C3  UNL d   1      -5.082   0.560  -0.475  0.00  0.00     0.033 A 
ATOM      4  C4  UNL d   1      -4.515  -0.700  -0.316  0.00  0.00    -0.042 A 
ATOM      5  C5  UNL d   1      -3.638  -1.182  -1.281  0.00  0.00     0.033 A 
ATOM      6  C6  UNL d   1      -3.331  -0.399  -2.399  0.00  0.00    -0.057 A 
ENDROOT
BRANCH   1   7
ATOM      7  N   UNL d   1      -3.608   1.564  -3.760  0.00  0.00    -0.732 N 
ATOM      8  C   UNL d   1      -2.275   1.563  -4.325  0.00  0.00     0.284 C 
ATOM      9  H3  UNL d   1      -4.350   1.455  -4.447  0.00  0.00     0.395 HD
ENDBRANCH   1   7
TORSDOF 1
ENDMDL
