MODEL 1
REMARK minimizedAffinity 13.3070107
REMARK minimizedRMSD -1
REMARK  1 active torsions:
REMARK  status: ('A' for Active; 'I' for Inactive)
REMARK    1  A    between atoms: N_2  and  C1_3 
ROOT
ATOM      1  C1  UNL d   1       1.083   1.384   0.222  0.00  0.00     0.143 A 
ATOM      2  C2  UNL d   1       1.020   0.005  -0.006  0.00  0.00    -0.057 A 
ATOM      3  C3  UNL d   1       2.178  -0.782  -0.022  0.00  0.00     0.033 A 
ATOM      4  C4  UNL d   1       3.427  -0.196   0.161  0.00  0.00    -0.042 A 
ATOM      5  C5  UNL d   1       3.515   1.176   0.364  0.00  0.00     0.033 A 
ATOM      6  C6  UNL d   1       2.354   1.955   0.386  0.00  0.00    -0.057 A 
ENDROOT
BRANCH   1   7
ATOM      7  N   UNL d   1      -0.023   2.234   0.152  0.00  0.00    -0.732 N 
ATOM      8  C   UNL d   1      -0.994   2.271   1.225  0.00  0.00     0.284 C 
ATOM      9  H3  UNL d   1       0.214   3.149  -0.225  0.00  0.00     0.395 HD
ENDBRANCH   1   7
TORSDOF 1
ENDMDL
