MODEL 1
REMARK minimizedAffinity 5.83263922
REMARK minimizedRMSD -1
REMARK  1 active torsions:
REMARK  status: ('A' for Active; 'I' for Inactive)
REMARK    1  A    between atoms: N_2  and  C1_3 
ROOT
ATOM      1  C1  UNL d   1       2.787  -0.966   0.326  0.00  0.00     0.143 A 
ATOM      2  C2  UNL d   1       2.756  -2.041   1.221  0.00  0.00    -0.057 A 
ATOM      3  C3  UNL d   1       1.833  -3.084   1.071  0.00  0.00     0.033 A 
ATOM      4  C4  UNL d   1       0.904  -3.055   0.036  0.00  0.00    -0.042 A 
ATOM      5  C5  UNL d   1       0.901  -1.984  -0.850  0.00  0.00     0.033 A 
ATOM      6  C6  UNL d   1       1.828  -0.949  -0.699  0.00  0.00    -0.057 A 
ENDROOT
BRANCH   1   7
ATOM      7  N   UNL d   1       3.614   0.149   0.479  0.00  0.00    -0.732 N 
ATOM      8  C   UNL d   1       3.076   1.487   0.362  0.00  0.00     0.284 C 
ATOM      9  H3  UNL d   1       4.284   0.035   1.237  0.00  0.00     0.395 HD
ENDBRANCH   1   7
TORSDOF 1
ENDMDL
