MODEL 1
REMARK minimizedAffinity 4.88726521
REMARK minimizedRMSD -1
REMARK  1 active torsions:
REMARK  status: ('A' for Active; 'I' for Inactive)
REMARK    1  A    between atoms: N_2  and  C1_3 
ROOT
ATOM      1  C1  UNL d   1      -4.913   1.834  -3.878  0.00  0.00     0.143 A 
ATOM      2  C2  UNL d   1      -4.760   1.059  -2.724  0.00  0.00    -0.057 A 
ATOM      3  C3  UNL d   1      -5.232   1.503  -1.483  0.00  0.00     0.033 A 
ATOM      4  C4  UNL d   1      -5.843   2.747  -1.369  0.00  0.00    -0.042 A 
ATOM      5  C5  UNL d   1      -5.984   3.546  -2.498  0.00  0.00     0.033 A 
ATOM      6  C6  UNL d   1      -5.516   3.094  -3.736  0.00  0.00    -0.057 A 
ENDROOT
BRANCH   1   7
ATOM      7  N   UNL d   1      -4.377   1.492  -5.122  0.00  0.00    -0.732 N 
ATOM      8  C   UNL d   1      -3.015   1.843  -5.459  0.00  0.00     0.284 C 
ATOM      9  H3  UNL d   1      -4.652   0.559  -5.420  0.00  0.00     0.395 HD
ENDBRANCH   1   7
TORSDOF 1
ENDMDL
