MODEL 1
REMARK minimizedAffinity 4.96710491
REMARK minimizedRMSD -1
REMARK  1 active torsions:
REMARK  status: ('A' for Active; 'I' for Inactive)
REMARK    1  A    between atoms: N_2  and  C1_3 
ROOT
ATOM      1  C1  UNL d   1       2.954   0.143   1.036  0.00  0.00     0.143 A 
ATOM      2  C2  UNL d   1       3.123  -0.977   1.857  0.00  0.00    -0.057 A 
ATOM      3  C3  UNL d   1       3.058  -2.276   1.337  0.00  0.00     0.033 A 
ATOM      4  C4  UNL d   1       2.793  -2.478  -0.013  0.00  0.00    -0.042 A 
ATOM      5  C5  UNL d   1       2.597  -1.380  -0.844  0.00  0.00     0.033 A 
ATOM      6  C6  UNL d   1       2.670  -0.086  -0.320  0.00  0.00    -0.057 A 
ENDROOT
BRANCH   1   7
ATOM      7  N   UNL d   1       2.909   1.456   1.510  0.00  0.00    -0.732 N 
ATOM      8  C   UNL d   1       2.250   2.494   0.747  0.00  0.00     0.284 C 
ATOM      9  H3  UNL d   1       2.733   1.501   2.512  0.00  0.00     0.395 HD
ENDBRANCH   1   7
TORSDOF 1
ENDMDL
