MODEL 1
REMARK minimizedAffinity 9.44574261
REMARK minimizedRMSD -1
REMARK  1 active torsions:
REMARK  status: ('A' for Active; 'I' for Inactive)
REMARK    1  A    between atoms: N_2  and  C1_3 
ROOT
ATOM      1  C1  UNL d   1       2.346  -2.122   2.105  0.00  0.00     0.143 A 
ATOM      2  C2  UNL d   1       1.533  -2.762   1.163  0.00  0.00    -0.057 A 
ATOM      3  C3  UNL d   1       1.810  -2.683  -0.207  0.00  0.00     0.033 A 
ATOM      4  C4  UNL d   1       2.891  -1.935  -0.663  0.00  0.00    -0.042 A 
ATOM      5  C5  UNL d   1       3.697  -1.270   0.254  0.00  0.00     0.033 A 
ATOM      6  C6  UNL d   1       3.420  -1.359   1.621  0.00  0.00    -0.057 A 
ENDROOT
BRANCH   1   7
ATOM      7  N   UNL d   1       2.066  -2.081   3.473  0.00  0.00    -0.732 N 
ATOM      8  C   UNL d   1       0.737  -1.760   3.945  0.00  0.00     0.284 C 
ATOM      9  H3  UNL d   1       2.518  -2.836   3.984  0.00  0.00     0.395 HD
ENDBRANCH   1   7
TORSDOF 1
ENDMDL
