MODEL 1
REMARK minimizedAffinity -0.8346259
REMARK minimizedRMSD -1
REMARK  0 active torsions:
REMARK  status: ('A' for Active; 'I' for Inactive)
ROOT
ATOM      1  C4' PXY d   1       0.829  -1.694   4.321  0.00  0.00     0.077 C 
ATOM      2  C1' PXY d   1       1.689  -0.411  -1.250  0.00  0.00     0.077 C 
ATOM      3  C1  PXY d   1       1.472  -0.758   0.210  0.00  0.00    -0.082 A 
ATOM      4  C2  PXY d   1       0.354  -0.385   0.812  0.00  0.00     0.003 A 
ATOM      5  C3  PXY d   1       0.155  -0.662   2.140  0.00  0.00     0.003 A 
ATOM      6  C4  PXY d   1       1.087  -1.374   2.846  0.00  0.00    -0.082 A 
ATOM      7  C5  PXY d   1       2.226  -1.767   2.237  0.00  0.00     0.003 A 
ATOM      8  C6  PXY d   1       2.427  -1.440   0.899  0.00  0.00     0.003 A 
ENDROOT
TORSDOF 0
ENDMDL
