MODEL 1
REMARK minimizedAffinity -2.42419314
REMARK minimizedRMSD -1
REMARK  0 active torsions:
REMARK  status: ('A' for Active; 'I' for Inactive)
ROOT
ATOM      1  C4' PXY d   1       4.600  -0.862   4.398  0.00  0.00     0.077 C 
ATOM      2  C1' PXY d   1       0.188  -1.519   0.721  0.00  0.00     0.077 C 
ATOM      3  C1  PXY d   1       1.337  -1.342   1.694  0.00  0.00    -0.082 A 
ATOM      4  C2  PXY d   1       2.575  -1.255   1.236  0.00  0.00     0.003 A 
ATOM      5  C3  PXY d   1       3.629  -1.127   2.103  0.00  0.00     0.003 A 
ATOM      6  C4  PXY d   1       3.409  -1.032   3.451  0.00  0.00    -0.082 A 
ATOM      7  C5  PXY d   1       2.147  -1.109   3.927  0.00  0.00     0.003 A 
ATOM      8  C6  PXY d   1       1.095  -1.281   3.032  0.00  0.00     0.003 A 
ENDROOT
TORSDOF 0
ENDMDL
