MODEL 1
REMARK minimizedAffinity -3.01198173
REMARK minimizedRMSD -1
REMARK  0 active torsions:
REMARK  status: ('A' for Active; 'I' for Inactive)
ROOT
ATOM      1  C4' PXY d   1      -3.133   0.984  -3.034  0.00  0.00     0.077 C 
ATOM      2  C1' PXY d   1       1.217   4.614  -4.183  0.00  0.00     0.077 C 
ATOM      3  C1  PXY d   1       0.084   3.656  -3.873  0.00  0.00    -0.082 A 
ATOM      4  C2  PXY d   1      -0.867   3.455  -4.771  0.00  0.00     0.003 A 
ATOM      5  C3  PXY d   1      -1.916   2.616  -4.494  0.00  0.00     0.003 A 
ATOM      6  C4  PXY d   1      -1.964   1.936  -3.307  0.00  0.00    -0.082 A 
ATOM      7  C5  PXY d   1      -0.993   2.127  -2.390  0.00  0.00     0.003 A 
ATOM      8  C6  PXY d   1       0.042   3.014  -2.674  0.00  0.00     0.003 A 
ENDROOT
TORSDOF 0
ENDMDL
