MODEL 1
REMARK minimizedAffinity 5.25453138
REMARK minimizedRMSD -1
REMARK  0 active torsions:
REMARK  status: ('A' for Active; 'I' for Inactive)
ROOT
ATOM      1  C4' PXY d   1      -3.805   1.066  -3.126  0.00  0.00     0.077 C 
ATOM      2  C1' PXY d   1       0.503   4.750  -4.257  0.00  0.00     0.077 C 
ATOM      3  C1  PXY d   1      -0.618   3.775  -3.957  0.00  0.00    -0.082 A 
ATOM      4  C2  PXY d   1      -1.795   3.931  -4.541  0.00  0.00     0.003 A 
ATOM      5  C3  PXY d   1      -2.829   3.077  -4.256  0.00  0.00     0.003 A 
ATOM      6  C4  PXY d   1      -2.642   2.021  -3.406  0.00  0.00    -0.082 A 
ATOM      7  C5  PXY d   1      -1.441   1.848  -2.815  0.00  0.00     0.003 A 
ATOM      8  C6  PXY d   1      -0.416   2.750  -3.085  0.00  0.00     0.003 A 
ENDROOT
TORSDOF 0
ENDMDL
