MODEL 1
REMARK minimizedAffinity 1.00098276
REMARK minimizedRMSD -1
REMARK  0 active torsions:
REMARK  status: ('A' for Active; 'I' for Inactive)
ROOT
ATOM      1  C4' PXY d   1       1.870  -5.562  -5.909  0.00  0.00     0.077 C 
ATOM      2  C1' PXY d   1      -3.491  -5.263  -3.769  0.00  0.00     0.077 C 
ATOM      3  C1  PXY d   1      -2.082  -5.331  -4.323  0.00  0.00    -0.082 A 
ATOM      4  C2  PXY d   1      -1.868  -5.900  -5.498  0.00  0.00     0.003 A 
ATOM      5  C3  PXY d   1      -0.595  -5.999  -6.000  0.00  0.00     0.003 A 
ATOM      6  C4  PXY d   1       0.462  -5.462  -5.315  0.00  0.00    -0.082 A 
ATOM      7  C5  PXY d   1       0.251  -4.871  -4.121  0.00  0.00     0.003 A 
ATOM      8  C6  PXY d   1      -1.043  -4.817  -3.610  0.00  0.00     0.003 A 
ENDROOT
TORSDOF 0
ENDMDL
