MODEL 1
REMARK minimizedAffinity -0.955693245
REMARK minimizedRMSD -1
REMARK  0 active torsions:
REMARK  status: ('A' for Active; 'I' for Inactive)
ROOT
ATOM      1  C4' PXY d   1       2.024  -5.990  -5.732  0.00  0.00     0.077 C 
ATOM      2  C1' PXY d   1      -3.332  -4.535  -4.116  0.00  0.00     0.077 C 
ATOM      3  C1  PXY d   1      -1.922  -4.906  -4.533  0.00  0.00    -0.082 A 
ATOM      4  C2  PXY d   1      -1.732  -5.628  -5.626  0.00  0.00     0.003 A 
ATOM      5  C3  PXY d   1      -0.467  -6.000  -6.000  0.00  0.00     0.003 A 
ATOM      6  C4  PXY d   1       0.620  -5.583  -5.278  0.00  0.00    -0.082 A 
ATOM      7  C5  PXY d   1       0.435  -4.838  -4.168  0.00  0.00     0.003 A 
ATOM      8  C6  PXY d   1      -0.861  -4.506  -3.782  0.00  0.00     0.003 A 
ENDROOT
TORSDOF 0
ENDMDL
