MODEL 1
REMARK minimizedAffinity 10.2666035
REMARK minimizedRMSD -1
REMARK  0 active torsions:
REMARK  status: ('A' for Active; 'I' for Inactive)
ROOT
ATOM      1  C4' PXY d   1      -4.331   1.531  -3.508  0.00  0.00     0.077 C 
ATOM      2  C1' PXY d   1       0.758   4.194  -4.152  0.00  0.00     0.077 C 
ATOM      3  C1  PXY d   1      -0.583   3.507  -3.986  0.00  0.00    -0.082 A 
ATOM      4  C2  PXY d   1      -0.663   2.395  -3.274  0.00  0.00     0.003 A 
ATOM      5  C3  PXY d   1      -1.862   1.743  -3.139  0.00  0.00     0.003 A 
ATOM      6  C4  PXY d   1      -3.000   2.264  -3.695  0.00  0.00    -0.082 A 
ATOM      7  C5  PXY d   1      -2.928   3.404  -4.414  0.00  0.00     0.003 A 
ATOM      8  C6  PXY d   1      -1.694   4.028  -4.573  0.00  0.00     0.003 A 
ENDROOT
TORSDOF 0
ENDMDL
