MODEL 1
REMARK minimizedAffinity 8.03857994
REMARK minimizedRMSD -1
REMARK  0 active torsions:
REMARK  status: ('A' for Active; 'I' for Inactive)
ROOT
ATOM      1  C4' PXY d   1       1.655  -5.923  -5.759  0.00  0.00     0.077 C 
ATOM      2  C1' PXY d   1      -3.556  -3.964  -4.200  0.00  0.00     0.077 C 
ATOM      3  C1  PXY d   1      -2.195  -4.489  -4.614  0.00  0.00    -0.082 A 
ATOM      4  C2  PXY d   1      -1.110  -4.053  -3.994  0.00  0.00     0.003 A 
ATOM      5  C3  PXY d   1       0.131  -4.492  -4.377  0.00  0.00     0.003 A 
ATOM      6  C4  PXY d   1       0.259  -5.428  -5.368  0.00  0.00    -0.082 A 
ATOM      7  C5  PXY d   1      -0.844  -5.886  -5.998  0.00  0.00     0.003 A 
ATOM      8  C6  PXY d   1      -2.091  -5.396  -5.622  0.00  0.00     0.003 A 
ENDROOT
TORSDOF 0
ENDMDL
