MODEL 1
REMARK minimizedAffinity 4.52605867
REMARK minimizedRMSD -1
REMARK  0 active torsions:
REMARK  status: ('A' for Active; 'I' for Inactive)
ROOT
ATOM      1  C4' PXY d   1      -2.260  -3.808   0.521  0.00  0.00     0.077 C 
ATOM      2  C1' PXY d   1       1.113   0.876   0.214  0.00  0.00     0.077 C 
ATOM      3  C1  PXY d   1       0.236  -0.358   0.285  0.00  0.00    -0.082 A 
ATOM      4  C2  PXY d   1      -0.997  -0.258   0.756  0.00  0.00     0.003 A 
ATOM      5  C3  PXY d   1      -1.793  -1.369   0.857  0.00  0.00     0.003 A 
ATOM      6  C4  PXY d   1      -1.342  -2.587   0.422  0.00  0.00    -0.082 A 
ATOM      7  C5  PXY d   1      -0.089  -2.695  -0.070  0.00  0.00     0.003 A 
ATOM      8  C6  PXY d   1       0.717  -1.562  -0.126  0.00  0.00     0.003 A 
ENDROOT
TORSDOF 0
ENDMDL
