MODEL 1
REMARK minimizedAffinity 5.04598427
REMARK minimizedRMSD -1
REMARK  0 active torsions:
REMARK  status: ('A' for Active; 'I' for Inactive)
ROOT
ATOM      1  C4' PXY d   1       0.731   0.503   0.338  0.00  0.00     0.077 C 
ATOM      2  C1' PXY d   1      -2.555  -4.248   0.123  0.00  0.00     0.077 C 
ATOM      3  C1  PXY d   1      -1.703  -2.994   0.176  0.00  0.00    -0.082 A 
ATOM      4  C2  PXY d   1      -0.390  -3.090   0.046  0.00  0.00     0.003 A 
ATOM      5  C3  PXY d   1       0.398  -1.970   0.123  0.00  0.00     0.003 A 
ATOM      6  C4  PXY d   1      -0.169  -0.734   0.282  0.00  0.00    -0.082 A 
ATOM      7  C5  PXY d   1      -1.509  -0.627   0.405  0.00  0.00     0.003 A 
ATOM      8  C6  PXY d   1      -2.287  -1.780   0.365  0.00  0.00     0.003 A 
ENDROOT
TORSDOF 0
ENDMDL
