MODEL 1
REMARK minimizedAffinity 4.33927202
REMARK minimizedRMSD -1
REMARK  0 active torsions:
REMARK  status: ('A' for Active; 'I' for Inactive)
ROOT
ATOM      1  C4' PXY d   1      -4.011   1.645  -4.188  0.00  0.00     0.077 C 
ATOM      2  C1' PXY d   1      -5.481  -0.338   1.039  0.00  0.00     0.077 C 
ATOM      3  C1  PXY d   1      -5.102   0.172  -0.337  0.00  0.00    -0.082 A 
ATOM      4  C2  PXY d   1      -4.015   0.913  -0.484  0.00  0.00     0.003 A 
ATOM      5  C3  PXY d   1      -3.676   1.409  -1.716  0.00  0.00     0.003 A 
ATOM      6  C4  PXY d   1      -4.427   1.100  -2.818  0.00  0.00    -0.082 A 
ATOM      7  C5  PXY d   1      -5.531   0.336  -2.679  0.00  0.00     0.003 A 
ATOM      8  C6  PXY d   1      -5.881  -0.124  -1.412  0.00  0.00     0.003 A 
ENDROOT
TORSDOF 0
ENDMDL
