MODEL 1
REMARK minimizedAffinity 5.56923819
REMARK minimizedRMSD -1
REMARK  0 active torsions:
REMARK  status: ('A' for Active; 'I' for Inactive)
ROOT
ATOM      1  C4' PXY d   1       5.685  -0.472   2.274  0.00  0.00     0.077 C 
ATOM      2  C1' PXY d   1       0.112  -1.167   0.906  0.00  0.00     0.077 C 
ATOM      3  C1  PXY d   1       1.570  -0.985   1.278  0.00  0.00    -0.082 A 
ATOM      4  C2  PXY d   1       2.406  -0.450   0.403  0.00  0.00     0.003 A 
ATOM      5  C3  PXY d   1       3.735  -0.307   0.710  0.00  0.00     0.003 A 
ATOM      6  C4  PXY d   1       4.203  -0.667   1.946  0.00  0.00    -0.082 A 
ATOM      7  C5  PXY d   1       3.354  -1.204   2.848  0.00  0.00     0.003 A 
ATOM      8  C6  PXY d   1       2.017  -1.378   2.501  0.00  0.00     0.003 A 
ENDROOT
TORSDOF 0
ENDMDL
