MODEL 1
REMARK minimizedAffinity 4.33327341
REMARK minimizedRMSD -1
REMARK  0 active torsions:
REMARK  status: ('A' for Active; 'I' for Inactive)
ROOT
ATOM      1  C4' PXY d   1      -5.911  -0.687   1.151  0.00  0.00     0.077 C 
ATOM      2  C1' PXY d   1      -3.275   1.284  -3.601  0.00  0.00     0.077 C 
ATOM      3  C1  PXY d   1      -3.977   0.763  -2.362  0.00  0.00    -0.082 A 
ATOM      4  C2  PXY d   1      -3.704   1.298  -1.183  0.00  0.00     0.003 A 
ATOM      5  C3  PXY d   1      -4.306   0.817  -0.048  0.00  0.00     0.003 A 
ATOM      6  C4  PXY d   1      -5.234  -0.186  -0.128  0.00  0.00    -0.082 A 
ATOM      7  C5  PXY d   1      -5.525  -0.729  -1.329  0.00  0.00     0.003 A 
ATOM      8  C6  PXY d   1      -4.874  -0.255  -2.463  0.00  0.00     0.003 A 
ENDROOT
TORSDOF 0
ENDMDL
