MODEL 1
REMARK minimizedAffinity 4.53471088
REMARK minimizedRMSD -1
REMARK  0 active torsions:
REMARK  status: ('A' for Active; 'I' for Inactive)
ROOT
ATOM      1  C4' PXY d   1      -3.450  -5.084  -3.644  0.00  0.00     0.077 C 
ATOM      2  C1' PXY d   1       1.817  -5.426  -6.000  0.00  0.00     0.077 C 
ATOM      3  C1  PXY d   1       0.430  -5.339  -5.394  0.00  0.00    -0.082 A 
ATOM      4  C2  PXY d   1       0.240  -4.626  -4.296  0.00  0.00     0.003 A 
ATOM      5  C3  PXY d   1      -1.001  -4.562  -3.716  0.00  0.00     0.003 A 
ATOM      6  C4  PXY d   1      -2.069  -5.192  -4.296  0.00  0.00    -0.082 A 
ATOM      7  C5  PXY d   1      -1.885  -5.914  -5.422  0.00  0.00     0.003 A 
ATOM      8  C6  PXY d   1      -0.609  -5.999  -5.972  0.00  0.00     0.003 A 
ENDROOT
TORSDOF 0
ENDMDL
