MODEL 1
REMARK minimizedAffinity 6.45505619
REMARK minimizedRMSD -1
REMARK  0 active torsions:
REMARK  status: ('A' for Active; 'I' for Inactive)
ROOT
ATOM      1  C4' PXY d   1      -0.600   2.924  -3.991  0.00  0.00     0.077 C 
ATOM      2  C1' PXY d   1      -4.912  -0.418  -2.082  0.00  0.00     0.077 C 
ATOM      3  C1  PXY d   1      -3.776   0.458  -2.571  0.00  0.00    -0.082 A 
ATOM      4  C2  PXY d   1      -3.976   1.284  -3.585  0.00  0.00     0.003 A 
ATOM      5  C3  PXY d   1      -2.950   2.060  -4.060  0.00  0.00     0.003 A 
ATOM      6  C4  PXY d   1      -1.721   2.029  -3.458  0.00  0.00    -0.082 A 
ATOM      7  C5  PXY d   1      -1.512   1.196  -2.417  0.00  0.00     0.003 A 
ATOM      8  C6  PXY d   1      -2.554   0.386  -1.975  0.00  0.00     0.003 A 
ENDROOT
TORSDOF 0
ENDMDL
