MODEL 1
REMARK minimizedAffinity 0.0572671033
REMARK minimizedRMSD -1
REMARK  0 active torsions:
REMARK  status: ('A' for Active; 'I' for Inactive)
ROOT
ATOM      1  C4' PXY d   1       1.702  -5.967  -5.999  0.00  0.00     0.077 C 
ATOM      2  C1' PXY d   1      -3.398  -5.461  -3.326  0.00  0.00     0.077 C 
ATOM      3  C1  PXY d   1      -2.055  -5.586  -4.017  0.00  0.00    -0.082 A 
ATOM      4  C2  PXY d   1      -2.009  -5.850  -5.313  0.00  0.00     0.003 A 
ATOM      5  C3  PXY d   1      -0.803  -5.998  -5.948  0.00  0.00     0.003 A 
ATOM      6  C4  PXY d   1       0.368  -5.823  -5.261  0.00  0.00    -0.082 A 
ATOM      7  C5  PXY d   1       0.329  -5.543  -3.940  0.00  0.00     0.003 A 
ATOM      8  C6  PXY d   1      -0.905  -5.437  -3.306  0.00  0.00     0.003 A 
ENDROOT
TORSDOF 0
ENDMDL
