MODEL 1
REMARK minimizedAffinity 6.00293398
REMARK minimizedRMSD -1
REMARK  0 active torsions:
REMARK  status: ('A' for Active; 'I' for Inactive)
ROOT
ATOM      1  C4' PXY d   1      -1.338   2.983  -3.999  0.00  0.00     0.077 C 
ATOM      2  C1' PXY d   1      -5.240  -0.706  -1.859  0.00  0.00     0.077 C 
ATOM      3  C1  PXY d   1      -4.225   0.265  -2.430  0.00  0.00    -0.082 A 
ATOM      4  C2  PXY d   1      -2.940   0.106  -2.153  0.00  0.00     0.003 A 
ATOM      5  C3  PXY d   1      -2.012   0.993  -2.635  0.00  0.00     0.003 A 
ATOM      6  C4  PXY d   1      -2.397   2.022  -3.452  0.00  0.00    -0.082 A 
ATOM      7  C5  PXY d   1      -3.704   2.184  -3.748  0.00  0.00     0.003 A 
ATOM      8  C6  PXY d   1      -4.635   1.297  -3.215  0.00  0.00     0.003 A 
ENDROOT
TORSDOF 0
ENDMDL
