MODEL 1
REMARK minimizedAffinity 4.11792755
REMARK minimizedRMSD -1
REMARK  0 active torsions:
REMARK  status: ('A' for Active; 'I' for Inactive)
ROOT
ATOM      1  C4' PXY d   1      -3.533   1.454  -3.622  0.00  0.00     0.077 C 
ATOM      2  C1' PXY d   1      -5.999  -0.751   1.119  0.00  0.00     0.077 C 
ATOM      3  C1  PXY d   1      -5.357  -0.183  -0.132  0.00  0.00    -0.082 A 
ATOM      4  C2  PXY d   1      -4.328   0.642  -0.021  0.00  0.00     0.003 A 
ATOM      5  C3  PXY d   1      -3.755   1.190  -1.140  0.00  0.00     0.003 A 
ATOM      6  C4  PXY d   1      -4.207   0.849  -2.387  0.00  0.00    -0.082 A 
ATOM      7  C5  PXY d   1      -5.249   0.000  -2.508  0.00  0.00     0.003 A 
ATOM      8  C6  PXY d   1      -5.843  -0.513  -1.359  0.00  0.00     0.003 A 
ENDROOT
TORSDOF 0
ENDMDL
