MODEL 1
REMARK minimizedAffinity 10.4590578
REMARK minimizedRMSD -1
REMARK  1 active torsions:
REMARK  status: ('A' for Active; 'I' for Inactive)
REMARK    1  A    between atoms: C1_2  and  C2_3 
ROOT
ATOM      1  C2  UNL d   1       0.292   0.271   3.485  0.00  0.00    -0.081 A 
ATOM      2  C3  UNL d   1       1.556   0.835   3.272  0.00  0.00     0.006 A 
ATOM      3  C4  UNL d   1       1.689   2.022   2.547  0.00  0.00     0.002 A 
ATOM      4  C5  UNL d   1       0.561   2.667   2.030  0.00  0.00    -0.080 A 
ATOM      5  C6  UNL d   1       0.687   3.958   1.275  0.00  0.00     0.076 C 
ATOM      6  C7  UNL d   1      -0.700   2.095   2.227  0.00  0.00     0.002 A 
ATOM      7  C8  UNL d   1      -0.834   0.908   2.951  0.00  0.00     0.006 A 
ENDROOT
BRANCH   1   8
ATOM      8  C1  UNL d   1       0.139  -0.974   4.321  0.00  0.00     0.054 C 
ATOM      9  C   UNL d   1       1.456  -1.728   4.436  0.00  0.00     0.018 C 
ENDBRANCH   1   8
TORSDOF 1
ENDMDL
