MODEL 1
REMARK minimizedAffinity 5.83897734
REMARK minimizedRMSD -1
REMARK  1 active torsions:
REMARK  status: ('A' for Active; 'I' for Inactive)
REMARK    1  A    between atoms: C1_2  and  C2_3 
ROOT
ATOM      1  C2  UNL d   1      -1.102   2.909   1.194  0.00  0.00    -0.081 A 
ATOM      2  C3  UNL d   1      -0.362   2.708   0.023  0.00  0.00     0.006 A 
ATOM      3  C4  UNL d   1      -0.315   3.696  -0.964  0.00  0.00     0.002 A 
ATOM      4  C5  UNL d   1      -0.999   4.904  -0.792  0.00  0.00    -0.080 A 
ATOM      5  C6  UNL d   1      -0.932   5.985  -1.830  0.00  0.00     0.076 C 
ATOM      6  C7  UNL d   1      -1.753   5.098   0.371  0.00  0.00     0.002 A 
ATOM      7  C8  UNL d   1      -1.801   4.111   1.357  0.00  0.00     0.006 A 
ENDROOT
BRANCH   1   8
ATOM      8  C1  UNL d   1      -1.103   1.872   2.288  0.00  0.00     0.054 C 
ATOM      9  C   UNL d   1       0.226   1.849   3.030  0.00  0.00     0.018 C 
ENDBRANCH   1   8
TORSDOF 1
ENDMDL
