MODEL 1
REMARK minimizedAffinity 6.05616331
REMARK minimizedRMSD -1
REMARK  1 active torsions:
REMARK  status: ('A' for Active; 'I' for Inactive)
REMARK    1  A    between atoms: C1_2  and  C2_3 
ROOT
ATOM      1  C2  UNL d   1      -0.021   2.593   1.350  0.00  0.00    -0.081 A 
ATOM      2  C3  UNL d   1       1.208   2.308   1.956  0.00  0.00     0.006 A 
ATOM      3  C4  UNL d   1       1.291   1.361   2.980  0.00  0.00     0.002 A 
ATOM      4  C5  UNL d   1       0.148   0.678   3.408  0.00  0.00    -0.080 A 
ATOM      5  C6  UNL d   1       0.228  -0.363   4.485  0.00  0.00     0.076 C 
ATOM      6  C7  UNL d   1      -1.084   0.975   2.815  0.00  0.00     0.002 A 
ATOM      7  C8  UNL d   1      -1.167   1.922   1.792  0.00  0.00     0.006 A 
ENDROOT
BRANCH   1   8
ATOM      8  C1  UNL d   1      -0.103   3.566   0.201  0.00  0.00     0.054 C 
ATOM      9  C   UNL d   1      -0.700   2.913  -1.037  0.00  0.00     0.018 C 
ENDBRANCH   1   8
TORSDOF 1
ENDMDL
