MODEL 1
REMARK minimizedAffinity 6.06178188
REMARK minimizedRMSD -1
REMARK  1 active torsions:
REMARK  status: ('A' for Active; 'I' for Inactive)
REMARK    1  A    between atoms: C1_2  and  C2_3 
ROOT
ATOM      1  C2  UNL d   1      -0.847   1.365  -0.846  0.00  0.00    -0.081 A 
ATOM      2  C3  UNL d   1      -1.433   2.218  -1.790  0.00  0.00     0.006 A 
ATOM      3  C4  UNL d   1      -1.311   3.604  -1.664  0.00  0.00     0.002 A 
ATOM      4  C5  UNL d   1      -0.596   4.160  -0.598  0.00  0.00    -0.080 A 
ATOM      5  C6  UNL d   1      -0.432   5.645  -0.468  0.00  0.00     0.076 C 
ATOM      6  C7  UNL d   1      -0.025   3.309   0.355  0.00  0.00     0.002 A 
ATOM      7  C8  UNL d   1      -0.147   1.923   0.230  0.00  0.00     0.006 A 
ENDROOT
BRANCH   1   8
ATOM      8  C1  UNL d   1      -0.922  -0.131  -1.013  0.00  0.00     0.054 C 
ATOM      9  C   UNL d   1       0.403  -0.700  -1.502  0.00  0.00     0.018 C 
ENDBRANCH   1   8
TORSDOF 1
ENDMDL
