MODEL 1
REMARK minimizedAffinity 12.7926798
REMARK minimizedRMSD -1
REMARK  1 active torsions:
REMARK  status: ('A' for Active; 'I' for Inactive)
REMARK    1  A    between atoms: C1_2  and  C2_3 
ROOT
ATOM      1  C2  UNL d   1      -0.023   3.368   1.341  0.00  0.00    -0.081 A 
ATOM      2  C3  UNL d   1       1.107   2.652   1.756  0.00  0.00     0.006 A 
ATOM      3  C4  UNL d   1       0.992   1.640   2.712  0.00  0.00     0.002 A 
ATOM      4  C5  UNL d   1      -0.254   1.321   3.262  0.00  0.00    -0.080 A 
ATOM      5  C6  UNL d   1      -0.395   0.216   4.267  0.00  0.00     0.076 C 
ATOM      6  C7  UNL d   1      -1.380   2.048   2.861  0.00  0.00     0.002 A 
ATOM      7  C8  UNL d   1      -1.266   3.060   1.906  0.00  0.00     0.006 A 
ENDROOT
BRANCH   1   8
ATOM      8  C1  UNL d   1       0.087   4.416   0.263  0.00  0.00     0.054 C 
ATOM      9  C   UNL d   1      -0.279   3.848  -1.101  0.00  0.00     0.018 C 
ENDBRANCH   1   8
TORSDOF 1
ENDMDL
