MODEL 1
REMARK minimizedAffinity -5.9841814
REMARK minimizedRMSD -1
REMARK  2 active torsions:
REMARK  status: ('A' for Active; 'I' for Inactive)
REMARK    1  A    between atoms: C1_2  and  C2_3 
REMARK    2  A    between atoms: C2_3  and  C3_4 
ROOT
ATOM      1  C3  UNL d   1      -0.961   1.223  -2.095  0.00  0.00    -0.075 A 
ATOM      2  C4  UNL d   1      -2.338   1.353  -1.862  0.00  0.00     0.002 A 
ATOM      3  C5  UNL d   1      -3.096   2.270  -2.590  0.00  0.00     0.002 A 
ATOM      4  C6  UNL d   1      -2.486   3.075  -3.551  0.00  0.00    -0.004 A 
ATOM      5  C7  UNL d   1      -1.116   2.966  -3.778  0.00  0.00     0.002 A 
ATOM      6  C8  UNL d   1      -0.356   2.046  -3.054  0.00  0.00     0.002 A 
ENDROOT
BRANCH   1   7
ATOM      7  C2  UNL d   1      -0.140   0.211  -1.331  0.00  0.00     0.056 C 
BRANCH   7   8
ATOM      8  C1  UNL d   1      -0.651  -0.063   0.088  0.00  0.00     0.007 C 
ATOM      9  C   UNL d   1       0.457  -0.072   1.133  0.00  0.00     0.009 C 
ENDBRANCH   7   8
ENDBRANCH   1   7
TORSDOF 2
ENDMDL
