MODEL 1
REMARK minimizedAffinity -3.12664795
REMARK minimizedRMSD -1
REMARK  2 active torsions:
REMARK  status: ('A' for Active; 'I' for Inactive)
REMARK    1  A    between atoms: C1_2  and  C2_3 
REMARK    2  A    between atoms: C2_3  and  C3_4 
ROOT
ATOM      1  C3  UNL d   1      -2.044   2.452  -2.152  0.00  0.00    -0.075 A 
ATOM      2  C4  UNL d   1      -1.173   1.394  -1.850  0.00  0.00     0.002 A 
ATOM      3  C5  UNL d   1       0.179   1.473  -2.183  0.00  0.00     0.002 A 
ATOM      4  C6  UNL d   1       0.676   2.603  -2.829  0.00  0.00    -0.004 A 
ATOM      5  C7  UNL d   1      -0.183   3.653  -3.149  0.00  0.00     0.002 A 
ATOM      6  C8  UNL d   1      -1.536   3.578  -2.813  0.00  0.00     0.002 A 
ENDROOT
BRANCH   1   7
ATOM      7  C2  UNL d   1      -3.503   2.385  -1.769  0.00  0.00     0.056 C 
BRANCH   7   8
ATOM      8  C1  UNL d   1      -4.408   3.302  -2.598  0.00  0.00     0.007 C 
ATOM      9  C   UNL d   1      -5.734   2.656  -2.975  0.00  0.00     0.009 C 
ENDBRANCH   7   8
ENDBRANCH   1   7
TORSDOF 2
ENDMDL
