MODEL 1
REMARK minimizedAffinity -5.29323053
REMARK minimizedRMSD -1
REMARK  2 active torsions:
REMARK  status: ('A' for Active; 'I' for Inactive)
REMARK    1  A    between atoms: C1_2  and  C2_3 
REMARK    2  A    between atoms: C2_3  and  C3_4 
ROOT
ATOM      1  C3  UNL d   1      -1.218   0.801  -0.926  0.00  0.00    -0.075 A 
ATOM      2  C4  UNL d   1      -2.315   0.819  -0.053  0.00  0.00     0.002 A 
ATOM      3  C5  UNL d   1      -2.190   0.340   1.252  0.00  0.00     0.002 A 
ATOM      4  C6  UNL d   1      -0.972  -0.171   1.696  0.00  0.00    -0.004 A 
ATOM      5  C7  UNL d   1       0.120  -0.208   0.831  0.00  0.00     0.002 A 
ATOM      6  C8  UNL d   1      -0.001   0.274  -0.473  0.00  0.00     0.002 A 
ENDROOT
BRANCH   1   7
ATOM      7  C2  UNL d   1      -1.339   1.345  -2.330  0.00  0.00     0.056 C 
BRANCH   7   8
ATOM      8  C1  UNL d   1      -0.318   2.437  -2.666  0.00  0.00     0.007 C 
ATOM      9  C   UNL d   1      -0.916   3.838  -2.664  0.00  0.00     0.009 C 
ENDBRANCH   7   8
ENDBRANCH   1   7
TORSDOF 2
ENDMDL
