MODEL 1
REMARK minimizedAffinity -4.70275354
REMARK minimizedRMSD -1
REMARK  2 active torsions:
REMARK  status: ('A' for Active; 'I' for Inactive)
REMARK    1  A    between atoms: C1_2  and  C2_3 
REMARK    2  A    between atoms: C2_3  and  C3_4 
ROOT
ATOM      1  C3  UNL d   1      -0.684   1.092  -1.206  0.00  0.00    -0.075 A 
ATOM      2  C4  UNL d   1       0.210   2.172  -1.240  0.00  0.00     0.002 A 
ATOM      3  C5  UNL d   1       0.066   3.180  -2.194  0.00  0.00     0.002 A 
ATOM      4  C6  UNL d   1      -0.963   3.116  -3.130  0.00  0.00    -0.004 A 
ATOM      5  C7  UNL d   1      -1.847   2.039  -3.116  0.00  0.00     0.002 A 
ATOM      6  C8  UNL d   1      -1.708   1.031  -2.160  0.00  0.00     0.002 A 
ENDROOT
BRANCH   1   7
ATOM      7  C2  UNL d   1      -0.551   0.013  -0.158  0.00  0.00     0.056 C 
BRANCH   7   8
ATOM      8  C1  UNL d   1      -0.779   0.505   1.276  0.00  0.00     0.007 C 
ATOM      9  C   UNL d   1      -0.033  -0.317   2.318  0.00  0.00     0.009 C 
ENDBRANCH   7   8
ENDBRANCH   1   7
TORSDOF 2
ENDMDL
