MODEL 1
REMARK minimizedAffinity -3.10568881
REMARK minimizedRMSD -1
REMARK  2 active torsions:
REMARK  status: ('A' for Active; 'I' for Inactive)
REMARK    1  A    between atoms: C1_2  and  C2_3 
REMARK    2  A    between atoms: C2_3  and  C3_4 
ROOT
ATOM      1  C3  UNL d   1      -0.184  -0.162   0.690  0.00  0.00    -0.075 A 
ATOM      2  C4  UNL d   1      -0.513  -0.529   2.003  0.00  0.00     0.002 A 
ATOM      3  C5  UNL d   1       0.195  -1.540   2.654  0.00  0.00     0.002 A 
ATOM      4  C6  UNL d   1       1.232  -2.201   1.999  0.00  0.00    -0.004 A 
ATOM      5  C7  UNL d   1       1.556  -1.856   0.689  0.00  0.00     0.002 A 
ATOM      6  C8  UNL d   1       0.852  -0.842   0.037  0.00  0.00     0.002 A 
ENDROOT
BRANCH   1   7
ATOM      7  C2  UNL d   1      -0.927   0.951  -0.010  0.00  0.00     0.056 C 
BRANCH   7   8
ATOM      8  C1  UNL d   1      -0.448   1.217  -1.441  0.00  0.00     0.007 C 
ATOM      9  C   UNL d   1      -1.366   2.152  -2.217  0.00  0.00     0.009 C 
ENDBRANCH   7   8
ENDBRANCH   1   7
TORSDOF 2
ENDMDL
