MODEL 1
REMARK minimizedAffinity -1.28176427
REMARK minimizedRMSD -1
REMARK  2 active torsions:
REMARK  status: ('A' for Active; 'I' for Inactive)
REMARK    1  A    between atoms: C1_2  and  C2_3 
REMARK    2  A    between atoms: C2_3  and  C3_4 
ROOT
ATOM      1  C3  UNL d   1      -0.442   0.394   0.509  0.00  0.00    -0.075 A 
ATOM      2  C4  UNL d   1      -0.812   0.211   1.850  0.00  0.00     0.002 A 
ATOM      3  C5  UNL d   1      -0.176  -0.751   2.635  0.00  0.00     0.002 A 
ATOM      4  C6  UNL d   1       0.829  -1.546   2.089  0.00  0.00    -0.004 A 
ATOM      5  C7  UNL d   1       1.193  -1.385   0.754  0.00  0.00     0.002 A 
ATOM      6  C8  UNL d   1       0.561  -0.420  -0.033  0.00  0.00     0.002 A 
ENDROOT
BRANCH   1   7
ATOM      7  C2  UNL d   1      -1.106   1.453  -0.338  0.00  0.00     0.056 C 
BRANCH   7   8
ATOM      8  C1  UNL d   1      -0.319   1.828  -1.598  0.00  0.00     0.007 C 
ATOM      9  C   UNL d   1      -0.999   2.907  -2.431  0.00  0.00     0.009 C 
ENDBRANCH   7   8
ENDBRANCH   1   7
TORSDOF 2
ENDMDL
