MODEL 1
REMARK minimizedAffinity -1.05410945
REMARK minimizedRMSD -1
REMARK  1 active torsions:
REMARK  status: ('A' for Active; 'I' for Inactive)
REMARK    1  A    between atoms: C1_2  and  C2_3 
ROOT
ATOM      1  C2  UNL d   1      -2.219   4.519  -5.963  0.00  0.00    -0.076 A 
ATOM      2  C3  UNL d   1      -0.819   4.635  -5.977  0.00  0.00     0.004 A 
ATOM      3  C4  UNL d   1      -0.005   3.503  -5.986  0.00  0.00    -0.003 A 
ATOM      4  C5  UNL d   1      -0.579   2.237  -5.981  0.00  0.00     0.000 A 
ATOM      5  C6  UNL d   1      -1.967   2.103  -5.986  0.00  0.00     0.000 A 
ATOM      6  C7  UNL d   1      -2.802   3.234  -5.993  0.00  0.00    -0.073 A 
ATOM      7  C8  UNL d   1      -4.292   3.031  -5.991  0.00  0.00     0.078 C 
ENDROOT
BRANCH   1   8
ATOM      8  C1  UNL d   1      -3.050   5.782  -5.927  0.00  0.00     0.053 C 
ATOM      9  C   UNL d   1      -3.741   5.986  -4.587  0.00  0.00     0.018 C 
ENDBRANCH   1   8
TORSDOF 1
ENDMDL
