MODEL 1
REMARK minimizedAffinity 3.28245974
REMARK minimizedRMSD -1
REMARK  1 active torsions:
REMARK  status: ('A' for Active; 'I' for Inactive)
REMARK    1  A    between atoms: C1_2  and  C2_3 
ROOT
ATOM      1  C2  UNL d   1       0.404   1.783   0.795  0.00  0.00    -0.076 A 
ATOM      2  C3  UNL d   1       0.928   2.225   2.023  0.00  0.00     0.004 A 
ATOM      3  C4  UNL d   1       1.990   3.126   2.067  0.00  0.00    -0.003 A 
ATOM      4  C5  UNL d   1       2.545   3.602   0.884  0.00  0.00     0.000 A 
ATOM      5  C6  UNL d   1       2.027   3.188  -0.343  0.00  0.00     0.000 A 
ATOM      6  C7  UNL d   1       0.945   2.292  -0.405  0.00  0.00    -0.073 A 
ATOM      7  C8  UNL d   1       0.430   1.875  -1.755  0.00  0.00     0.078 C 
ENDROOT
BRANCH   1   8
ATOM      8  C1  UNL d   1      -0.731   0.784   0.809  0.00  0.00     0.053 C 
ATOM      9  C   UNL d   1      -0.240  -0.655   0.778  0.00  0.00     0.018 C 
ENDBRANCH   1   8
TORSDOF 1
ENDMDL
