MODEL 1
REMARK minimizedAffinity 9.24341583
REMARK minimizedRMSD -1
REMARK  1 active torsions:
REMARK  status: ('A' for Active; 'I' for Inactive)
REMARK    1  A    between atoms: C1_2  and  C2_3 
ROOT
ATOM      1  C2  UNL d   1       1.912   3.582  -5.968  0.00  0.00    -0.076 A 
ATOM      2  C3  UNL d   1       2.498   4.860  -5.979  0.00  0.00     0.004 A 
ATOM      3  C4  UNL d   1       3.883   5.014  -5.985  0.00  0.00    -0.003 A 
ATOM      4  C5  UNL d   1       4.706   3.893  -5.981  0.00  0.00     0.000 A 
ATOM      5  C6  UNL d   1       4.142   2.618  -5.988  0.00  0.00     0.000 A 
ATOM      6  C7  UNL d   1       2.747   2.444  -5.998  0.00  0.00    -0.073 A 
ATOM      7  C8  UNL d   1       2.193   1.046  -5.999  0.00  0.00     0.078 C 
ENDROOT
BRANCH   1   8
ATOM      8  C1  UNL d   1       0.404   3.477  -5.935  0.00  0.00     0.053 C 
ATOM      9  C   UNL d   1      -0.152   3.522  -4.520  0.00  0.00     0.018 C 
ENDBRANCH   1   8
TORSDOF 1
ENDMDL
