MODEL 1
REMARK minimizedAffinity 6.80393124
REMARK minimizedRMSD -1
REMARK  1 active torsions:
REMARK  status: ('A' for Active; 'I' for Inactive)
REMARK    1  A    between atoms: C1_2  and  C2_3 
ROOT
ATOM      1  C2  UNL d   1       0.976   1.953   0.414  0.00  0.00    -0.076 A 
ATOM      2  C3  UNL d   1       0.140   1.781   1.531  0.00  0.00     0.004 A 
ATOM      3  C4  UNL d   1      -0.880   0.832   1.524  0.00  0.00    -0.003 A 
ATOM      4  C5  UNL d   1      -1.082   0.039   0.400  0.00  0.00     0.000 A 
ATOM      5  C6  UNL d   1      -0.252   0.184  -0.711  0.00  0.00     0.000 A 
ATOM      6  C7  UNL d   1       0.792   1.125  -0.714  0.00  0.00    -0.073 A 
ATOM      7  C8  UNL d   1       1.653   1.243  -1.942  0.00  0.00     0.078 C 
ENDROOT
BRANCH   1   8
ATOM      8  C1  UNL d   1       2.048   3.017   0.469  0.00  0.00     0.053 C 
ATOM      9  C   UNL d   1       2.871   2.949   1.746  0.00  0.00     0.018 C 
ENDBRANCH   1   8
TORSDOF 1
ENDMDL
