MODEL 1
REMARK minimizedAffinity 7.96449852
REMARK minimizedRMSD -1
REMARK  1 active torsions:
REMARK  status: ('A' for Active; 'I' for Inactive)
REMARK    1  A    between atoms: C1_2  and  C2_3 
ROOT
ATOM      1  C2  UNL d   1       0.975   1.767   1.078  0.00  0.00    -0.076 A 
ATOM      2  C3  UNL d   1       1.378   2.650   0.061  0.00  0.00     0.004 A 
ATOM      3  C4  UNL d   1       1.174   2.338  -1.282  0.00  0.00    -0.003 A 
ATOM      4  C5  UNL d   1       0.563   1.138  -1.630  0.00  0.00     0.000 A 
ATOM      5  C6  UNL d   1       0.140   0.259  -0.633  0.00  0.00     0.000 A 
ATOM      6  C7  UNL d   1       0.324   0.566   0.726  0.00  0.00    -0.073 A 
ATOM      7  C8  UNL d   1      -0.146  -0.422   1.758  0.00  0.00     0.078 C 
ENDROOT
BRANCH   1   8
ATOM      8  C1  UNL d   1       1.247   2.147   2.516  0.00  0.00     0.053 C 
ATOM      9  C   UNL d   1       2.592   2.834   2.693  0.00  0.00     0.018 C 
ENDBRANCH   1   8
TORSDOF 1
ENDMDL
