MODEL 1
REMARK minimizedAffinity 5.81388998
REMARK minimizedRMSD -1
REMARK  1 active torsions:
REMARK  status: ('A' for Active; 'I' for Inactive)
REMARK    1  A    between atoms: C1_2  and  C2_3 
ROOT
ATOM      1  C2  UNL d   1       1.165   2.629   1.194  0.00  0.00    -0.076 A 
ATOM      2  C3  UNL d   1       1.854   2.918   2.384  0.00  0.00     0.004 A 
ATOM      3  C4  UNL d   1       3.057   3.623   2.364  0.00  0.00    -0.003 A 
ATOM      4  C5  UNL d   1       3.589   4.050   1.152  0.00  0.00     0.000 A 
ATOM      5  C6  UNL d   1       2.910   3.787  -0.037  0.00  0.00     0.000 A 
ATOM      6  C7  UNL d   1       1.688   3.092  -0.032  0.00  0.00    -0.073 A 
ATOM      7  C8  UNL d   1       1.001   2.831  -1.344  0.00  0.00     0.078 C 
ENDROOT
BRANCH   1   8
ATOM      8  C1  UNL d   1      -0.121   1.838   1.276  0.00  0.00     0.053 C 
ATOM      9  C   UNL d   1       0.075   0.369   0.932  0.00  0.00     0.018 C 
ENDBRANCH   1   8
TORSDOF 1
ENDMDL
