MODEL 1
REMARK minimizedAffinity 6.84935093
REMARK minimizedRMSD -1
REMARK  1 active torsions:
REMARK  status: ('A' for Active; 'I' for Inactive)
REMARK    1  A    between atoms: C1_2  and  C2_3 
ROOT
ATOM      1  C2  UNL d   1       1.997   3.167  -5.980  0.00  0.00    -0.076 A 
ATOM      2  C3  UNL d   1       2.420   4.508  -5.996  0.00  0.00     0.004 A 
ATOM      3  C4  UNL d   1       3.775   4.832  -5.995  0.00  0.00    -0.003 A 
ATOM      4  C5  UNL d   1       4.730   3.821  -5.981  0.00  0.00     0.000 A 
ATOM      5  C6  UNL d   1       4.328   2.486  -5.983  0.00  0.00     0.000 A 
ATOM      6  C7  UNL d   1       2.966   2.141  -6.000  0.00  0.00    -0.073 A 
ATOM      7  C8  UNL d   1       2.589   0.685  -5.996  0.00  0.00     0.078 C 
ENDROOT
BRANCH   1   8
ATOM      8  C1  UNL d   1       0.513   2.877  -5.954  0.00  0.00     0.053 C 
ATOM      9  C   UNL d   1      -0.329   4.143  -5.974  0.00  0.00     0.018 C 
ENDBRANCH   1   8
TORSDOF 1
ENDMDL
