MODEL 1
REMARK minimizedAffinity 6.19156599
REMARK minimizedRMSD -1
REMARK  1 active torsions:
REMARK  status: ('A' for Active; 'I' for Inactive)
REMARK    1  A    between atoms: C1_2  and  C2_3 
ROOT
ATOM      1  C2  UNL d   1       0.898   1.657  -1.133  0.00  0.00    -0.076 A 
ATOM      2  C3  UNL d   1       0.296   0.400  -0.950  0.00  0.00     0.004 A 
ATOM      3  C4  UNL d   1      -0.163   0.000   0.304  0.00  0.00    -0.003 A 
ATOM      4  C5  UNL d   1      -0.029   0.852   1.395  0.00  0.00     0.000 A 
ATOM      5  C6  UNL d   1       0.549   2.110   1.228  0.00  0.00     0.000 A 
ATOM      6  C7  UNL d   1       1.003   2.534  -0.033  0.00  0.00    -0.073 A 
ATOM      7  C8  UNL d   1       1.625   3.898  -0.154  0.00  0.00     0.078 C 
ENDROOT
BRANCH   1   8
ATOM      8  C1  UNL d   1       1.402   2.024  -2.510  0.00  0.00     0.053 C 
ATOM      9  C   UNL d   1       2.561   1.147  -2.960  0.00  0.00     0.018 C 
ENDBRANCH   1   8
TORSDOF 1
ENDMDL
