MODEL 1
REMARK minimizedAffinity -0.578027725
REMARK minimizedRMSD -1
REMARK  1 active torsions:
REMARK  status: ('A' for Active; 'I' for Inactive)
REMARK    1  A    between atoms: C1_2  and  C2_3 
ROOT
ATOM      1  C2  UNL d   1       0.030   2.847  -5.977  0.00  0.00    -0.076 A 
ATOM      2  C3  UNL d   1       1.134   1.977  -5.955  0.00  0.00     0.004 A 
ATOM      3  C4  UNL d   1       2.437   2.470  -5.964  0.00  0.00    -0.003 A 
ATOM      4  C5  UNL d   1       2.658   3.843  -5.995  0.00  0.00     0.000 A 
ATOM      5  C6  UNL d   1       1.575   4.721  -6.000  0.00  0.00     0.000 A 
ATOM      6  C7  UNL d   1       0.255   4.240  -5.974  0.00  0.00    -0.073 A 
ATOM      7  C8  UNL d   1      -0.875   5.233  -5.986  0.00  0.00     0.078 C 
ENDROOT
BRANCH   1   8
ATOM      8  C1  UNL d   1      -1.360   2.253  -5.993  0.00  0.00     0.053 C 
ATOM      9  C   UNL d   1      -2.448   3.316  -5.981  0.00  0.00     0.018 C 
ENDBRANCH   1   8
TORSDOF 1
ENDMDL
