MODEL 1
REMARK minimizedAffinity 14.5005035
REMARK minimizedRMSD -1
REMARK  1 active torsions:
REMARK  status: ('A' for Active; 'I' for Inactive)
REMARK    1  A    between atoms: C1_2  and  C2_3 
ROOT
ATOM      1  C2  UNL d   1       2.216   3.547  -5.314  0.00  0.00    -0.076 A 
ATOM      2  C3  UNL d   1       1.659   4.640  -6.000  0.00  0.00     0.004 A 
ATOM      3  C4  UNL d   1       0.287   4.884  -5.968  0.00  0.00    -0.003 A 
ATOM      4  C5  UNL d   1      -0.550   4.038  -5.249  0.00  0.00     0.000 A 
ATOM      5  C6  UNL d   1      -0.013   2.959  -4.548  0.00  0.00     0.000 A 
ATOM      6  C7  UNL d   1       1.370   2.709  -4.557  0.00  0.00    -0.073 A 
ATOM      7  C8  UNL d   1       1.895   1.527  -3.788  0.00  0.00     0.078 C 
ENDROOT
BRANCH   1   8
ATOM      8  C1  UNL d   1       3.708   3.317  -5.408  0.00  0.00     0.053 C 
ATOM      9  C   UNL d   1       4.463   4.561  -5.848  0.00  0.00     0.018 C 
ENDBRANCH   1   8
TORSDOF 1
ENDMDL
