MODEL 1
REMARK minimizedAffinity 7.53480434
REMARK minimizedRMSD -1
REMARK  1 active torsions:
REMARK  status: ('A' for Active; 'I' for Inactive)
REMARK    1  A    between atoms: C1_2  and  C2_3 
ROOT
ATOM      1  C2  UNL d   1       1.319   1.776  -4.208  0.00  0.00    -0.076 A 
ATOM      2  C3  UNL d   1       0.050   2.237  -3.814  0.00  0.00     0.004 A 
ATOM      3  C4  UNL d   1      -0.579   3.276  -4.497  0.00  0.00    -0.003 A 
ATOM      4  C5  UNL d   1       0.050   3.872  -5.585  0.00  0.00     0.000 A 
ATOM      5  C6  UNL d   1       1.300   3.416  -6.000  0.00  0.00     0.000 A 
ATOM      6  C7  UNL d   1       1.941   2.358  -5.333  0.00  0.00    -0.073 A 
ATOM      7  C8  UNL d   1       3.292   1.911  -5.820  0.00  0.00     0.078 C 
ENDROOT
BRANCH   1   8
ATOM      8  C1  UNL d   1       1.964   0.664  -3.413  0.00  0.00     0.053 C 
ATOM      9  C   UNL d   1       1.320   0.474  -2.048  0.00  0.00     0.018 C 
ENDBRANCH   1   8
TORSDOF 1
ENDMDL
