MODEL 1
REMARK minimizedAffinity -1.38487673
REMARK minimizedRMSD -1
REMARK  0 active torsions:
REMARK  status: ('A' for Active; 'I' for Inactive)
ROOT
ATOM      1  C2' OXE d   1       0.954   5.021  -5.954  0.00  0.00     0.078 C 
ATOM      2  C1' OXE d   1       1.968   2.404  -6.000  0.00  0.00     0.078 C 
ATOM      3  C1  OXE d   1       2.958   3.541  -5.961  0.00  0.00    -0.078 A 
ATOM      4  C2  OXE d   1       2.454   4.819  -5.986  0.00  0.00    -0.078 A 
ATOM      5  C3  OXE d   1       3.321   5.905  -5.896  0.00  0.00     0.003 A 
ATOM      6  C4  OXE d   1       4.707   5.710  -5.936  0.00  0.00    -0.002 A 
ATOM      7  C5  OXE d   1       5.242   4.417  -5.951  0.00  0.00    -0.002 A 
ATOM      8  C6  OXE d   1       4.383   3.324  -5.921  0.00  0.00     0.003 A 
ENDROOT
TORSDOF 0
ENDMDL
