MODEL 1
REMARK minimizedAffinity 8.51457691
REMARK minimizedRMSD -1
REMARK  0 active torsions:
REMARK  status: ('A' for Active; 'I' for Inactive)
ROOT
ATOM      1  C2' OXE d   1       1.466  -0.698  -0.101  0.00  0.00     0.078 C 
ATOM      2  C1' OXE d   1       1.283  -0.426   2.687  0.00  0.00     0.078 C 
ATOM      3  C1  OXE d   1       0.003  -0.381   1.890  0.00  0.00    -0.078 A 
ATOM      4  C2  OXE d   1       0.106  -0.468   0.523  0.00  0.00    -0.078 A 
ATOM      5  C3  OXE d   1      -1.048  -0.485  -0.256  0.00  0.00     0.003 A 
ATOM      6  C4  OXE d   1      -2.300  -0.261   0.329  0.00  0.00    -0.002 A 
ATOM      7  C5  OXE d   1      -2.423  -0.130   1.716  0.00  0.00    -0.002 A 
ATOM      8  C6  OXE d   1      -1.289  -0.230   2.513  0.00  0.00     0.003 A 
ENDROOT
TORSDOF 0
ENDMDL
