MODEL 1
REMARK minimizedAffinity 3.80640507
REMARK minimizedRMSD -1
REMARK  0 active torsions:
REMARK  status: ('A' for Active; 'I' for Inactive)
ROOT
ATOM      1  C2' OXE d   1       4.990   6.000   3.121  0.00  0.00     0.078 C 
ATOM      2  C1' OXE d   1       2.586   5.980   1.672  0.00  0.00     0.078 C 
ATOM      3  C1  OXE d   1       2.500   5.981   3.177  0.00  0.00    -0.078 A 
ATOM      4  C2  OXE d   1       3.681   5.944   3.878  0.00  0.00    -0.078 A 
ATOM      5  C3  OXE d   1       3.660   5.999   5.269  0.00  0.00     0.003 A 
ATOM      6  C4  OXE d   1       2.445   5.937   5.962  0.00  0.00    -0.002 A 
ATOM      7  C5  OXE d   1       1.231   5.934   5.267  0.00  0.00    -0.002 A 
ATOM      8  C6  OXE d   1       1.240   5.999   3.878  0.00  0.00     0.003 A 
ENDROOT
TORSDOF 0
ENDMDL
