MODEL 1
REMARK minimizedAffinity 1.85082698
REMARK minimizedRMSD -1
REMARK  0 active torsions:
REMARK  status: ('A' for Active; 'I' for Inactive)
ROOT
ATOM      1  C2' OXE d   1       0.731   5.990   4.471  0.00  0.00     0.078 C 
ATOM      2  C1' OXE d   1       3.099   5.997   5.978  0.00  0.00     0.078 C 
ATOM      3  C1  OXE d   1       3.222   5.983   4.475  0.00  0.00    -0.078 A 
ATOM      4  C2  OXE d   1       2.058   5.932   3.746  0.00  0.00    -0.078 A 
ATOM      5  C3  OXE d   1       2.113   5.973   2.356  0.00  0.00     0.003 A 
ATOM      6  C4  OXE d   1       3.345   5.909   1.693  0.00  0.00    -0.002 A 
ATOM      7  C5  OXE d   1       4.542   5.920   2.417  0.00  0.00    -0.002 A 
ATOM      8  C6  OXE d   1       4.499   5.999   3.805  0.00  0.00     0.003 A 
ENDROOT
TORSDOF 0
ENDMDL
