MODEL 1
REMARK minimizedAffinity 0.983017027
REMARK minimizedRMSD -1
REMARK  0 active torsions:
REMARK  status: ('A' for Active; 'I' for Inactive)
ROOT
ATOM      1  C2' OXE d   1       2.044  -1.521   0.850  0.00  0.00     0.078 C 
ATOM      2  C1' OXE d   1       0.867  -0.970   3.338  0.00  0.00     0.078 C 
ATOM      3  C1  OXE d   1       0.012  -0.814   2.105  0.00  0.00    -0.078 A 
ATOM      4  C2  OXE d   1       0.609  -1.040   0.889  0.00  0.00    -0.078 A 
ATOM      5  C3  OXE d   1      -0.148  -0.964  -0.276  0.00  0.00     0.003 A 
ATOM      6  C4  OXE d   1      -1.471  -0.508  -0.233  0.00  0.00    -0.002 A 
ATOM      7  C5  OXE d   1      -2.088  -0.233   0.993  0.00  0.00    -0.002 A 
ATOM      8  C6  OXE d   1      -1.374  -0.422   2.171  0.00  0.00     0.003 A 
ENDROOT
TORSDOF 0
ENDMDL
