MODEL 1
REMARK minimizedAffinity 7.39042091
REMARK minimizedRMSD -1
REMARK  0 active torsions:
REMARK  status: ('A' for Active; 'I' for Inactive)
ROOT
ATOM      1  C2' OXE d   1      -0.729   1.526   0.122  0.00  0.00     0.078 C 
ATOM      2  C1' OXE d   1       1.415  -0.167  -0.526  0.00  0.00     0.078 C 
ATOM      3  C1  OXE d   1       0.526  -0.566   0.625  0.00  0.00    -0.078 A 
ATOM      4  C2  OXE d   1      -0.492   0.292   0.965  0.00  0.00    -0.078 A 
ATOM      5  C3  OXE d   1      -1.374  -0.055   1.985  0.00  0.00     0.003 A 
ATOM      6  C4  OXE d   1      -1.143  -1.193   2.766  0.00  0.00    -0.002 A 
ATOM      7  C5  OXE d   1      -0.088  -2.060   2.462  0.00  0.00    -0.002 A 
ATOM      8  C6  OXE d   1       0.729  -1.784   1.371  0.00  0.00     0.003 A 
ENDROOT
TORSDOF 0
ENDMDL
