MODEL 1
REMARK minimizedAffinity 5.54371452
REMARK minimizedRMSD -1
REMARK  0 active torsions:
REMARK  status: ('A' for Active; 'I' for Inactive)
ROOT
ATOM      1  C2' OXE d   1      -1.877   0.102   1.374  0.00  0.00     0.078 C 
ATOM      2  C1' OXE d   1      -0.966  -1.785   3.241  0.00  0.00     0.078 C 
ATOM      3  C1  OXE d   1      -0.077  -1.476   2.062  0.00  0.00    -0.078 A 
ATOM      4  C2  OXE d   1      -0.551  -0.586   1.129  0.00  0.00    -0.078 A 
ATOM      5  C3  OXE d   1       0.252  -0.225   0.051  0.00  0.00     0.003 A 
ATOM      6  C4  OXE d   1       1.472  -0.874  -0.173  0.00  0.00    -0.002 A 
ATOM      7  C5  OXE d   1       1.956  -1.813   0.744  0.00  0.00    -0.002 A 
ATOM      8  C6  OXE d   1       1.215  -2.093   1.887  0.00  0.00     0.003 A 
ENDROOT
TORSDOF 0
ENDMDL
