MODEL 1
REMARK minimizedAffinity 7.06087208
REMARK minimizedRMSD -1
REMARK  0 active torsions:
REMARK  status: ('A' for Active; 'I' for Inactive)
ROOT
ATOM      1  C2' OXE d   1       2.665  -2.500   0.290  0.00  0.00     0.078 C 
ATOM      2  C1' OXE d   1       2.086  -0.177  -1.176  0.00  0.00     0.078 C 
ATOM      3  C1  OXE d   1       1.093  -0.613  -0.129  0.00  0.00    -0.078 A 
ATOM      4  C2  OXE d   1       1.361  -1.777   0.552  0.00  0.00    -0.078 A 
ATOM      5  C3  OXE d   1       0.506  -2.195   1.566  0.00  0.00     0.003 A 
ATOM      6  C4  OXE d   1      -0.703  -1.526   1.795  0.00  0.00    -0.002 A 
ATOM      7  C5  OXE d   1      -1.015  -0.361   1.086  0.00  0.00    -0.002 A 
ATOM      8  C6  OXE d   1      -0.110   0.131   0.153  0.00  0.00     0.003 A 
ENDROOT
TORSDOF 0
ENDMDL
