MODEL 1
REMARK minimizedAffinity 2.47580624
REMARK minimizedRMSD -1
REMARK  0 active torsions:
REMARK  status: ('A' for Active; 'I' for Inactive)
ROOT
ATOM      1  C   UNL d   1       0.715   4.855  -1.901  0.00  0.00     0.078 C 
ATOM      2  C1  UNL d   1       0.157   3.821  -0.969  0.00  0.00    -0.077 A 
ATOM      3  C2  UNL d   1      -1.061   3.186  -1.241  0.00  0.00    -0.001 A 
ATOM      4  C3  UNL d   1      -1.572   2.232  -0.360  0.00  0.00     0.003 A 
ATOM      5  C4  UNL d   1      -0.873   1.906   0.801  0.00  0.00    -0.005 A 
ATOM      6  C5  UNL d   1       0.338   2.534   1.082  0.00  0.00     0.003 A 
ATOM      7  C6  UNL d   1       0.851   3.488   0.201  0.00  0.00    -0.001 A 
ENDROOT
TORSDOF 0
ENDMDL
