MODEL 1
REMARK minimizedAffinity 6.21338463
REMARK minimizedRMSD -1
REMARK  0 active torsions:
REMARK  status: ('A' for Active; 'I' for Inactive)
ROOT
ATOM      1  C   UNL d   1      -3.030   1.874  -3.167  0.00  0.00     0.078 C 
ATOM      2  C1  UNL d   1      -1.969   2.218  -2.165  0.00  0.00    -0.077 A 
ATOM      3  C2  UNL d   1      -0.617   2.254  -2.530  0.00  0.00    -0.001 A 
ATOM      4  C3  UNL d   1       0.361   2.567  -1.584  0.00  0.00     0.003 A 
ATOM      5  C4  UNL d   1      -0.002   2.846  -0.268  0.00  0.00    -0.005 A 
ATOM      6  C5  UNL d   1      -1.344   2.811   0.104  0.00  0.00     0.003 A 
ATOM      7  C6  UNL d   1      -2.323   2.498  -0.840  0.00  0.00    -0.001 A 
ENDROOT
TORSDOF 0
ENDMDL
