MODEL 1
REMARK minimizedAffinity 16.161377
REMARK minimizedRMSD -1
REMARK  0 active torsions:
REMARK  status: ('A' for Active; 'I' for Inactive)
ROOT
ATOM      1  C   UNL d   1      -1.881   2.381   1.876  0.00  0.00     0.078 C 
ATOM      2  C1  UNL d   1      -0.398   2.526   2.040  0.00  0.00    -0.077 A 
ATOM      3  C2  UNL d   1       0.176   2.671   3.309  0.00  0.00    -0.001 A 
ATOM      4  C3  UNL d   1       1.558   2.815   3.447  0.00  0.00     0.003 A 
ATOM      5  C4  UNL d   1       2.377   2.816   2.319  0.00  0.00    -0.005 A 
ATOM      6  C5  UNL d   1       1.814   2.675   1.052  0.00  0.00     0.003 A 
ATOM      7  C6  UNL d   1       0.433   2.531   0.913  0.00  0.00    -0.001 A 
ENDROOT
TORSDOF 0
ENDMDL
