MODEL 1
REMARK minimizedAffinity -0.0925944448
REMARK minimizedRMSD -1
REMARK  0 active torsions:
REMARK  status: ('A' for Active; 'I' for Inactive)
ROOT
ATOM      1  C   UNL d   1      -0.478   1.950   0.965  0.00  0.00     0.078 C 
ATOM      2  C1  UNL d   1      -0.399   1.518  -0.469  0.00  0.00    -0.077 A 
ATOM      3  C2  UNL d   1       0.185   0.296  -0.823  0.00  0.00    -0.001 A 
ATOM      4  C3  UNL d   1       0.261  -0.088  -2.163  0.00  0.00     0.003 A 
ATOM      5  C4  UNL d   1      -0.244   0.745  -3.159  0.00  0.00    -0.005 A 
ATOM      6  C5  UNL d   1      -0.825   1.964  -2.817  0.00  0.00     0.003 A 
ATOM      7  C6  UNL d   1      -0.902   2.350  -1.478  0.00  0.00    -0.001 A 
ENDROOT
TORSDOF 0
ENDMDL
