MODEL 1
REMARK minimizedAffinity 3.63071823
REMARK minimizedRMSD -1
REMARK  0 active torsions:
REMARK  status: ('A' for Active; 'I' for Inactive)
ROOT
ATOM      1  C   UNL d   1      -1.050   2.796  -2.194  0.00  0.00     0.078 C 
ATOM      2  C1  UNL d   1      -1.357   1.367  -1.863  0.00  0.00    -0.077 A 
ATOM      3  C2  UNL d   1      -2.671   0.950  -1.615  0.00  0.00    -0.001 A 
ATOM      4  C3  UNL d   1      -2.941  -0.382  -1.298  0.00  0.00     0.003 A 
ATOM      5  C4  UNL d   1      -1.903  -1.308  -1.224  0.00  0.00    -0.005 A 
ATOM      6  C5  UNL d   1      -0.592  -0.903  -1.466  0.00  0.00     0.003 A 
ATOM      7  C6  UNL d   1      -0.320   0.429  -1.784  0.00  0.00    -0.001 A 
ENDROOT
TORSDOF 0
ENDMDL
