MODEL 1
REMARK minimizedAffinity 4.13061285
REMARK minimizedRMSD -1
REMARK  0 active torsions:
REMARK  status: ('A' for Active; 'I' for Inactive)
ROOT
ATOM      1  C   UNL d   1      -0.376   6.000  -2.254  0.00  0.00     0.078 C 
ATOM      2  C1  UNL d   1      -0.433   4.918  -1.218  0.00  0.00    -0.077 A 
ATOM      3  C2  UNL d   1      -1.110   5.113  -0.008  0.00  0.00    -0.001 A 
ATOM      4  C3  UNL d   1      -1.147   4.100   0.952  0.00  0.00     0.003 A 
ATOM      5  C4  UNL d   1      -0.507   2.885   0.712  0.00  0.00    -0.005 A 
ATOM      6  C5  UNL d   1       0.171   2.683  -0.488  0.00  0.00     0.003 A 
ATOM      7  C6  UNL d   1       0.209   3.694  -1.449  0.00  0.00    -0.001 A 
ENDROOT
TORSDOF 0
ENDMDL
