MODEL 1
REMARK minimizedAffinity 10.6220646
REMARK minimizedRMSD -1
REMARK  0 active torsions:
REMARK  status: ('A' for Active; 'I' for Inactive)
ROOT
ATOM      1  C   UNL d   1       3.002  -2.093  -0.009  0.00  0.00     0.078 C 
ATOM      2  C1  UNL d   1       3.256  -3.452  -0.589  0.00  0.00    -0.077 A 
ATOM      3  C2  UNL d   1       2.211  -4.216  -1.122  0.00  0.00    -0.001 A 
ATOM      4  C3  UNL d   1       2.461  -5.484  -1.650  0.00  0.00     0.003 A 
ATOM      5  C4  UNL d   1       3.756  -5.999  -1.649  0.00  0.00    -0.005 A 
ATOM      6  C5  UNL d   1       4.802  -5.247  -1.119  0.00  0.00     0.003 A 
ATOM      7  C6  UNL d   1       4.554  -3.979  -0.591  0.00  0.00    -0.001 A 
ENDROOT
TORSDOF 0
ENDMDL
