MODEL 1
REMARK minimizedAffinity -0.029419871
REMARK minimizedRMSD -1
REMARK  0 active torsions:
REMARK  status: ('A' for Active; 'I' for Inactive)
ROOT
ATOM      1  C   UNL d   1      -5.996  -3.321   5.984  0.00  0.00     0.078 C 
ATOM      2  C1  UNL d   1      -5.796  -2.114   5.118  0.00  0.00    -0.077 A 
ATOM      3  C2  UNL d   1      -6.000  -0.823   5.621  0.00  0.00    -0.001 A 
ATOM      4  C3  UNL d   1      -5.820   0.291   4.800  0.00  0.00     0.003 A 
ATOM      5  C4  UNL d   1      -5.436   0.126   3.470  0.00  0.00    -0.005 A 
ATOM      6  C5  UNL d   1      -5.233  -1.155   2.960  0.00  0.00     0.003 A 
ATOM      7  C6  UNL d   1      -5.413  -2.270   3.780  0.00  0.00    -0.001 A 
ENDROOT
TORSDOF 0
ENDMDL
