MODEL 1
REMARK minimizedAffinity -1.48742342
REMARK minimizedRMSD -1
REMARK  0 active torsions:
REMARK  status: ('A' for Active; 'I' for Inactive)
ROOT
ATOM      1  C1  BNZ d   1      -2.908  -5.954  -4.363  0.00  0.00     0.000 A 
ATOM      2  C2  BNZ d   1      -2.637  -5.997  -3.022  0.00  0.00     0.000 A 
ATOM      3  C3  BNZ d   1      -1.348  -5.999  -2.568  0.00  0.00     0.000 A 
ATOM      4  C4  BNZ d   1      -0.332  -6.000  -3.456  0.00  0.00     0.000 A 
ATOM      5  C5  BNZ d   1      -0.590  -5.967  -4.812  0.00  0.00     0.000 A 
ATOM      6  C6  BNZ d   1      -1.889  -5.925  -5.264  0.00  0.00     0.000 A 
ENDROOT
TORSDOF 0
ENDMDL
