MODEL 1
REMARK minimizedAffinity -1.59784818
REMARK minimizedRMSD -1
REMARK  0 active torsions:
REMARK  status: ('A' for Active; 'I' for Inactive)
ROOT
ATOM      1  C1  BNZ d   1      -3.638  -6.000  -4.248  0.00  0.00     0.000 A 
ATOM      2  C2  BNZ d   1      -2.929  -5.968  -5.419  0.00  0.00     0.000 A 
ATOM      3  C3  BNZ d   1      -1.562  -5.947  -5.409  0.00  0.00     0.000 A 
ATOM      4  C4  BNZ d   1      -0.908  -5.917  -4.230  0.00  0.00     0.000 A 
ATOM      5  C5  BNZ d   1      -1.609  -5.939  -3.041  0.00  0.00     0.000 A 
ATOM      6  C6  BNZ d   1      -2.984  -6.000  -3.055  0.00  0.00     0.000 A 
ENDROOT
TORSDOF 0
ENDMDL
