MODEL 1
REMARK minimizedAffinity -1.44926095
REMARK minimizedRMSD -1
REMARK  0 active torsions:
REMARK  status: ('A' for Active; 'I' for Inactive)
ROOT
ATOM      1  C1  BNZ d   1      -1.729  -6.000  -3.382  0.00  0.00     0.000 A 
ATOM      2  C2  BNZ d   1      -2.397  -5.985  -4.577  0.00  0.00     0.000 A 
ATOM      3  C3  BNZ d   1      -1.714  -5.981  -5.761  0.00  0.00     0.000 A 
ATOM      4  C4  BNZ d   1      -0.365  -5.951  -5.748  0.00  0.00     0.000 A 
ATOM      5  C5  BNZ d   1       0.323  -5.956  -4.551  0.00  0.00     0.000 A 
ATOM      6  C6  BNZ d   1      -0.368  -6.000  -3.361  0.00  0.00     0.000 A 
ENDROOT
TORSDOF 0
ENDMDL
