MODEL 1
REMARK minimizedAffinity 0.138063699
REMARK minimizedRMSD -1
REMARK  0 active torsions:
REMARK  status: ('A' for Active; 'I' for Inactive)
ROOT
ATOM      1  C1  BNZ d   1      -1.983  -5.968  -4.324  0.00  0.00     0.000 A 
ATOM      2  C2  BNZ d   1      -0.784  -5.948  -4.986  0.00  0.00     0.000 A 
ATOM      3  C3  BNZ d   1       0.396  -5.971  -4.297  0.00  0.00     0.000 A 
ATOM      4  C4  BNZ d   1       0.377  -5.973  -2.948  0.00  0.00     0.000 A 
ATOM      5  C5  BNZ d   1      -0.824  -5.983  -2.266  0.00  0.00     0.000 A 
ATOM      6  C6  BNZ d   1      -2.010  -6.000  -2.963  0.00  0.00     0.000 A 
ENDROOT
TORSDOF 0
ENDMDL
