MODEL 1
REMARK minimizedAffinity -1.20131302
REMARK minimizedRMSD -1
REMARK  0 active torsions:
REMARK  status: ('A' for Active; 'I' for Inactive)
ROOT
ATOM      1  C1  BNZ d   1      -2.086   2.370  -3.354  0.00  0.00     0.000 A 
ATOM      2  C2  BNZ d   1      -2.163   3.410  -4.241  0.00  0.00     0.000 A 
ATOM      3  C3  BNZ d   1      -1.056   4.151  -4.549  0.00  0.00     0.000 A 
ATOM      4  C4  BNZ d   1       0.115   3.876  -3.941  0.00  0.00     0.000 A 
ATOM      5  C5  BNZ d   1       0.207   2.837  -3.037  0.00  0.00     0.000 A 
ATOM      6  C6  BNZ d   1      -0.900   2.069  -2.758  0.00  0.00     0.000 A 
ENDROOT
TORSDOF 0
ENDMDL
