MODEL 1
REMARK minimizedAffinity 5.33226347
REMARK minimizedRMSD -1
REMARK  0 active torsions:
REMARK  status: ('A' for Active; 'I' for Inactive)
ROOT
ATOM      1  C1  BNZ d   1      -0.615  -5.993  -3.333  0.00  0.00     0.000 A 
ATOM      2  C2  BNZ d   1       0.274  -5.996  -4.375  0.00  0.00     0.000 A 
ATOM      3  C3  BNZ d   1      -0.165  -5.975  -5.669  0.00  0.00     0.000 A 
ATOM      4  C4  BNZ d   1      -1.490  -5.993  -5.920  0.00  0.00     0.000 A 
ATOM      5  C5  BNZ d   1      -2.398  -5.999  -4.881  0.00  0.00     0.000 A 
ATOM      6  C6  BNZ d   1      -1.953  -5.981  -3.579  0.00  0.00     0.000 A 
ENDROOT
TORSDOF 0
ENDMDL
