MODEL 1
REMARK minimizedAffinity -2.9168117
REMARK minimizedRMSD -1
REMARK  0 active torsions:
REMARK  status: ('A' for Active; 'I' for Inactive)
ROOT
ATOM      1  C1  BNZ d   1      -0.712  -5.445  -3.909  0.00  0.00     0.000 A 
ATOM      2  C2  BNZ d   1      -0.765  -5.999  -2.658  0.00  0.00     0.000 A 
ATOM      3  C3  BNZ d   1      -1.929  -6.000  -1.942  0.00  0.00     0.000 A 
ATOM      4  C4  BNZ d   1      -3.027  -5.412  -2.460  0.00  0.00     0.000 A 
ATOM      5  C5  BNZ d   1      -2.987  -4.842  -3.717  0.00  0.00     0.000 A 
ATOM      6  C6  BNZ d   1      -1.824  -4.877  -4.451  0.00  0.00     0.000 A 
ENDROOT
TORSDOF 0
ENDMDL
