MODEL 1
REMARK minimizedAffinity 0.0823286176
REMARK minimizedRMSD -1
REMARK  0 active torsions:
REMARK  status: ('A' for Active; 'I' for Inactive)
ROOT
ATOM      1  C1  BNZ d   1       1.060  -5.997  -4.219  0.00  0.00     0.000 A 
ATOM      2  C2  BNZ d   1       0.337  -5.999  -3.056  0.00  0.00     0.000 A 
ATOM      3  C3  BNZ d   1      -0.929  -5.485  -3.018  0.00  0.00     0.000 A 
ATOM      4  C4  BNZ d   1      -1.455  -4.934  -4.131  0.00  0.00     0.000 A 
ATOM      5  C5  BNZ d   1      -0.735  -4.916  -5.309  0.00  0.00     0.000 A 
ATOM      6  C6  BNZ d   1       0.524  -5.469  -5.354  0.00  0.00     0.000 A 
ENDROOT
TORSDOF 0
ENDMDL
