MODEL 1
REMARK minimizedAffinity -1.69442844
REMARK minimizedRMSD -1
REMARK  0 active torsions:
REMARK  status: ('A' for Active; 'I' for Inactive)
ROOT
ATOM      1  C1  BNZ d   1       0.657  -5.999  -3.877  0.00  0.00     0.000 A 
ATOM      2  C2  BNZ d   1       0.003  -5.985  -2.674  0.00  0.00     0.000 A 
ATOM      3  C3  BNZ d   1      -1.349  -5.787  -2.614  0.00  0.00     0.000 A 
ATOM      4  C4  BNZ d   1      -2.037  -5.563  -3.752  0.00  0.00     0.000 A 
ATOM      5  C5  BNZ d   1      -1.390  -5.565  -4.972  0.00  0.00     0.000 A 
ATOM      6  C6  BNZ d   1      -0.037  -5.804  -5.031  0.00  0.00     0.000 A 
ENDROOT
TORSDOF 0
ENDMDL
