MODEL 1
REMARK minimizedAffinity -1.27092636
REMARK minimizedRMSD -1
REMARK  0 active torsions:
REMARK  status: ('A' for Active; 'I' for Inactive)
ROOT
ATOM      1  C1  BNZ d   1      -1.368  -5.598  -3.653  0.00  0.00     0.000 A 
ATOM      2  C2  BNZ d   1      -1.879  -5.256  -4.877  0.00  0.00     0.000 A 
ATOM      3  C3  BNZ d   1      -1.102  -5.306  -6.000  0.00  0.00     0.000 A 
ATOM      4  C4  BNZ d   1       0.195  -5.660  -5.893  0.00  0.00     0.000 A 
ATOM      5  C5  BNZ d   1       0.728  -5.999  -4.665  0.00  0.00     0.000 A 
ATOM      6  C6  BNZ d   1      -0.068  -5.985  -3.543  0.00  0.00     0.000 A 
ENDROOT
TORSDOF 0
ENDMDL
