MODEL 1
REMARK minimizedAffinity 0.905596375
REMARK minimizedRMSD -1
REMARK  0 active torsions:
REMARK  status: ('A' for Active; 'I' for Inactive)
ROOT
ATOM      1  C1  BNZ d   1       0.085  -5.977  -2.645  0.00  0.00     0.000 A 
ATOM      2  C2  BNZ d   1       0.288  -5.995  -3.999  0.00  0.00     0.000 A 
ATOM      3  C3  BNZ d   1      -0.768  -5.986  -4.866  0.00  0.00     0.000 A 
ATOM      4  C4  BNZ d   1      -2.026  -6.000  -4.378  0.00  0.00     0.000 A 
ATOM      5  C5  BNZ d   1      -2.247  -5.991  -3.015  0.00  0.00     0.000 A 
ATOM      6  C6  BNZ d   1      -1.181  -5.960  -2.146  0.00  0.00     0.000 A 
ENDROOT
TORSDOF 0
ENDMDL
