MODEL 1
REMARK minimizedAffinity -1.03786123
REMARK minimizedRMSD -1
REMARK  0 active torsions:
REMARK  status: ('A' for Active; 'I' for Inactive)
ROOT
ATOM      1  C1  BNZ d   1      -0.205  -5.882  -5.987  0.00  0.00     0.000 A 
ATOM      2  C2  BNZ d   1      -1.300  -5.882  -5.165  0.00  0.00     0.000 A 
ATOM      3  C3  BNZ d   1      -1.156  -5.916  -3.806  0.00  0.00     0.000 A 
ATOM      4  C4  BNZ d   1       0.080  -5.990  -3.272  0.00  0.00     0.000 A 
ATOM      5  C5  BNZ d   1       1.194  -6.000  -4.088  0.00  0.00     0.000 A 
ATOM      6  C6  BNZ d   1       1.047  -5.926  -5.454  0.00  0.00     0.000 A 
ENDROOT
TORSDOF 0
ENDMDL
