MODEL 1
REMARK minimizedAffinity -2.43891239
REMARK minimizedRMSD -1
REMARK  0 active torsions:
REMARK  status: ('A' for Active; 'I' for Inactive)
ROOT
ATOM      1  C1  BNZ d   1      -1.248  -4.962  -5.108  0.00  0.00     0.000 A 
ATOM      2  C2  BNZ d   1      -2.214  -4.978  -4.137  0.00  0.00     0.000 A 
ATOM      3  C3  BNZ d   1      -1.947  -5.479  -2.894  0.00  0.00     0.000 A 
ATOM      4  C4  BNZ d   1      -0.730  -6.000  -2.636  0.00  0.00     0.000 A 
ATOM      5  C5  BNZ d   1       0.251  -6.000  -3.607  0.00  0.00     0.000 A 
ATOM      6  C6  BNZ d   1      -0.009  -5.459  -4.846  0.00  0.00     0.000 A 
ENDROOT
TORSDOF 0
ENDMDL
