MODEL 1
REMARK minimizedAffinity -3.00676012
REMARK minimizedRMSD -1
REMARK  0 active torsions:
REMARK  status: ('A' for Active; 'I' for Inactive)
ROOT
ATOM      1  C1  BNZ d   1       0.530  -5.845  -4.427  0.00  0.00     0.000 A 
ATOM      2  C2  BNZ d   1      -0.197  -6.000  -3.277  0.00  0.00     0.000 A 
ATOM      3  C3  BNZ d   1      -1.564  -5.996  -3.308  0.00  0.00     0.000 A 
ATOM      4  C4  BNZ d   1      -2.200  -5.798  -4.481  0.00  0.00     0.000 A 
ATOM      5  C5  BNZ d   1      -1.480  -5.631  -5.647  0.00  0.00     0.000 A 
ATOM      6  C6  BNZ d   1      -0.105  -5.675  -5.618  0.00  0.00     0.000 A 
ENDROOT
TORSDOF 0
ENDMDL
