MODEL 1
REMARK minimizedAffinity -3.43801665
REMARK minimizedRMSD -1
REMARK  0 active torsions:
REMARK  status: ('A' for Active; 'I' for Inactive)
ROOT
ATOM      1  C1  BNZ d   1      -1.140  -5.898  -2.934  0.00  0.00     0.000 A 
ATOM      2  C2  BNZ d   1      -2.507  -5.896  -2.852  0.00  0.00     0.000 A 
ATOM      3  C3  BNZ d   1      -3.276  -5.899  -3.982  0.00  0.00     0.000 A 
ATOM      4  C4  BNZ d   1      -2.678  -5.864  -5.191  0.00  0.00     0.000 A 
ATOM      5  C5  BNZ d   1      -1.301  -5.857  -5.290  0.00  0.00     0.000 A 
ATOM      6  C6  BNZ d   1      -0.530  -5.893  -4.150  0.00  0.00     0.000 A 
ENDROOT
TORSDOF 0
ENDMDL
