MODEL 1
REMARK minimizedAffinity -1.41239274
REMARK minimizedRMSD -1
REMARK  0 active torsions:
REMARK  status: ('A' for Active; 'I' for Inactive)
ROOT
ATOM      1  C1  BNZ d   1      -2.540  -5.994  -3.548  0.00  0.00     0.000 A 
ATOM      2  C2  BNZ d   1      -1.173  -5.990  -3.463  0.00  0.00     0.000 A 
ATOM      3  C3  BNZ d   1      -0.401  -5.966  -4.591  0.00  0.00     0.000 A 
ATOM      4  C4  BNZ d   1      -0.995  -5.986  -5.801  0.00  0.00     0.000 A 
ATOM      5  C5  BNZ d   1      -2.372  -6.000  -5.904  0.00  0.00     0.000 A 
ATOM      6  C6  BNZ d   1      -3.146  -5.985  -4.766  0.00  0.00     0.000 A 
ENDROOT
TORSDOF 0
ENDMDL
