MODEL 1
REMARK minimizedAffinity -2.1256578
REMARK minimizedRMSD -1
REMARK  0 active torsions:
REMARK  status: ('A' for Active; 'I' for Inactive)
ROOT
ATOM      1  C1  BNZ d   1       0.030  -5.968  -4.133  0.00  0.00     0.000 A 
ATOM      2  C2  BNZ d   1      -0.289  -5.977  -5.465  0.00  0.00     0.000 A 
ATOM      3  C3  BNZ d   1      -1.594  -5.972  -5.872  0.00  0.00     0.000 A 
ATOM      4  C4  BNZ d   1      -2.577  -5.999  -4.949  0.00  0.00     0.000 A 
ATOM      5  C5  BNZ d   1      -2.271  -6.000  -3.603  0.00  0.00     0.000 A 
ATOM      6  C6  BNZ d   1      -0.957  -5.965  -3.196  0.00  0.00     0.000 A 
ENDROOT
TORSDOF 0
ENDMDL
