MODEL 1
REMARK minimizedAffinity 2.45758319
REMARK minimizedRMSD -1
REMARK  0 active torsions:
REMARK  status: ('A' for Active; 'I' for Inactive)
ROOT
ATOM      1  O1  BZF d   1       4.352   2.731   1.564  0.00  0.00    -0.204 OA
ATOM      2  C2  BZF d   1       4.455   3.648   2.592  0.00  0.00     0.174 A 
ATOM      3  C3  BZF d   1       3.266   3.814   3.206  0.00  0.00    -0.012 A 
ATOM      4  C3A BZF d   1       2.384   2.878   2.578  0.00  0.00    -0.107 A 
ATOM      5  C4  BZF d   1       1.070   2.557   2.763  0.00  0.00     0.055 A 
ATOM      6  C5  BZF d   1       0.489   1.649   1.935  0.00  0.00    -0.016 A 
ATOM      7  C6  BZF d   1       1.190   1.049   0.909  0.00  0.00     0.022 A 
ATOM      8  C7  BZF d   1       2.497   1.332   0.690  0.00  0.00     0.029 A 
ATOM      9  C7A BZF d   1       3.096   2.224   1.546  0.00  0.00     0.058 A 
ENDROOT
TORSDOF 0
ENDMDL
