MODEL 1
REMARK minimizedAffinity 8.18059921
REMARK minimizedRMSD -1
REMARK  0 active torsions:
REMARK  status: ('A' for Active; 'I' for Inactive)
ROOT
ATOM      1  O1  BZF d   1       4.083   1.422  -1.469  0.00  0.00    -0.204 OA
ATOM      2  C2  BZF d   1       3.312   0.502  -2.154  0.00  0.00     0.174 A 
ATOM      3  C3  BZF d   1       2.290   0.070  -1.388  0.00  0.00    -0.012 A 
ATOM      4  C3A BZF d   1       2.376   0.832  -0.180  0.00  0.00    -0.107 A 
ATOM      5  C4  BZF d   1       1.628   0.869   0.962  0.00  0.00     0.055 A 
ATOM      6  C5  BZF d   1       2.023   1.673   1.984  0.00  0.00    -0.016 A 
ATOM      7  C6  BZF d   1       3.161   2.448   1.900  0.00  0.00     0.022 A 
ATOM      8  C7  BZF d   1       3.932   2.448   0.786  0.00  0.00     0.029 A 
ATOM      9  C7A BZF d   1       3.518   1.662  -0.261  0.00  0.00     0.058 A 
ENDROOT
TORSDOF 0
ENDMDL
