MODEL 1
REMARK minimizedAffinity 8.34543705
REMARK minimizedRMSD -1
REMARK  0 active torsions:
REMARK  status: ('A' for Active; 'I' for Inactive)
ROOT
ATOM      1  O1  BZF d   1       0.158   2.338  -0.342  0.00  0.00    -0.204 OA
ATOM      2  C2  BZF d   1       0.732   2.051   0.882  0.00  0.00     0.174 A 
ATOM      3  C3  BZF d   1       1.743   1.170   0.741  0.00  0.00    -0.012 A 
ATOM      4  C3A BZF d   1       1.865   0.959  -0.669  0.00  0.00    -0.107 A 
ATOM      5  C4  BZF d   1       2.702   0.200  -1.436  0.00  0.00     0.055 A 
ATOM      6  C5  BZF d   1       2.510   0.158  -2.780  0.00  0.00    -0.016 A 
ATOM      7  C6  BZF d   1       1.489   0.858  -3.390  0.00  0.00     0.022 A 
ATOM      8  C7  BZF d   1       0.636   1.628  -2.671  0.00  0.00     0.029 A 
ATOM      9  C7A BZF d   1       0.848   1.699  -1.316  0.00  0.00     0.058 A 
ENDROOT
TORSDOF 0
ENDMDL
