MODEL 1
REMARK minimizedAffinity 16.0302391
REMARK minimizedRMSD -1
REMARK  0 active torsions:
REMARK  status: ('A' for Active; 'I' for Inactive)
ROOT
ATOM      1  O1  BZF d   1       2.678   2.977   3.383  0.00  0.00    -0.204 OA
ATOM      2  C2  BZF d   1       4.006   3.144   3.040  0.00  0.00     0.174 A 
ATOM      3  C3  BZF d   1       4.243   2.667   1.801  0.00  0.00    -0.012 A 
ATOM      4  C3A BZF d   1       2.966   2.254   1.306  0.00  0.00    -0.107 A 
ATOM      5  C4  BZF d   1       2.548   1.711   0.125  0.00  0.00     0.055 A 
ATOM      6  C5  BZF d   1       1.243   1.356  -0.014  0.00  0.00    -0.016 A 
ATOM      7  C6  BZF d   1       0.332   1.524   1.009  0.00  0.00     0.022 A 
ATOM      8  C7  BZF d   1       0.699   2.063   2.197  0.00  0.00     0.029 A 
ATOM      9  C7A BZF d   1       2.009   2.454   2.328  0.00  0.00     0.058 A 
ENDROOT
TORSDOF 0
ENDMDL
