MODEL 1
REMARK minimizedAffinity 9.3788166
REMARK minimizedRMSD -1
REMARK  0 active torsions:
REMARK  status: ('A' for Active; 'I' for Inactive)
ROOT
ATOM      1  O1  BZF d   1       3.374   2.084   0.643  0.00  0.00    -0.204 OA
ATOM      2  C2  BZF d   1       2.281   1.823   1.446  0.00  0.00     0.174 A 
ATOM      3  C3  BZF d   1       1.392   1.038   0.803  0.00  0.00    -0.012 A 
ATOM      4  C3A BZF d   1       2.008   0.718  -0.448  0.00  0.00    -0.107 A 
ATOM      5  C4  BZF d   1       1.624  -0.041  -1.516  0.00  0.00     0.055 A 
ATOM      6  C5  BZF d   1       2.425  -0.090  -2.613  0.00  0.00    -0.016 A 
ATOM      7  C6  BZF d   1       3.611   0.611  -2.678  0.00  0.00     0.022 A 
ATOM      8  C7  BZF d   1       4.036   1.374  -1.641  0.00  0.00     0.029 A 
ATOM      9  C7A BZF d   1       3.245   1.399  -0.518  0.00  0.00     0.058 A 
ENDROOT
TORSDOF 0
ENDMDL
