MODEL 1
REMARK minimizedAffinity 13.5285387
REMARK minimizedRMSD -1
REMARK  0 active torsions:
REMARK  status: ('A' for Active; 'I' for Inactive)
ROOT
ATOM      1  O1  BZF d   1       2.898  -0.159  -1.406  0.00  0.00    -0.204 OA
ATOM      2  C2  BZF d   1       2.656   0.279  -2.694  0.00  0.00     0.174 A 
ATOM      3  C3  BZF d   1       1.622   1.145  -2.718  0.00  0.00    -0.012 A 
ATOM      4  C3A BZF d   1       1.250   1.325  -1.348  0.00  0.00    -0.107 A 
ATOM      5  C4  BZF d   1       0.298   2.080  -0.726  0.00  0.00     0.055 A 
ATOM      6  C5  BZF d   1       0.147   1.974   0.621  0.00  0.00    -0.016 A 
ATOM      7  C6  BZF d   1       0.926   1.121   1.374  0.00  0.00     0.022 A 
ATOM      8  C7  BZF d   1       1.888   0.356   0.802  0.00  0.00     0.029 A 
ATOM      9  C7A BZF d   1       2.065   0.485  -0.554  0.00  0.00     0.058 A 
ENDROOT
TORSDOF 0
ENDMDL
