MODEL 1
REMARK minimizedAffinity 13.2438564
REMARK minimizedRMSD -1
REMARK  0 active torsions:
REMARK  status: ('A' for Active; 'I' for Inactive)
ROOT
ATOM      1  O1  BZF d   1      -0.629   1.436  -3.012  0.00  0.00    -0.204 OA
ATOM      2  C2  BZF d   1      -0.349   2.709  -3.469  0.00  0.00     0.174 A 
ATOM      3  C3  BZF d   1       0.982   2.924  -3.503  0.00  0.00    -0.012 A 
ATOM      4  C3A BZF d   1       1.574   1.677  -3.127  0.00  0.00    -0.107 A 
ATOM      5  C4  BZF d   1       2.865   1.253  -2.991  0.00  0.00     0.055 A 
ATOM      6  C5  BZF d   1       3.103  -0.005  -2.536  0.00  0.00    -0.016 A 
ATOM      7  C6  BZF d   1       2.076  -0.863  -2.203  0.00  0.00     0.022 A 
ATOM      8  C7  BZF d   1       0.779  -0.490  -2.325  0.00  0.00     0.029 A 
ATOM      9  C7A BZF d   1       0.534   0.770  -2.816  0.00  0.00     0.058 A 
ENDROOT
TORSDOF 0
ENDMDL
