MODEL 1
REMARK minimizedAffinity 14.6597681
REMARK minimizedRMSD -1
REMARK  0 active torsions:
REMARK  status: ('A' for Active; 'I' for Inactive)
ROOT
ATOM      1  O1  BZF d   1       2.512   0.380   0.527  0.00  0.00    -0.204 OA
ATOM      2  C2  BZF d   1       1.472   1.157   1.001  0.00  0.00     0.174 A 
ATOM      3  C3  BZF d   1       0.730   1.635  -0.019  0.00  0.00    -0.012 A 
ATOM      4  C3A BZF d   1       1.290   1.050  -1.199  0.00  0.00    -0.107 A 
ATOM      5  C4  BZF d   1       0.976   1.130  -2.525  0.00  0.00     0.055 A 
ATOM      6  C5  BZF d   1       1.766   0.494  -3.430  0.00  0.00    -0.016 A 
ATOM      7  C6  BZF d   1       2.878  -0.225  -3.044  0.00  0.00     0.022 A 
ATOM      8  C7  BZF d   1       3.226  -0.337  -1.739  0.00  0.00     0.029 A 
ATOM      9  C7A BZF d   1       2.411   0.277  -0.820  0.00  0.00     0.058 A 
ENDROOT
TORSDOF 0
ENDMDL
