MODEL 1
REMARK minimizedAffinity 5.6535778
REMARK minimizedRMSD -1
REMARK  0 active torsions:
REMARK  status: ('A' for Active; 'I' for Inactive)
ROOT
ATOM      1  O1  BZF d   1       3.864   1.789  -1.552  0.00  0.00    -0.204 OA
ATOM      2  C2  BZF d   1       3.817   0.907  -2.614  0.00  0.00     0.174 A 
ATOM      3  C3  BZF d   1       3.115  -0.197  -2.288  0.00  0.00    -0.012 A 
ATOM      4  C3A BZF d   1       2.619   0.048  -0.968  0.00  0.00    -0.107 A 
ATOM      5  C4  BZF d   1       1.840  -0.672  -0.109  0.00  0.00     0.055 A 
ATOM      6  C5  BZF d   1       1.599  -0.181   1.135  0.00  0.00    -0.016 A 
ATOM      7  C6  BZF d   1       2.125   1.024   1.553  0.00  0.00     0.022 A 
ATOM      8  C7  BZF d   1       2.899   1.777   0.735  0.00  0.00     0.029 A 
ATOM      9  C7A BZF d   1       3.117   1.299  -0.534  0.00  0.00     0.058 A 
ENDROOT
TORSDOF 0
ENDMDL
