MODEL 1
REMARK minimizedAffinity 8.46625137
REMARK minimizedRMSD -1
REMARK  0 active torsions:
REMARK  status: ('A' for Active; 'I' for Inactive)
ROOT
ATOM      1  O1  BZF d   1      -4.825   4.445   1.133  0.00  0.00    -0.204 OA
ATOM      2  C2  BZF d   1      -6.000   4.093   0.497  0.00  0.00     0.174 A 
ATOM      3  C3  BZF d   1      -6.000   2.780   0.186  0.00  0.00    -0.012 A 
ATOM      4  C3A BZF d   1      -4.786   2.262   0.740  0.00  0.00    -0.107 A 
ATOM      5  C4  BZF d   1      -4.226   1.017   0.774  0.00  0.00     0.055 A 
ATOM      6  C5  BZF d   1      -2.996   0.862   1.330  0.00  0.00    -0.016 A 
ATOM      7  C6  BZF d   1      -2.296   1.928   1.855  0.00  0.00     0.022 A 
ATOM      8  C7  BZF d   1      -2.813   3.181   1.849  0.00  0.00     0.029 A 
ATOM      9  C7A BZF d   1      -4.070   3.336   1.317  0.00  0.00     0.058 A 
ENDROOT
TORSDOF 0
ENDMDL
