MODEL 1
REMARK minimizedAffinity 12.8958349
REMARK minimizedRMSD -1
REMARK  0 active torsions:
REMARK  status: ('A' for Active; 'I' for Inactive)
ROOT
ATOM      1  O1  BZF d   1       1.638  -0.288  -1.664  0.00  0.00    -0.204 OA
ATOM      2  C2  BZF d   1       2.774  -0.093  -2.426  0.00  0.00     0.174 A 
ATOM      3  C3  BZF d   1       3.648   0.709  -1.785  0.00  0.00    -0.012 A 
ATOM      4  C3A BZF d   1       3.060   0.961  -0.505  0.00  0.00    -0.107 A 
ATOM      5  C4  BZF d   1       3.458   1.678   0.587  0.00  0.00     0.055 A 
ATOM      6  C5  BZF d   1       2.618   1.784   1.650  0.00  0.00    -0.016 A 
ATOM      7  C6  BZF d   1       1.373   1.191   1.653  0.00  0.00     0.022 A 
ATOM      8  C7  BZF d   1       0.936   0.465   0.595  0.00  0.00     0.029 A 
ATOM      9  C7A BZF d   1       1.795   0.329  -0.468  0.00  0.00     0.058 A 
ENDROOT
TORSDOF 0
ENDMDL
