MODEL 1
REMARK minimizedAffinity 7.57160759
REMARK minimizedRMSD -1
REMARK  0 active torsions:
REMARK  status: ('A' for Active; 'I' for Inactive)
ROOT
ATOM      1  O1  BZF d   1       1.027   0.749  -4.824  0.00  0.00    -0.204 OA
ATOM      2  C2  BZF d   1       0.347   1.949  -4.739  0.00  0.00     0.174 A 
ATOM      3  C3  BZF d   1       0.547   2.529  -3.538  0.00  0.00    -0.012 A 
ATOM      4  C3A BZF d   1       1.480   1.681  -2.862  0.00  0.00    -0.107 A 
ATOM      5  C4  BZF d   1       2.079   1.735  -1.636  0.00  0.00     0.055 A 
ATOM      6  C5  BZF d   1       2.884   0.710  -1.249  0.00  0.00    -0.016 A 
ATOM      7  C6  BZF d   1       3.107  -0.384  -2.059  0.00  0.00     0.022 A 
ATOM      8  C7  BZF d   1       2.539  -0.479  -3.286  0.00  0.00     0.029 A 
ATOM      9  C7A BZF d   1       1.751   0.569  -3.693  0.00  0.00     0.058 A 
ENDROOT
TORSDOF 0
ENDMDL
