MODEL 1
REMARK minimizedAffinity 11.2501917
REMARK minimizedRMSD -1
REMARK  0 active torsions:
REMARK  status: ('A' for Active; 'I' for Inactive)
ROOT
ATOM      1  O1  BZF d   1       2.407   0.264   0.585  0.00  0.00    -0.204 OA
ATOM      2  C2  BZF d   1       1.394   1.104   1.006  0.00  0.00     0.174 A 
ATOM      3  C3  BZF d   1       0.725   1.613  -0.048  0.00  0.00    -0.012 A 
ATOM      4  C3A BZF d   1       1.301   0.985  -1.198  0.00  0.00    -0.107 A 
ATOM      5  C4  BZF d   1       1.050   1.068  -2.538  0.00  0.00     0.055 A 
ATOM      6  C5  BZF d   1       1.840   0.379  -3.402  0.00  0.00    -0.016 A 
ATOM      7  C6  BZF d   1       2.892  -0.398  -2.962  0.00  0.00     0.022 A 
ATOM      8  C7  BZF d   1       3.177  -0.516  -1.642  0.00  0.00     0.029 A 
ATOM      9  C7A BZF d   1       2.359   0.153  -0.764  0.00  0.00     0.058 A 
ENDROOT
TORSDOF 0
ENDMDL
