MODEL 1
REMARK minimizedAffinity 9.03844833
REMARK minimizedRMSD -1
REMARK  0 active torsions:
REMARK  status: ('A' for Active; 'I' for Inactive)
ROOT
ATOM      1  O1  BZF d   1       2.485  -0.957  -2.426  0.00  0.00    -0.204 OA
ATOM      2  C2  BZF d   1       2.772   0.180  -3.156  0.00  0.00     0.174 A 
ATOM      3  C3  BZF d   1       2.467   1.290  -2.453  0.00  0.00    -0.012 A 
ATOM      4  C3A BZF d   1       2.043   0.818  -1.170  0.00  0.00    -0.107 A 
ATOM      5  C4  BZF d   1       1.627   1.444  -0.030  0.00  0.00     0.055 A 
ATOM      6  C5  BZF d   1       1.215   0.692   1.024  0.00  0.00    -0.016 A 
ATOM      7  C6  BZF d   1       1.200  -0.687   0.970  0.00  0.00     0.022 A 
ATOM      8  C7  BZF d   1       1.609  -1.353  -0.137  0.00  0.00     0.029 A 
ATOM      9  C7A BZF d   1       2.057  -0.596  -1.192  0.00  0.00     0.058 A 
ENDROOT
TORSDOF 0
ENDMDL
