MODEL 1
REMARK minimizedAffinity -4.49614191
REMARK minimizedRMSD -1
REMARK  0 active torsions:
REMARK  status: ('A' for Active; 'I' for Inactive)
ROOT
ATOM      1  C4' PXY d   1       0.189  -1.846  -0.190  0.00  0.00     0.077 C 
ATOM      2  C1' PXY d   1      -1.581   3.215   1.970  0.00  0.00     0.077 C 
ATOM      3  C1  PXY d   1      -1.113   1.894   1.392  0.00  0.00    -0.082 A 
ATOM      4  C2  PXY d   1      -1.622   0.763   1.852  0.00  0.00     0.003 A 
ATOM      5  C3  PXY d   1      -1.187  -0.443   1.363  0.00  0.00     0.003 A 
ATOM      6  C4  PXY d   1      -0.260  -0.488   0.356  0.00  0.00    -0.082 A 
ATOM      7  C5  PXY d   1       0.256   0.662  -0.125  0.00  0.00     0.003 A 
ATOM      8  C6  PXY d   1      -0.169   1.874   0.413  0.00  0.00     0.003 A 
ENDROOT
TORSDOF 0
ENDMDL
