MODEL 1
REMARK minimizedAffinity -4.79083204
REMARK minimizedRMSD -1
REMARK  0 active torsions:
REMARK  status: ('A' for Active; 'I' for Inactive)
ROOT
ATOM      1  C4' PXY d   1      -2.040   0.499   3.713  0.00  0.00     0.077 C 
ATOM      2  C1' PXY d   1       0.067   2.302  -1.358  0.00  0.00     0.077 C 
ATOM      3  C1  PXY d   1      -0.493   1.820  -0.034  0.00  0.00    -0.082 A 
ATOM      4  C2  PXY d   1      -0.459   2.619   1.020  0.00  0.00     0.003 A 
ATOM      5  C3  PXY d   1      -0.932   2.188   2.232  0.00  0.00     0.003 A 
ATOM      6  C4  PXY d   1      -1.495   0.946   2.355  0.00  0.00    -0.082 A 
ATOM      7  C5  PXY d   1      -1.543   0.129   1.281  0.00  0.00     0.003 A 
ATOM      8  C6  PXY d   1      -1.020   0.570   0.069  0.00  0.00     0.003 A 
ENDROOT
TORSDOF 0
ENDMDL
