MODEL 1
REMARK minimizedAffinity -2.20922422
REMARK minimizedRMSD -1
REMARK  0 active torsions:
REMARK  status: ('A' for Active; 'I' for Inactive)
ROOT
ATOM      1  C4' PXY d   1       0.800  -1.720  -1.068  0.00  0.00     0.077 C 
ATOM      2  C1' PXY d   1      -0.914   3.112   1.602  0.00  0.00     0.077 C 
ATOM      3  C1  PXY d   1      -0.468   1.838   0.912  0.00  0.00    -0.082 A 
ATOM      4  C2  PXY d   1       0.444   1.896  -0.045  0.00  0.00     0.003 A 
ATOM      5  C3  PXY d   1       0.835   0.758  -0.701  0.00  0.00     0.003 A 
ATOM      6  C4  PXY d   1       0.326  -0.460  -0.338  0.00  0.00    -0.082 A 
ATOM      7  C5  PXY d   1      -0.597  -0.530   0.644  0.00  0.00     0.003 A 
ATOM      8  C6  PXY d   1      -1.011   0.642   1.270  0.00  0.00     0.003 A 
ENDROOT
TORSDOF 0
ENDMDL
