MODEL 1
REMARK minimizedAffinity -4.39660263
REMARK minimizedRMSD -1
REMARK  0 active torsions:
REMARK  status: ('A' for Active; 'I' for Inactive)
ROOT
ATOM      1  C4' PXY d   1       2.791   0.015  -3.010  0.00  0.00     0.077 C 
ATOM      2  C1' PXY d   1      -1.281   1.094   0.948  0.00  0.00     0.077 C 
ATOM      3  C1  PXY d   1      -0.208   0.803  -0.081  0.00  0.00    -0.082 A 
ATOM      4  C2  PXY d   1       0.075   1.707  -1.005  0.00  0.00     0.003 A 
ATOM      5  C3  PXY d   1       1.021   1.447  -1.964  0.00  0.00     0.003 A 
ATOM      6  C4  PXY d   1       1.722   0.271  -1.944  0.00  0.00    -0.082 A 
ATOM      7  C5  PXY d   1       1.446  -0.652  -0.998  0.00  0.00     0.003 A 
ATOM      8  C6  PXY d   1       0.454  -0.386  -0.059  0.00  0.00     0.003 A 
ENDROOT
TORSDOF 0
ENDMDL
