MODEL 1
REMARK minimizedAffinity -1.53563774
REMARK minimizedRMSD -1
REMARK  0 active torsions:
REMARK  status: ('A' for Active; 'I' for Inactive)
ROOT
ATOM      1  C4' PXY d   1       0.033   2.425  -1.509  0.00  0.00     0.077 C 
ATOM      2  C1' PXY d   1       0.482  -3.033   0.342  0.00  0.00     0.077 C 
ATOM      3  C1  PXY d   1       0.352  -1.601  -0.139  0.00  0.00    -0.082 A 
ATOM      4  C2  PXY d   1       1.104  -1.177  -1.141  0.00  0.00     0.003 A 
ATOM      5  C3  PXY d   1       1.023   0.124  -1.568  0.00  0.00     0.003 A 
ATOM      6  C4  PXY d   1       0.124   0.985  -0.997  0.00  0.00    -0.082 A 
ATOM      7  C5  PXY d   1      -0.654   0.557   0.020  0.00  0.00     0.003 A 
ATOM      8  C6  PXY d   1      -0.527  -0.756   0.465  0.00  0.00     0.003 A 
ENDROOT
TORSDOF 0
ENDMDL
