MODEL 1
REMARK minimizedAffinity -4.49887896
REMARK minimizedRMSD -1
REMARK  0 active torsions:
REMARK  status: ('A' for Active; 'I' for Inactive)
ROOT
ATOM      1  C4' PXY d   1      -0.839   2.041   1.991  0.00  0.00     0.077 C 
ATOM      2  C1' PXY d   1       1.844  -1.125  -2.032  0.00  0.00     0.077 C 
ATOM      3  C1  PXY d   1       1.145  -0.284  -0.982  0.00  0.00    -0.082 A 
ATOM      4  C2  PXY d   1       0.790  -0.835   0.168  0.00  0.00     0.003 A 
ATOM      5  C3  PXY d   1       0.129  -0.097   1.115  0.00  0.00     0.003 A 
ATOM      6  C4  PXY d   1      -0.124   1.233   0.906  0.00  0.00    -0.082 A 
ATOM      7  C5  PXY d   1       0.245   1.804  -0.260  0.00  0.00     0.003 A 
ATOM      8  C6  PXY d   1       0.878   1.028  -1.226  0.00  0.00     0.003 A 
ENDROOT
TORSDOF 0
ENDMDL
