MODEL 1
REMARK minimizedAffinity -5.15730953
REMARK minimizedRMSD -1
REMARK  0 active torsions:
REMARK  status: ('A' for Active; 'I' for Inactive)
ROOT
ATOM      1  C4' PXY d   1       0.179  -2.558   0.280  0.00  0.00     0.077 C 
ATOM      2  C1' PXY d   1       0.139   2.898  -1.629  0.00  0.00     0.077 C 
ATOM      3  C1  PXY d   1       0.157   1.463  -1.139  0.00  0.00    -0.082 A 
ATOM      4  C2  PXY d   1      -0.797   1.038  -0.326  0.00  0.00     0.003 A 
ATOM      5  C3  PXY d   1      -0.779  -0.246   0.152  0.00  0.00     0.003 A 
ATOM      6  C4  PXY d   1       0.196  -1.121  -0.247  0.00  0.00    -0.082 A 
ATOM      7  C5  PXY d   1       1.167  -0.698  -1.085  0.00  0.00     0.003 A 
ATOM      8  C6  PXY d   1       1.153   0.622  -1.526  0.00  0.00     0.003 A 
ENDROOT
TORSDOF 0
ENDMDL
