MODEL 1
REMARK minimizedAffinity -4.31074762
REMARK minimizedRMSD -1
REMARK  0 active torsions:
REMARK  status: ('A' for Active; 'I' for Inactive)
ROOT
ATOM      1  C4' PXY d   1      -1.663   0.937   1.847  0.00  0.00     0.077 C 
ATOM      2  C1' PXY d   1       1.896  -1.254  -2.147  0.00  0.00     0.077 C 
ATOM      3  C1  PXY d   1       0.965  -0.667  -1.104  0.00  0.00    -0.082 A 
ATOM      4  C2  PXY d   1       0.771  -1.311   0.036  0.00  0.00     0.003 A 
ATOM      5  C3  PXY d   1      -0.093  -0.811   0.976  0.00  0.00     0.003 A 
ATOM      6  C4  PXY d   1      -0.724   0.387   0.770  0.00  0.00    -0.082 A 
ATOM      7  C5  PXY d   1      -0.523   1.054  -0.386  0.00  0.00     0.003 A 
ATOM      8  C6  PXY d   1       0.325   0.509  -1.345  0.00  0.00     0.003 A 
ENDROOT
TORSDOF 0
ENDMDL
