MODEL 1
REMARK minimizedAffinity -5.16655207
REMARK minimizedRMSD -1
REMARK  0 active torsions:
REMARK  status: ('A' for Active; 'I' for Inactive)
ROOT
ATOM      1  C4' PXY d   1       0.648  -0.889  -0.909  0.00  0.00     0.077 C 
ATOM      2  C1' PXY d   1      -2.251   2.517   2.752  0.00  0.00     0.077 C 
ATOM      3  C1  PXY d   1      -1.500   1.625   1.783  0.00  0.00    -0.082 A 
ATOM      4  C2  PXY d   1      -0.621   0.751   2.245  0.00  0.00     0.003 A 
ATOM      5  C3  PXY d   1       0.090  -0.041   1.381  0.00  0.00     0.003 A 
ATOM      6  C4  PXY d   1      -0.140   0.025   0.033  0.00  0.00    -0.082 A 
ATOM      7  C5  PXY d   1      -1.043   0.907  -0.446  0.00  0.00     0.003 A 
ATOM      8  C6  PXY d   1      -1.724   1.731   0.445  0.00  0.00     0.003 A 
ENDROOT
TORSDOF 0
ENDMDL
