MODEL 1
REMARK minimizedAffinity -1.9602778
REMARK minimizedRMSD -1
REMARK  0 active torsions:
REMARK  status: ('A' for Active; 'I' for Inactive)
ROOT
ATOM      1  C4' PXY d   1       5.955  -1.495   5.996  0.00  0.00     0.077 C 
ATOM      2  C1' PXY d   1       4.541   3.458   3.373  0.00  0.00     0.077 C 
ATOM      3  C1  PXY d   1       4.901   2.153   4.056  0.00  0.00    -0.082 A 
ATOM      4  C2  PXY d   1       5.635   2.172   5.156  0.00  0.00     0.003 A 
ATOM      5  C3  PXY d   1       5.997   0.999   5.768  0.00  0.00     0.003 A 
ATOM      6  C4  PXY d   1       5.559  -0.202   5.279  0.00  0.00    -0.082 A 
ATOM      7  C5  PXY d   1       4.801  -0.228   4.162  0.00  0.00     0.003 A 
ATOM      8  C6  PXY d   1       4.479   0.971   3.533  0.00  0.00     0.003 A 
ENDROOT
TORSDOF 0
ENDMDL
