MODEL 1
REMARK minimizedAffinity -4.61044025
REMARK minimizedRMSD -1
REMARK  0 active torsions:
REMARK  status: ('A' for Active; 'I' for Inactive)
ROOT
ATOM      1  C4' PXY d   1      -0.070   2.295  -1.371  0.00  0.00     0.077 C 
ATOM      2  C1' PXY d   1      -2.313   0.240   3.544  0.00  0.00     0.077 C 
ATOM      3  C1  PXY d   1      -1.730   0.790   2.258  0.00  0.00    -0.082 A 
ATOM      4  C2  PXY d   1      -1.428  -0.037   1.270  0.00  0.00     0.003 A 
ATOM      5  C3  PXY d   1      -0.871   0.441   0.112  0.00  0.00     0.003 A 
ATOM      6  C4  PXY d   1      -0.669   1.784  -0.058  0.00  0.00    -0.082 A 
ATOM      7  C5  PXY d   1      -0.984   2.636   0.942  0.00  0.00     0.003 A 
ATOM      8  C6  PXY d   1      -1.511   2.127   2.125  0.00  0.00     0.003 A 
ENDROOT
TORSDOF 0
ENDMDL
