MODEL 1
REMARK minimizedAffinity -5.48811913
REMARK minimizedRMSD -1
REMARK  0 active torsions:
REMARK  status: ('A' for Active; 'I' for Inactive)
ROOT
ATOM      1  C4' PXY d   1      -2.433   0.624   3.819  0.00  0.00     0.077 C 
ATOM      2  C1' PXY d   1       0.117   1.937  -1.200  0.00  0.00     0.077 C 
ATOM      3  C1  PXY d   1      -0.560   1.584   0.110  0.00  0.00    -0.082 A 
ATOM      4  C2  PXY d   1      -0.558   2.458   1.104  0.00  0.00     0.003 A 
ATOM      5  C3  PXY d   1      -1.137   2.143   2.306  0.00  0.00     0.003 A 
ATOM      6  C4  PXY d   1      -1.771   0.942   2.476  0.00  0.00    -0.082 A 
ATOM      7  C5  PXY d   1      -1.786   0.048   1.464  0.00  0.00     0.003 A 
ATOM      8  C6  PXY d   1      -1.157   0.371   0.265  0.00  0.00     0.003 A 
ENDROOT
TORSDOF 0
ENDMDL
