MODEL 1
REMARK minimizedAffinity -0.749052346
REMARK minimizedRMSD -1
REMARK  0 active torsions:
REMARK  status: ('A' for Active; 'I' for Inactive)
ROOT
ATOM      1  C4' PXY d   1      -0.289  -3.018  -0.297  0.00  0.00     0.077 C 
ATOM      2  C1' PXY d   1       0.545   2.701  -0.392  0.00  0.00     0.077 C 
ATOM      3  C1  PXY d   1       0.337   1.200  -0.374  0.00  0.00    -0.082 A 
ATOM      4  C2  PXY d   1      -0.875   0.709  -0.172  0.00  0.00     0.003 A 
ATOM      5  C3  PXY d   1      -1.076  -0.646  -0.121  0.00  0.00     0.003 A 
ATOM      6  C4  PXY d   1      -0.034  -1.509  -0.332  0.00  0.00    -0.082 A 
ATOM      7  C5  PXY d   1       1.204  -1.016  -0.549  0.00  0.00     0.003 A 
ATOM      8  C6  PXY d   1       1.394   0.362  -0.556  0.00  0.00     0.003 A 
ENDROOT
TORSDOF 0
ENDMDL
