MODEL 1
REMARK minimizedAffinity -3.41813421
REMARK minimizedRMSD -1
REMARK  0 active torsions:
REMARK  status: ('A' for Active; 'I' for Inactive)
ROOT
ATOM      1  C4' PXY d   1       0.317  -2.806  -0.098  0.00  0.00     0.077 C 
ATOM      2  C1' PXY d   1      -0.184   2.848  -1.194  0.00  0.00     0.077 C 
ATOM      3  C1  PXY d   1      -0.040   1.365  -0.911  0.00  0.00    -0.082 A 
ATOM      4  C2  PXY d   1      -1.117   0.597  -0.884  0.00  0.00     0.003 A 
ATOM      5  C3  PXY d   1      -1.009  -0.740  -0.598  0.00  0.00     0.003 A 
ATOM      6  C4  PXY d   1       0.220  -1.306  -0.389  0.00  0.00    -0.082 A 
ATOM      7  C5  PXY d   1       1.325  -0.531  -0.425  0.00  0.00     0.003 A 
ATOM      8  C6  PXY d   1       1.189   0.832  -0.677  0.00  0.00     0.003 A 
ENDROOT
TORSDOF 0
ENDMDL
