MODEL 1
REMARK minimizedAffinity -3.8258481
REMARK minimizedRMSD -1
REMARK  0 active torsions:
REMARK  status: ('A' for Active; 'I' for Inactive)
ROOT
ATOM      1  C4' PXY d   1      -2.480   0.819   2.934  0.00  0.00     0.077 C 
ATOM      2  C1' PXY d   1       0.510   1.547  -1.960  0.00  0.00     0.077 C 
ATOM      3  C1  PXY d   1      -0.265   1.347  -0.672  0.00  0.00    -0.082 A 
ATOM      4  C2  PXY d   1      -1.567   1.582  -0.650  0.00  0.00     0.003 A 
ATOM      5  C3  PXY d   1      -2.277   1.437   0.514  0.00  0.00     0.003 A 
ATOM      6  C4  PXY d   1      -1.659   0.998   1.654  0.00  0.00    -0.082 A 
ATOM      7  C5  PXY d   1      -0.333   0.746   1.636  0.00  0.00     0.003 A 
ATOM      8  C6  PXY d   1       0.378   0.939   0.455  0.00  0.00     0.003 A 
ENDROOT
TORSDOF 0
ENDMDL
