MODEL 1
REMARK minimizedAffinity -4.77540493
REMARK minimizedRMSD -1
REMARK  0 active torsions:
REMARK  status: ('A' for Active; 'I' for Inactive)
ROOT
ATOM      1  C4' PXY d   1       0.026   2.648   1.246  0.00  0.00     0.077 C 
ATOM      2  C1' PXY d   1       1.536  -2.188  -1.537  0.00  0.00     0.077 C 
ATOM      3  C1  PXY d   1       1.128  -0.921  -0.812  0.00  0.00    -0.082 A 
ATOM      4  C2  PXY d   1       2.050  -0.034  -0.475  0.00  0.00     0.003 A 
ATOM      5  C3  PXY d   1       1.703   1.102   0.210  0.00  0.00     0.003 A 
ATOM      6  C4  PXY d   1       0.391   1.359   0.505  0.00  0.00    -0.082 A 
ATOM      7  C5  PXY d   1      -0.558   0.464   0.155  0.00  0.00     0.003 A 
ATOM      8  C6  PXY d   1      -0.179  -0.703  -0.503  0.00  0.00     0.003 A 
ENDROOT
TORSDOF 0
ENDMDL
