MODEL 1
REMARK minimizedAffinity -2.30668879
REMARK minimizedRMSD -1
REMARK  0 active torsions:
REMARK  status: ('A' for Active; 'I' for Inactive)
ROOT
ATOM      1  C4' PXY d   1       0.246   2.232  -1.178  0.00  0.00     0.077 C 
ATOM      2  C1' PXY d   1      -1.525   0.122   3.904  0.00  0.00     0.077 C 
ATOM      3  C1  PXY d   1      -1.059   0.663   2.566  0.00  0.00    -0.082 A 
ATOM      4  C2  PXY d   1      -0.524   1.871   2.500  0.00  0.00     0.003 A 
ATOM      5  C3  PXY d   1      -0.127   2.389   1.294  0.00  0.00     0.003 A 
ATOM      6  C4  PXY d   1      -0.230   1.641   0.152  0.00  0.00    -0.082 A 
ATOM      7  C5  PXY d   1      -0.765   0.403   0.213  0.00  0.00     0.003 A 
ATOM      8  C6  PXY d   1      -1.200  -0.088   1.440  0.00  0.00     0.003 A 
ENDROOT
TORSDOF 0
ENDMDL
