MODEL 1
REMARK minimizedAffinity -2.80092573
REMARK minimizedRMSD -1
REMARK  0 active torsions:
REMARK  status: ('A' for Active; 'I' for Inactive)
ROOT
ATOM      1  C4' PXY d   1       0.009  -3.084   0.154  0.00  0.00     0.077 C 
ATOM      2  C1' PXY d   1      -0.258   2.613  -0.787  0.00  0.00     0.077 C 
ATOM      3  C1  PXY d   1      -0.184   1.117  -0.552  0.00  0.00    -0.082 A 
ATOM      4  C2  PXY d   1      -0.935   0.565   0.386  0.00  0.00     0.003 A 
ATOM      5  C3  PXY d   1      -0.857  -0.782   0.633  0.00  0.00     0.003 A 
ATOM      6  C4  PXY d   1      -0.040  -1.579  -0.124  0.00  0.00    -0.082 A 
ATOM      7  C5  PXY d   1       0.721  -1.024  -1.090  0.00  0.00     0.003 A 
ATOM      8  C6  PXY d   1       0.658   0.351  -1.298  0.00  0.00     0.003 A 
ENDROOT
TORSDOF 0
ENDMDL
