MODEL 1
REMARK minimizedAffinity -4.61235571
REMARK minimizedRMSD -1
REMARK  0 active torsions:
REMARK  status: ('A' for Active; 'I' for Inactive)
ROOT
ATOM      1  C4' PXY d   1      -2.251   0.573   3.581  0.00  0.00     0.077 C 
ATOM      2  C1' PXY d   1      -0.010   2.620  -1.339  0.00  0.00     0.077 C 
ATOM      3  C1  PXY d   1      -0.589   2.091  -0.042  0.00  0.00    -0.082 A 
ATOM      4  C2  PXY d   1      -1.207   0.921  -0.031  0.00  0.00     0.003 A 
ATOM      5  C3  PXY d   1      -1.765   0.441   1.127  0.00  0.00     0.003 A 
ATOM      6  C4  PXY d   1      -1.643   1.142   2.296  0.00  0.00    -0.082 A 
ATOM      7  C5  PXY d   1      -1.005   2.332   2.296  0.00  0.00     0.003 A 
ATOM      8  C6  PXY d   1      -0.481   2.820   1.102  0.00  0.00     0.003 A 
ENDROOT
TORSDOF 0
ENDMDL
