MODEL 1
REMARK minimizedAffinity -5.78373671
REMARK minimizedRMSD -1
REMARK  0 active torsions:
REMARK  status: ('A' for Active; 'I' for Inactive)
ROOT
ATOM      1  C4' PXY d   1       3.223  -0.789  -0.946  0.00  0.00     0.077 C 
ATOM      2  C1' PXY d   1      -1.985   0.793   1.002  0.00  0.00     0.077 C 
ATOM      3  C1  PXY d   1      -0.621   0.366   0.496  0.00  0.00    -0.082 A 
ATOM      4  C2  PXY d   1       0.318   1.277   0.297  0.00  0.00     0.003 A 
ATOM      5  C3  PXY d   1       1.546   0.913  -0.190  0.00  0.00     0.003 A 
ATOM      6  C4  PXY d   1       1.834  -0.405  -0.427  0.00  0.00    -0.082 A 
ATOM      7  C5  PXY d   1       0.885  -1.342  -0.217  0.00  0.00     0.003 A 
ATOM      8  C6  PXY d   1      -0.369  -0.946   0.239  0.00  0.00     0.003 A 
ENDROOT
TORSDOF 0
ENDMDL
