MODEL 1
REMARK minimizedAffinity 1.35597622
REMARK minimizedRMSD -1
REMARK  0 active torsions:
REMARK  status: ('A' for Active; 'I' for Inactive)
ROOT
ATOM      1  C   UNL d   1       3.732  -5.248  -3.236  0.00  0.00     0.172 C 
ATOM      2  N   UNL d   1       2.861  -5.367  -2.091  0.00  0.00    -0.070 N 
ATOM      3  C1  UNL d   1       3.114  -4.871  -0.840  0.00  0.00    -0.004 A 
ATOM      4  C2  UNL d   1       2.044  -5.192  -0.034  0.00  0.00    -0.047 A 
ATOM      5  C3  UNL d   1       1.115  -5.906  -0.827  0.00  0.00    -0.047 A 
ATOM      6  C4  UNL d   1       1.646  -6.000  -2.096  0.00  0.00    -0.004 A 
ENDROOT
TORSDOF 0
ENDMDL
