MODEL 1
REMARK minimizedAffinity 7.92865181
REMARK minimizedRMSD -1
REMARK  0 active torsions:
REMARK  status: ('A' for Active; 'I' for Inactive)
ROOT
ATOM      1  C   UNL d   1      -0.076   2.749   1.407  0.00  0.00     0.172 C 
ATOM      2  N   UNL d   1       0.110   3.942   0.616  0.00  0.00    -0.070 N 
ATOM      3  C1  UNL d   1      -0.609   5.102   0.738  0.00  0.00    -0.004 A 
ATOM      4  C2  UNL d   1      -0.128   5.997  -0.193  0.00  0.00    -0.047 A 
ATOM      5  C3  UNL d   1       0.915   5.352  -0.900  0.00  0.00    -0.047 A 
ATOM      6  C4  UNL d   1       1.041   4.082  -0.379  0.00  0.00    -0.004 A 
ENDROOT
TORSDOF 0
ENDMDL
