MODEL 1
REMARK minimizedAffinity 4.37604284
REMARK minimizedRMSD -1
REMARK  0 active torsions:
REMARK  status: ('A' for Active; 'I' for Inactive)
ROOT
ATOM      1  C   UNL d   1      -1.925   1.991   3.046  0.00  0.00     0.172 C 
ATOM      2  N   UNL d   1      -0.794   2.419   2.257  0.00  0.00    -0.070 N 
ATOM      3  C1  UNL d   1       0.521   2.171   2.547  0.00  0.00    -0.004 A 
ATOM      4  C2  UNL d   1       1.287   2.744   1.555  0.00  0.00    -0.047 A 
ATOM      5  C3  UNL d   1       0.402   3.358   0.637  0.00  0.00    -0.047 A 
ATOM      6  C4  UNL d   1      -0.880   3.142   1.096  0.00  0.00    -0.004 A 
ENDROOT
TORSDOF 0
ENDMDL
