MODEL 1
REMARK minimizedAffinity 1.39786446
REMARK minimizedRMSD -1
REMARK  0 active torsions:
REMARK  status: ('A' for Active; 'I' for Inactive)
ROOT
ATOM      1  C   UNL d   1      -0.052   3.033   2.383  0.00  0.00     0.172 C 
ATOM      2  N   UNL d   1       0.051   3.816   1.174  0.00  0.00    -0.070 N 
ATOM      3  C1  UNL d   1       0.067   3.319  -0.101  0.00  0.00    -0.004 A 
ATOM      4  C2  UNL d   1       0.175   4.384  -0.969  0.00  0.00    -0.047 A 
ATOM      5  C3  UNL d   1       0.226   5.563  -0.188  0.00  0.00    -0.047 A 
ATOM      6  C4  UNL d   1       0.147   5.182   1.135  0.00  0.00    -0.004 A 
ENDROOT
TORSDOF 0
ENDMDL
