MODEL 1
REMARK minimizedAffinity 9.91687965
REMARK minimizedRMSD -1
REMARK  0 active torsions:
REMARK  status: ('A' for Active; 'I' for Inactive)
ROOT
ATOM      1  C   UNL d   1       5.270  -3.979  -3.613  0.00  0.00     0.172 C 
ATOM      2  N   UNL d   1       5.322  -3.308  -2.335  0.00  0.00    -0.070 N 
ATOM      3  C1  UNL d   1       4.729  -3.743  -1.180  0.00  0.00    -0.004 A 
ATOM      4  C2  UNL d   1       5.012  -2.827  -0.190  0.00  0.00    -0.047 A 
ATOM      5  C3  UNL d   1       5.801  -1.806  -0.770  0.00  0.00    -0.047 A 
ATOM      6  C4  UNL d   1       5.977  -2.128  -2.099  0.00  0.00    -0.004 A 
ENDROOT
TORSDOF 0
ENDMDL
