MODEL 1
REMARK minimizedAffinity 4.58137894
REMARK minimizedRMSD -1
REMARK  0 active torsions:
REMARK  status: ('A' for Active; 'I' for Inactive)
ROOT
ATOM      1  C   UNL d   1       3.073  -1.019   0.027  0.00  0.00     0.172 C 
ATOM      2  N   UNL d   1       4.118  -1.905  -0.427  0.00  0.00    -0.070 N 
ATOM      3  C1  UNL d   1       4.141  -3.264  -0.260  0.00  0.00    -0.004 A 
ATOM      4  C2  UNL d   1       5.301  -3.740  -0.831  0.00  0.00    -0.047 A 
ATOM      5  C3  UNL d   1       6.000  -2.629  -1.360  0.00  0.00    -0.047 A 
ATOM      6  C4  UNL d   1       5.245  -1.506  -1.096  0.00  0.00    -0.004 A 
ENDROOT
TORSDOF 0
ENDMDL
