MODEL 1
REMARK minimizedAffinity 6.2581501
REMARK minimizedRMSD -1
REMARK  0 active torsions:
REMARK  status: ('A' for Active; 'I' for Inactive)
ROOT
ATOM      1  C   UNL d   1       0.382   2.719   1.011  0.00  0.00     0.172 C 
ATOM      2  N   UNL d   1       0.007   3.968   0.391  0.00  0.00    -0.070 N 
ATOM      3  C1  UNL d   1      -0.673   4.989   1.001  0.00  0.00    -0.004 A 
ATOM      4  C2  UNL d   1      -0.834   5.999   0.077  0.00  0.00    -0.047 A 
ATOM      5  C3  UNL d   1      -0.232   5.570  -1.129  0.00  0.00    -0.047 A 
ATOM      6  C4  UNL d   1       0.281   4.309  -0.907  0.00  0.00    -0.004 A 
ENDROOT
TORSDOF 0
ENDMDL
