MODEL 1
REMARK minimizedAffinity 8.04646397
REMARK minimizedRMSD -1
REMARK  0 active torsions:
REMARK  status: ('A' for Active; 'I' for Inactive)
ROOT
ATOM      1  C   UNL d   1       0.262   2.843   1.749  0.00  0.00     0.172 C 
ATOM      2  N   UNL d   1       0.031   4.008   0.929  0.00  0.00    -0.070 N 
ATOM      3  C1  UNL d   1       0.507   4.197  -0.341  0.00  0.00    -0.004 A 
ATOM      4  C2  UNL d   1       0.067   5.429  -0.777  0.00  0.00    -0.047 A 
ATOM      5  C3  UNL d   1      -0.698   5.999   0.267  0.00  0.00    -0.047 A 
ATOM      6  C4  UNL d   1      -0.704   5.099   1.311  0.00  0.00    -0.004 A 
ENDROOT
TORSDOF 0
ENDMDL
