MODEL 1
REMARK minimizedAffinity 0.51214689
REMARK minimizedRMSD -1
REMARK  0 active torsions:
REMARK  status: ('A' for Active; 'I' for Inactive)
ROOT
ATOM      1  C   UNL d   1       1.204   0.755   3.075  0.00  0.00     0.172 C 
ATOM      2  N   UNL d   1       0.505   1.722   2.262  0.00  0.00    -0.070 N 
ATOM      3  C1  UNL d   1      -0.761   2.192   2.493  0.00  0.00    -0.004 A 
ATOM      4  C2  UNL d   1      -1.063   3.096   1.497  0.00  0.00    -0.047 A 
ATOM      5  C3  UNL d   1       0.059   3.171   0.638  0.00  0.00    -0.047 A 
ATOM      6  C4  UNL d   1       1.015   2.310   1.135  0.00  0.00    -0.004 A 
ENDROOT
TORSDOF 0
ENDMDL
