MODEL 1
REMARK minimizedAffinity 2.35478044
REMARK minimizedRMSD -1
REMARK  0 active torsions:
REMARK  status: ('A' for Active; 'I' for Inactive)
ROOT
ATOM      1  C   UNL d   1       1.056   1.007   3.830  0.00  0.00     0.172 C 
ATOM      2  N   UNL d   1       0.626   1.765   2.678  0.00  0.00    -0.070 N 
ATOM      3  C1  UNL d   1       1.252   1.790   1.461  0.00  0.00    -0.004 A 
ATOM      4  C2  UNL d   1       0.533   2.627   0.634  0.00  0.00    -0.047 A 
ATOM      5  C3  UNL d   1      -0.562   3.122   1.382  0.00  0.00    -0.047 A 
ATOM      6  C4  UNL d   1      -0.480   2.572   2.644  0.00  0.00    -0.004 A 
ENDROOT
TORSDOF 0
ENDMDL
