MODEL 1
REMARK minimizedAffinity 2.14332223
REMARK minimizedRMSD -1
REMARK  0 active torsions:
REMARK  status: ('A' for Active; 'I' for Inactive)
ROOT
ATOM      1  C   UNL d   1      -1.138   6.000  -2.239  0.00  0.00     0.172 C 
ATOM      2  N   UNL d   1      -0.546   5.168  -1.217  0.00  0.00    -0.070 N 
ATOM      3  C1  UNL d   1      -1.228   4.520  -0.222  0.00  0.00    -0.004 A 
ATOM      4  C2  UNL d   1      -0.308   3.835   0.542  0.00  0.00    -0.047 A 
ATOM      5  C3  UNL d   1       0.971   4.082  -0.012  0.00  0.00    -0.047 A 
ATOM      6  C4  UNL d   1       0.794   4.910  -1.100  0.00  0.00    -0.004 A 
ENDROOT
TORSDOF 0
ENDMDL
