MODEL 1
REMARK minimizedAffinity 4.19456387
REMARK minimizedRMSD -1
REMARK  0 active torsions:
REMARK  status: ('A' for Active; 'I' for Inactive)
ROOT
ATOM      1  C   UNL d   1      -0.111   3.775   0.493  0.00  0.00     0.172 C 
ATOM      2  N   UNL d   1      -0.047   2.944   1.672  0.00  0.00    -0.070 N 
ATOM      3  C1  UNL d   1      -1.110   2.318   2.266  0.00  0.00    -0.004 A 
ATOM      4  C2  UNL d   1      -0.636   1.625   3.359  0.00  0.00    -0.047 A 
ATOM      5  C3  UNL d   1       0.761   1.843   3.424  0.00  0.00    -0.047 A 
ATOM      6  C4  UNL d   1       1.099   2.663   2.368  0.00  0.00    -0.004 A 
ENDROOT
TORSDOF 0
ENDMDL
