MODEL 1
REMARK minimizedAffinity -1.66203725
REMARK minimizedRMSD -1
REMARK  1 active torsions:
REMARK  status: ('A' for Active; 'I' for Inactive)
REMARK    1  A    between atoms: N_2  and  C1_3 
ROOT
ATOM      1  C1  UNL d   1      -3.578  -1.604  -6.000  0.00  0.00     0.143 A 
ATOM      2  C2  UNL d   1      -3.427  -2.995  -5.977  0.00  0.00    -0.057 A 
ATOM      3  C3  UNL d   1      -4.539  -3.846  -5.992  0.00  0.00     0.033 A 
ATOM      4  C4  UNL d   1      -5.826  -3.318  -6.000  0.00  0.00    -0.042 A 
ATOM      5  C5  UNL d   1      -6.000  -1.939  -5.997  0.00  0.00     0.033 A 
ATOM      6  C6  UNL d   1      -4.885  -1.094  -5.989  0.00  0.00    -0.057 A 
ENDROOT
BRANCH   1   7
ATOM      7  N   UNL d   1      -2.514  -0.705  -5.887  0.00  0.00    -0.732 N 
ATOM      8  C   UNL d   1      -1.167  -1.181  -5.659  0.00  0.00     0.284 C 
ATOM      9  H3  UNL d   1      -2.578   0.057  -6.558  0.00  0.00     0.395 HD
ENDBRANCH   1   7
TORSDOF 1
ENDMDL
