MODEL 1
REMARK minimizedAffinity 4.52748299
REMARK minimizedRMSD -1
REMARK  1 active torsions:
REMARK  status: ('A' for Active; 'I' for Inactive)
REMARK    1  A    between atoms: N_2  and  C1_3 
ROOT
ATOM      1  C1  UNL d   1      -0.808  -1.826  -5.115  0.00  0.00     0.143 A 
ATOM      2  C2  UNL d   1      -1.550  -0.641  -5.148  0.00  0.00    -0.057 A 
ATOM      3  C3  UNL d   1      -2.885  -0.631  -5.572  0.00  0.00     0.033 A 
ATOM      4  C4  UNL d   1      -3.493  -1.807  -6.000  0.00  0.00    -0.042 A 
ATOM      5  C5  UNL d   1      -2.767  -2.992  -6.000  0.00  0.00     0.033 A 
ATOM      6  C6  UNL d   1      -1.437  -2.997  -5.569  0.00  0.00    -0.057 A 
ENDROOT
BRANCH   1   7
ATOM      7  N   UNL d   1       0.551  -1.885  -4.798  0.00  0.00    -0.732 N 
ATOM      8  C   UNL d   1       1.094  -1.073  -3.730  0.00  0.00     0.284 C 
ATOM      9  H3  UNL d   1       0.916  -2.834  -4.825  0.00  0.00     0.395 HD
ENDBRANCH   1   7
TORSDOF 1
ENDMDL
