MODEL 1
REMARK minimizedAffinity 2.39178753
REMARK minimizedRMSD -1
REMARK  1 active torsions:
REMARK  status: ('A' for Active; 'I' for Inactive)
REMARK    1  A    between atoms: N_2  and  C1_3 
ROOT
ATOM      1  C1  UNL d   1      -4.650   0.605   3.694  0.00  0.00     0.143 A 
ATOM      2  C2  UNL d   1      -4.851   1.878   3.149  0.00  0.00    -0.057 A 
ATOM      3  C3  UNL d   1      -4.395   2.197   1.865  0.00  0.00     0.033 A 
ATOM      4  C4  UNL d   1      -3.701   1.256   1.112  0.00  0.00    -0.042 A 
ATOM      5  C5  UNL d   1      -3.468  -0.008   1.644  0.00  0.00     0.033 A 
ATOM      6  C6  UNL d   1      -3.932  -0.323   2.924  0.00  0.00    -0.057 A 
ENDROOT
BRANCH   1   7
ATOM      7  N   UNL d   1      -4.993   0.257   5.003  0.00  0.00    -0.732 N 
ATOM      8  C   UNL d   1      -4.497  -0.968   5.594  0.00  0.00     0.284 C 
ATOM      9  H3  UNL d   1      -4.984   1.056   5.633  0.00  0.00     0.395 HD
ENDBRANCH   1   7
TORSDOF 1
ENDMDL
