MODEL 1
REMARK minimizedAffinity 1.54558122
REMARK minimizedRMSD -1
REMARK  1 active torsions:
REMARK  status: ('A' for Active; 'I' for Inactive)
REMARK    1  A    between atoms: N_2  and  C1_3 
ROOT
ATOM      1  C1  UNL d   1      -2.590  -1.797  -5.996  0.00  0.00     0.143 A 
ATOM      2  C2  UNL d   1      -3.050  -3.119  -5.987  0.00  0.00    -0.057 A 
ATOM      3  C3  UNL d   1      -4.419  -3.411  -6.000  0.00  0.00     0.033 A 
ATOM      4  C4  UNL d   1      -5.356  -2.383  -5.992  0.00  0.00    -0.042 A 
ATOM      5  C5  UNL d   1      -4.922  -1.062  -5.975  0.00  0.00     0.033 A 
ATOM      6  C6  UNL d   1      -3.553  -0.777  -5.969  0.00  0.00    -0.057 A 
ENDROOT
BRANCH   1   7
ATOM      7  N   UNL d   1      -1.244  -1.442  -5.885  0.00  0.00    -0.732 N 
ATOM      8  C   UNL d   1      -0.762  -0.735  -4.717  0.00  0.00     0.284 C 
ATOM      9  H3  UNL d   1      -0.620  -2.175  -6.214  0.00  0.00     0.395 HD
ENDBRANCH   1   7
TORSDOF 1
ENDMDL
