MODEL 1
REMARK minimizedAffinity 10.2819433
REMARK minimizedRMSD -1
REMARK  1 active torsions:
REMARK  status: ('A' for Active; 'I' for Inactive)
REMARK    1  A    between atoms: N_2  and  C1_3 
ROOT
ATOM      1  C1  UNL d   1      -0.936  -1.403  -5.675  0.00  0.00     0.143 A 
ATOM      2  C2  UNL d   1      -1.329  -2.737  -5.823  0.00  0.00    -0.057 A 
ATOM      3  C3  UNL d   1      -2.674  -3.083  -5.998  0.00  0.00     0.033 A 
ATOM      4  C4  UNL d   1      -3.657  -2.099  -6.000  0.00  0.00    -0.042 A 
ATOM      5  C5  UNL d   1      -3.292  -0.768  -5.829  0.00  0.00     0.033 A 
ATOM      6  C6  UNL d   1      -1.946  -0.428  -5.661  0.00  0.00    -0.057 A 
ENDROOT
BRANCH   1   7
ATOM      7  N   UNL d   1       0.374  -1.004  -5.399  0.00  0.00    -0.732 N 
ATOM      8  C   UNL d   1       0.823  -0.842  -4.032  0.00  0.00     0.284 C 
ATOM      9  H3  UNL d   1       1.054  -1.452  -6.009  0.00  0.00     0.395 HD
ENDBRANCH   1   7
TORSDOF 1
ENDMDL
