MODEL 1
REMARK minimizedAffinity 6.84428692
REMARK minimizedRMSD -1
REMARK  1 active torsions:
REMARK  status: ('A' for Active; 'I' for Inactive)
REMARK    1  A    between atoms: N_2  and  C1_3 
ROOT
ATOM      1  C1  UNL d   1      -0.316  -1.107  -4.524  0.00  0.00     0.143 A 
ATOM      2  C2  UNL d   1      -0.379  -2.299  -5.255  0.00  0.00    -0.057 A 
ATOM      3  C3  UNL d   1      -1.516  -2.635  -5.998  0.00  0.00     0.033 A 
ATOM      4  C4  UNL d   1      -2.626  -1.797  -6.000  0.00  0.00    -0.042 A 
ATOM      5  C5  UNL d   1      -2.596  -0.620  -5.261  0.00  0.00     0.033 A 
ATOM      6  C6  UNL d   1      -1.454  -0.286  -4.526  0.00  0.00    -0.057 A 
ENDROOT
BRANCH   1   7
ATOM      7  N   UNL d   1       0.749  -0.764  -3.687  0.00  0.00    -0.732 N 
ATOM      8  C   UNL d   1       2.024  -0.365  -4.242  0.00  0.00     0.284 C 
ATOM      9  H3  UNL d   1       0.451  -0.208  -2.889  0.00  0.00     0.395 HD
ENDBRANCH   1   7
TORSDOF 1
ENDMDL
