MODEL 1
REMARK minimizedAffinity 2.83963132
REMARK minimizedRMSD -1
REMARK  1 active torsions:
REMARK  status: ('A' for Active; 'I' for Inactive)
REMARK    1  A    between atoms: N_2  and  C1_3 
ROOT
ATOM      1  C1  UNL d   1      -4.261   1.952   3.210  0.00  0.00     0.143 A 
ATOM      2  C2  UNL d   1      -4.207   0.864   4.088  0.00  0.00    -0.057 A 
ATOM      3  C3  UNL d   1      -4.911   0.872   5.298  0.00  0.00     0.033 A 
ATOM      4  C4  UNL d   1      -5.662   1.984   5.665  0.00  0.00    -0.042 A 
ATOM      5  C5  UNL d   1      -5.710   3.086   4.820  0.00  0.00     0.033 A 
ATOM      6  C6  UNL d   1      -5.009   3.070   3.610  0.00  0.00    -0.057 A 
ENDROOT
BRANCH   1   7
ATOM      7  N   UNL d   1      -3.504   2.044   2.039  0.00  0.00    -0.732 N 
ATOM      8  C   UNL d   1      -2.099   1.697   2.040  0.00  0.00     0.284 C 
ATOM      9  H3  UNL d   1      -4.013   1.717   1.221  0.00  0.00     0.395 HD
ENDBRANCH   1   7
TORSDOF 1
ENDMDL
