MODEL 1
REMARK minimizedAffinity 4.63273573
REMARK minimizedRMSD -1
REMARK  1 active torsions:
REMARK  status: ('A' for Active; 'I' for Inactive)
REMARK    1  A    between atoms: N_2  and  C1_3 
ROOT
ATOM      1  C1  UNL d   1      -2.185  -1.395  -5.654  0.00  0.00     0.143 A 
ATOM      2  C2  UNL d   1      -1.917  -2.724  -6.000  0.00  0.00    -0.057 A 
ATOM      3  C3  UNL d   1      -2.926  -3.694  -5.993  0.00  0.00     0.033 A 
ATOM      4  C4  UNL d   1      -4.220  -3.357  -5.611  0.00  0.00    -0.042 A 
ATOM      5  C5  UNL d   1      -4.505  -2.047  -5.240  0.00  0.00     0.033 A 
ATOM      6  C6  UNL d   1      -3.494  -1.082  -5.255  0.00  0.00    -0.057 A 
ENDROOT
BRANCH   1   7
ATOM      7  N   UNL d   1      -1.204  -0.406  -5.547  0.00  0.00    -0.732 N 
ATOM      8  C   UNL d   1      -0.254  -0.425  -4.455  0.00  0.00     0.284 C 
ATOM      9  H3  UNL d   1      -0.797  -0.163  -6.447  0.00  0.00     0.395 HD
ENDBRANCH   1   7
TORSDOF 1
ENDMDL
