MODEL 1
REMARK minimizedAffinity 0.999529243
REMARK minimizedRMSD -1
REMARK  1 active torsions:
REMARK  status: ('A' for Active; 'I' for Inactive)
REMARK    1  A    between atoms: N_2  and  C1_3 
ROOT
ATOM      1  C1  UNL d   1       5.794  -3.170   4.813  0.00  0.00     0.143 A 
ATOM      2  C2  UNL d   1       5.661  -3.762   3.553  0.00  0.00    -0.057 A 
ATOM      3  C3  UNL d   1       5.355  -2.998   2.420  0.00  0.00     0.033 A 
ATOM      4  C4  UNL d   1       5.147  -1.628   2.533  0.00  0.00    -0.042 A 
ATOM      5  C5  UNL d   1       5.250  -1.021   3.780  0.00  0.00     0.033 A 
ATOM      6  C6  UNL d   1       5.562  -1.789   4.907  0.00  0.00    -0.057 A 
ENDROOT
BRANCH   1   7
ATOM      7  N   UNL d   1       6.000  -3.889   5.993  0.00  0.00    -0.732 N 
ATOM      8  C   UNL d   1       5.928  -5.335   5.997  0.00  0.00     0.284 C 
ATOM      9  H3  UNL d   1       6.760  -3.509   6.552  0.00  0.00     0.395 HD
ENDBRANCH   1   7
TORSDOF 1
ENDMDL
