MODEL 1
REMARK minimizedAffinity 1.25021195
REMARK minimizedRMSD -1
REMARK  1 active torsions:
REMARK  status: ('A' for Active; 'I' for Inactive)
REMARK    1  A    between atoms: N_2  and  C1_3 
ROOT
ATOM      1  C1  UNL d   1      -2.331  -1.763  -6.000  0.00  0.00     0.143 A 
ATOM      2  C2  UNL d   1      -3.064  -2.955  -5.974  0.00  0.00    -0.057 A 
ATOM      3  C3  UNL d   1      -4.464  -2.947  -5.988  0.00  0.00     0.033 A 
ATOM      4  C4  UNL d   1      -5.159  -1.743  -5.998  0.00  0.00    -0.042 A 
ATOM      5  C5  UNL d   1      -4.452  -0.545  -5.999  0.00  0.00     0.033 A 
ATOM      6  C6  UNL d   1      -3.054  -0.560  -5.992  0.00  0.00    -0.057 A 
ENDROOT
BRANCH   1   7
ATOM      7  N   UNL d   1      -0.940  -1.702  -5.888  0.00  0.00    -0.732 N 
ATOM      8  C   UNL d   1      -0.303  -0.595  -5.209  0.00  0.00     0.284 C 
ATOM      9  H3  UNL d   1      -0.527  -2.609  -5.683  0.00  0.00     0.395 HD
ENDBRANCH   1   7
TORSDOF 1
ENDMDL
