MODEL 1
REMARK minimizedAffinity 8.08441162
REMARK minimizedRMSD -1
REMARK  1 active torsions:
REMARK  status: ('A' for Active; 'I' for Inactive)
REMARK    1  A    between atoms: N_2  and  C1_3 
ROOT
ATOM      1  C1  UNL d   1      -3.891  -0.800   1.356  0.00  0.00     0.143 A 
ATOM      2  C2  UNL d   1      -2.570  -0.761   1.813  0.00  0.00    -0.057 A 
ATOM      3  C3  UNL d   1      -1.829   0.427   1.791  0.00  0.00     0.033 A 
ATOM      4  C4  UNL d   1      -2.390   1.594   1.284  0.00  0.00    -0.042 A 
ATOM      5  C5  UNL d   1      -3.693   1.573   0.802  0.00  0.00     0.033 A 
ATOM      6  C6  UNL d   1      -4.430   0.385   0.832  0.00  0.00    -0.057 A 
ENDROOT
BRANCH   1   7
ATOM      7  N   UNL d   1      -4.647  -1.971   1.259  0.00  0.00    -0.732 N 
ATOM      8  C   UNL d   1      -5.247  -2.360   0.001  0.00  0.00     0.284 C 
ATOM      9  H3  UNL d   1      -4.235  -2.743   1.779  0.00  0.00     0.395 HD
ENDBRANCH   1   7
TORSDOF 1
ENDMDL
