MODEL 1
REMARK minimizedAffinity 3.13510466
REMARK minimizedRMSD -1
REMARK  1 active torsions:
REMARK  status: ('A' for Active; 'I' for Inactive)
REMARK    1  A    between atoms: N_2  and  C1_3 
ROOT
ATOM      1  C1  UNL d   1      -1.671  -1.245  -5.643  0.00  0.00     0.143 A 
ATOM      2  C2  UNL d   1      -2.721  -0.329  -5.514  0.00  0.00    -0.057 A 
ATOM      3  C3  UNL d   1      -4.057  -0.739  -5.598  0.00  0.00     0.033 A 
ATOM      4  C4  UNL d   1      -4.368  -2.072  -5.843  0.00  0.00    -0.042 A 
ATOM      5  C5  UNL d   1      -3.341  -2.996  -6.000  0.00  0.00     0.033 A 
ATOM      6  C6  UNL d   1      -2.008  -2.582  -5.908  0.00  0.00    -0.057 A 
ENDROOT
BRANCH   1   7
ATOM      7  N   UNL d   1      -0.322  -0.884  -5.668  0.00  0.00    -0.732 N 
ATOM      8  C   UNL d   1       0.472  -0.917  -4.458  0.00  0.00     0.284 C 
ATOM      9  H3  UNL d   1       0.160  -1.238  -6.491  0.00  0.00     0.395 HD
ENDBRANCH   1   7
TORSDOF 1
ENDMDL
