MODEL 1
REMARK minimizedAffinity 5.00625467
REMARK minimizedRMSD -1
REMARK  1 active torsions:
REMARK  status: ('A' for Active; 'I' for Inactive)
REMARK    1  A    between atoms: N_2  and  C1_3 
ROOT
ATOM      1  C1  UNL d   1      -2.159  -2.052  -5.921  0.00  0.00     0.143 A 
ATOM      2  C2  UNL d   1      -2.772  -0.795  -5.937  0.00  0.00    -0.057 A 
ATOM      3  C3  UNL d   1      -4.166  -0.668  -5.957  0.00  0.00     0.033 A 
ATOM      4  C4  UNL d   1      -4.974  -1.800  -5.991  0.00  0.00    -0.042 A 
ATOM      5  C5  UNL d   1      -4.385  -3.060  -6.000  0.00  0.00     0.033 A 
ATOM      6  C6  UNL d   1      -2.993  -3.180  -5.973  0.00  0.00    -0.057 A 
ENDROOT
BRANCH   1   7
ATOM      7  N   UNL d   1      -0.777  -2.245  -6.000  0.00  0.00    -0.732 N 
ATOM      8  C   UNL d   1       0.107  -1.658  -5.015  0.00  0.00     0.284 C 
ATOM      9  H3  UNL d   1      -0.532  -3.196  -6.264  0.00  0.00     0.395 HD
ENDBRANCH   1   7
TORSDOF 1
ENDMDL
