MODEL 1
REMARK minimizedAffinity 1.30537081
REMARK minimizedRMSD -1
REMARK  1 active torsions:
REMARK  status: ('A' for Active; 'I' for Inactive)
REMARK    1  A    between atoms: N_2  and  C1_3 
ROOT
ATOM      1  C1  UNL d   1      -3.919  -1.911  -5.507  0.00  0.00     0.143 A 
ATOM      2  C2  UNL d   1      -3.347  -0.750  -4.975  0.00  0.00    -0.057 A 
ATOM      3  C3  UNL d   1      -1.960  -0.558  -4.978  0.00  0.00     0.033 A 
ATOM      4  C4  UNL d   1      -1.117  -1.539  -5.489  0.00  0.00    -0.042 A 
ATOM      5  C5  UNL d   1      -1.662  -2.711  -6.000  0.00  0.00     0.033 A 
ATOM      6  C6  UNL d   1      -3.048  -2.895  -6.000  0.00  0.00    -0.057 A 
ENDROOT
BRANCH   1   7
ATOM      7  N   UNL d   1      -5.284  -2.204  -5.443  0.00  0.00    -0.732 N 
ATOM      8  C   UNL d   1      -5.993  -2.146  -4.183  0.00  0.00     0.284 C 
ATOM      9  H3  UNL d   1      -5.801  -1.817  -6.230  0.00  0.00     0.395 HD
ENDBRANCH   1   7
TORSDOF 1
ENDMDL
