MODEL 1
REMARK minimizedAffinity 13.3896875
REMARK minimizedRMSD -1
REMARK  0 active torsions:
REMARK  status: ('A' for Active; 'I' for Inactive)
ROOT
ATOM      1  N1  IND d   1      -0.786  -1.673  -3.192  0.00  0.00    -0.196 N 
ATOM      2  C2  IND d   1      -0.196  -2.676  -2.475  0.00  0.00     0.054 A 
ATOM      3  C3  IND d   1      -0.782  -3.862  -2.754  0.00  0.00    -0.031 A 
ATOM      4  C4  IND d   1      -2.659  -4.404  -4.431  0.00  0.00     0.051 A 
ATOM      5  C5  IND d   1      -3.539  -3.810  -5.292  0.00  0.00    -0.031 A 
ATOM      6  C6  IND d   1      -3.544  -2.446  -5.503  0.00  0.00     0.015 A 
ATOM      7  C7  IND d   1      -2.658  -1.623  -4.867  0.00  0.00    -0.016 A 
ATOM      8  C8  IND d   1      -1.768  -2.222  -3.987  0.00  0.00    -0.047 A 
ATOM      9  C9  IND d   1      -1.786  -3.600  -3.736  0.00  0.00    -0.096 A 
ATOM     10  HN1 IND d   1      -0.578  -0.840  -3.153  0.00  0.00     0.298 HD
ENDROOT
TORSDOF 0
ENDMDL
