MODEL 1
REMARK minimizedAffinity 8.83935833
REMARK minimizedRMSD -1
REMARK  0 active torsions:
REMARK  status: ('A' for Active; 'I' for Inactive)
ROOT
ATOM      1  N1  IND d   1       3.678   1.361   1.118  0.00  0.00    -0.196 N 
ATOM      2  C2  IND d   1       2.626   0.650   0.613  0.00  0.00     0.054 A 
ATOM      3  C3  IND d   1       2.618   0.718  -0.737  0.00  0.00    -0.031 A 
ATOM      4  C4  IND d   1       4.292   1.856  -2.328  0.00  0.00     0.051 A 
ATOM      5  C5  IND d   1       5.397   2.660  -2.333  0.00  0.00    -0.031 A 
ATOM      6  C6  IND d   1       6.000   3.078  -1.164  0.00  0.00     0.015 A 
ATOM      7  C7  IND d   1       5.524   2.697   0.059  0.00  0.00    -0.016 A 
ATOM      8  C8  IND d   1       4.398   1.887   0.068  0.00  0.00    -0.047 A 
ATOM      9  C9  IND d   1       3.757   1.494  -1.114  0.00  0.00    -0.096 A 
ATOM     10  HN1 IND d   1       3.860   1.464   1.953  0.00  0.00     0.298 HD
ENDROOT
TORSDOF 0
ENDMDL
