MODEL 1
REMARK minimizedAffinity 14.0211325
REMARK minimizedRMSD -1
REMARK  0 active torsions:
REMARK  status: ('A' for Active; 'I' for Inactive)
ROOT
ATOM      1  N1  IND d   1       5.884   4.789  -3.601  0.00  0.00    -0.196 N 
ATOM      2  C2  IND d   1       5.935   6.000  -2.970  0.00  0.00     0.054 A 
ATOM      3  C3  IND d   1       5.950   5.830  -1.628  0.00  0.00    -0.031 A 
ATOM      4  C4  IND d   1       6.000   3.653  -0.255  0.00  0.00     0.051 A 
ATOM      5  C5  IND d   1       5.930   2.295  -0.387  0.00  0.00    -0.031 A 
ATOM      6  C6  IND d   1       5.842   1.686  -1.622  0.00  0.00     0.015 A 
ATOM      7  C7  IND d   1       5.832   2.415  -2.777  0.00  0.00    -0.016 A 
ATOM      8  C8  IND d   1       5.896   3.795  -2.647  0.00  0.00    -0.047 A 
ATOM      9  C9  IND d   1       5.942   4.421  -1.394  0.00  0.00    -0.096 A 
ATOM     10  HN1 IND d   1       5.850   4.668  -4.452  0.00  0.00     0.298 HD
ENDROOT
TORSDOF 0
ENDMDL
