MODEL 1
REMARK minimizedAffinity -3.16301918
REMARK minimizedRMSD -1
REMARK  0 active torsions:
REMARK  status: ('A' for Active; 'I' for Inactive)
ROOT
ATOM      1  N1  IND d   1       4.864  -2.018   3.278  0.00  0.00    -0.196 N 
ATOM      2  C2  IND d   1       5.941  -1.329   3.760  0.00  0.00     0.054 A 
ATOM      3  C3  IND d   1       5.999  -0.098   3.204  0.00  0.00    -0.031 A 
ATOM      4  C4  IND d   1       4.373   1.032   1.559  0.00  0.00     0.051 A 
ATOM      5  C5  IND d   1       3.260   0.787   0.805  0.00  0.00    -0.031 A 
ATOM      6  C6  IND d   1       2.610  -0.430   0.840  0.00  0.00     0.015 A 
ATOM      7  C7  IND d   1       3.044  -1.447   1.642  0.00  0.00    -0.016 A 
ATOM      8  C8  IND d   1       4.178  -1.204   2.403  0.00  0.00    -0.047 A 
ATOM      9  C9  IND d   1       4.867   0.014   2.341  0.00  0.00    -0.096 A 
ATOM     10  HN1 IND d   1       4.650  -2.824   3.486  0.00  0.00     0.298 HD
ENDROOT
TORSDOF 0
ENDMDL
