MODEL 1
REMARK minimizedAffinity 7.04484272
REMARK minimizedRMSD -1
REMARK  0 active torsions:
REMARK  status: ('A' for Active; 'I' for Inactive)
ROOT
ATOM      1  N1  IND d   1       0.963   2.598  -0.614  0.00  0.00    -0.196 N 
ATOM      2  C2  IND d   1       1.609   1.413  -0.830  0.00  0.00     0.054 A 
ATOM      3  C3  IND d   1       2.290   1.040   0.277  0.00  0.00    -0.031 A 
ATOM      4  C4  IND d   1       2.400   2.171   2.588  0.00  0.00     0.051 A 
ATOM      5  C5  IND d   1       2.003   3.294   3.257  0.00  0.00    -0.031 A 
ATOM      6  C6  IND d   1       1.221   4.261   2.659  0.00  0.00     0.015 A 
ATOM      7  C7  IND d   1       0.796   4.135   1.367  0.00  0.00    -0.016 A 
ATOM      8  C8  IND d   1       1.203   2.999   0.682  0.00  0.00    -0.047 A 
ATOM      9  C9  IND d   1       2.031   2.035   1.270  0.00  0.00    -0.096 A 
ATOM     10  HN1 IND d   1       0.486   3.022  -1.191  0.00  0.00     0.298 HD
ENDROOT
TORSDOF 0
ENDMDL
