MODEL 1
REMARK minimizedAffinity 24.1818409
REMARK minimizedRMSD -1
REMARK  0 active torsions:
REMARK  status: ('A' for Active; 'I' for Inactive)
ROOT
ATOM      1  N1  IND d   1      -2.466   0.013  -2.548  0.00  0.00    -0.196 N 
ATOM      2  C2  IND d   1      -1.697   0.574  -1.566  0.00  0.00     0.054 A 
ATOM      3  C3  IND d   1      -2.430   0.763  -0.446  0.00  0.00    -0.031 A 
ATOM      4  C4  IND d   1      -4.879   0.133   0.033  0.00  0.00     0.051 A 
ATOM      5  C5  IND d   1      -6.000  -0.369  -0.568  0.00  0.00    -0.031 A 
ATOM      6  C6  IND d   1      -5.999  -0.780  -1.886  0.00  0.00     0.015 A 
ATOM      7  C7  IND d   1      -4.869  -0.714  -2.651  0.00  0.00    -0.016 A 
ATOM      8  C8  IND d   1      -3.731  -0.199  -2.046  0.00  0.00    -0.047 A 
ATOM      9  C9  IND d   1      -3.737   0.259  -0.722  0.00  0.00    -0.096 A 
ATOM     10  HN1 IND d   1      -2.203  -0.176  -3.344  0.00  0.00     0.298 HD
ENDROOT
TORSDOF 0
ENDMDL
