MODEL 1
REMARK minimizedAffinity 3.09515786
REMARK minimizedRMSD -1
REMARK  0 active torsions:
REMARK  status: ('A' for Active; 'I' for Inactive)
ROOT
ATOM      1  N1  IND d   1       6.000   3.087  -0.979  0.00  0.00    -0.196 N 
ATOM      2  C2  IND d   1       5.987   2.987  -2.342  0.00  0.00     0.054 A 
ATOM      3  C3  IND d   1       4.911   2.277  -2.752  0.00  0.00    -0.031 A 
ATOM      4  C4  IND d   1       2.989   1.274  -1.363  0.00  0.00     0.051 A 
ATOM      5  C5  IND d   1       2.581   1.077  -0.074  0.00  0.00    -0.031 A 
ATOM      6  C6  IND d   1       3.304   1.551   1.001  0.00  0.00     0.015 A 
ATOM      7  C7  IND d   1       4.463   2.254   0.825  0.00  0.00    -0.016 A 
ATOM      8  C8  IND d   1       4.884   2.450  -0.482  0.00  0.00    -0.047 A 
ATOM      9  C9  IND d   1       4.176   1.935  -1.575  0.00  0.00    -0.096 A 
ATOM     10  HN1 IND d   1       6.604   3.482  -0.511  0.00  0.00     0.298 HD
ENDROOT
TORSDOF 0
ENDMDL
