MODEL 1
REMARK minimizedAffinity 9.86802578
REMARK minimizedRMSD -1
REMARK  0 active torsions:
REMARK  status: ('A' for Active; 'I' for Inactive)
ROOT
ATOM      1  N1  IND d   1       0.619   3.484   2.224  0.00  0.00    -0.196 N 
ATOM      2  C2  IND d   1       1.326   3.817   3.346  0.00  0.00     0.054 A 
ATOM      3  C3  IND d   1       2.593   3.352   3.260  0.00  0.00    -0.031 A 
ATOM      4  C4  IND d   1       3.749   2.106   1.327  0.00  0.00     0.051 A 
ATOM      5  C5  IND d   1       3.501   1.544   0.106  0.00  0.00    -0.031 A 
ATOM      6  C6  IND d   1       2.255   1.603  -0.484  0.00  0.00     0.015 A 
ATOM      7  C7  IND d   1       1.209   2.239   0.122  0.00  0.00    -0.016 A 
ATOM      8  C8  IND d   1       1.456   2.805   1.365  0.00  0.00    -0.047 A 
ATOM      9  C9  IND d   1       2.707   2.712   1.988  0.00  0.00    -0.096 A 
ATOM     10  HN1 IND d   1      -0.208   3.666   2.080  0.00  0.00     0.298 HD
ENDROOT
TORSDOF 0
ENDMDL
