MODEL 1
REMARK minimizedAffinity 5.99137974
REMARK minimizedRMSD -1
REMARK  0 active torsions:
REMARK  status: ('A' for Active; 'I' for Inactive)
ROOT
ATOM      1  N1  IND d   1       3.983  -1.158   2.072  0.00  0.00    -0.196 N 
ATOM      2  C2  IND d   1       2.620  -1.213   2.157  0.00  0.00     0.054 A 
ATOM      3  C3  IND d   1       2.224  -1.116   3.446  0.00  0.00    -0.031 A 
ATOM      4  C4  IND d   1       3.638  -0.760   5.568  0.00  0.00     0.051 A 
ATOM      5  C5  IND d   1       4.932  -0.685   6.000  0.00  0.00    -0.031 A 
ATOM      6  C6  IND d   1       5.998  -0.763   5.127  0.00  0.00     0.015 A 
ATOM      7  C7  IND d   1       5.808  -0.908   3.782  0.00  0.00    -0.016 A 
ATOM      8  C8  IND d   1       4.495  -0.991   3.340  0.00  0.00    -0.047 A 
ATOM      9  C9  IND d   1       3.410  -0.956   4.226  0.00  0.00    -0.096 A 
ATOM     10  HN1 IND d   1       4.443  -1.218   1.348  0.00  0.00     0.298 HD
ENDROOT
TORSDOF 0
ENDMDL
