MODEL 1
REMARK minimizedAffinity -0.53510505
REMARK minimizedRMSD -1
REMARK  0 active torsions:
REMARK  status: ('A' for Active; 'I' for Inactive)
ROOT
ATOM      1  N1  IND d   1       4.366   1.969  -2.508  0.00  0.00    -0.196 N 
ATOM      2  C2  IND d   1       5.594   2.554  -2.368  0.00  0.00     0.054 A 
ATOM      3  C3  IND d   1       5.988   2.516  -1.075  0.00  0.00    -0.031 A 
ATOM      4  C4  IND d   1       4.824   1.451   0.959  0.00  0.00     0.051 A 
ATOM      5  C5  IND d   1       3.665   0.832   1.335  0.00  0.00    -0.031 A 
ATOM      6  C6  IND d   1       2.662   0.551   0.430  0.00  0.00     0.015 A 
ATOM      7  C7  IND d   1       2.785   0.871  -0.893  0.00  0.00    -0.016 A 
ATOM      8  C8  IND d   1       3.958   1.507  -1.276  0.00  0.00    -0.047 A 
ATOM      9  C9  IND d   1       4.961   1.833  -0.355  0.00  0.00    -0.096 A 
ATOM     10  HN1 IND d   1       3.924   1.901  -3.242  0.00  0.00     0.298 HD
ENDROOT
TORSDOF 0
ENDMDL
