MODEL 1
REMARK minimizedAffinity 5.1244607
REMARK minimizedRMSD -1
REMARK  0 active torsions:
REMARK  status: ('A' for Active; 'I' for Inactive)
ROOT
ATOM      1  N1  IND d   1       0.299   2.266   4.918  0.00  0.00    -0.196 N 
ATOM      2  C2  IND d   1       1.324   1.764   5.671  0.00  0.00     0.054 A 
ATOM      3  C3  IND d   1       2.500   1.912   5.021  0.00  0.00    -0.031 A 
ATOM      4  C4  IND d   1       2.990   3.039   2.759  0.00  0.00     0.051 A 
ATOM      5  C5  IND d   1       2.369   3.613   1.685  0.00  0.00    -0.031 A 
ATOM      6  C6  IND d   1       1.000   3.773   1.634  0.00  0.00     0.015 A 
ATOM      7  C7  IND d   1       0.197   3.373   2.664  0.00  0.00    -0.016 A 
ATOM      8  C8  IND d   1       0.823   2.784   3.753  0.00  0.00    -0.047 A 
ATOM      9  C9  IND d   1       2.208   2.580   3.793  0.00  0.00    -0.096 A 
ATOM     10  HN1 IND d   1      -0.533   2.259   5.135  0.00  0.00     0.298 HD
ENDROOT
TORSDOF 0
ENDMDL
