MODEL 1
REMARK minimizedAffinity 8.93330193
REMARK minimizedRMSD -1
REMARK  0 active torsions:
REMARK  status: ('A' for Active; 'I' for Inactive)
ROOT
ATOM      1  N1  IND d   1       2.934  -1.499   2.438  0.00  0.00    -0.196 N 
ATOM      2  C2  IND d   1       3.660  -1.001   3.484  0.00  0.00     0.054 A 
ATOM      3  C3  IND d   1       4.186   0.202   3.161  0.00  0.00    -0.031 A 
ATOM      4  C4  IND d   1       3.900   1.589   1.011  0.00  0.00     0.051 A 
ATOM      5  C5  IND d   1       3.356   1.534  -0.242  0.00  0.00    -0.031 A 
ATOM      6  C6  IND d   1       2.627   0.444  -0.673  0.00  0.00     0.015 A 
ATOM      7  C7  IND d   1       2.404  -0.631   0.140  0.00  0.00    -0.016 A 
ATOM      8  C8  IND d   1       2.960  -0.581   1.410  0.00  0.00    -0.047 A 
ATOM      9  C9  IND d   1       3.737   0.503   1.839  0.00  0.00    -0.096 A 
ATOM     10  HN1 IND d   1       2.529  -2.257   2.424  0.00  0.00     0.298 HD
ENDROOT
TORSDOF 0
ENDMDL
