MODEL 1
REMARK minimizedAffinity 16.2924576
REMARK minimizedRMSD -1
REMARK  0 active torsions:
REMARK  status: ('A' for Active; 'I' for Inactive)
ROOT
ATOM      1  N1  IND d   1       3.374   0.732   1.170  0.00  0.00    -0.196 N 
ATOM      2  C2  IND d   1       2.432   0.148   0.370  0.00  0.00     0.054 A 
ATOM      3  C3  IND d   1       2.641   0.483  -0.923  0.00  0.00    -0.031 A 
ATOM      4  C4  IND d   1       4.528   1.892  -1.963  0.00  0.00     0.051 A 
ATOM      5  C5  IND d   1       5.603   2.667  -1.629  0.00  0.00    -0.031 A 
ATOM      6  C6  IND d   1       6.000   2.838  -0.319  0.00  0.00     0.015 A 
ATOM      7  C7  IND d   1       5.340   2.228   0.710  0.00  0.00    -0.016 A 
ATOM      8  C8  IND d   1       4.243   1.446   0.376  0.00  0.00    -0.047 A 
ATOM      9  C9  IND d   1       3.810   1.303  -0.949  0.00  0.00    -0.096 A 
ATOM     10  HN1 IND d   1       3.416   0.665   2.027  0.00  0.00     0.298 HD
ENDROOT
TORSDOF 0
ENDMDL
