MODEL 1
REMARK minimizedAffinity 9.65852833
REMARK minimizedRMSD -1
REMARK  0 active torsions:
REMARK  status: ('A' for Active; 'I' for Inactive)
ROOT
ATOM      1  N1  IND d   1       2.899   0.663  -1.858  0.00  0.00    -0.196 N 
ATOM      2  C2  IND d   1       2.402   0.444  -0.603  0.00  0.00     0.054 A 
ATOM      3  C3  IND d   1       3.144   1.099   0.318  0.00  0.00    -0.031 A 
ATOM      4  C4  IND d   1       5.156   2.670  -0.020  0.00  0.00     0.051 A 
ATOM      5  C5  IND d   1       5.998   3.150  -0.983  0.00  0.00    -0.031 A 
ATOM      6  C6  IND d   1       5.845   2.822  -2.315  0.00  0.00     0.015 A 
ATOM      7  C7  IND d   1       4.833   2.006  -2.736  0.00  0.00    -0.016 A 
ATOM      8  C8  IND d   1       3.981   1.511  -1.759  0.00  0.00    -0.047 A 
ATOM      9  C9  IND d   1       4.156   1.806  -0.401  0.00  0.00    -0.096 A 
ATOM     10  HN1 IND d   1       2.588   0.328  -2.586  0.00  0.00     0.298 HD
ENDROOT
TORSDOF 0
ENDMDL
