MODEL 1
REMARK minimizedAffinity -2.5082655
REMARK minimizedRMSD -1
REMARK  1 active torsions:
REMARK  status: ('A' for Active; 'I' for Inactive)
REMARK    1  A    between atoms: C1_2  and  C2_3 
ROOT
ATOM      1  C2  UNL d   1      -0.049   3.658  -5.998  0.00  0.00    -0.077 A 
ATOM      2  C3  UNL d   1      -0.142   5.057  -5.997  0.00  0.00     0.002 A 
ATOM      3  C4  UNL d   1      -1.391   5.682  -5.998  0.00  0.00     0.002 A 
ATOM      4  C5  UNL d   1      -2.555   4.916  -5.997  0.00  0.00    -0.004 A 
ATOM      5  C6  UNL d   1      -2.473   3.525  -6.000  0.00  0.00     0.002 A 
ATOM      6  C7  UNL d   1      -1.226   2.898  -6.000  0.00  0.00     0.002 A 
ENDROOT
BRANCH   1   7
ATOM      7  C1  UNL d   1       1.296   2.983  -5.946  0.00  0.00     0.055 C 
ATOM      8  C   UNL d   1       2.428   3.998  -5.997  0.00  0.00     0.019 C 
ENDBRANCH   1   7
TORSDOF 1
ENDMDL
