MODEL 1
REMARK minimizedAffinity -1.6074568
REMARK minimizedRMSD -1
REMARK  1 active torsions:
REMARK  status: ('A' for Active; 'I' for Inactive)
REMARK    1  A    between atoms: C1_2  and  C2_3 
ROOT
ATOM      1  C2  UNL d   1      -0.115   4.549  -5.864  0.00  0.00    -0.077 A 
ATOM      2  C3  UNL d   1      -0.174   3.155  -6.000  0.00  0.00     0.002 A 
ATOM      3  C4  UNL d   1      -1.398   2.488  -5.919  0.00  0.00     0.002 A 
ATOM      4  C5  UNL d   1      -2.572   3.207  -5.706  0.00  0.00    -0.004 A 
ATOM      5  C6  UNL d   1      -2.524   4.594  -5.568  0.00  0.00     0.002 A 
ATOM      6  C7  UNL d   1      -1.301   5.262  -5.647  0.00  0.00     0.002 A 
ENDROOT
BRANCH   1   7
ATOM      7  C1  UNL d   1       1.198   5.275  -6.000  0.00  0.00     0.055 C 
ATOM      8  C   UNL d   1       2.370   4.304  -5.994  0.00  0.00     0.019 C 
ENDBRANCH   1   7
TORSDOF 1
ENDMDL
