MODEL 1
REMARK minimizedAffinity 3.88694477
REMARK minimizedRMSD -1
REMARK  1 active torsions:
REMARK  status: ('A' for Active; 'I' for Inactive)
REMARK    1  A    between atoms: C1_2  and  C2_3 
ROOT
ATOM      1  C2  UNL d   1      -0.561   0.229   0.049  0.00  0.00    -0.077 A 
ATOM      2  C3  UNL d   1      -0.100   0.759  -1.164  0.00  0.00     0.002 A 
ATOM      3  C4  UNL d   1       0.639   1.943  -1.183  0.00  0.00     0.002 A 
ATOM      4  C5  UNL d   1       0.927   2.606   0.009  0.00  0.00    -0.004 A 
ATOM      5  C6  UNL d   1       0.471   2.088   1.221  0.00  0.00     0.002 A 
ATOM      6  C7  UNL d   1      -0.268   0.905   1.241  0.00  0.00     0.002 A 
ENDROOT
BRANCH   1   7
ATOM      7  C1  UNL d   1      -1.315  -1.074   0.076  0.00  0.00     0.055 C 
ATOM      8  C   UNL d   1      -1.869  -1.421  -1.298  0.00  0.00     0.019 C 
ENDBRANCH   1   7
TORSDOF 1
ENDMDL
