MODEL 1
REMARK minimizedAffinity -1.2596966
REMARK minimizedRMSD -1
REMARK  1 active torsions:
REMARK  status: ('A' for Active; 'I' for Inactive)
REMARK    1  A    between atoms: C1_2  and  C2_3 
ROOT
ATOM      1  C2  UNL d   1      -0.725   4.134  -5.965  0.00  0.00    -0.077 A 
ATOM      2  C3  UNL d   1       0.250   5.142  -5.984  0.00  0.00     0.002 A 
ATOM      3  C4  UNL d   1       1.607   4.812  -5.999  0.00  0.00     0.002 A 
ATOM      4  C5  UNL d   1       2.000   3.475  -6.000  0.00  0.00    -0.004 A 
ATOM      5  C6  UNL d   1       1.038   2.466  -5.979  0.00  0.00     0.002 A 
ATOM      6  C7  UNL d   1      -0.318   2.794  -5.963  0.00  0.00     0.002 A 
ENDROOT
BRANCH   1   7
ATOM      7  C1  UNL d   1      -2.189   4.488  -5.999  0.00  0.00     0.055 C 
ATOM      8  C   UNL d   1      -2.394   5.996  -5.999  0.00  0.00     0.019 C 
ENDBRANCH   1   7
TORSDOF 1
ENDMDL
