MODEL 1
REMARK minimizedAffinity 0.386954188
REMARK minimizedRMSD -1
REMARK  1 active torsions:
REMARK  status: ('A' for Active; 'I' for Inactive)
REMARK    1  A    between atoms: C1_2  and  C2_3 
ROOT
ATOM      1  C2  UNL d   1      -0.237   4.211  -5.917  0.00  0.00    -0.077 A 
ATOM      2  C3  UNL d   1      -1.120   3.123  -5.960  0.00  0.00     0.002 A 
ATOM      3  C4  UNL d   1      -2.500   3.335  -5.999  0.00  0.00     0.002 A 
ATOM      4  C5  UNL d   1      -3.008   4.632  -5.998  0.00  0.00    -0.004 A 
ATOM      5  C6  UNL d   1      -2.138   5.721  -5.953  0.00  0.00     0.002 A 
ATOM      6  C7  UNL d   1      -0.758   5.511  -5.913  0.00  0.00     0.002 A 
ENDROOT
BRANCH   1   7
ATOM      7  C1  UNL d   1       1.252   3.986  -5.925  0.00  0.00     0.055 C 
ATOM      8  C   UNL d   1       2.011   5.303  -5.994  0.00  0.00     0.019 C 
ENDBRANCH   1   7
TORSDOF 1
ENDMDL
