MODEL 1
REMARK minimizedAffinity -2.60413218
REMARK minimizedRMSD -1
REMARK  1 active torsions:
REMARK  status: ('A' for Active; 'I' for Inactive)
REMARK    1  A    between atoms: C1_2  and  C2_3 
ROOT
ATOM      1  C2  UNL d   1      -3.051   4.721  -5.962  0.00  0.00    -0.077 A 
ATOM      2  C3  UNL d   1      -1.971   5.616  -5.965  0.00  0.00     0.002 A 
ATOM      3  C4  UNL d   1      -0.659   5.139  -5.982  0.00  0.00     0.002 A 
ATOM      4  C5  UNL d   1      -0.414   3.767  -5.999  0.00  0.00    -0.004 A 
ATOM      5  C6  UNL d   1      -1.481   2.870  -5.994  0.00  0.00     0.002 A 
ATOM      6  C7  UNL d   1      -2.794   3.345  -5.976  0.00  0.00     0.002 A 
ENDROOT
BRANCH   1   7
ATOM      7  C1  UNL d   1      -4.467   5.234  -5.994  0.00  0.00     0.055 C 
ATOM      8  C   UNL d   1      -4.836   5.922  -4.688  0.00  0.00     0.019 C 
ENDBRANCH   1   7
TORSDOF 1
ENDMDL
