MODEL 1
REMARK minimizedAffinity -2.18927193
REMARK minimizedRMSD -1
REMARK  1 active torsions:
REMARK  status: ('A' for Active; 'I' for Inactive)
REMARK    1  A    between atoms: C1_2  and  C2_3 
ROOT
ATOM      1  C2  UNL d   1      -0.067   3.713  -5.999  0.00  0.00    -0.077 A 
ATOM      2  C3  UNL d   1      -0.503   5.045  -5.998  0.00  0.00     0.002 A 
ATOM      3  C4  UNL d   1      -1.867   5.341  -5.999  0.00  0.00     0.002 A 
ATOM      4  C5  UNL d   1      -2.806   4.311  -5.996  0.00  0.00    -0.004 A 
ATOM      5  C6  UNL d   1      -2.382   2.983  -5.999  0.00  0.00     0.002 A 
ATOM      6  C7  UNL d   1      -1.019   2.685  -6.000  0.00  0.00     0.002 A 
ENDROOT
BRANCH   1   7
ATOM      7  C1  UNL d   1       1.404   3.391  -5.949  0.00  0.00     0.055 C 
ATOM      8  C   UNL d   1       2.249   4.655  -5.999  0.00  0.00     0.019 C 
ENDBRANCH   1   7
TORSDOF 1
ENDMDL
