MODEL 1
REMARK minimizedAffinity -3.38181186
REMARK minimizedRMSD -1
REMARK  1 active torsions:
REMARK  status: ('A' for Active; 'I' for Inactive)
REMARK    1  A    between atoms: C1_2  and  C2_3 
ROOT
ATOM      1  C2  UNL d   1      -0.848   3.784  -6.000  0.00  0.00    -0.077 A 
ATOM      2  C3  UNL d   1       0.408   3.160  -5.998  0.00  0.00     0.002 A 
ATOM      3  C4  UNL d   1       1.576   3.924  -5.996  0.00  0.00     0.002 A 
ATOM      4  C5  UNL d   1       1.500   5.316  -5.992  0.00  0.00    -0.004 A 
ATOM      5  C6  UNL d   1       0.256   5.945  -5.997  0.00  0.00     0.002 A 
ATOM      6  C7  UNL d   1      -0.913   5.183  -6.000  0.00  0.00     0.002 A 
ENDROOT
BRANCH   1   7
ATOM      7  C1  UNL d   1      -2.109   2.961  -5.952  0.00  0.00     0.055 C 
ATOM      8  C   UNL d   1      -3.348   3.844  -5.990  0.00  0.00     0.019 C 
ENDBRANCH   1   7
TORSDOF 1
ENDMDL
