MODEL 1
REMARK minimizedAffinity 4.12788153
REMARK minimizedRMSD -1
REMARK  1 active torsions:
REMARK  status: ('A' for Active; 'I' for Inactive)
REMARK    1  A    between atoms: N_2  and  C1_3 
ROOT
ATOM      1  C1  UNL d   1       4.379  -2.683   3.872  0.00  0.00     0.143 A 
ATOM      2  C2  UNL d   1       4.502  -4.076   3.916  0.00  0.00    -0.057 A 
ATOM      3  C3  UNL d   1       5.159  -4.714   4.976  0.00  0.00     0.033 A 
ATOM      4  C4  UNL d   1       5.732  -3.965   5.998  0.00  0.00    -0.042 A 
ATOM      5  C5  UNL d   1       5.643  -2.577   5.962  0.00  0.00     0.033 A 
ATOM      6  C6  UNL d   1       4.980  -1.947   4.905  0.00  0.00    -0.057 A 
ENDROOT
BRANCH   1   7
ATOM      7  N   UNL d   1       3.823  -1.986   2.796  0.00  0.00    -0.732 N 
ATOM      8  C   UNL d   1       3.433  -2.681   1.589  0.00  0.00     0.284 C 
ATOM      9  H3  UNL d   1       3.164  -1.271   3.096  0.00  0.00     0.395 HD
ENDBRANCH   1   7
TORSDOF 1
ENDMDL
