MODEL 1
REMARK minimizedAffinity 4.63346386
REMARK minimizedRMSD -1
REMARK  1 active torsions:
REMARK  status: ('A' for Active; 'I' for Inactive)
REMARK    1  A    between atoms: N_2  and  C1_3 
ROOT
ATOM      1  C1  UNL d   1       3.738   0.087  -0.177  0.00  0.00     0.143 A 
ATOM      2  C2  UNL d   1       3.728   1.468   0.046  0.00  0.00    -0.057 A 
ATOM      3  C3  UNL d   1       4.840   2.126   0.585  0.00  0.00     0.033 A 
ATOM      4  C4  UNL d   1       5.976   1.406   0.940  0.00  0.00    -0.042 A 
ATOM      5  C5  UNL d   1       6.000   0.029   0.751  0.00  0.00     0.033 A 
ATOM      6  C6  UNL d   1       4.889  -0.621   0.206  0.00  0.00    -0.057 A 
ENDROOT
BRANCH   1   7
ATOM      7  N   UNL d   1       2.629  -0.639  -0.618  0.00  0.00    -0.732 N 
ATOM      8  C   UNL d   1       1.316  -0.388  -0.064  0.00  0.00     0.284 C 
ATOM      9  H3  UNL d   1       2.635  -0.782  -1.625  0.00  0.00     0.395 HD
ENDBRANCH   1   7
TORSDOF 1
ENDMDL
