MODEL 1
REMARK minimizedAffinity -1.21226764
REMARK minimizedRMSD -1
REMARK  1 active torsions:
REMARK  status: ('A' for Active; 'I' for Inactive)
REMARK    1  A    between atoms: N_2  and  C1_3 
ROOT
ATOM      1  C1  UNL d   1       0.630  -1.999   1.355  0.00  0.00     0.143 A 
ATOM      2  C2  UNL d   1      -0.278  -1.524   2.308  0.00  0.00    -0.057 A 
ATOM      3  C3  UNL d   1      -1.339  -0.686   1.945  0.00  0.00     0.033 A 
ATOM      4  C4  UNL d   1      -1.495  -0.283   0.622  0.00  0.00    -0.042 A 
ATOM      5  C5  UNL d   1      -0.590  -0.723  -0.337  0.00  0.00     0.033 A 
ATOM      6  C6  UNL d   1       0.464  -1.565   0.031  0.00  0.00    -0.057 A 
ENDROOT
BRANCH   1   7
ATOM      7  N   UNL d   1       1.762  -2.755   1.669  0.00  0.00    -0.732 N 
ATOM      8  C   UNL d   1       2.009  -4.020   1.012  0.00  0.00     0.284 C 
ATOM      9  H3  UNL d   1       2.592  -2.179   1.789  0.00  0.00     0.395 HD
ENDBRANCH   1   7
TORSDOF 1
ENDMDL
