MODEL 1
REMARK minimizedAffinity 8.74077511
REMARK minimizedRMSD -1
REMARK  1 active torsions:
REMARK  status: ('A' for Active; 'I' for Inactive)
REMARK    1  A    between atoms: N_2  and  C1_3 
ROOT
ATOM      1  C1  UNL d   1       1.875   4.449   3.640  0.00  0.00     0.143 A 
ATOM      2  C2  UNL d   1       1.199   4.297   4.856  0.00  0.00    -0.057 A 
ATOM      3  C3  UNL d   1       1.595   5.001   6.000  0.00  0.00     0.033 A 
ATOM      4  C4  UNL d   1       2.694   5.852   5.954  0.00  0.00    -0.042 A 
ATOM      5  C5  UNL d   1       3.396   6.000   4.763  0.00  0.00     0.033 A 
ATOM      6  C6  UNL d   1       2.992   5.299   3.623  0.00  0.00    -0.057 A 
ENDROOT
BRANCH   1   7
ATOM      7  N   UNL d   1       1.591   3.702   2.494  0.00  0.00    -0.732 N 
ATOM      8  C   UNL d   1       0.549   4.121   1.581  0.00  0.00     0.284 C 
ATOM      9  H3  UNL d   1       2.432   3.359   2.036  0.00  0.00     0.395 HD
ENDBRANCH   1   7
TORSDOF 1
ENDMDL
