MODEL 1
REMARK minimizedAffinity 4.19715214
REMARK minimizedRMSD -1
REMARK  1 active torsions:
REMARK  status: ('A' for Active; 'I' for Inactive)
REMARK    1  A    between atoms: N_2  and  C1_3 
ROOT
ATOM      1  C1  UNL d   1       4.113   2.844   0.678  0.00  0.00     0.143 A 
ATOM      2  C2  UNL d   1       5.237   2.794   1.509  0.00  0.00    -0.057 A 
ATOM      3  C3  UNL d   1       5.990   3.943   1.782  0.00  0.00     0.033 A 
ATOM      4  C4  UNL d   1       5.647   5.160   1.202  0.00  0.00    -0.042 A 
ATOM      5  C5  UNL d   1       4.548   5.228   0.352  0.00  0.00     0.033 A 
ATOM      6  C6  UNL d   1       3.797   4.078   0.089  0.00  0.00    -0.057 A 
ENDROOT
BRANCH   1   7
ATOM      7  N   UNL d   1       3.383   1.718   0.290  0.00  0.00    -0.732 N 
ATOM      8  C   UNL d   1       3.919   0.790  -0.683  0.00  0.00     0.284 C 
ATOM      9  H3  UNL d   1       2.911   1.272   1.073  0.00  0.00     0.395 HD
ENDBRANCH   1   7
TORSDOF 1
ENDMDL
