MODEL 1
REMARK minimizedAffinity -2.94506598
REMARK minimizedRMSD -1
REMARK  1 active torsions:
REMARK  status: ('A' for Active; 'I' for Inactive)
REMARK    1  A    between atoms: N_2  and  C1_3 
ROOT
ATOM      1  C1  UNL d   1       3.737  -2.471   2.982  0.00  0.00     0.143 A 
ATOM      2  C2  UNL d   1       2.481  -1.861   3.074  0.00  0.00    -0.057 A 
ATOM      3  C3  UNL d   1       1.589  -1.870   1.995  0.00  0.00     0.033 A 
ATOM      4  C4  UNL d   1       1.950  -2.465   0.791  0.00  0.00    -0.042 A 
ATOM      5  C5  UNL d   1       3.203  -3.056   0.669  0.00  0.00     0.033 A 
ATOM      6  C6  UNL d   1       4.087  -3.050   1.752  0.00  0.00    -0.057 A 
ENDROOT
BRANCH   1   7
ATOM      7  N   UNL d   1       4.706  -2.410   3.986  0.00  0.00    -0.732 N 
ATOM      8  C   UNL d   1       4.396  -2.827   5.337  0.00  0.00     0.284 C 
ATOM      9  H3  UNL d   1       5.623  -2.708   3.660  0.00  0.00     0.395 HD
ENDBRANCH   1   7
TORSDOF 1
ENDMDL
