MODEL 1
REMARK minimizedAffinity -1.09051919
REMARK minimizedRMSD -1
REMARK  1 active torsions:
REMARK  status: ('A' for Active; 'I' for Inactive)
REMARK    1  A    between atoms: N_2  and  C1_3 
ROOT
ATOM      1  C1  UNL d   1       0.319  -1.295   1.025  0.00  0.00     0.143 A 
ATOM      2  C2  UNL d   1       0.132  -1.527   2.392  0.00  0.00    -0.057 A 
ATOM      3  C3  UNL d   1      -0.850  -0.841   3.117  0.00  0.00     0.033 A 
ATOM      4  C4  UNL d   1      -1.646   0.112   2.492  0.00  0.00    -0.042 A 
ATOM      5  C5  UNL d   1      -1.461   0.377   1.139  0.00  0.00     0.033 A 
ATOM      6  C6  UNL d   1      -0.483  -0.316   0.419  0.00  0.00    -0.057 A 
ENDROOT
BRANCH   1   7
ATOM      7  N   UNL d   1       1.344  -1.873   0.272  0.00  0.00    -0.732 N 
ATOM      8  C   UNL d   1       2.103  -2.989   0.793  0.00  0.00     0.284 C 
ATOM      9  H3  UNL d   1       1.101  -1.959  -0.713  0.00  0.00     0.395 HD
ENDBRANCH   1   7
TORSDOF 1
ENDMDL
