MODEL 1
REMARK minimizedAffinity -4.77722311
REMARK minimizedRMSD -1
REMARK  1 active torsions:
REMARK  status: ('A' for Active; 'I' for Inactive)
REMARK    1  A    between atoms: N_2  and  C1_3 
ROOT
ATOM      1  C1  UNL d   1       4.981   3.222  -5.532  0.00  0.00     0.143 A 
ATOM      2  C2  UNL d   1       5.818   2.331  -4.851  0.00  0.00    -0.057 A 
ATOM      3  C3  UNL d   1       5.466   0.987  -4.684  0.00  0.00     0.033 A 
ATOM      4  C4  UNL d   1       4.252   0.514  -5.171  0.00  0.00    -0.042 A 
ATOM      5  C5  UNL d   1       3.393   1.386  -5.829  0.00  0.00     0.033 A 
ATOM      6  C6  UNL d   1       3.753   2.726  -5.999  0.00  0.00    -0.057 A 
ENDROOT
BRANCH   1   7
ATOM      7  N   UNL d   1       5.230   4.592  -5.645  0.00  0.00    -0.732 N 
ATOM      8  C   UNL d   1       4.139   5.527  -5.817  0.00  0.00     0.284 C 
ATOM      9  H3  UNL d   1       5.952   4.909  -5.003  0.00  0.00     0.395 HD
ENDBRANCH   1   7
TORSDOF 1
ENDMDL
