MODEL 1
REMARK minimizedAffinity 6.6842351
REMARK minimizedRMSD -1
REMARK  1 active torsions:
REMARK  status: ('A' for Active; 'I' for Inactive)
REMARK    1  A    between atoms: N_2  and  C1_3 
ROOT
ATOM      1  C1  UNL d   1       3.994  -3.966   2.836  0.00  0.00     0.143 A 
ATOM      2  C2  UNL d   1       4.269  -4.867   1.802  0.00  0.00    -0.057 A 
ATOM      3  C3  UNL d   1       3.625  -4.769   0.562  0.00  0.00     0.033 A 
ATOM      4  C4  UNL d   1       2.669  -3.782   0.345  0.00  0.00    -0.042 A 
ATOM      5  C5  UNL d   1       2.361  -2.892   1.367  0.00  0.00     0.033 A 
ATOM      6  C6  UNL d   1       3.012  -2.991   2.600  0.00  0.00    -0.057 A 
ENDROOT
BRANCH   1   7
ATOM      7  N   UNL d   1       4.528  -4.072   4.122  0.00  0.00    -0.732 N 
ATOM      8  C   UNL d   1       4.857  -2.886   4.884  0.00  0.00     0.284 C 
ATOM      9  H3  UNL d   1       4.084  -4.806   4.669  0.00  0.00     0.395 HD
ENDBRANCH   1   7
TORSDOF 1
ENDMDL
