MODEL 1
REMARK minimizedAffinity -0.585243881
REMARK minimizedRMSD -1
REMARK  1 active torsions:
REMARK  status: ('A' for Active; 'I' for Inactive)
REMARK    1  A    between atoms: C1_2  and  C2_3 
ROOT
ATOM      1  C2  UNL d   1      -3.873  -1.551  -5.998  0.00  0.00    -0.073 A 
ATOM      2  C3  UNL d   1      -5.271  -1.591  -5.985  0.00  0.00    -0.002 A 
ATOM      3  C4  UNL d   1      -5.941  -2.815  -5.983  0.00  0.00     0.004 A 
ATOM      4  C5  UNL d   1      -5.221  -4.010  -5.988  0.00  0.00    -0.004 A 
ATOM      5  C6  UNL d   1      -3.823  -3.990  -5.988  0.00  0.00    -0.075 A 
ATOM      6  C7  UNL d   1      -3.033  -5.266  -5.995  0.00  0.00     0.076 C 
ATOM      7  C8  UNL d   1      -3.157  -2.757  -5.993  0.00  0.00     0.001 A 
ENDROOT
BRANCH   1   8
ATOM      8  C1  UNL d   1      -3.145  -0.231  -5.993  0.00  0.00     0.053 C 
ATOM      9  C   UNL d   1      -4.059   0.923  -5.613  0.00  0.00     0.018 C 
ENDBRANCH   1   8
TORSDOF 1
ENDMDL
