MODEL 1
REMARK minimizedAffinity -1.39685977
REMARK minimizedRMSD -1
REMARK  1 active torsions:
REMARK  status: ('A' for Active; 'I' for Inactive)
REMARK    1  A    between atoms: C1_2  and  C2_3 
ROOT
ATOM      1  C2  UNL d   1      -4.097   0.640  -5.997  0.00  0.00    -0.073 A 
ATOM      2  C3  UNL d   1      -2.698   0.614  -5.992  0.00  0.00    -0.002 A 
ATOM      3  C4  UNL d   1      -1.971   1.805  -5.997  0.00  0.00     0.004 A 
ATOM      4  C5  UNL d   1      -2.634   3.033  -6.000  0.00  0.00    -0.004 A 
ATOM      5  C6  UNL d   1      -4.032   3.079  -5.992  0.00  0.00    -0.075 A 
ATOM      6  C7  UNL d   1      -4.760   4.391  -5.997  0.00  0.00     0.076 C 
ATOM      7  C8  UNL d   1      -4.755   1.879  -5.990  0.00  0.00     0.001 A 
ENDROOT
BRANCH   1   8
ATOM      8  C1  UNL d   1      -4.887  -0.643  -5.985  0.00  0.00     0.053 C 
ATOM      9  C   UNL d   1      -4.941  -1.266  -4.599  0.00  0.00     0.018 C 
ENDBRANCH   1   8
TORSDOF 1
ENDMDL
