MODEL 1
REMARK minimizedAffinity 1.59196723
REMARK minimizedRMSD -1
REMARK  1 active torsions:
REMARK  status: ('A' for Active; 'I' for Inactive)
REMARK    1  A    between atoms: C1_2  and  C2_3 
ROOT
ATOM      1  C2  UNL d   1      -1.288   0.680  -5.025  0.00  0.00    -0.073 A 
ATOM      2  C3  UNL d   1      -2.355  -0.201  -5.234  0.00  0.00    -0.002 A 
ATOM      3  C4  UNL d   1      -3.587   0.277  -5.681  0.00  0.00     0.004 A 
ATOM      4  C5  UNL d   1      -3.763   1.638  -5.930  0.00  0.00    -0.004 A 
ATOM      5  C6  UNL d   1      -2.705   2.533  -5.738  0.00  0.00    -0.075 A 
ATOM      6  C7  UNL d   1      -2.878   4.000  -6.000  0.00  0.00     0.076 C 
ATOM      7  C8  UNL d   1      -1.471   2.045  -5.287  0.00  0.00     0.001 A 
ENDROOT
BRANCH   1   8
ATOM      8  C1  UNL d   1       0.046   0.166  -4.548  0.00  0.00     0.053 C 
ATOM      9  C   UNL d   1       0.027  -1.335  -4.308  0.00  0.00     0.018 C 
ENDBRANCH   1   8
TORSDOF 1
ENDMDL
