MODEL 1
REMARK minimizedAffinity 5.24339819
REMARK minimizedRMSD -1
REMARK  1 active torsions:
REMARK  status: ('A' for Active; 'I' for Inactive)
REMARK    1  A    between atoms: C1_2  and  C2_3 
ROOT
ATOM      1  C2  UNL d   1       3.362   1.207  -0.680  0.00  0.00    -0.073 A 
ATOM      2  C3  UNL d   1       2.408   1.585   0.272  0.00  0.00    -0.002 A 
ATOM      3  C4  UNL d   1       1.129   1.026   0.249  0.00  0.00     0.004 A 
ATOM      4  C5  UNL d   1       0.794   0.080  -0.720  0.00  0.00    -0.004 A 
ATOM      5  C6  UNL d   1       1.737  -0.319  -1.673  0.00  0.00    -0.075 A 
ATOM      6  C7  UNL d   1       1.390  -1.333  -2.723  0.00  0.00     0.076 C 
ATOM      7  C8  UNL d   1       3.018   0.248  -1.645  0.00  0.00     0.001 A 
ENDROOT
BRANCH   1   8
ATOM      8  C1  UNL d   1       4.746   1.802  -0.656  0.00  0.00     0.053 C 
ATOM      9  C   UNL d   1       5.827   0.734  -0.693  0.00  0.00     0.018 C 
ENDBRANCH   1   8
TORSDOF 1
ENDMDL
