MODEL 1
REMARK minimizedAffinity -1.9923135
REMARK minimizedRMSD -1
REMARK  1 active torsions:
REMARK  status: ('A' for Active; 'I' for Inactive)
REMARK    1  A    between atoms: C1_2  and  C2_3 
ROOT
ATOM      1  C2  UNL d   1      -4.270   3.165  -5.898  0.00  0.00    -0.073 A 
ATOM      2  C3  UNL d   1      -2.877   3.284  -5.950  0.00  0.00    -0.002 A 
ATOM      3  C4  UNL d   1      -2.073   2.144  -5.996  0.00  0.00     0.004 A 
ATOM      4  C5  UNL d   1      -2.653   0.876  -6.000  0.00  0.00    -0.004 A 
ATOM      5  C6  UNL d   1      -4.044   0.737  -5.961  0.00  0.00    -0.075 A 
ATOM      6  C7  UNL d   1      -4.684  -0.621  -5.961  0.00  0.00     0.076 C 
ATOM      7  C8  UNL d   1      -4.845   1.886  -5.911  0.00  0.00     0.001 A 
ENDROOT
BRANCH   1   8
ATOM      8  C1  UNL d   1      -5.143   4.393  -5.854  0.00  0.00     0.053 C 
ATOM      9  C   UNL d   1      -4.333   5.673  -5.992  0.00  0.00     0.018 C 
ENDBRANCH   1   8
TORSDOF 1
ENDMDL
