MODEL 1
REMARK minimizedAffinity -1.15707076
REMARK minimizedRMSD -1
REMARK  1 active torsions:
REMARK  status: ('A' for Active; 'I' for Inactive)
REMARK    1  A    between atoms: C1_2  and  C2_3 
ROOT
ATOM      1  C2  UNL d   1      -4.309   2.325  -5.985  0.00  0.00    -0.073 A 
ATOM      2  C3  UNL d   1      -2.910   2.361  -5.996  0.00  0.00    -0.002 A 
ATOM      3  C4  UNL d   1      -2.174   1.175  -5.999  0.00  0.00     0.004 A 
ATOM      4  C5  UNL d   1      -2.829  -0.057  -5.997  0.00  0.00    -0.004 A 
ATOM      5  C6  UNL d   1      -4.227  -0.113  -5.998  0.00  0.00    -0.075 A 
ATOM      6  C7  UNL d   1      -4.946  -1.430  -5.993  0.00  0.00     0.076 C 
ATOM      7  C8  UNL d   1      -4.958   1.083  -5.993  0.00  0.00     0.001 A 
ENDROOT
BRANCH   1   8
ATOM      8  C1  UNL d   1      -5.107   3.604  -5.989  0.00  0.00     0.053 C 
ATOM      9  C   UNL d   1      -4.213   4.834  -5.999  0.00  0.00     0.018 C 
ENDBRANCH   1   8
TORSDOF 1
ENDMDL
