MODEL 1
REMARK minimizedAffinity 3.01010132
REMARK minimizedRMSD -1
REMARK  1 active torsions:
REMARK  status: ('A' for Active; 'I' for Inactive)
REMARK    1  A    between atoms: C1_2  and  C2_3 
ROOT
ATOM      1  C2  UNL d   1      -3.791   2.562  -5.867  0.00  0.00    -0.073 A 
ATOM      2  C3  UNL d   1      -2.418   2.406  -5.642  0.00  0.00    -0.002 A 
ATOM      3  C4  UNL d   1      -1.864   1.130  -5.526  0.00  0.00     0.004 A 
ATOM      4  C5  UNL d   1      -2.674   0.000  -5.639  0.00  0.00    -0.004 A 
ATOM      5  C6  UNL d   1      -4.045   0.136  -5.876  0.00  0.00    -0.075 A 
ATOM      6  C7  UNL d   1      -4.930  -1.070  -5.998  0.00  0.00     0.076 C 
ATOM      7  C8  UNL d   1      -4.595   1.420  -5.989  0.00  0.00     0.001 A 
ENDROOT
BRANCH   1   8
ATOM      8  C1  UNL d   1      -4.392   3.937  -6.000  0.00  0.00     0.053 C 
ATOM      9  C   UNL d   1      -5.912   3.899  -5.983  0.00  0.00     0.018 C 
ENDBRANCH   1   8
TORSDOF 1
ENDMDL
