MODEL 1
REMARK minimizedAffinity -2.16302419
REMARK minimizedRMSD -1
REMARK  1 active torsions:
REMARK  status: ('A' for Active; 'I' for Inactive)
REMARK    1  A    between atoms: C1_2  and  C2_3 
ROOT
ATOM      1  C2  UNL d   1      -3.862  -0.162  -6.000  0.00  0.00    -0.073 A 
ATOM      2  C3  UNL d   1      -2.574   0.387  -6.000  0.00  0.00    -0.002 A 
ATOM      3  C4  UNL d   1      -2.398   1.771  -5.998  0.00  0.00     0.004 A 
ATOM      4  C5  UNL d   1      -3.504   2.620  -5.990  0.00  0.00    -0.004 A 
ATOM      5  C6  UNL d   1      -4.799   2.091  -5.978  0.00  0.00    -0.075 A 
ATOM      6  C7  UNL d   1      -6.000   2.991  -5.971  0.00  0.00     0.076 C 
ATOM      7  C8  UNL d   1      -4.968   0.700  -5.982  0.00  0.00     0.001 A 
ENDROOT
BRANCH   1   8
ATOM      8  C1  UNL d   1      -4.058  -1.656  -5.995  0.00  0.00     0.053 C 
ATOM      9  C   UNL d   1      -5.520  -2.039  -5.829  0.00  0.00     0.018 C 
ENDBRANCH   1   8
TORSDOF 1
ENDMDL
