MODEL 1
REMARK minimizedAffinity -5.28234339
REMARK minimizedRMSD -1
REMARK  1 active torsions:
REMARK  status: ('A' for Active; 'I' for Inactive)
REMARK    1  A    between atoms: C1_2  and  C2_3 
ROOT
ATOM      1  C2  UNL d   1       0.015   0.115  -1.869  0.00  0.00    -0.081 A 
ATOM      2  C3  UNL d   1       0.628  -0.424  -0.731  0.00  0.00     0.006 A 
ATOM      3  C4  UNL d   1       0.120  -0.154   0.542  0.00  0.00     0.002 A 
ATOM      4  C5  UNL d   1      -1.013   0.652   0.698  0.00  0.00    -0.080 A 
ATOM      5  C6  UNL d   1      -1.586   0.925   2.057  0.00  0.00     0.076 C 
ATOM      6  C7  UNL d   1      -1.614   1.205  -0.437  0.00  0.00     0.002 A 
ATOM      7  C8  UNL d   1      -1.107   0.936  -1.710  0.00  0.00     0.006 A 
ENDROOT
BRANCH   1   8
ATOM      8  C1  UNL d   1       0.522  -0.227  -3.246  0.00  0.00     0.054 C 
ATOM      9  C   UNL d   1       1.876   0.415  -3.513  0.00  0.00     0.018 C 
ENDBRANCH   1   8
TORSDOF 1
ENDMDL
