MODEL 1
REMARK minimizedAffinity -4.07886839
REMARK minimizedRMSD -1
REMARK  1 active torsions:
REMARK  status: ('A' for Active; 'I' for Inactive)
REMARK    1  A    between atoms: C1_2  and  C2_3 
ROOT
ATOM      1  C2  UNL d   1      -1.052   0.566   0.686  0.00  0.00    -0.081 A 
ATOM      2  C3  UNL d   1      -1.643   1.152  -0.440  0.00  0.00     0.006 A 
ATOM      3  C4  UNL d   1      -1.123   0.918  -1.716  0.00  0.00     0.002 A 
ATOM      4  C5  UNL d   1      -0.009   0.089  -1.887  0.00  0.00    -0.080 A 
ATOM      5  C6  UNL d   1       0.541  -0.194  -3.253  0.00  0.00     0.076 C 
ATOM      6  C7  UNL d   1       0.592  -0.482  -0.760  0.00  0.00     0.002 A 
ATOM      7  C8  UNL d   1       0.073  -0.248   0.515  0.00  0.00     0.006 A 
ENDROOT
BRANCH   1   8
ATOM      8  C1  UNL d   1      -1.649   0.764   2.055  0.00  0.00     0.054 C 
ATOM      9  C   UNL d   1      -0.626   0.494   3.149  0.00  0.00     0.018 C 
ENDBRANCH   1   8
TORSDOF 1
ENDMDL
