MODEL 1
REMARK minimizedAffinity -3.12693882
REMARK minimizedRMSD -1
REMARK  1 active torsions:
REMARK  status: ('A' for Active; 'I' for Inactive)
REMARK    1  A    between atoms: C1_2  and  C2_3 
ROOT
ATOM      1  C2  UNL d   1       0.822   0.377  -1.657  0.00  0.00    -0.081 A 
ATOM      2  C3  UNL d   1      -0.235   1.278  -1.473  0.00  0.00     0.006 A 
ATOM      3  C4  UNL d   1      -0.892   1.356  -0.243  0.00  0.00     0.002 A 
ATOM      4  C5  UNL d   1      -0.500   0.543   0.825  0.00  0.00    -0.080 A 
ATOM      5  C6  UNL d   1      -1.177   0.639   2.159  0.00  0.00     0.076 C 
ATOM      6  C7  UNL d   1       0.544  -0.369   0.636  0.00  0.00     0.002 A 
ATOM      7  C8  UNL d   1       1.202  -0.449  -0.593  0.00  0.00     0.006 A 
ENDROOT
BRANCH   1   8
ATOM      8  C1  UNL d   1       1.575   0.335  -2.962  0.00  0.00     0.054 C 
ATOM      9  C   UNL d   1       0.821   1.070  -4.060  0.00  0.00     0.018 C 
ENDBRANCH   1   8
TORSDOF 1
ENDMDL
