MODEL 1
REMARK minimizedAffinity -0.592073858
REMARK minimizedRMSD -1
REMARK  1 active torsions:
REMARK  status: ('A' for Active; 'I' for Inactive)
REMARK    1  A    between atoms: C1_2  and  C2_3 
ROOT
ATOM      1  C2  UNL d   1       0.077  -0.273  -1.081  0.00  0.00    -0.081 A 
ATOM      2  C3  UNL d   1       1.019  -0.548  -0.081  0.00  0.00     0.006 A 
ATOM      3  C4  UNL d   1       0.707  -0.334   1.263  0.00  0.00     0.002 A 
ATOM      4  C5  UNL d   1      -0.552   0.152   1.632  0.00  0.00    -0.080 A 
ATOM      5  C6  UNL d   1      -0.909   0.358   3.074  0.00  0.00     0.076 C 
ATOM      6  C7  UNL d   1      -1.486   0.443   0.632  0.00  0.00     0.002 A 
ATOM      7  C8  UNL d   1      -1.176   0.230  -0.712  0.00  0.00     0.006 A 
ENDROOT
BRANCH   1   8
ATOM      8  C1  UNL d   1       0.387  -0.564  -2.527  0.00  0.00     0.054 C 
ATOM      9  C   UNL d   1       0.753   0.706  -3.281  0.00  0.00     0.018 C 
ENDBRANCH   1   8
TORSDOF 1
ENDMDL
