MODEL 1
REMARK minimizedAffinity -2.27477241
REMARK minimizedRMSD -1
REMARK  1 active torsions:
REMARK  status: ('A' for Active; 'I' for Inactive)
REMARK    1  A    between atoms: C1_2  and  C2_3 
ROOT
ATOM      1  C2  UNL d   1       0.045   0.795  -0.792  0.00  0.00    -0.081 A 
ATOM      2  C3  UNL d   1      -1.298   0.740  -0.397  0.00  0.00     0.006 A 
ATOM      3  C4  UNL d   1      -1.641   0.791   0.956  0.00  0.00     0.002 A 
ATOM      4  C5  UNL d   1      -0.649   0.906   1.936  0.00  0.00    -0.080 A 
ATOM      5  C6  UNL d   1      -1.006   0.993   3.390  0.00  0.00     0.076 C 
ATOM      6  C7  UNL d   1       0.693   0.944   1.543  0.00  0.00     0.002 A 
ATOM      7  C8  UNL d   1       1.037   0.892   0.190  0.00  0.00     0.006 A 
ENDROOT
BRANCH   1   8
ATOM      8  C1  UNL d   1       0.414   0.806  -2.253  0.00  0.00     0.054 C 
ATOM      9  C   UNL d   1       1.440   1.889  -2.556  0.00  0.00     0.018 C 
ENDBRANCH   1   8
TORSDOF 1
ENDMDL
