MODEL 1
REMARK minimizedAffinity 1.16116714
REMARK minimizedRMSD -1
REMARK  1 active torsions:
REMARK  status: ('A' for Active; 'I' for Inactive)
REMARK    1  A    between atoms: C1_2  and  C2_3 
ROOT
ATOM      1  C2  UNL d   1      -1.071   0.220   1.733  0.00  0.00    -0.081 A 
ATOM      2  C3  UNL d   1      -1.302  -0.802   0.805  0.00  0.00     0.006 A 
ATOM      3  C4  UNL d   1      -2.347  -0.699  -0.116  0.00  0.00     0.002 A 
ATOM      4  C5  UNL d   1      -3.173   0.430  -0.129  0.00  0.00    -0.080 A 
ATOM      5  C6  UNL d   1      -4.279   0.567  -1.132  0.00  0.00     0.076 C 
ATOM      6  C7  UNL d   1      -2.953   1.443   0.810  0.00  0.00     0.002 A 
ATOM      7  C8  UNL d   1      -1.908   1.341   1.731  0.00  0.00     0.006 A 
ENDROOT
BRANCH   1   8
ATOM      8  C1  UNL d   1       0.096   0.141   2.685  0.00  0.00     0.054 C 
ATOM      9  C   UNL d   1       1.299  -0.524   2.032  0.00  0.00     0.018 C 
ENDBRANCH   1   8
TORSDOF 1
ENDMDL
