MODEL 1
REMARK minimizedAffinity -1.54923332
REMARK minimizedRMSD -1
REMARK  0 active torsions:
REMARK  status: ('A' for Active; 'I' for Inactive)
ROOT
ATOM      1  C4' PXY d   1      -0.381  -5.646  -2.526  0.00  0.00     0.077 C 
ATOM      2  C1' PXY d   1      -2.093  -0.216  -1.523  0.00  0.00     0.077 C 
ATOM      3  C1  PXY d   1      -1.651  -1.640  -1.797  0.00  0.00    -0.082 A 
ATOM      4  C2  PXY d   1      -1.207  -2.390  -0.801  0.00  0.00     0.003 A 
ATOM      5  C3  PXY d   1      -0.774  -3.670  -1.036  0.00  0.00     0.003 A 
ATOM      6  C4  PXY d   1      -0.846  -4.205  -2.294  0.00  0.00    -0.082 A 
ATOM      7  C5  PXY d   1      -1.308  -3.450  -3.313  0.00  0.00     0.003 A 
ATOM      8  C6  PXY d   1      -1.704  -2.140  -3.061  0.00  0.00     0.003 A 
ENDROOT
TORSDOF 0
ENDMDL
