MODEL 1
REMARK minimizedAffinity 1.34125626
REMARK minimizedRMSD -1
REMARK  0 active torsions:
REMARK  status: ('A' for Active; 'I' for Inactive)
ROOT
ATOM      1  C4' PXY d   1       0.668  -0.501  -0.404  0.00  0.00     0.077 C 
ATOM      2  C1' PXY d   1       3.233   4.648  -0.973  0.00  0.00     0.077 C 
ATOM      3  C1  PXY d   1       2.557   3.298  -0.836  0.00  0.00    -0.082 A 
ATOM      4  C2  PXY d   1       2.117   2.903   0.348  0.00  0.00     0.003 A 
ATOM      5  C3  PXY d   1       1.532   1.672   0.495  0.00  0.00     0.003 A 
ATOM      6  C4  PXY d   1       1.348   0.858  -0.591  0.00  0.00    -0.082 A 
ATOM      7  C5  PXY d   1       1.784   1.258  -1.804  0.00  0.00     0.003 A 
ATOM      8  C6  PXY d   1       2.412   2.494  -1.925  0.00  0.00     0.003 A 
ENDROOT
TORSDOF 0
ENDMDL
