MODEL 1
REMARK minimizedAffinity 0.386949241
REMARK minimizedRMSD -1
REMARK  0 active torsions:
REMARK  status: ('A' for Active; 'I' for Inactive)
ROOT
ATOM      1  C4' PXY d   1      -1.110  -0.896  -0.827  0.00  0.00     0.077 C 
ATOM      2  C1' PXY d   1       3.285   1.233   2.266  0.00  0.00     0.077 C 
ATOM      3  C1  PXY d   1       2.140   0.666   1.449  0.00  0.00    -0.082 A 
ATOM      4  C2  PXY d   1       1.063   1.404   1.232  0.00  0.00     0.003 A 
ATOM      5  C3  PXY d   1       0.006   0.895   0.523  0.00  0.00     0.003 A 
ATOM      6  C4  PXY d   1       0.073  -0.361  -0.016  0.00  0.00    -0.082 A 
ATOM      7  C5  PXY d   1       1.173  -1.116   0.191  0.00  0.00     0.003 A 
ATOM      8  C6  PXY d   1       2.219  -0.597   0.949  0.00  0.00     0.003 A 
ENDROOT
TORSDOF 0
ENDMDL
