MODEL 1
REMARK minimizedAffinity 1.75593448
REMARK minimizedRMSD -1
REMARK  0 active torsions:
REMARK  status: ('A' for Active; 'I' for Inactive)
ROOT
ATOM      1  C4' PXY d   1      -2.469  -0.864  -1.438  0.00  0.00     0.077 C 
ATOM      2  C1' PXY d   1       0.185  -5.711  -3.134  0.00  0.00     0.077 C 
ATOM      3  C1  PXY d   1      -0.505  -4.441  -2.678  0.00  0.00    -0.082 A 
ATOM      4  C2  PXY d   1      -1.652  -4.084  -3.232  0.00  0.00     0.003 A 
ATOM      5  C3  PXY d   1      -2.273  -2.921  -2.854  0.00  0.00     0.003 A 
ATOM      6  C4  PXY d   1      -1.742  -2.143  -1.861  0.00  0.00    -0.082 A 
ATOM      7  C5  PXY d   1      -0.578  -2.506  -1.282  0.00  0.00     0.003 A 
ATOM      8  C6  PXY d   1       0.058  -3.669  -1.709  0.00  0.00     0.003 A 
ENDROOT
TORSDOF 0
ENDMDL
