MODEL 1
REMARK minimizedAffinity 3.899786
REMARK minimizedRMSD -1
REMARK  0 active torsions:
REMARK  status: ('A' for Active; 'I' for Inactive)
ROOT
ATOM      1  C4' PXY d   1       3.707   2.521   1.039  0.00  0.00     0.077 C 
ATOM      2  C1' PXY d   1      -0.378  -1.444   0.035  0.00  0.00     0.077 C 
ATOM      3  C1  PXY d   1       0.684  -0.396   0.303  0.00  0.00    -0.082 A 
ATOM      4  C2  PXY d   1       1.821  -0.428  -0.374  0.00  0.00     0.003 A 
ATOM      5  C3  PXY d   1       2.805   0.493  -0.122  0.00  0.00     0.003 A 
ATOM      6  C4  PXY d   1       2.603   1.489   0.795  0.00  0.00    -0.082 A 
ATOM      7  C5  PXY d   1       1.442   1.536   1.482  0.00  0.00     0.003 A 
ATOM      8  C6  PXY d   1       0.472   0.567   1.241  0.00  0.00     0.003 A 
ENDROOT
TORSDOF 0
ENDMDL
