MODEL 1
REMARK minimizedAffinity 0.682696283
REMARK minimizedRMSD -1
REMARK  0 active torsions:
REMARK  status: ('A' for Active; 'I' for Inactive)
ROOT
ATOM      1  C4' PXY d   1       0.161  -1.774  -0.904  0.00  0.00     0.077 C 
ATOM      2  C1' PXY d   1       3.023   1.723   2.701  0.00  0.00     0.077 C 
ATOM      3  C1  PXY d   1       2.283   0.804   1.748  0.00  0.00    -0.082 A 
ATOM      4  C2  PXY d   1       0.970   0.909   1.626  0.00  0.00     0.003 A 
ATOM      5  C3  PXY d   1       0.281   0.065   0.794  0.00  0.00     0.003 A 
ATOM      6  C4  PXY d   1       0.950  -0.861   0.038  0.00  0.00    -0.082 A 
ATOM      7  C5  PXY d   1       2.291  -0.967   0.149  0.00  0.00     0.003 A 
ATOM      8  C6  PXY d   1       2.967  -0.128   1.031  0.00  0.00     0.003 A 
ENDROOT
TORSDOF 0
ENDMDL
