MODEL 1
REMARK minimizedAffinity 0.474682391
REMARK minimizedRMSD -1
REMARK  0 active torsions:
REMARK  status: ('A' for Active; 'I' for Inactive)
ROOT
ATOM      1  C4' PXY d   1       2.994  -0.130  -0.715  0.00  0.00     0.077 C 
ATOM      2  C1' PXY d   1      -0.325   0.414   3.986  0.00  0.00     0.077 C 
ATOM      3  C1  PXY d   1       0.541   0.259   2.751  0.00  0.00    -0.082 A 
ATOM      4  C2  PXY d   1       1.626   1.004   2.616  0.00  0.00     0.003 A 
ATOM      5  C3  PXY d   1       2.403   0.899   1.491  0.00  0.00     0.003 A 
ATOM      6  C4  PXY d   1       2.095  -0.014   0.519  0.00  0.00    -0.082 A 
ATOM      7  C5  PXY d   1       0.995  -0.785   0.654  0.00  0.00     0.003 A 
ATOM      8  C6  PXY d   1       0.197  -0.634   1.785  0.00  0.00     0.003 A 
ENDROOT
TORSDOF 0
ENDMDL
