MODEL 1
REMARK minimizedAffinity 6.96221495
REMARK minimizedRMSD -1
REMARK  0 active torsions:
REMARK  status: ('A' for Active; 'I' for Inactive)
ROOT
ATOM      1  C4' PXY d   1       3.789  -1.254  -0.471  0.00  0.00     0.077 C 
ATOM      2  C1' PXY d   1       0.622   2.852   2.084  0.00  0.00     0.077 C 
ATOM      3  C1  PXY d   1       1.442   1.767   1.414  0.00  0.00    -0.082 A 
ATOM      4  C2  PXY d   1       2.762   1.794   1.507  0.00  0.00     0.003 A 
ATOM      5  C3  PXY d   1       3.520   0.839   0.881  0.00  0.00     0.003 A 
ATOM      6  C4  PXY d   1       2.920  -0.184   0.197  0.00  0.00    -0.082 A 
ATOM      7  C5  PXY d   1       1.574  -0.224   0.107  0.00  0.00     0.003 A 
ATOM      8  C6  PXY d   1       0.823   0.778   0.715  0.00  0.00     0.003 A 
ENDROOT
TORSDOF 0
ENDMDL
