MODEL 1
REMARK minimizedAffinity 3.91954756
REMARK minimizedRMSD -1
REMARK  0 active torsions:
REMARK  status: ('A' for Active; 'I' for Inactive)
ROOT
ATOM      1  C4' PXY d   1      -0.025  -1.159  -0.797  0.00  0.00     0.077 C 
ATOM      2  C1' PXY d   1       1.474   1.074   4.320  0.00  0.00     0.077 C 
ATOM      3  C1  PXY d   1       1.088   0.498   2.972  0.00  0.00    -0.082 A 
ATOM      4  C2  PXY d   1       0.003  -0.253   2.868  0.00  0.00     0.003 A 
ATOM      5  C3  PXY d   1      -0.344  -0.808   1.663  0.00  0.00     0.003 A 
ATOM      6  C4  PXY d   1       0.398  -0.548   0.542  0.00  0.00    -0.082 A 
ATOM      7  C5  PXY d   1       1.501   0.225   0.638  0.00  0.00     0.003 A 
ATOM      8  C6  PXY d   1       1.858   0.745   1.878  0.00  0.00     0.003 A 
ENDROOT
TORSDOF 0
ENDMDL
