MODEL 1
REMARK minimizedAffinity 7.18646383
REMARK minimizedRMSD -1
REMARK  0 active torsions:
REMARK  status: ('A' for Active; 'I' for Inactive)
ROOT
ATOM      1  C4' PXY d   1       1.657  -5.673  -5.098  0.00  0.00     0.077 C 
ATOM      2  C1' PXY d   1      -3.747  -3.791  -5.913  0.00  0.00     0.077 C 
ATOM      3  C1  PXY d   1      -2.334  -4.293  -5.690  0.00  0.00    -0.082 A 
ATOM      4  C2  PXY d   1      -1.308  -3.517  -5.998  0.00  0.00     0.003 A 
ATOM      5  C3  PXY d   1      -0.024  -3.967  -5.833  0.00  0.00     0.003 A 
ATOM      6  C4  PXY d   1       0.213  -5.204  -5.297  0.00  0.00    -0.082 A 
ATOM      7  C5  PXY d   1      -0.829  -5.998  -4.969  0.00  0.00     0.003 A 
ATOM      8  C6  PXY d   1      -2.125  -5.538  -5.183  0.00  0.00     0.003 A 
ENDROOT
TORSDOF 0
ENDMDL
