MODEL 1
REMARK minimizedAffinity 5.39810228
REMARK minimizedRMSD -1
REMARK  0 active torsions:
REMARK  status: ('A' for Active; 'I' for Inactive)
ROOT
ATOM      1  C4' PXY d   1      -0.271  -3.979  -2.201  0.00  0.00     0.077 C 
ATOM      2  C1' PXY d   1       1.269   0.559   1.032  0.00  0.00     0.077 C 
ATOM      3  C1  PXY d   1       0.853  -0.628   0.185  0.00  0.00    -0.082 A 
ATOM      4  C2  PXY d   1       1.631  -1.697   0.129  0.00  0.00     0.003 A 
ATOM      5  C3  PXY d   1       1.285  -2.765  -0.657  0.00  0.00     0.003 A 
ATOM      6  C4  PXY d   1       0.105  -2.762  -1.352  0.00  0.00    -0.082 A 
ATOM      7  C5  PXY d   1      -0.699  -1.679  -1.291  0.00  0.00     0.003 A 
ATOM      8  C6  PXY d   1      -0.310  -0.588  -0.520  0.00  0.00     0.003 A 
ENDROOT
TORSDOF 0
ENDMDL
