MODEL 1
REMARK minimizedAffinity 3.89269686
REMARK minimizedRMSD -1
REMARK  0 active torsions:
REMARK  status: ('A' for Active; 'I' for Inactive)
ROOT
ATOM      1  C4' PXY d   1      -4.894  -0.013  -2.078  0.00  0.00     0.077 C 
ATOM      2  C1' PXY d   1      -1.889   0.069   2.859  0.00  0.00     0.077 C 
ATOM      3  C1  PXY d   1      -2.685   0.058   1.569  0.00  0.00    -0.082 A 
ATOM      4  C2  PXY d   1      -2.764  -1.056   0.859  0.00  0.00     0.003 A 
ATOM      5  C3  PXY d   1      -3.452  -1.076  -0.327  0.00  0.00     0.003 A 
ATOM      6  C4  PXY d   1      -4.110   0.042  -0.764  0.00  0.00    -0.082 A 
ATOM      7  C5  PXY d   1      -4.043   1.180  -0.040  0.00  0.00     0.003 A 
ATOM      8  C6  PXY d   1      -3.305   1.190   1.140  0.00  0.00     0.003 A 
ENDROOT
TORSDOF 0
ENDMDL
