MODEL 1
REMARK minimizedAffinity -1.92378235
REMARK minimizedRMSD -1
REMARK  0 active torsions:
REMARK  status: ('A' for Active; 'I' for Inactive)
ROOT
ATOM      1  C2' OXE d   1      -0.474  -2.095   2.051  0.00  0.00     0.078 C 
ATOM      2  C1' OXE d   1      -2.188  -0.602   0.403  0.00  0.00     0.078 C 
ATOM      3  C1  OXE d   1      -0.703  -0.473   0.174  0.00  0.00    -0.078 A 
ATOM      4  C2  OXE d   1       0.130  -1.171   1.015  0.00  0.00    -0.078 A 
ATOM      5  C3  OXE d   1       1.506  -1.130   0.812  0.00  0.00     0.003 A 
ATOM      6  C4  OXE d   1       2.057  -0.266  -0.141  0.00  0.00    -0.002 A 
ATOM      7  C5  OXE d   1       1.228   0.484  -0.982  0.00  0.00    -0.002 A 
ATOM      8  C6  OXE d   1      -0.152   0.360  -0.866  0.00  0.00     0.003 A 
ENDROOT
TORSDOF 0
ENDMDL
