MODEL 1
REMARK minimizedAffinity -4.61580324
REMARK minimizedRMSD -1
REMARK  0 active torsions:
REMARK  status: ('A' for Active; 'I' for Inactive)
ROOT
ATOM      1  C2' OXE d   1       2.223  -0.553  -3.667  0.00  0.00     0.078 C 
ATOM      2  C1' OXE d   1       3.997  -1.173  -1.581  0.00  0.00     0.078 C 
ATOM      3  C1  OXE d   1       2.573  -0.837  -1.217  0.00  0.00    -0.078 A 
ATOM      4  C2  OXE d   1       1.724  -0.489  -2.239  0.00  0.00    -0.078 A 
ATOM      5  C3  OXE d   1       0.386  -0.223  -1.964  0.00  0.00     0.003 A 
ATOM      6  C4  OXE d   1      -0.066  -0.157  -0.640  0.00  0.00    -0.002 A 
ATOM      7  C5  OXE d   1       0.793  -0.469   0.419  0.00  0.00    -0.002 A 
ATOM      8  C6  OXE d   1       2.101  -0.851   0.146  0.00  0.00     0.003 A 
ENDROOT
TORSDOF 0
ENDMDL
