MODEL 1
REMARK minimizedAffinity -2.0074532
REMARK minimizedRMSD -1
REMARK  0 active torsions:
REMARK  status: ('A' for Active; 'I' for Inactive)
ROOT
ATOM      1  C2' OXE d   1      -3.389  -0.942  -0.066  0.00  0.00     0.078 C 
ATOM      2  C1' OXE d   1      -1.773   0.080  -2.121  0.00  0.00     0.078 C 
ATOM      3  C1  OXE d   1      -1.121  -0.215  -0.794  0.00  0.00    -0.078 A 
ATOM      4  C2  OXE d   1      -1.928  -0.671   0.220  0.00  0.00    -0.078 A 
ATOM      5  C3  OXE d   1      -1.367  -1.011   1.448  0.00  0.00     0.003 A 
ATOM      6  C4  OXE d   1      -0.016  -0.747   1.707  0.00  0.00    -0.002 A 
ATOM      7  C5  OXE d   1       0.815  -0.245   0.701  0.00  0.00    -0.002 A 
ATOM      8  C6  OXE d   1       0.289  -0.015  -0.566  0.00  0.00     0.003 A 
ENDROOT
TORSDOF 0
ENDMDL
