MODEL 1
REMARK minimizedAffinity -5.23886108
REMARK minimizedRMSD -1
REMARK  0 active torsions:
REMARK  status: ('A' for Active; 'I' for Inactive)
ROOT
ATOM      1  C2' OXE d   1      -0.065   0.112  -2.248  0.00  0.00     0.078 C 
ATOM      2  C1' OXE d   1       0.828   0.469   0.390  0.00  0.00     0.078 C 
ATOM      3  C1  OXE d   1      -0.584  -0.019   0.185  0.00  0.00    -0.078 A 
ATOM      4  C2  OXE d   1      -1.028  -0.146  -1.110  0.00  0.00    -0.078 A 
ATOM      5  C3  OXE d   1      -2.304  -0.645  -1.355  0.00  0.00     0.003 A 
ATOM      6  C4  OXE d   1      -3.192  -0.872  -0.297  0.00  0.00    -0.002 A 
ATOM      7  C5  OXE d   1      -2.774  -0.711   1.028  0.00  0.00    -0.002 A 
ATOM      8  C6  OXE d   1      -1.463  -0.327   1.287  0.00  0.00     0.003 A 
ENDROOT
TORSDOF 0
ENDMDL
