MODEL 1
REMARK minimizedAffinity -3.84997821
REMARK minimizedRMSD -1
REMARK  0 active torsions:
REMARK  status: ('A' for Active; 'I' for Inactive)
ROOT
ATOM      1  C2' OXE d   1       1.074   0.488   0.472  0.00  0.00     0.078 C 
ATOM      2  C1' OXE d   1       1.916   3.166   0.479  0.00  0.00     0.078 C 
ATOM      3  C1  OXE d   1       2.480   2.249   1.535  0.00  0.00    -0.078 A 
ATOM      4  C2  OXE d   1       2.026   0.952   1.553  0.00  0.00    -0.078 A 
ATOM      5  C3  OXE d   1       2.555   0.050   2.473  0.00  0.00     0.003 A 
ATOM      6  C4  OXE d   1       3.428   0.489   3.475  0.00  0.00    -0.002 A 
ATOM      7  C5  OXE d   1       3.872   1.815   3.499  0.00  0.00    -0.002 A 
ATOM      8  C6  OXE d   1       3.441   2.696   2.513  0.00  0.00     0.003 A 
ENDROOT
TORSDOF 0
ENDMDL
