MODEL 1
REMARK minimizedAffinity -0.738828242
REMARK minimizedRMSD -1
REMARK  0 active torsions:
REMARK  status: ('A' for Active; 'I' for Inactive)
ROOT
ATOM      1  C2' OXE d   1       2.467   3.618   2.507  0.00  0.00     0.078 C 
ATOM      2  C1' OXE d   1       2.509   1.139   1.190  0.00  0.00     0.078 C 
ATOM      3  C1  OXE d   1       3.230   2.293   0.540  0.00  0.00    -0.078 A 
ATOM      4  C2  OXE d   1       3.165   3.514   1.168  0.00  0.00    -0.078 A 
ATOM      5  C3  OXE d   1       3.859   4.599   0.640  0.00  0.00     0.003 A 
ATOM      6  C4  OXE d   1       4.493   4.497  -0.604  0.00  0.00    -0.002 A 
ATOM      7  C5  OXE d   1       4.538   3.273  -1.280  0.00  0.00    -0.002 A 
ATOM      8  C6  OXE d   1       3.949   2.154  -0.703  0.00  0.00     0.003 A 
ENDROOT
TORSDOF 0
ENDMDL
