MODEL 1
REMARK minimizedAffinity -2.5881834
REMARK minimizedRMSD -1
REMARK  0 active torsions:
REMARK  status: ('A' for Active; 'I' for Inactive)
ROOT
ATOM      1  C2' OXE d   1       1.527  -1.543   1.998  0.00  0.00     0.078 C 
ATOM      2  C1' OXE d   1       1.802  -0.069  -0.376  0.00  0.00     0.078 C 
ATOM      3  C1  OXE d   1       0.405  -0.376   0.104  0.00  0.00    -0.078 A 
ATOM      4  C2  OXE d   1       0.281  -1.138   1.241  0.00  0.00    -0.078 A 
ATOM      5  C3  OXE d   1      -0.984  -1.404   1.757  0.00  0.00     0.003 A 
ATOM      6  C4  OXE d   1      -2.132  -1.035   1.046  0.00  0.00    -0.002 A 
ATOM      7  C5  OXE d   1      -2.027  -0.293  -0.135  0.00  0.00    -0.002 A 
ATOM      8  C6  OXE d   1      -0.770   0.081  -0.596  0.00  0.00     0.003 A 
ENDROOT
TORSDOF 0
ENDMDL
