MODEL 1
REMARK minimizedAffinity -5.1597662
REMARK minimizedRMSD -1
REMARK  0 active torsions:
REMARK  status: ('A' for Active; 'I' for Inactive)
ROOT
ATOM      1  C2' OXE d   1      -2.744  -0.687   0.395  0.00  0.00     0.078 C 
ATOM      2  C1' OXE d   1      -0.938  -1.781   2.246  0.00  0.00     0.078 C 
ATOM      3  C1  OXE d   1      -0.370  -1.025   1.071  0.00  0.00    -0.078 A 
ATOM      4  C2  OXE d   1      -1.259  -0.533   0.145  0.00  0.00    -0.078 A 
ATOM      5  C3  OXE d   1      -0.791   0.218  -0.929  0.00  0.00     0.003 A 
ATOM      6  C4  OXE d   1       0.584   0.347  -1.158  0.00  0.00    -0.002 A 
ATOM      7  C5  OXE d   1       1.508  -0.180  -0.249  0.00  0.00    -0.002 A 
ATOM      8  C6  OXE d   1       1.048  -0.831   0.890  0.00  0.00     0.003 A 
ENDROOT
TORSDOF 0
ENDMDL
