MODEL 1
REMARK minimizedAffinity -3.16450667
REMARK minimizedRMSD -1
REMARK  0 active torsions:
REMARK  status: ('A' for Active; 'I' for Inactive)
ROOT
ATOM      1  C2' OXE d   1       1.223  -0.369   0.722  0.00  0.00     0.078 C 
ATOM      2  C1' OXE d   1       2.577  -0.367  -1.737  0.00  0.00     0.078 C 
ATOM      3  C1  OXE d   1       2.765   0.823  -0.829  0.00  0.00    -0.078 A 
ATOM      4  C2  OXE d   1       2.062   0.835   0.351  0.00  0.00    -0.078 A 
ATOM      5  C3  OXE d   1       2.241   1.883   1.250  0.00  0.00     0.003 A 
ATOM      6  C4  OXE d   1       3.011   2.997   0.895  0.00  0.00    -0.002 A 
ATOM      7  C5  OXE d   1       3.705   3.023  -0.320  0.00  0.00    -0.002 A 
ATOM      8  C6  OXE d   1       3.626   1.928  -1.173  0.00  0.00     0.003 A 
ENDROOT
TORSDOF 0
ENDMDL
