MODEL 1
REMARK minimizedAffinity -4.45103264
REMARK minimizedRMSD -1
REMARK  0 active torsions:
REMARK  status: ('A' for Active; 'I' for Inactive)
ROOT
ATOM      1  C2' OXE d   1       1.484  -0.186   0.916  0.00  0.00     0.078 C 
ATOM      2  C1' OXE d   1       3.170   0.041  -1.317  0.00  0.00     0.078 C 
ATOM      3  C1  OXE d   1       3.070   1.225  -0.387  0.00  0.00    -0.078 A 
ATOM      4  C2  OXE d   1       2.207   1.122   0.677  0.00  0.00    -0.078 A 
ATOM      5  C3  OXE d   1       2.118   2.164   1.596  0.00  0.00     0.003 A 
ATOM      6  C4  OXE d   1       2.782   3.374   1.362  0.00  0.00    -0.002 A 
ATOM      7  C5  OXE d   1       3.635   3.514   0.262  0.00  0.00    -0.002 A 
ATOM      8  C6  OXE d   1       3.823   2.437  -0.597  0.00  0.00     0.003 A 
ENDROOT
TORSDOF 0
ENDMDL
