MODEL 1
REMARK minimizedAffinity -0.0625421628
REMARK minimizedRMSD -1
REMARK  0 active torsions:
REMARK  status: ('A' for Active; 'I' for Inactive)
ROOT
ATOM      1  C2' OXE d   1       1.025  -0.687   1.139  0.00  0.00     0.078 C 
ATOM      2  C1' OXE d   1       2.413  -0.042  -1.215  0.00  0.00     0.078 C 
ATOM      3  C1  OXE d   1       2.490   0.930  -0.064  0.00  0.00    -0.078 A 
ATOM      4  C2  OXE d   1       1.769   0.629   1.067  0.00  0.00    -0.078 A 
ATOM      5  C3  OXE d   1       1.849   1.465   2.177  0.00  0.00     0.003 A 
ATOM      6  C4  OXE d   1       2.531   2.685   2.099  0.00  0.00    -0.002 A 
ATOM      7  C5  OXE d   1       3.239   3.030   0.943  0.00  0.00    -0.002 A 
ATOM      8  C6  OXE d   1       3.263   2.146  -0.130  0.00  0.00     0.003 A 
ENDROOT
TORSDOF 0
ENDMDL
