MODEL 1
REMARK minimizedAffinity 3.24845648
REMARK minimizedRMSD -1
REMARK  0 active torsions:
REMARK  status: ('A' for Active; 'I' for Inactive)
ROOT
ATOM      1  C2' OXE d   1      -0.878  -0.336  -2.357  0.00  0.00     0.078 C 
ATOM      2  C1' OXE d   1       0.685  -0.087  -0.038  0.00  0.00     0.078 C 
ATOM      3  C1  OXE d   1       1.397  -0.355  -1.341  0.00  0.00    -0.078 A 
ATOM      4  C2  OXE d   1       0.621  -0.522  -2.463  0.00  0.00    -0.078 A 
ATOM      5  C3  OXE d   1       1.229  -0.717  -3.699  0.00  0.00     0.003 A 
ATOM      6  C4  OXE d   1       2.615  -0.898  -3.787  0.00  0.00    -0.002 A 
ATOM      7  C5  OXE d   1       3.420  -0.771  -2.650  0.00  0.00    -0.002 A 
ATOM      8  C6  OXE d   1       2.832  -0.459  -1.430  0.00  0.00     0.003 A 
ENDROOT
TORSDOF 0
ENDMDL
