MODEL 1
REMARK minimizedAffinity 0.797740102
REMARK minimizedRMSD -1
REMARK  0 active torsions:
REMARK  status: ('A' for Active; 'I' for Inactive)
ROOT
ATOM      1  C2' OXE d   1      -2.627  -0.628   0.386  0.00  0.00     0.078 C 
ATOM      2  C1' OXE d   1      -1.135  -2.255   2.120  0.00  0.00     0.078 C 
ATOM      3  C1  OXE d   1      -0.395  -1.205   1.330  0.00  0.00    -0.078 A 
ATOM      4  C2  OXE d   1      -1.126  -0.445   0.449  0.00  0.00    -0.078 A 
ATOM      5  C3  OXE d   1      -0.502   0.575  -0.264  0.00  0.00     0.003 A 
ATOM      6  C4  OXE d   1       0.888   0.731  -0.208  0.00  0.00    -0.002 A 
ATOM      7  C5  OXE d   1       1.657  -0.059   0.653  0.00  0.00    -0.002 A 
ATOM      8  C6  OXE d   1       1.026  -1.001   1.458  0.00  0.00     0.003 A 
ENDROOT
TORSDOF 0
ENDMDL
