MODEL 1
REMARK minimizedAffinity -0.600535095
REMARK minimizedRMSD -1
REMARK  0 active torsions:
REMARK  status: ('A' for Active; 'I' for Inactive)
ROOT
ATOM      1  C2' OXE d   1       3.645  -0.598  -2.275  0.00  0.00     0.078 C 
ATOM      2  C1' OXE d   1       1.607  -0.433  -4.198  0.00  0.00     0.078 C 
ATOM      3  C1  OXE d   1       1.234  -0.197  -2.756  0.00  0.00    -0.078 A 
ATOM      4  C2  OXE d   1       2.229  -0.325  -1.816  0.00  0.00    -0.078 A 
ATOM      5  C3  OXE d   1       1.951  -0.064  -0.478  0.00  0.00     0.003 A 
ATOM      6  C4  OXE d   1       0.636   0.178  -0.061  0.00  0.00    -0.002 A 
ATOM      7  C5  OXE d   1      -0.399   0.274  -0.997  0.00  0.00    -0.002 A 
ATOM      8  C6  OXE d   1      -0.110   0.132  -2.350  0.00  0.00     0.003 A 
ENDROOT
TORSDOF 0
ENDMDL
