MODEL 1
REMARK minimizedAffinity -3.79735518
REMARK minimizedRMSD -1
REMARK  0 active torsions:
REMARK  status: ('A' for Active; 'I' for Inactive)
ROOT
ATOM      1  C2' OXE d   1       1.420  -0.159  -1.975  0.00  0.00     0.078 C 
ATOM      2  C1' OXE d   1       1.504  -0.163   0.831  0.00  0.00     0.078 C 
ATOM      3  C1  OXE d   1       0.184  -0.465   0.167  0.00  0.00    -0.078 A 
ATOM      4  C2  OXE d   1       0.141  -0.415  -1.206  0.00  0.00    -0.078 A 
ATOM      5  C3  OXE d   1      -1.037  -0.739  -1.871  0.00  0.00     0.003 A 
ATOM      6  C4  OXE d   1      -2.218  -0.965  -1.153  0.00  0.00    -0.002 A 
ATOM      7  C5  OXE d   1      -2.205  -0.982   0.246  0.00  0.00    -0.002 A 
ATOM      8  C6  OXE d   1      -1.006  -0.776   0.919  0.00  0.00     0.003 A 
ENDROOT
TORSDOF 0
ENDMDL
