MODEL 1
REMARK minimizedAffinity -4.92868233
REMARK minimizedRMSD -1
REMARK  0 active torsions:
REMARK  status: ('A' for Active; 'I' for Inactive)
ROOT
ATOM      1  C2' OXE d   1       2.168   3.351   1.095  0.00  0.00     0.078 C 
ATOM      2  C1' OXE d   1       3.794   3.475  -1.189  0.00  0.00     0.078 C 
ATOM      3  C1  OXE d   1       3.044   2.193  -0.929  0.00  0.00    -0.078 A 
ATOM      4  C2  OXE d   1       2.287   2.125   0.217  0.00  0.00    -0.078 A 
ATOM      5  C3  OXE d   1       1.532   0.985   0.477  0.00  0.00     0.003 A 
ATOM      6  C4  OXE d   1       1.656  -0.148  -0.336  0.00  0.00    -0.002 A 
ATOM      7  C5  OXE d   1       2.452  -0.114  -1.486  0.00  0.00    -0.002 A 
ATOM      8  C6  OXE d   1       3.118   1.061  -1.819  0.00  0.00     0.003 A 
ENDROOT
TORSDOF 0
ENDMDL
