MODEL 1
REMARK minimizedAffinity -1.32545865
REMARK minimizedRMSD -1
REMARK  0 active torsions:
REMARK  status: ('A' for Active; 'I' for Inactive)
ROOT
ATOM      1  C2' OXE d   1       4.272   4.604  -1.102  0.00  0.00     0.078 C 
ATOM      2  C1' OXE d   1       4.086   1.806  -1.245  0.00  0.00     0.078 C 
ATOM      3  C1  OXE d   1       3.525   2.487  -0.021  0.00  0.00    -0.078 A 
ATOM      4  C2  OXE d   1       3.662   3.852   0.062  0.00  0.00    -0.078 A 
ATOM      5  C3  OXE d   1       3.114   4.535   1.143  0.00  0.00     0.003 A 
ATOM      6  C4  OXE d   1       2.560   3.831   2.219  0.00  0.00    -0.002 A 
ATOM      7  C5  OXE d   1       2.446   2.438   2.173  0.00  0.00    -0.002 A 
ATOM      8  C6  OXE d   1       2.884   1.756   1.044  0.00  0.00     0.003 A 
ENDROOT
TORSDOF 0
ENDMDL
