MODEL 1
REMARK minimizedAffinity -4.19272995
REMARK minimizedRMSD -1
REMARK  0 active torsions:
REMARK  status: ('A' for Active; 'I' for Inactive)
ROOT
ATOM      1  C2' OXE d   1      -3.237  -0.955   0.088  0.00  0.00     0.078 C 
ATOM      2  C1' OXE d   1      -2.005  -0.155  -2.304  0.00  0.00     0.078 C 
ATOM      3  C1  OXE d   1      -1.134  -0.314  -1.083  0.00  0.00    -0.078 A 
ATOM      4  C2  OXE d   1      -1.753  -0.660   0.094  0.00  0.00    -0.078 A 
ATOM      5  C3  OXE d   1      -0.988  -0.874   1.237  0.00  0.00     0.003 A 
ATOM      6  C4  OXE d   1       0.383  -0.589   1.237  0.00  0.00    -0.002 A 
ATOM      7  C5  OXE d   1       1.026  -0.197   0.058  0.00  0.00    -0.002 A 
ATOM      8  C6  OXE d   1       0.291  -0.096  -1.118  0.00  0.00     0.003 A 
ENDROOT
TORSDOF 0
ENDMDL
