MODEL 1
REMARK minimizedAffinity -5.01507473
REMARK minimizedRMSD -1
REMARK  0 active torsions:
REMARK  status: ('A' for Active; 'I' for Inactive)
ROOT
ATOM      1  C2' OXE d   1       0.990   0.694   0.154  0.00  0.00     0.078 C 
ATOM      2  C1' OXE d   1       0.457  -0.045  -2.502  0.00  0.00     0.078 C 
ATOM      3  C1  OXE d   1      -0.606  -0.322  -1.467  0.00  0.00    -0.078 A 
ATOM      4  C2  OXE d   1      -0.317   0.000  -0.163  0.00  0.00    -0.078 A 
ATOM      5  C3  OXE d   1      -1.283  -0.184   0.822  0.00  0.00     0.003 A 
ATOM      6  C4  OXE d   1      -2.486  -0.836   0.523  0.00  0.00    -0.002 A 
ATOM      7  C5  OXE d   1      -2.783  -1.208  -0.793  0.00  0.00    -0.002 A 
ATOM      8  C6  OXE d   1      -1.873  -0.921  -1.804  0.00  0.00     0.003 A 
ENDROOT
TORSDOF 0
ENDMDL
