MODEL 1
REMARK minimizedAffinity 7.37264156
REMARK minimizedRMSD -1
REMARK  1 active torsions:
REMARK  status: ('A' for Active; 'I' for Inactive)
REMARK    1  A    between atoms: C1_2  and  C2_3 
ROOT
ATOM      1  C2  UNL d   1       1.878   1.204   2.455  0.00  0.00    -0.073 A 
ATOM      2  C3  UNL d   1       1.215   0.455   1.477  0.00  0.00    -0.002 A 
ATOM      3  C4  UNL d   1       1.889   0.042   0.327  0.00  0.00     0.004 A 
ATOM      4  C5  UNL d   1       3.233   0.367   0.147  0.00  0.00    -0.004 A 
ATOM      5  C6  UNL d   1       3.917   1.105   1.119  0.00  0.00    -0.075 A 
ATOM      6  C7  UNL d   1       5.363   1.465   0.939  0.00  0.00     0.076 C 
ATOM      7  C8  UNL d   1       3.232   1.518   2.269  0.00  0.00     0.001 A 
ENDROOT
BRANCH   1   8
ATOM      8  C1  UNL d   1       1.156   1.646   3.702  0.00  0.00     0.053 C 
ATOM      9  C   UNL d   1       0.221   0.570   4.231  0.00  0.00     0.018 C 
ENDBRANCH   1   8
TORSDOF 1
ENDMDL
