MODEL 1
REMARK minimizedAffinity 6.61177111
REMARK minimizedRMSD -1
REMARK  1 active torsions:
REMARK  status: ('A' for Active; 'I' for Inactive)
REMARK    1  A    between atoms: C1_2  and  C2_3 
ROOT
ATOM      1  C2  UNL d   1       2.887   1.317  -0.532  0.00  0.00    -0.073 A 
ATOM      2  C3  UNL d   1       2.990   0.641   0.689  0.00  0.00    -0.002 A 
ATOM      3  C4  UNL d   1       3.024  -0.754   0.722  0.00  0.00     0.004 A 
ATOM      4  C5  UNL d   1       2.962  -1.485  -0.464  0.00  0.00    -0.004 A 
ATOM      5  C6  UNL d   1       2.871  -0.827  -1.695  0.00  0.00    -0.075 A 
ATOM      6  C7  UNL d   1       2.802  -1.600  -2.980  0.00  0.00     0.076 C 
ATOM      7  C8  UNL d   1       2.835   0.573  -1.719  0.00  0.00     0.001 A 
ENDROOT
BRANCH   1   8
ATOM      8  C1  UNL d   1       2.856   2.823  -0.573  0.00  0.00     0.053 C 
ATOM      9  C   UNL d   1       3.960   3.392  -1.450  0.00  0.00     0.018 C 
ENDBRANCH   1   8
TORSDOF 1
ENDMDL
