MODEL 1
REMARK minimizedAffinity 8.76723671
REMARK minimizedRMSD -1
REMARK  1 active torsions:
REMARK  status: ('A' for Active; 'I' for Inactive)
REMARK    1  A    between atoms: C1_2  and  C2_3 
ROOT
ATOM      1  C2  UNL d   1       4.933   0.608   0.807  0.00  0.00    -0.073 A 
ATOM      2  C3  UNL d   1       5.195   1.951   0.512  0.00  0.00    -0.002 A 
ATOM      3  C4  UNL d   1       4.202   2.756  -0.048  0.00  0.00     0.004 A 
ATOM      4  C5  UNL d   1       2.938   2.230  -0.313  0.00  0.00    -0.004 A 
ATOM      5  C6  UNL d   1       2.653   0.893  -0.014  0.00  0.00    -0.075 A 
ATOM      6  C7  UNL d   1       1.299   0.311  -0.294  0.00  0.00     0.076 C 
ATOM      7  C8  UNL d   1       3.656   0.090   0.546  0.00  0.00     0.001 A 
ENDROOT
BRANCH   1   8
ATOM      8  C1  UNL d   1       6.000  -0.263   1.418  0.00  0.00     0.053 C 
ATOM      9  C   UNL d   1       6.000  -0.184   2.936  0.00  0.00     0.018 C 
ENDBRANCH   1   8
TORSDOF 1
ENDMDL
