MODEL 1
REMARK minimizedAffinity 12.4658804
REMARK minimizedRMSD -1
REMARK  1 active torsions:
REMARK  status: ('A' for Active; 'I' for Inactive)
REMARK    1  A    between atoms: C1_2  and  C2_3 
ROOT
ATOM      1  C2  UNL d   1       5.642   4.352  -0.354  0.00  0.00    -0.073 A 
ATOM      2  C3  UNL d   1       5.994   3.867   0.911  0.00  0.00    -0.002 A 
ATOM      3  C4  UNL d   1       5.671   2.561   1.281  0.00  0.00     0.004 A 
ATOM      4  C5  UNL d   1       5.001   1.724   0.389  0.00  0.00    -0.004 A 
ATOM      5  C6  UNL d   1       4.651   2.186  -0.884  0.00  0.00    -0.075 A 
ATOM      6  C7  UNL d   1       3.928   1.299  -1.855  0.00  0.00     0.076 C 
ATOM      7  C8  UNL d   1       4.977   3.500  -1.247  0.00  0.00     0.001 A 
ENDROOT
BRANCH   1   8
ATOM      8  C1  UNL d   1       5.995   5.759  -0.760  0.00  0.00     0.053 C 
ATOM      9  C   UNL d   1       5.784   5.993  -2.247  0.00  0.00     0.018 C 
ENDBRANCH   1   8
TORSDOF 1
ENDMDL
