MODEL 1
REMARK minimizedAffinity 9.24970436
REMARK minimizedRMSD -1
REMARK  1 active torsions:
REMARK  status: ('A' for Active; 'I' for Inactive)
REMARK    1  A    between atoms: C1_2  and  C2_3 
ROOT
ATOM      1  C2  UNL d   1       4.348   2.235   0.668  0.00  0.00    -0.073 A 
ATOM      2  C3  UNL d   1       4.388   2.294  -0.730  0.00  0.00    -0.002 A 
ATOM      3  C4  UNL d   1       3.562   1.470  -1.495  0.00  0.00     0.004 A 
ATOM      4  C5  UNL d   1       2.683   0.584  -0.871  0.00  0.00    -0.004 A 
ATOM      5  C6  UNL d   1       2.619   0.518   0.524  0.00  0.00    -0.075 A 
ATOM      6  C7  UNL d   1       1.681  -0.431   1.210  0.00  0.00     0.076 C 
ATOM      7  C8  UNL d   1       3.454   1.348   1.285  0.00  0.00     0.001 A 
ENDROOT
BRANCH   1   8
ATOM      8  C1  UNL d   1       5.233   3.128   1.498  0.00  0.00     0.053 C 
ATOM      9  C   UNL d   1       5.800   4.282   0.687  0.00  0.00     0.018 C 
ENDBRANCH   1   8
TORSDOF 1
ENDMDL
