MODEL 1
REMARK minimizedAffinity 2.11436653
REMARK minimizedRMSD -1
REMARK  1 active torsions:
REMARK  status: ('A' for Active; 'I' for Inactive)
REMARK    1  A    between atoms: C3_4  and  O_7 
ROOT
ATOM      1  C   UNL d   1      -3.682   0.593  -2.970  0.00  0.00    -0.033 A 
ATOM      2  C1  UNL d   1      -3.097  -0.260  -2.032  0.00  0.00     0.039 A 
ATOM      3  C2  UNL d   1      -3.863  -0.782  -0.988  0.00  0.00    -0.080 A 
ATOM      4  C3  UNL d   1      -5.211  -0.445  -0.894  0.00  0.00     0.150 A 
ATOM      5  C4  UNL d   1      -5.800   0.402  -1.827  0.00  0.00    -0.007 A 
ATOM      6  C5  UNL d   1      -5.034   0.923  -2.868  0.00  0.00     0.039 A 
ENDROOT
BRANCH   4   7
ATOM      7  O   UNL d   1      -5.997  -0.926   0.110  0.00  0.00    -0.526 OA
ATOM      8  H5  UNL d   1      -5.448  -1.474   0.696  0.00  0.00     0.418 HD
ENDBRANCH   4   7
TORSDOF 1
ENDMDL
