MODEL 1
REMARK minimizedAffinity 3.25134587
REMARK minimizedRMSD -1
REMARK  1 active torsions:
REMARK  status: ('A' for Active; 'I' for Inactive)
REMARK    1  A    between atoms: C3_4  and  O_7 
ROOT
ATOM      1  C   UNL d   1      -4.434   2.603  -0.791  0.00  0.00    -0.033 A 
ATOM      2  C1  UNL d   1      -3.435   3.433  -0.279  0.00  0.00     0.039 A 
ATOM      3  C2  UNL d   1      -2.113   2.988  -0.228  0.00  0.00    -0.080 A 
ATOM      4  C3  UNL d   1      -1.802   1.713  -0.693  0.00  0.00     0.150 A 
ATOM      5  C4  UNL d   1      -2.792   0.882  -1.209  0.00  0.00    -0.007 A 
ATOM      6  C5  UNL d   1      -4.112   1.328  -1.258  0.00  0.00     0.039 A 
ENDROOT
BRANCH   4   7
ATOM      7  O   UNL d   1      -0.527   1.233  -0.660  0.00  0.00    -0.526 OA
ATOM      8  H5  UNL d   1       0.044   1.905  -0.252  0.00  0.00     0.418 HD
ENDBRANCH   4   7
TORSDOF 1
ENDMDL
