MODEL 1
REMARK minimizedAffinity 0.918165624
REMARK minimizedRMSD -1
REMARK  1 active torsions:
REMARK  status: ('A' for Active; 'I' for Inactive)
REMARK    1  A    between atoms: C3_4  and  O_7 
ROOT
ATOM      1  C   UNL d   1       4.340  -0.733  -1.959  0.00  0.00    -0.033 A 
ATOM      2  C1  UNL d   1       3.929  -2.006  -2.361  0.00  0.00     0.039 A 
ATOM      3  C2  UNL d   1       3.116  -2.774  -1.526  0.00  0.00    -0.080 A 
ATOM      4  C3  UNL d   1       2.721  -2.260  -0.294  0.00  0.00     0.150 A 
ATOM      5  C4  UNL d   1       3.123  -0.991   0.110  0.00  0.00    -0.007 A 
ATOM      6  C5  UNL d   1       3.935  -0.225  -0.724  0.00  0.00     0.039 A 
ENDROOT
BRANCH   4   7
ATOM      7  O   UNL d   1       1.931  -2.975   0.557  0.00  0.00    -0.526 OA
ATOM      8  H5  UNL d   1       1.756  -3.843   0.157  0.00  0.00     0.418 HD
ENDBRANCH   4   7
TORSDOF 1
ENDMDL
