MODEL 1
REMARK minimizedAffinity 6.7764349
REMARK minimizedRMSD -1
REMARK  1 active torsions:
REMARK  status: ('A' for Active; 'I' for Inactive)
REMARK    1  A    between atoms: C3_4  and  O_7 
ROOT
ATOM      1  C   UNL d   1      -0.356   1.290  -0.306  0.00  0.00    -0.033 A 
ATOM      2  C1  UNL d   1      -1.472   1.541   0.494  0.00  0.00     0.039 A 
ATOM      3  C2  UNL d   1      -1.416   1.302   1.869  0.00  0.00    -0.080 A 
ATOM      4  C3  UNL d   1      -0.239   0.813   2.429  0.00  0.00     0.150 A 
ATOM      5  C4  UNL d   1       0.878   0.564   1.638  0.00  0.00    -0.007 A 
ATOM      6  C5  UNL d   1       0.819   0.802   0.266  0.00  0.00     0.039 A 
ENDROOT
BRANCH   4   7
ATOM      7  O   UNL d   1      -0.138   0.560   3.765  0.00  0.00    -0.526 OA
ATOM      8  H5  UNL d   1      -0.995   0.752   4.181  0.00  0.00     0.418 HD
ENDBRANCH   4   7
TORSDOF 1
ENDMDL
