MODEL 1
REMARK minimizedAffinity 2.39250445
REMARK minimizedRMSD -1
REMARK  1 active torsions:
REMARK  status: ('A' for Active; 'I' for Inactive)
REMARK    1  A    between atoms: C3_4  and  O_7 
ROOT
ATOM      1  C   UNL d   1       1.642  -3.009   4.284  0.00  0.00    -0.033 A 
ATOM      2  C1  UNL d   1       0.370  -3.038   3.710  0.00  0.00     0.039 A 
ATOM      3  C2  UNL d   1      -0.636  -3.823   4.275  0.00  0.00    -0.080 A 
ATOM      4  C3  UNL d   1      -0.358  -4.573   5.415  0.00  0.00     0.150 A 
ATOM      5  C4  UNL d   1       0.906  -4.546   5.995  0.00  0.00    -0.007 A 
ATOM      6  C5  UNL d   1       1.909  -3.762   5.428  0.00  0.00     0.039 A 
ENDROOT
BRANCH   4   7
ATOM      7  O   UNL d   1      -1.307  -5.359   6.000  0.00  0.00    -0.526 OA
ATOM      8  H5  UNL d   1      -2.122  -5.300   5.474  0.00  0.00     0.418 HD
ENDBRANCH   4   7
TORSDOF 1
ENDMDL
