MODEL 1
REMARK minimizedAffinity -0.596086562
REMARK minimizedRMSD -1
REMARK  1 active torsions:
REMARK  status: ('A' for Active; 'I' for Inactive)
REMARK    1  A    between atoms: C3_4  and  O_7 
ROOT
ATOM      1  C   UNL d   1      -1.361   0.875   1.721  0.00  0.00    -0.033 A 
ATOM      2  C1  UNL d   1      -1.170   1.546   0.511  0.00  0.00     0.039 A 
ATOM      3  C2  UNL d   1       0.119   1.719   0.003  0.00  0.00    -0.080 A 
ATOM      4  C3  UNL d   1       1.206   1.217   0.713  0.00  0.00     0.150 A 
ATOM      5  C4  UNL d   1       1.023   0.545   1.917  0.00  0.00    -0.007 A 
ATOM      6  C5  UNL d   1      -0.265   0.374   2.423  0.00  0.00     0.039 A 
ENDROOT
BRANCH   4   7
ATOM      7  O   UNL d   1       2.483   1.366   0.259  0.00  0.00    -0.526 OA
ATOM      8  H5  UNL d   1       2.458   1.875  -0.569  0.00  0.00     0.418 HD
ENDBRANCH   4   7
TORSDOF 1
ENDMDL
