MODEL 1
REMARK minimizedAffinity 1.1591692
REMARK minimizedRMSD -1
REMARK  1 active torsions:
REMARK  status: ('A' for Active; 'I' for Inactive)
REMARK    1  A    between atoms: C3_4  and  O_7 
ROOT
ATOM      1  C   UNL d   1       3.015   1.469  -0.302  0.00  0.00    -0.033 A 
ATOM      2  C1  UNL d   1       4.030   0.672  -0.836  0.00  0.00     0.039 A 
ATOM      3  C2  UNL d   1       3.904  -0.719  -0.831  0.00  0.00    -0.080 A 
ATOM      4  C3  UNL d   1       2.759  -1.299  -0.291  0.00  0.00     0.150 A 
ATOM      5  C4  UNL d   1       1.743  -0.511   0.239  0.00  0.00    -0.007 A 
ATOM      6  C5  UNL d   1       1.871   0.877   0.234  0.00  0.00     0.039 A 
ENDROOT
BRANCH   4   7
ATOM      7  O   UNL d   1       2.593  -2.652  -0.259  0.00  0.00    -0.526 OA
ATOM      8  H5  UNL d   1       3.388  -3.068  -0.633  0.00  0.00     0.418 HD
ENDBRANCH   4   7
TORSDOF 1
ENDMDL
