MODEL 1
REMARK minimizedAffinity -5.13451529
REMARK minimizedRMSD -1
REMARK  1 active torsions:
REMARK  status: ('A' for Active; 'I' for Inactive)
REMARK    1  A    between atoms: C1_2  and  C2_3 
ROOT
ATOM      1  C2  UNL d   1       0.125  -0.369   0.097  0.00  0.00    -0.077 A 
ATOM      2  C3  UNL d   1      -0.387  -0.230   1.395  0.00  0.00     0.002 A 
ATOM      3  C4  UNL d   1       0.344  -0.682   2.495  0.00  0.00     0.002 A 
ATOM      4  C5  UNL d   1       1.593  -1.271   2.309  0.00  0.00    -0.004 A 
ATOM      5  C6  UNL d   1       2.110  -1.416   1.022  0.00  0.00     0.002 A 
ATOM      6  C7  UNL d   1       1.379  -0.966  -0.078  0.00  0.00     0.002 A 
ENDROOT
BRANCH   1   7
ATOM      7  C1  UNL d   1      -0.641   0.162  -1.086  0.00  0.00     0.055 C 
ATOM      8  C   UNL d   1      -0.357   1.640  -1.312  0.00  0.00     0.019 C 
ENDBRANCH   1   7
TORSDOF 1
ENDMDL
