MODEL 1
REMARK minimizedAffinity -3.54280472
REMARK minimizedRMSD -1
REMARK  1 active torsions:
REMARK  status: ('A' for Active; 'I' for Inactive)
REMARK    1  A    between atoms: C1_2  and  C2_3 
ROOT
ATOM      1  C2  UNL d   1      -0.053  -0.458  -0.379  0.00  0.00    -0.077 A 
ATOM      2  C3  UNL d   1       0.989  -1.351  -0.668  0.00  0.00     0.002 A 
ATOM      3  C4  UNL d   1       1.594  -2.085   0.354  0.00  0.00     0.002 A 
ATOM      4  C5  UNL d   1       1.162  -1.937   1.670  0.00  0.00    -0.004 A 
ATOM      5  C6  UNL d   1       0.129  -1.050   1.968  0.00  0.00     0.002 A 
ATOM      6  C7  UNL d   1      -0.477  -0.314   0.949  0.00  0.00     0.002 A 
ENDROOT
BRANCH   1   7
ATOM      7  C1  UNL d   1      -0.740   0.298  -1.486  0.00  0.00     0.055 C 
ATOM      8  C   UNL d   1      -0.063   1.636  -1.745  0.00  0.00     0.019 C 
ENDBRANCH   1   7
TORSDOF 1
ENDMDL
