MODEL 1
REMARK minimizedAffinity -4.85044765
REMARK minimizedRMSD -1
REMARK  1 active torsions:
REMARK  status: ('A' for Active; 'I' for Inactive)
REMARK    1  A    between atoms: C1_2  and  C2_3 
ROOT
ATOM      1  C2  UNL d   1      -0.341   0.194  -0.312  0.00  0.00    -0.077 A 
ATOM      2  C3  UNL d   1       0.795  -0.466   0.178  0.00  0.00     0.002 A 
ATOM      3  C4  UNL d   1       0.812  -0.971   1.480  0.00  0.00     0.002 A 
ATOM      4  C5  UNL d   1      -0.305  -0.825   2.300  0.00  0.00    -0.004 A 
ATOM      5  C6  UNL d   1      -1.438  -0.168   1.823  0.00  0.00     0.002 A 
ATOM      6  C7  UNL d   1      -1.457   0.338   0.523  0.00  0.00     0.002 A 
ENDROOT
BRANCH   1   7
ATOM      7  C1  UNL d   1      -0.379   0.696  -1.732  0.00  0.00     0.055 C 
ATOM      8  C   UNL d   1      -0.795   2.159  -1.791  0.00  0.00     0.019 C 
ENDBRANCH   1   7
TORSDOF 1
ENDMDL
