MODEL 1
REMARK minimizedAffinity 2.09277463
REMARK minimizedRMSD -1
REMARK  1 active torsions:
REMARK  status: ('A' for Active; 'I' for Inactive)
REMARK    1  A    between atoms: C1_2  and  C2_3 
ROOT
ATOM      1  C2  UNL d   1      -0.476   1.893   1.175  0.00  0.00    -0.081 A 
ATOM      2  C3  UNL d   1       0.391   2.125   0.100  0.00  0.00     0.006 A 
ATOM      3  C4  UNL d   1       1.631   2.734   0.308  0.00  0.00     0.002 A 
ATOM      4  C5  UNL d   1       2.028   3.114   1.595  0.00  0.00    -0.080 A 
ATOM      5  C6  UNL d   1       3.368   3.741   1.836  0.00  0.00     0.076 C 
ATOM      6  C7  UNL d   1       1.155   2.897   2.666  0.00  0.00     0.002 A 
ATOM      7  C8  UNL d   1      -0.085   2.289   2.459  0.00  0.00     0.006 A 
ENDROOT
BRANCH   1   8
ATOM      8  C1  UNL d   1      -1.786   1.178   0.963  0.00  0.00     0.054 C 
ATOM      9  C   UNL d   1      -2.802   1.556   2.031  0.00  0.00     0.018 C 
ENDBRANCH   1   8
TORSDOF 1
ENDMDL
