MODEL 1
REMARK minimizedAffinity 2.40749717
REMARK minimizedRMSD -1
REMARK  1 active torsions:
REMARK  status: ('A' for Active; 'I' for Inactive)
REMARK    1  A    between atoms: C1_2  and  C2_3 
ROOT
ATOM      1  C2  UNL d   1       4.101   4.685  -0.039  0.00  0.00    -0.081 A 
ATOM      2  C3  UNL d   1       4.932   3.925  -0.871  0.00  0.00     0.006 A 
ATOM      3  C4  UNL d   1       4.383   3.051  -1.812  0.00  0.00     0.002 A 
ATOM      4  C5  UNL d   1       2.996   2.929  -1.943  0.00  0.00    -0.080 A 
ATOM      5  C6  UNL d   1       2.394   2.017  -2.971  0.00  0.00     0.076 C 
ATOM      6  C7  UNL d   1       2.165   3.675  -1.100  0.00  0.00     0.002 A 
ATOM      7  C8  UNL d   1       2.714   4.548  -0.158  0.00  0.00     0.006 A 
ENDROOT
BRANCH   1   8
ATOM      8  C1  UNL d   1       4.689   5.676   0.933  0.00  0.00     0.054 C 
ATOM      9  C   UNL d   1       4.916   5.043   2.299  0.00  0.00     0.018 C 
ENDBRANCH   1   8
TORSDOF 1
ENDMDL
