MODEL 1
REMARK minimizedAffinity 1.27819109
REMARK minimizedRMSD -1
REMARK  1 active torsions:
REMARK  status: ('A' for Active; 'I' for Inactive)
REMARK    1  A    between atoms: C1_2  and  C2_3 
ROOT
ATOM      1  C2  UNL d   1       2.526   4.923  -5.994  0.00  0.00    -0.081 A 
ATOM      2  C3  UNL d   1       1.364   5.705  -5.999  0.00  0.00     0.006 A 
ATOM      3  C4  UNL d   1       0.104   5.102  -5.999  0.00  0.00     0.002 A 
ATOM      4  C5  UNL d   1      -0.015   3.708  -5.986  0.00  0.00    -0.080 A 
ATOM      5  C6  UNL d   1      -1.362   3.048  -5.955  0.00  0.00     0.076 C 
ATOM      6  C7  UNL d   1       1.145   2.926  -5.998  0.00  0.00     0.002 A 
ATOM      7  C8  UNL d   1       2.405   3.529  -5.999  0.00  0.00     0.006 A 
ENDROOT
BRANCH   1   8
ATOM      8  C1  UNL d   1       3.885   5.571  -5.929  0.00  0.00     0.054 C 
ATOM      9  C   UNL d   1       4.994   4.528  -5.916  0.00  0.00     0.018 C 
ENDBRANCH   1   8
TORSDOF 1
ENDMDL
