MODEL 1
REMARK minimizedAffinity -1.75848842
REMARK minimizedRMSD -1
REMARK  1 active torsions:
REMARK  status: ('A' for Active; 'I' for Inactive)
REMARK    1  A    between atoms: C1_2  and  C2_3 
ROOT
ATOM      1  C2  UNL d   1      -0.237   4.018  -5.909  0.00  0.00    -0.081 A 
ATOM      2  C3  UNL d   1      -0.721   2.707  -5.998  0.00  0.00     0.006 A 
ATOM      3  C4  UNL d   1      -2.096   2.458  -5.986  0.00  0.00     0.002 A 
ATOM      4  C5  UNL d   1      -3.008   3.514  -5.895  0.00  0.00    -0.080 A 
ATOM      5  C6  UNL d   1      -4.487   3.262  -5.912  0.00  0.00     0.076 C 
ATOM      6  C7  UNL d   1      -2.525   4.822  -5.788  0.00  0.00     0.002 A 
ATOM      7  C8  UNL d   1      -1.151   5.073  -5.799  0.00  0.00     0.006 A 
ENDROOT
BRANCH   1   8
ATOM      8  C1  UNL d   1       1.242   4.296  -5.986  0.00  0.00     0.054 C 
ATOM      9  C   UNL d   1       2.050   3.006  -5.944  0.00  0.00     0.018 C 
ENDBRANCH   1   8
TORSDOF 1
ENDMDL
