MODEL 1
REMARK minimizedAffinity 4.64270878
REMARK minimizedRMSD -1
REMARK  1 active torsions:
REMARK  status: ('A' for Active; 'I' for Inactive)
REMARK    1  A    between atoms: C1_2  and  C2_3 
ROOT
ATOM      1  C2  UNL d   1       2.117   3.993  -5.883  0.00  0.00    -0.081 A 
ATOM      2  C3  UNL d   1       0.979   3.184  -5.766  0.00  0.00     0.006 A 
ATOM      3  C4  UNL d   1      -0.297   3.752  -5.768  0.00  0.00     0.002 A 
ATOM      4  C5  UNL d   1      -0.457   5.136  -5.894  0.00  0.00    -0.080 A 
ATOM      5  C6  UNL d   1      -1.823   5.756  -5.928  0.00  0.00     0.076 C 
ATOM      6  C7  UNL d   1       0.679   5.946  -5.994  0.00  0.00     0.002 A 
ATOM      7  C8  UNL d   1       1.955   5.378  -5.992  0.00  0.00     0.006 A 
ENDROOT
BRANCH   1   8
ATOM      8  C1  UNL d   1       3.491   3.377  -5.947  0.00  0.00     0.054 C 
ATOM      9  C   UNL d   1       4.560   4.363  -5.496  0.00  0.00     0.018 C 
ENDBRANCH   1   8
TORSDOF 1
ENDMDL
