MODEL 1
REMARK minimizedAffinity -0.308069974
REMARK minimizedRMSD -1
REMARK  1 active torsions:
REMARK  status: ('A' for Active; 'I' for Inactive)
REMARK    1  A    between atoms: C1_2  and  C2_3 
ROOT
ATOM      1  C2  UNL d   1       0.655   4.501  -5.941  0.00  0.00    -0.081 A 
ATOM      2  C3  UNL d   1       0.162   3.191  -5.946  0.00  0.00     0.006 A 
ATOM      3  C4  UNL d   1      -1.215   2.952  -5.953  0.00  0.00     0.002 A 
ATOM      4  C5  UNL d   1      -2.120   4.018  -5.962  0.00  0.00    -0.080 A 
ATOM      5  C6  UNL d   1      -3.600   3.776  -5.999  0.00  0.00     0.076 C 
ATOM      6  C7  UNL d   1      -1.628   5.328  -5.939  0.00  0.00     0.002 A 
ATOM      7  C8  UNL d   1      -0.252   5.567  -5.932  0.00  0.00     0.006 A 
ENDROOT
BRANCH   1   8
ATOM      8  C1  UNL d   1       2.138   4.762  -6.000  0.00  0.00     0.054 C 
ATOM      9  C   UNL d   1       2.929   3.462  -5.998  0.00  0.00     0.018 C 
ENDBRANCH   1   8
TORSDOF 1
ENDMDL
