MODEL 1
REMARK minimizedAffinity 0.496228278
REMARK minimizedRMSD -1
REMARK  1 active torsions:
REMARK  status: ('A' for Active; 'I' for Inactive)
REMARK    1  A    between atoms: C1_2  and  C2_3 
ROOT
ATOM      1  C2  UNL d   1       1.428   4.335  -5.994  0.00  0.00    -0.081 A 
ATOM      2  C3  UNL d   1       2.263   3.211  -5.993  0.00  0.00     0.006 A 
ATOM      3  C4  UNL d   1       3.652   3.360  -5.984  0.00  0.00     0.002 A 
ATOM      4  C5  UNL d   1       4.229   4.635  -5.969  0.00  0.00    -0.080 A 
ATOM      5  C6  UNL d   1       5.718   4.809  -5.929  0.00  0.00     0.076 C 
ATOM      6  C7  UNL d   1       3.395   5.758  -5.988  0.00  0.00     0.002 A 
ATOM      7  C8  UNL d   1       2.006   5.609  -5.997  0.00  0.00     0.006 A 
ENDROOT
BRANCH   1   8
ATOM      8  C1  UNL d   1      -0.070   4.177  -5.938  0.00  0.00     0.054 C 
ATOM      9  C   UNL d   1      -0.768   5.529  -5.925  0.00  0.00     0.018 C 
ENDBRANCH   1   8
TORSDOF 1
ENDMDL
