MODEL 1
REMARK minimizedAffinity -2.80960917
REMARK minimizedRMSD -1
REMARK  1 active torsions:
REMARK  status: ('A' for Active; 'I' for Inactive)
REMARK    1  A    between atoms: C1_2  and  C2_3 
ROOT
ATOM      1  C2  UNL d   1       2.738   3.495  -5.977  0.00  0.00    -0.081 A 
ATOM      2  C3  UNL d   1       1.820   4.552  -5.987  0.00  0.00     0.006 A 
ATOM      3  C4  UNL d   1       0.446   4.297  -5.998  0.00  0.00     0.002 A 
ATOM      4  C5  UNL d   1      -0.031   2.983  -5.990  0.00  0.00    -0.080 A 
ATOM      5  C6  UNL d   1      -1.503   2.695  -5.970  0.00  0.00     0.076 C 
ATOM      6  C7  UNL d   1       0.886   1.926  -5.997  0.00  0.00     0.002 A 
ATOM      7  C8  UNL d   1       2.259   2.181  -5.988  0.00  0.00     0.006 A 
ENDROOT
BRANCH   1   8
ATOM      8  C1  UNL d   1       4.219   3.767  -5.900  0.00  0.00     0.054 C 
ATOM      9  C   UNL d   1       4.512   5.258  -5.978  0.00  0.00     0.018 C 
ENDBRANCH   1   8
TORSDOF 1
ENDMDL
