MODEL 1
REMARK minimizedAffinity 6.68365574
REMARK minimizedRMSD -1
REMARK  1 active torsions:
REMARK  status: ('A' for Active; 'I' for Inactive)
REMARK    1  A    between atoms: C1_2  and  C2_3 
ROOT
ATOM      1  C2  UNL d   1      -1.034   3.826  -4.842  0.00  0.00    -0.081 A 
ATOM      2  C3  UNL d   1      -1.852   2.989  -5.611  0.00  0.00     0.006 A 
ATOM      3  C4  UNL d   1      -3.139   3.394  -5.972  0.00  0.00     0.002 A 
ATOM      4  C5  UNL d   1      -3.626   4.645  -5.578  0.00  0.00    -0.080 A 
ATOM      5  C6  UNL d   1      -4.995   5.104  -5.985  0.00  0.00     0.076 C 
ATOM      6  C7  UNL d   1      -2.816   5.474  -4.796  0.00  0.00     0.002 A 
ATOM      7  C8  UNL d   1      -1.529   5.069  -4.433  0.00  0.00     0.006 A 
ENDROOT
BRANCH   1   8
ATOM      8  C1  UNL d   1       0.378   3.419  -4.506  0.00  0.00     0.054 C 
ATOM      9  C   UNL d   1       0.456   2.781  -3.126  0.00  0.00     0.018 C 
ENDBRANCH   1   8
TORSDOF 1
ENDMDL
