MODEL 1
REMARK minimizedAffinity 8.90987206
REMARK minimizedRMSD -1
REMARK  1 active torsions:
REMARK  status: ('A' for Active; 'I' for Inactive)
REMARK    1  A    between atoms: C1_2  and  C2_3 
ROOT
ATOM      1  C2  UNL d   1       1.277  -3.703  -3.167  0.00  0.00    -0.081 A 
ATOM      2  C3  UNL d   1       1.418  -3.092  -1.915  0.00  0.00     0.006 A 
ATOM      3  C4  UNL d   1       2.428  -2.152  -1.695  0.00  0.00     0.002 A 
ATOM      4  C5  UNL d   1       3.307  -1.801  -2.725  0.00  0.00    -0.080 A 
ATOM      5  C6  UNL d   1       4.376  -0.771  -2.511  0.00  0.00     0.076 C 
ATOM      6  C7  UNL d   1       3.177  -2.424  -3.971  0.00  0.00     0.002 A 
ATOM      7  C8  UNL d   1       2.168  -3.364  -4.191  0.00  0.00     0.006 A 
ENDROOT
BRANCH   1   8
ATOM      8  C1  UNL d   1       0.149  -4.669  -3.426  0.00  0.00     0.054 C 
ATOM      9  C   UNL d   1      -1.063  -4.348  -2.563  0.00  0.00     0.018 C 
ENDBRANCH   1   8
TORSDOF 1
ENDMDL
