MODEL 1
REMARK minimizedAffinity -3.13759804
REMARK minimizedRMSD -1
REMARK  1 active torsions:
REMARK  status: ('A' for Active; 'I' for Inactive)
REMARK    1  A    between atoms: C1_2  and  C2_3 
ROOT
ATOM      1  C2  UNL d   1       1.268   4.589  -6.000  0.00  0.00    -0.081 A 
ATOM      2  C3  UNL d   1       2.096   3.459  -6.000  0.00  0.00     0.006 A 
ATOM      3  C4  UNL d   1       3.485   3.600  -5.987  0.00  0.00     0.002 A 
ATOM      4  C5  UNL d   1       4.070   4.871  -5.966  0.00  0.00    -0.080 A 
ATOM      5  C6  UNL d   1       5.560   5.035  -5.922  0.00  0.00     0.076 C 
ATOM      6  C7  UNL d   1       3.243   5.999  -5.984  0.00  0.00     0.002 A 
ATOM      7  C8  UNL d   1       1.854   5.859  -5.998  0.00  0.00     0.006 A 
ENDROOT
BRANCH   1   8
ATOM      8  C1  UNL d   1      -0.231   4.440  -5.948  0.00  0.00     0.054 C 
ATOM      9  C   UNL d   1      -0.922   5.796  -5.953  0.00  0.00     0.018 C 
ENDBRANCH   1   8
TORSDOF 1
ENDMDL
