MODEL 1
REMARK minimizedAffinity -2.63865781
REMARK minimizedRMSD -1
REMARK  1 active torsions:
REMARK  status: ('A' for Active; 'I' for Inactive)
REMARK    1  A    between atoms: C1_2  and  C2_3 
ROOT
ATOM      1  C2  UNL d   1       0.189   4.615  -5.934  0.00  0.00    -0.081 A 
ATOM      2  C3  UNL d   1      -0.310   3.308  -5.997  0.00  0.00     0.006 A 
ATOM      3  C4  UNL d   1      -1.688   3.076  -6.000  0.00  0.00     0.002 A 
ATOM      4  C5  UNL d   1      -2.588   4.146  -5.949  0.00  0.00    -0.080 A 
ATOM      5  C6  UNL d   1      -4.069   3.912  -5.983  0.00  0.00     0.076 C 
ATOM      6  C7  UNL d   1      -2.089   5.451  -5.869  0.00  0.00     0.002 A 
ATOM      7  C8  UNL d   1      -0.712   5.683  -5.865  0.00  0.00     0.006 A 
ENDROOT
BRANCH   1   8
ATOM      8  C1  UNL d   1       1.673   4.871  -5.996  0.00  0.00     0.054 C 
ATOM      9  C   UNL d   1       2.465   3.581  -5.842  0.00  0.00     0.018 C 
ENDBRANCH   1   8
TORSDOF 1
ENDMDL
