MODEL 1
REMARK minimizedAffinity -1.95300555
REMARK minimizedRMSD -1
REMARK  1 active torsions:
REMARK  status: ('A' for Active; 'I' for Inactive)
REMARK    1  A    between atoms: C1_2  and  C2_3 
ROOT
ATOM      1  C2  UNL d   1       1.300   4.364  -5.980  0.00  0.00    -0.081 A 
ATOM      2  C3  UNL d   1       2.168   3.265  -5.991  0.00  0.00     0.006 A 
ATOM      3  C4  UNL d   1       3.551   3.454  -5.998  0.00  0.00     0.002 A 
ATOM      4  C5  UNL d   1       4.091   4.745  -5.987  0.00  0.00    -0.080 A 
ATOM      5  C6  UNL d   1       5.575   4.963  -5.964  0.00  0.00     0.076 C 
ATOM      6  C7  UNL d   1       3.224   5.844  -5.994  0.00  0.00     0.002 A 
ATOM      7  C8  UNL d   1       1.841   5.654  -5.988  0.00  0.00     0.006 A 
ENDROOT
BRANCH   1   8
ATOM      8  C1  UNL d   1      -0.192   4.162  -5.907  0.00  0.00     0.054 C 
ATOM      9  C   UNL d   1      -0.908   5.457  -5.553  0.00  0.00     0.018 C 
ENDBRANCH   1   8
TORSDOF 1
ENDMDL
