MODEL 1
REMARK minimizedAffinity -3.62800717
REMARK minimizedRMSD -1
REMARK  1 active torsions:
REMARK  status: ('A' for Active; 'I' for Inactive)
REMARK    1  A    between atoms: C1_2  and  C2_3 
ROOT
ATOM      1  C2  UNL d   1       0.741   3.237  -5.940  0.00  0.00    -0.081 A 
ATOM      2  C3  UNL d   1      -0.288   2.288  -5.961  0.00  0.00     0.006 A 
ATOM      3  C4  UNL d   1      -1.625   2.693  -5.967  0.00  0.00     0.002 A 
ATOM      4  C5  UNL d   1      -1.955   4.052  -5.960  0.00  0.00    -0.080 A 
ATOM      5  C6  UNL d   1      -3.385   4.501  -5.998  0.00  0.00     0.076 C 
ATOM      6  C7  UNL d   1      -0.927   5.001  -5.921  0.00  0.00     0.002 A 
ATOM      7  C8  UNL d   1       0.410   4.596  -5.914  0.00  0.00     0.006 A 
ENDROOT
BRANCH   1   8
ATOM      8  C1  UNL d   1       2.184   2.804  -5.998  0.00  0.00     0.054 C 
ATOM      9  C   UNL d   1       3.122   4.003  -5.996  0.00  0.00     0.018 C 
ENDBRANCH   1   8
TORSDOF 1
ENDMDL
