MODEL 1
REMARK minimizedAffinity -2.88496709
REMARK minimizedRMSD -1
REMARK  1 active torsions:
REMARK  status: ('A' for Active; 'I' for Inactive)
REMARK    1  A    between atoms: C1_2  and  C2_3 
ROOT
ATOM      1  C2  UNL d   1       1.711   3.707  -5.990  0.00  0.00    -0.081 A 
ATOM      2  C3  UNL d   1       0.903   4.851  -5.996  0.00  0.00     0.006 A 
ATOM      3  C4  UNL d   1      -0.489   4.735  -5.999  0.00  0.00     0.002 A 
ATOM      4  C5  UNL d   1      -1.096   3.475  -5.988  0.00  0.00    -0.080 A 
ATOM      5  C6  UNL d   1      -2.589   3.336  -5.960  0.00  0.00     0.076 C 
ATOM      6  C7  UNL d   1      -0.289   2.332  -6.000  0.00  0.00     0.002 A 
ATOM      7  C8  UNL d   1       1.103   2.447  -5.998  0.00  0.00     0.006 A 
ENDROOT
BRANCH   1   8
ATOM      8  C1  UNL d   1       3.212   3.829  -5.922  0.00  0.00     0.054 C 
ATOM      9  C   UNL d   1       3.651   5.285  -5.964  0.00  0.00     0.018 C 
ENDBRANCH   1   8
TORSDOF 1
ENDMDL
