MODEL 1
REMARK minimizedAffinity -5.26909781
REMARK minimizedRMSD -1
REMARK  1 active torsions:
REMARK  status: ('A' for Active; 'I' for Inactive)
REMARK    1  A    between atoms: N_2  and  C1_3 
ROOT
ATOM      1  C1  UNL d   1      -0.498  -0.120   0.144  0.00  0.00     0.143 A 
ATOM      2  C2  UNL d   1      -1.798  -0.138   0.662  0.00  0.00    -0.057 A 
ATOM      3  C3  UNL d   1      -2.109   0.507   1.865  0.00  0.00     0.033 A 
ATOM      4  C4  UNL d   1      -1.116   1.160   2.589  0.00  0.00    -0.042 A 
ATOM      5  C5  UNL d   1       0.188   1.170   2.106  0.00  0.00     0.033 A 
ATOM      6  C6  UNL d   1       0.491   0.529   0.901  0.00  0.00    -0.057 A 
ENDROOT
BRANCH   1   7
ATOM      7  N   UNL d   1      -0.105  -0.825  -0.995  0.00  0.00    -0.732 N 
ATOM      8  C   UNL d   1       0.319  -0.123  -2.187  0.00  0.00     0.284 C 
ATOM      9  H3  UNL d   1       0.459  -1.642  -0.771  0.00  0.00     0.395 HD
ENDBRANCH   1   7
TORSDOF 1
ENDMDL
