MODEL 1
REMARK minimizedAffinity -4.91535378
REMARK minimizedRMSD -1
REMARK  1 active torsions:
REMARK  status: ('A' for Active; 'I' for Inactive)
REMARK    1  A    between atoms: N_2  and  C1_3 
ROOT
ATOM      1  C1  UNL d   1      -0.070   0.059   0.546  0.00  0.00     0.143 A 
ATOM      2  C2  UNL d   1      -1.418  -0.141   0.863  0.00  0.00    -0.057 A 
ATOM      3  C3  UNL d   1      -2.025   0.546   1.921  0.00  0.00     0.033 A 
ATOM      4  C4  UNL d   1      -1.283   1.426   2.703  0.00  0.00    -0.042 A 
ATOM      5  C5  UNL d   1       0.064   1.621   2.422  0.00  0.00     0.033 A 
ATOM      6  C6  UNL d   1       0.663   0.937   1.359  0.00  0.00    -0.057 A 
ENDROOT
BRANCH   1   7
ATOM      7  N   UNL d   1       0.615  -0.667  -0.431  0.00  0.00    -0.732 N 
ATOM      8  C   UNL d   1       0.830  -0.109  -1.749  0.00  0.00     0.284 C 
ATOM      9  H3  UNL d   1       1.419  -1.164  -0.054  0.00  0.00     0.395 HD
ENDBRANCH   1   7
TORSDOF 1
ENDMDL
