MODEL 1
REMARK minimizedAffinity -4.35447884
REMARK minimizedRMSD -1
REMARK  1 active torsions:
REMARK  status: ('A' for Active; 'I' for Inactive)
REMARK    1  A    between atoms: N_2  and  C1_3 
ROOT
ATOM      1  C1  UNL d   1      -0.084  -0.064   0.295  0.00  0.00     0.143 A 
ATOM      2  C2  UNL d   1      -1.482  -0.011   0.271  0.00  0.00    -0.057 A 
ATOM      3  C3  UNL d   1      -2.207   0.501   1.354  0.00  0.00     0.033 A 
ATOM      4  C4  UNL d   1      -1.547   0.943   2.495  0.00  0.00    -0.042 A 
ATOM      5  C5  UNL d   1      -0.159   0.876   2.551  0.00  0.00     0.033 A 
ATOM      6  C6  UNL d   1       0.560   0.371   1.464  0.00  0.00    -0.057 A 
ENDROOT
BRANCH   1   7
ATOM      7  N   UNL d   1       0.689  -0.652  -0.709  0.00  0.00    -0.732 N 
ATOM      8  C   UNL d   1       0.732  -0.079  -2.038  0.00  0.00     0.284 C 
ATOM      9  H3  UNL d   1       1.591  -0.974  -0.366  0.00  0.00     0.395 HD
ENDBRANCH   1   7
TORSDOF 1
ENDMDL
