MODEL 1
REMARK minimizedAffinity -4.24539089
REMARK minimizedRMSD -1
REMARK  1 active torsions:
REMARK  status: ('A' for Active; 'I' for Inactive)
REMARK    1  A    between atoms: N_2  and  C1_3 
ROOT
ATOM      1  C1  UNL d   1      -0.357   0.392   0.648  0.00  0.00     0.143 A 
ATOM      2  C2  UNL d   1      -1.561  -0.125   1.137  0.00  0.00    -0.057 A 
ATOM      3  C3  UNL d   1      -2.007   0.170   2.431  0.00  0.00     0.033 A 
ATOM      4  C4  UNL d   1      -1.238   0.967   3.273  0.00  0.00    -0.042 A 
ATOM      5  C5  UNL d   1      -0.025   1.472   2.817  0.00  0.00     0.033 A 
ATOM      6  C6  UNL d   1       0.411   1.179   1.521  0.00  0.00    -0.057 A 
ENDROOT
BRANCH   1   7
ATOM      7  N   UNL d   1       0.187   0.056  -0.594  0.00  0.00    -0.732 N 
ATOM      8  C   UNL d   1       0.225  -1.322  -1.033  0.00  0.00     0.284 C 
ATOM      9  H3  UNL d   1      -0.070   0.718  -1.322  0.00  0.00     0.395 HD
ENDBRANCH   1   7
TORSDOF 1
ENDMDL
