MODEL 1
REMARK minimizedAffinity -4.28264904
REMARK minimizedRMSD -1
REMARK  1 active torsions:
REMARK  status: ('A' for Active; 'I' for Inactive)
REMARK    1  A    between atoms: N_2  and  C1_3 
ROOT
ATOM      1  C1  UNL d   1      -0.369   0.074   0.534  0.00  0.00     0.143 A 
ATOM      2  C2  UNL d   1      -1.651   0.261   1.062  0.00  0.00    -0.057 A 
ATOM      3  C3  UNL d   1      -1.845   0.926   2.279  0.00  0.00     0.033 A 
ATOM      4  C4  UNL d   1      -0.753   1.391   3.006  0.00  0.00    -0.042 A 
ATOM      5  C5  UNL d   1       0.531   1.194   2.512  0.00  0.00     0.033 A 
ATOM      6  C6  UNL d   1       0.718   0.535   1.293  0.00  0.00    -0.057 A 
ENDROOT
BRANCH   1   7
ATOM      7  N   UNL d   1      -0.105  -0.665  -0.622  0.00  0.00    -0.732 N 
ATOM      8  C   UNL d   1       0.325  -0.006  -1.836  0.00  0.00     0.284 C 
ATOM      9  H3  UNL d   1       0.387  -1.533  -0.424  0.00  0.00     0.395 HD
ENDBRANCH   1   7
TORSDOF 1
ENDMDL
