MODEL 1
REMARK minimizedAffinity -3.36739659
REMARK minimizedRMSD -1
REMARK  1 active torsions:
REMARK  status: ('A' for Active; 'I' for Inactive)
REMARK    1  A    between atoms: N_2  and  C1_3 
ROOT
ATOM      1  C1  UNL d   1      -0.077   0.344   0.794  0.00  0.00     0.143 A 
ATOM      2  C2  UNL d   1       0.667   1.288   1.510  0.00  0.00    -0.057 A 
ATOM      3  C3  UNL d   1       0.089   2.040   2.539  0.00  0.00     0.033 A 
ATOM      4  C4  UNL d   1      -1.257   1.882   2.852  0.00  0.00    -0.042 A 
ATOM      5  C5  UNL d   1      -2.023   0.968   2.138  0.00  0.00     0.033 A 
ATOM      6  C6  UNL d   1      -1.438   0.214   1.115  0.00  0.00    -0.057 A 
ENDROOT
BRANCH   1   7
ATOM      7  N   UNL d   1       0.415  -0.365  -0.305  0.00  0.00    -0.732 N 
ATOM      8  C   UNL d   1       0.527   0.270  -1.601  0.00  0.00     0.284 C 
ATOM      9  H3  UNL d   1       1.206  -0.957  -0.062  0.00  0.00     0.395 HD
ENDBRANCH   1   7
TORSDOF 1
ENDMDL
