MODEL 1
REMARK minimizedAffinity -5.13807487
REMARK minimizedRMSD -1
REMARK  1 active torsions:
REMARK  status: ('A' for Active; 'I' for Inactive)
REMARK    1  A    between atoms: N_2  and  C1_3 
ROOT
ATOM      1  C1  UNL d   1       0.582  -0.253   0.553  0.00  0.00     0.143 A 
ATOM      2  C2  UNL d   1      -0.568   0.456   0.914  0.00  0.00    -0.057 A 
ATOM      3  C3  UNL d   1      -0.787   0.861   2.236  0.00  0.00     0.033 A 
ATOM      4  C4  UNL d   1       0.131   0.538   3.230  0.00  0.00    -0.042 A 
ATOM      5  C5  UNL d   1       1.270  -0.189   2.899  0.00  0.00     0.033 A 
ATOM      6  C6  UNL d   1       1.486  -0.584   1.576  0.00  0.00    -0.057 A 
ENDROOT
BRANCH   1   7
ATOM      7  N   UNL d   1       0.809  -0.769  -0.725  0.00  0.00    -0.732 N 
ATOM      8  C   UNL d   1       0.257  -2.049  -1.112  0.00  0.00     0.284 C 
ATOM      9  H3  UNL d   1       0.751  -0.056  -1.448  0.00  0.00     0.395 HD
ENDBRANCH   1   7
TORSDOF 1
ENDMDL
