MODEL 1
REMARK minimizedAffinity 16.8977146
REMARK minimizedRMSD -1
REMARK  0 active torsions:
REMARK  status: ('A' for Active; 'I' for Inactive)
ROOT
ATOM      1  C   UNL d   1       6.000   2.759  -1.856  0.00  0.00     0.020 A 
ATOM      2  C1  UNL d   1       5.428   3.962  -1.443  0.00  0.00     0.020 A 
ATOM      3  C2  UNL d   1       4.086   4.001  -1.058  0.00  0.00     0.034 A 
ATOM      4  C3  UNL d   1       3.311   2.836  -1.087  0.00  0.00     0.017 A 
ATOM      5  C4  UNL d   1       3.886   1.629  -1.502  0.00  0.00     0.017 A 
ATOM      6  C5  UNL d   1       5.231   1.596  -1.885  0.00  0.00     0.034 A 
ATOM      7 Cl   UNL d   1       2.994   0.150  -1.563  0.00  0.00    -0.070 Cl
ATOM      8 Cl1  UNL d   1       1.659   2.957  -0.598  0.00  0.00    -0.070 Cl
ENDROOT
TORSDOF 0
ENDMDL
