MODEL 1
REMARK minimizedAffinity 10.3913355
REMARK minimizedRMSD -1
REMARK  0 active torsions:
REMARK  status: ('A' for Active; 'I' for Inactive)
ROOT
ATOM      1  C   UNL d   1       1.714   1.181   0.097  0.00  0.00     0.020 A 
ATOM      2  C1  UNL d   1       2.531   0.118   0.477  0.00  0.00     0.020 A 
ATOM      3  C2  UNL d   1       3.153   0.126   1.727  0.00  0.00     0.034 A 
ATOM      4  C3  UNL d   1       2.957   1.201   2.603  0.00  0.00     0.017 A 
ATOM      5  C4  UNL d   1       2.136   2.268   2.221  0.00  0.00     0.017 A 
ATOM      6  C5  UNL d   1       1.517   2.254   0.968  0.00  0.00     0.034 A 
ATOM      7 Cl   UNL d   1       1.848   3.629   3.247  0.00  0.00    -0.070 Cl
ATOM      8 Cl1  UNL d   1       3.757   1.145   4.134  0.00  0.00    -0.070 Cl
ENDROOT
TORSDOF 0
ENDMDL
