MODEL 1
REMARK minimizedAffinity 3.6901083
REMARK minimizedRMSD -1
REMARK  0 active torsions:
REMARK  status: ('A' for Active; 'I' for Inactive)
ROOT
ATOM      1  C   UNL d   1      -0.802   2.740   1.846  0.00  0.00     0.020 A 
ATOM      2  C1  UNL d   1      -0.010   2.778   0.699  0.00  0.00     0.020 A 
ATOM      3  C2  UNL d   1       1.055   1.886   0.556  0.00  0.00     0.034 A 
ATOM      4  C3  UNL d   1       1.331   0.952   1.561  0.00  0.00     0.017 A 
ATOM      5  C4  UNL d   1       0.534   0.914   2.712  0.00  0.00     0.017 A 
ATOM      6  C5  UNL d   1      -0.531   1.809   2.850  0.00  0.00     0.034 A 
ATOM      7 Cl   UNL d   1       0.812  -0.211   3.994  0.00  0.00    -0.070 Cl
ATOM      8 Cl1  UNL d   1       2.663  -0.121   1.318  0.00  0.00    -0.070 Cl
ENDROOT
TORSDOF 0
ENDMDL
