MODEL 1
REMARK minimizedAffinity 8.98489285
REMARK minimizedRMSD -1
REMARK  0 active torsions:
REMARK  status: ('A' for Active; 'I' for Inactive)
ROOT
ATOM      1  C   UNL d   1      -0.249   1.504   3.348  0.00  0.00     0.020 A 
ATOM      2  C1  UNL d   1       0.849   0.851   2.789  0.00  0.00     0.020 A 
ATOM      3  C2  UNL d   1       1.146   1.017   1.435  0.00  0.00     0.034 A 
ATOM      4  C3  UNL d   1       0.344   1.839   0.634  0.00  0.00     0.017 A 
ATOM      5  C4  UNL d   1      -0.758   2.494   1.196  0.00  0.00     0.017 A 
ATOM      6  C5  UNL d   1      -1.050   2.324   2.552  0.00  0.00     0.034 A 
ATOM      7 Cl   UNL d   1      -1.793   3.524   0.271  0.00  0.00    -0.070 Cl
ATOM      8 Cl1  UNL d   1       0.771   1.999  -1.032  0.00  0.00    -0.070 Cl
ENDROOT
TORSDOF 0
ENDMDL
