MODEL 1
REMARK minimizedAffinity 11.7977037
REMARK minimizedRMSD -1
REMARK  0 active torsions:
REMARK  status: ('A' for Active; 'I' for Inactive)
ROOT
ATOM      1  C   UNL d   1       1.364  -1.722  -1.077  0.00  0.00     0.020 A 
ATOM      2  C1  UNL d   1       2.097  -1.144  -0.040  0.00  0.00     0.020 A 
ATOM      3  C2  UNL d   1       1.969   0.220   0.229  0.00  0.00     0.034 A 
ATOM      4  C3  UNL d   1       1.107   1.011  -0.539  0.00  0.00     0.017 A 
ATOM      5  C4  UNL d   1       0.372   0.430  -1.579  0.00  0.00     0.017 A 
ATOM      6  C5  UNL d   1       0.504  -0.936  -1.844  0.00  0.00     0.034 A 
ATOM      7 Cl   UNL d   1      -0.712   1.342  -2.570  0.00  0.00    -0.070 Cl
ATOM      8 Cl1  UNL d   1       0.998   2.691  -0.150  0.00  0.00    -0.070 Cl
ENDROOT
TORSDOF 0
ENDMDL
