MODEL 1
REMARK minimizedAffinity 4.13021326
REMARK minimizedRMSD -1
REMARK  0 active torsions:
REMARK  status: ('A' for Active; 'I' for Inactive)
ROOT
ATOM      1  C   UNL d   1      -3.378   0.564  -1.431  0.00  0.00     0.020 A 
ATOM      2  C1  UNL d   1      -2.326   0.740  -2.329  0.00  0.00     0.020 A 
ATOM      3  C2  UNL d   1      -1.080   1.172  -1.869  0.00  0.00     0.034 A 
ATOM      4  C3  UNL d   1      -0.883   1.430  -0.508  0.00  0.00     0.017 A 
ATOM      5  C4  UNL d   1      -1.940   1.253   0.393  0.00  0.00     0.017 A 
ATOM      6  C5  UNL d   1      -3.185   0.820  -0.073  0.00  0.00     0.034 A 
ATOM      7 Cl   UNL d   1      -1.773   1.551   2.087  0.00  0.00    -0.070 Cl
ATOM      8 Cl1  UNL d   1       0.684   1.961  -0.009  0.00  0.00    -0.070 Cl
ENDROOT
TORSDOF 0
ENDMDL
