MODEL 1
REMARK minimizedAffinity 2.19997025
REMARK minimizedRMSD -1
REMARK  0 active torsions:
REMARK  status: ('A' for Active; 'I' for Inactive)
ROOT
ATOM      1  C   UNL d   1       1.454   3.472   0.428  0.00  0.00     0.020 A 
ATOM      2  C1  UNL d   1       2.566   2.751   0.860  0.00  0.00     0.020 A 
ATOM      3  C2  UNL d   1       2.634   1.373   0.640  0.00  0.00     0.034 A 
ATOM      4  C3  UNL d   1       1.587   0.713  -0.014  0.00  0.00     0.017 A 
ATOM      5  C4  UNL d   1       0.471   1.438  -0.448  0.00  0.00     0.017 A 
ATOM      6  C5  UNL d   1       0.409   2.817  -0.224  0.00  0.00     0.034 A 
ATOM      7 Cl   UNL d   1      -0.859   0.693  -1.262  0.00  0.00    -0.070 Cl
ATOM      8 Cl1  UNL d   1       1.737  -0.992  -0.253  0.00  0.00    -0.070 Cl
ENDROOT
TORSDOF 0
ENDMDL
