MODEL 1
REMARK minimizedAffinity 5.85103607
REMARK minimizedRMSD -1
REMARK  0 active torsions:
REMARK  status: ('A' for Active; 'I' for Inactive)
ROOT
ATOM      1  C   UNL d   1       0.213   2.306  -0.103  0.00  0.00     0.020 A 
ATOM      2  C1  UNL d   1      -0.921   2.459   0.694  0.00  0.00     0.020 A 
ATOM      3  C2  UNL d   1      -1.052   1.718   1.870  0.00  0.00     0.034 A 
ATOM      4  C3  UNL d   1      -0.048   0.821   2.253  0.00  0.00     0.017 A 
ATOM      5  C4  UNL d   1       1.089   0.668   1.452  0.00  0.00     0.017 A 
ATOM      6  C5  UNL d   1       1.216   1.412   0.275  0.00  0.00     0.034 A 
ATOM      7 Cl   UNL d   1       2.370  -0.419   1.858  0.00  0.00    -0.070 Cl
ATOM      8 Cl1  UNL d   1      -0.277  -0.063   3.720  0.00  0.00    -0.070 Cl
ENDROOT
TORSDOF 0
ENDMDL
