MODEL 1
REMARK minimizedAffinity 0.902005911
REMARK minimizedRMSD -1
REMARK  0 active torsions:
REMARK  status: ('A' for Active; 'I' for Inactive)
ROOT
ATOM      1  C   UNL d   1       3.943  -0.706   0.316  0.00  0.00     0.020 A 
ATOM      2  C1  UNL d   1       2.666  -1.249   0.186  0.00  0.00     0.020 A 
ATOM      3  C2  UNL d   1       1.558  -0.407   0.063  0.00  0.00     0.034 A 
ATOM      4  C3  UNL d   1       1.726   0.982   0.070  0.00  0.00     0.017 A 
ATOM      5  C4  UNL d   1       3.009   1.527   0.201  0.00  0.00     0.017 A 
ATOM      6  C5  UNL d   1       4.114   0.679   0.324  0.00  0.00     0.034 A 
ATOM      7 Cl   UNL d   1       3.295   3.231   0.218  0.00  0.00    -0.070 Cl
ATOM      8 Cl1  UNL d   1       0.312   1.963  -0.086  0.00  0.00    -0.070 Cl
ENDROOT
TORSDOF 0
ENDMDL
