MODEL 1
REMARK minimizedAffinity -5.22760963
REMARK minimizedRMSD -1
REMARK  0 active torsions:
REMARK  status: ('A' for Active; 'I' for Inactive)
ROOT
ATOM      1  C   UNL d   1       2.945  -1.468   0.350  0.00  0.00     0.020 A 
ATOM      2  C1  UNL d   1       2.654  -0.383   1.175  0.00  0.00     0.020 A 
ATOM      3  C2  UNL d   1       1.393   0.215   1.124  0.00  0.00     0.034 A 
ATOM      4  C3  UNL d   1       0.418  -0.273   0.246  0.00  0.00     0.017 A 
ATOM      5  C4  UNL d   1       0.711  -1.363  -0.582  0.00  0.00     0.017 A 
ATOM      6  C5  UNL d   1       1.975  -1.957  -0.527  0.00  0.00     0.034 A 
ATOM      7 Cl   UNL d   1      -0.441  -2.020  -1.691  0.00  0.00    -0.070 Cl
ATOM      8 Cl1  UNL d   1      -1.120   0.514   0.236  0.00  0.00    -0.070 Cl
ENDROOT
TORSDOF 0
ENDMDL
