MODEL 1
REMARK minimizedAffinity 1.16378081
REMARK minimizedRMSD -1
REMARK  0 active torsions:
REMARK  status: ('A' for Active; 'I' for Inactive)
ROOT
ATOM      1  C   UNL d   1       1.979  -2.242  -0.748  0.00  0.00     0.020 A 
ATOM      2  C1  UNL d   1       0.801  -1.670  -0.271  0.00  0.00     0.020 A 
ATOM      3  C2  UNL d   1       0.805  -0.357   0.206  0.00  0.00     0.034 A 
ATOM      4  C3  UNL d   1       1.990   0.387   0.208  0.00  0.00     0.017 A 
ATOM      5  C4  UNL d   1       3.173  -0.189  -0.271  0.00  0.00     0.017 A 
ATOM      6  C5  UNL d   1       3.163  -1.503  -0.748  0.00  0.00     0.034 A 
ATOM      7 Cl   UNL d   1       4.674   0.667  -0.301  0.00  0.00    -0.070 Cl
ATOM      8 Cl1  UNL d   1       1.923   2.004   0.812  0.00  0.00    -0.070 Cl
ENDROOT
TORSDOF 0
ENDMDL
