MODEL 1
REMARK minimizedAffinity 3.066746
REMARK minimizedRMSD -1
REMARK  0 active torsions:
REMARK  status: ('A' for Active; 'I' for Inactive)
ROOT
ATOM      1  O1  BZF d   1       2.063  -3.687   2.353  0.00  0.00    -0.204 OA
ATOM      2  C2  BZF d   1       1.630  -2.377   2.433  0.00  0.00     0.174 A 
ATOM      3  C3  BZF d   1       1.373  -1.883   1.205  0.00  0.00    -0.012 A 
ATOM      4  C3A BZF d   1       1.574  -2.979   0.308  0.00  0.00    -0.107 A 
ATOM      5  C4  BZF d   1       1.458  -3.118  -1.046  0.00  0.00     0.055 A 
ATOM      6  C5  BZF d   1       1.799  -4.301  -1.620  0.00  0.00    -0.016 A 
ATOM      7  C6  BZF d   1       2.264  -5.363  -0.873  0.00  0.00     0.022 A 
ATOM      8  C7  BZF d   1       2.392  -5.275   0.474  0.00  0.00     0.029 A 
ATOM      9  C7A BZF d   1       2.017  -4.091   1.061  0.00  0.00     0.058 A 
ENDROOT
TORSDOF 0
ENDMDL
