MODEL 1
REMARK minimizedAffinity 4.43437052
REMARK minimizedRMSD -1
REMARK  0 active torsions:
REMARK  status: ('A' for Active; 'I' for Inactive)
ROOT
ATOM      1  O1  BZF d   1       1.442   0.840   0.100  0.00  0.00    -0.204 OA
ATOM      2  C2  BZF d   1       2.457   1.685   0.505  0.00  0.00     0.174 A 
ATOM      3  C3  BZF d   1       3.048   1.221   1.625  0.00  0.00    -0.012 A 
ATOM      4  C3A BZF d   1       2.419  -0.037   1.888  0.00  0.00    -0.107 A 
ATOM      5  C4  BZF d   1       2.586  -0.986   2.856  0.00  0.00     0.055 A 
ATOM      6  C5  BZF d   1       1.762  -2.066   2.871  0.00  0.00    -0.016 A 
ATOM      7  C6  BZF d   1       0.758  -2.227   1.938  0.00  0.00     0.022 A 
ATOM      8  C7  BZF d   1       0.558  -1.315   0.955  0.00  0.00     0.029 A 
ATOM      9  C7A BZF d   1       1.410  -0.239   0.918  0.00  0.00     0.058 A 
ENDROOT
TORSDOF 0
ENDMDL
