MODEL 1
REMARK minimizedAffinity 8.03190517
REMARK minimizedRMSD -1
REMARK  0 active torsions:
REMARK  status: ('A' for Active; 'I' for Inactive)
ROOT
ATOM      1  O1  BZF d   1       1.202  -2.634   3.016  0.00  0.00    -0.204 OA
ATOM      2  C2  BZF d   1       1.483  -1.462   2.342  0.00  0.00     0.174 A 
ATOM      3  C3  BZF d   1       2.736  -1.042   2.613  0.00  0.00    -0.012 A 
ATOM      4  C3A BZF d   1       3.303  -2.062   3.441  0.00  0.00    -0.107 A 
ATOM      5  C4  BZF d   1       4.528  -2.226   4.022  0.00  0.00     0.055 A 
ATOM      6  C5  BZF d   1       4.737  -3.299   4.831  0.00  0.00    -0.016 A 
ATOM      7  C6  BZF d   1       3.744  -4.222   5.083  0.00  0.00     0.022 A 
ATOM      8  C7  BZF d   1       2.514  -4.105   4.525  0.00  0.00     0.029 A 
ATOM      9  C7A BZF d   1       2.310  -3.040   3.682  0.00  0.00     0.058 A 
ENDROOT
TORSDOF 0
ENDMDL
