MODEL 1
REMARK minimizedAffinity 5.70116091
REMARK minimizedRMSD -1
REMARK  0 active torsions:
REMARK  status: ('A' for Active; 'I' for Inactive)
ROOT
ATOM      1  O1  BZF d   1       0.603  -3.204  -2.787  0.00  0.00    -0.204 OA
ATOM      2  C2  BZF d   1       1.707  -3.794  -2.204  0.00  0.00     0.174 A 
ATOM      3  C3  BZF d   1       1.878  -3.346  -0.943  0.00  0.00    -0.012 A 
ATOM      4  C3A BZF d   1       0.760  -2.489  -0.693  0.00  0.00    -0.107 A 
ATOM      5  C4  BZF d   1       0.360  -1.759   0.390  0.00  0.00     0.055 A 
ATOM      6  C5  BZF d   1      -0.741  -0.970   0.284  0.00  0.00    -0.016 A 
ATOM      7  C6  BZF d   1      -1.461  -0.882  -0.889  0.00  0.00     0.022 A 
ATOM      8  C7  BZF d   1      -1.106  -1.591  -1.988  0.00  0.00     0.029 A 
ATOM      9  C7A BZF d   1      -0.013  -2.415  -1.874  0.00  0.00     0.058 A 
ENDROOT
TORSDOF 0
ENDMDL
