MODEL 1
REMARK minimizedAffinity 10.3618317
REMARK minimizedRMSD -1
REMARK  0 active torsions:
REMARK  status: ('A' for Active; 'I' for Inactive)
ROOT
ATOM      1  O1  BZF d   1       2.140  -0.952   3.819  0.00  0.00    -0.204 OA
ATOM      2  C2  BZF d   1       2.151  -2.108   3.061  0.00  0.00     0.174 A 
ATOM      3  C3  BZF d   1       2.285  -1.819   1.751  0.00  0.00    -0.012 A 
ATOM      4  C3A BZF d   1       2.454  -0.399   1.694  0.00  0.00    -0.107 A 
ATOM      5  C4  BZF d   1       2.650   0.483   0.669  0.00  0.00     0.055 A 
ATOM      6  C5  BZF d   1       2.703   1.812   0.944  0.00  0.00    -0.016 A 
ATOM      7  C6  BZF d   1       2.560   2.295   2.228  0.00  0.00     0.022 A 
ATOM      8  C7  BZF d   1       2.369   1.459   3.277  0.00  0.00     0.029 A 
ATOM      9  C7A BZF d   1       2.348   0.112   3.008  0.00  0.00     0.058 A 
ENDROOT
TORSDOF 0
ENDMDL
