MODEL 1
REMARK minimizedAffinity 6.06170893
REMARK minimizedRMSD -1
REMARK  0 active torsions:
REMARK  status: ('A' for Active; 'I' for Inactive)
ROOT
ATOM      1  O1  BZF d   1       0.146  -2.834  -2.932  0.00  0.00    -0.204 OA
ATOM      2  C2  BZF d   1       1.465  -3.141  -2.657  0.00  0.00     0.174 A 
ATOM      3  C3  BZF d   1       1.786  -2.783  -1.397  0.00  0.00    -0.012 A 
ATOM      4  C3A BZF d   1       0.569  -2.301  -0.820  0.00  0.00    -0.107 A 
ATOM      5  C4  BZF d   1       0.242  -1.816   0.414  0.00  0.00     0.055 A 
ATOM      6  C5  BZF d   1      -1.020  -1.361   0.632  0.00  0.00    -0.016 A 
ATOM      7  C6  BZF d   1      -1.977  -1.371  -0.361  0.00  0.00     0.022 A 
ATOM      8  C7  BZF d   1      -1.701  -1.847  -1.600  0.00  0.00     0.029 A 
ATOM      9  C7A BZF d   1      -0.436  -2.338  -1.814  0.00  0.00     0.058 A 
ENDROOT
TORSDOF 0
ENDMDL
