MODEL 1
REMARK minimizedAffinity 1.77863455
REMARK minimizedRMSD -1
REMARK  0 active torsions:
REMARK  status: ('A' for Active; 'I' for Inactive)
ROOT
ATOM      1  O1  BZF d   1       1.288  -2.941   2.820  0.00  0.00    -0.204 OA
ATOM      2  C2  BZF d   1       0.810  -3.186   1.547  0.00  0.00     0.174 A 
ATOM      3  C3  BZF d   1       1.137  -2.180   0.711  0.00  0.00    -0.012 A 
ATOM      4  C3A BZF d   1       1.945  -1.292   1.489  0.00  0.00    -0.107 A 
ATOM      5  C4  BZF d   1       2.583  -0.117   1.211  0.00  0.00     0.055 A 
ATOM      6  C5  BZF d   1       3.227   0.538   2.213  0.00  0.00    -0.016 A 
ATOM      7  C6  BZF d   1       3.248   0.050   3.503  0.00  0.00     0.022 A 
ATOM      8  C7  BZF d   1       2.633  -1.114   3.826  0.00  0.00     0.029 A 
ATOM      9  C7A BZF d   1       2.010  -1.795   2.809  0.00  0.00     0.058 A 
ENDROOT
TORSDOF 0
ENDMDL
