MODEL 1
REMARK minimizedAffinity -3.37852907
REMARK minimizedRMSD -1
REMARK  0 active torsions:
REMARK  status: ('A' for Active; 'I' for Inactive)
ROOT
ATOM      1  O1  BZF d   1       2.591   5.332  -1.478  0.00  0.00    -0.204 OA
ATOM      2  C2  BZF d   1       1.519   5.642  -2.292  0.00  0.00     0.174 A 
ATOM      3  C3  BZF d   1       1.940   6.000  -3.522  0.00  0.00    -0.012 A 
ATOM      4  C3A BZF d   1       3.359   5.819  -3.502  0.00  0.00    -0.107 A 
ATOM      5  C4  BZF d   1       4.341   5.992  -4.435  0.00  0.00     0.055 A 
ATOM      6  C5  BZF d   1       5.636   5.797  -4.074  0.00  0.00    -0.016 A 
ATOM      7  C6  BZF d   1       5.986   5.434  -2.790  0.00  0.00     0.022 A 
ATOM      8  C7  BZF d   1       5.046   5.245  -1.832  0.00  0.00     0.029 A 
ATOM      9  C7A BZF d   1       3.734   5.409  -2.202  0.00  0.00     0.058 A 
ENDROOT
TORSDOF 0
ENDMDL
