MODEL 1
REMARK minimizedAffinity 6.59654951
REMARK minimizedRMSD -1
REMARK  0 active torsions:
REMARK  status: ('A' for Active; 'I' for Inactive)
ROOT
ATOM      1  O1  BZF d   1       3.393   1.838   0.004  0.00  0.00    -0.204 OA
ATOM      2  C2  BZF d   1       2.692   1.090   0.931  0.00  0.00     0.174 A 
ATOM      3  C3  BZF d   1       1.465   1.611   1.137  0.00  0.00    -0.012 A 
ATOM      4  C3A BZF d   1       1.361   2.703   0.217  0.00  0.00    -0.107 A 
ATOM      5  C4  BZF d   1       0.372   3.601  -0.065  0.00  0.00     0.055 A 
ATOM      6  C5  BZF d   1       0.614   4.588  -0.967  0.00  0.00    -0.016 A 
ATOM      7  C6  BZF d   1       1.834   4.711  -1.599  0.00  0.00     0.022 A 
ATOM      8  C7  BZF d   1       2.844   3.841  -1.355  0.00  0.00     0.029 A 
ATOM      9  C7A BZF d   1       2.591   2.822  -0.469  0.00  0.00     0.058 A 
ENDROOT
TORSDOF 0
ENDMDL
