MODEL 1
REMARK minimizedAffinity 6.04300451
REMARK minimizedRMSD -1
REMARK  0 active torsions:
REMARK  status: ('A' for Active; 'I' for Inactive)
ROOT
ATOM      1  O1  BZF d   1      -2.626   1.024   1.549  0.00  0.00    -0.204 OA
ATOM      2  C2  BZF d   1      -2.225   0.807   0.245  0.00  0.00     0.174 A 
ATOM      3  C3  BZF d   1      -3.091   1.371  -0.622  0.00  0.00    -0.012 A 
ATOM      4  C3A BZF d   1      -4.046   2.058   0.193  0.00  0.00    -0.107 A 
ATOM      5  C4  BZF d   1      -5.143   2.821  -0.087  0.00  0.00     0.055 A 
ATOM      6  C5  BZF d   1      -5.904   3.285   0.938  0.00  0.00    -0.016 A 
ATOM      7  C6  BZF d   1      -5.601   3.002   2.254  0.00  0.00     0.022 A 
ATOM      8  C7  BZF d   1      -4.519   2.254   2.582  0.00  0.00     0.029 A 
ATOM      9  C7A BZF d   1      -3.730   1.811   1.549  0.00  0.00     0.058 A 
ENDROOT
TORSDOF 0
ENDMDL
