MODEL 1
REMARK minimizedAffinity 11.5680904
REMARK minimizedRMSD -1
REMARK  0 active torsions:
REMARK  status: ('A' for Active; 'I' for Inactive)
ROOT
ATOM      1  O1  BZF d   1      -1.128  -0.781   0.608  0.00  0.00    -0.204 OA
ATOM      2  C2  BZF d   1      -2.240  -0.604  -0.193  0.00  0.00     0.174 A 
ATOM      3  C3  BZF d   1      -2.092  -1.250  -1.367  0.00  0.00    -0.012 A 
ATOM      4  C3A BZF d   1      -0.846  -1.945  -1.260  0.00  0.00    -0.107 A 
ATOM      5  C4  BZF d   1      -0.157  -2.773  -2.099  0.00  0.00     0.055 A 
ATOM      6  C5  BZF d   1       1.067  -3.227  -1.722  0.00  0.00    -0.016 A 
ATOM      7  C6  BZF d   1       1.634  -2.869  -0.517  0.00  0.00     0.022 A 
ATOM      8  C7  BZF d   1       0.987  -2.054   0.351  0.00  0.00     0.029 A 
ATOM      9  C7A BZF d   1      -0.264  -1.620  -0.013  0.00  0.00     0.058 A 
ENDROOT
TORSDOF 0
ENDMDL
