MODEL 1
REMARK minimizedAffinity 5.49272299
REMARK minimizedRMSD -1
REMARK  0 active torsions:
REMARK  status: ('A' for Active; 'I' for Inactive)
ROOT
ATOM      1  O1  BZF d   1       3.220   1.171   2.174  0.00  0.00    -0.204 OA
ATOM      2  C2  BZF d   1       2.952   1.556   0.874  0.00  0.00     0.174 A 
ATOM      3  C3  BZF d   1       2.152   0.657   0.265  0.00  0.00    -0.012 A 
ATOM      4  C3A BZF d   1       1.830  -0.305   1.273  0.00  0.00    -0.107 A 
ATOM      5  C4  BZF d   1       1.059  -1.432   1.284  0.00  0.00     0.055 A 
ATOM      6  C5  BZF d   1       1.011  -2.190   2.411  0.00  0.00    -0.016 A 
ATOM      7  C6  BZF d   1       1.726  -1.854   3.542  0.00  0.00     0.022 A 
ATOM      8  C7  BZF d   1       2.501  -0.743   3.581  0.00  0.00     0.029 A 
ATOM      9  C7A BZF d   1       2.525   0.043   2.455  0.00  0.00     0.058 A 
ENDROOT
TORSDOF 0
ENDMDL
