MODEL 1
REMARK minimizedAffinity 4.66271496
REMARK minimizedRMSD -1
REMARK  0 active torsions:
REMARK  status: ('A' for Active; 'I' for Inactive)
ROOT
ATOM      1  C   UNL d   1      -3.571   2.269  -2.450  0.00  0.00     0.077 C 
ATOM      2  C1  UNL d   1      -4.412   2.295  -3.691  0.00  0.00    -0.074 A 
ATOM      3  C2  UNL d   1      -4.845   1.107  -4.290  0.00  0.00    -0.005 A 
ATOM      4  C3  UNL d   1      -5.635   1.147  -5.439  0.00  0.00     0.006 A 
ATOM      5  C4  UNL d   1      -5.999   2.372  -6.000  0.00  0.00    -0.005 A 
ATOM      6  C5  UNL d   1      -5.576   3.569  -5.414  0.00  0.00    -0.074 A 
ATOM      7  C6  UNL d   1      -5.967   4.894  -5.998  0.00  0.00     0.077 C 
ATOM      8  C7  UNL d   1      -4.789   3.521  -4.256  0.00  0.00    -0.001 A 
ENDROOT
TORSDOF 0
ENDMDL
