MODEL 1
REMARK minimizedAffinity 6.87708759
REMARK minimizedRMSD -1
REMARK  0 active torsions:
REMARK  status: ('A' for Active; 'I' for Inactive)
ROOT
ATOM      1  C   UNL d   1       0.816   0.888  -3.151  0.00  0.00     0.077 C 
ATOM      2  C1  UNL d   1       0.514   0.724  -1.691  0.00  0.00    -0.074 A 
ATOM      3  C2  UNL d   1       0.342  -0.547  -1.131  0.00  0.00    -0.005 A 
ATOM      4  C3  UNL d   1       0.072  -0.684   0.231  0.00  0.00     0.006 A 
ATOM      5  C4  UNL d   1      -0.029   0.444   1.045  0.00  0.00    -0.005 A 
ATOM      6  C5  UNL d   1       0.140   1.722   0.503  0.00  0.00    -0.074 A 
ATOM      7  C6  UNL d   1       0.044   2.946   1.366  0.00  0.00     0.077 C 
ATOM      8  C7  UNL d   1       0.419   1.852  -0.865  0.00  0.00    -0.001 A 
ENDROOT
TORSDOF 0
ENDMDL
