MODEL 1
REMARK minimizedAffinity 5.84615612
REMARK minimizedRMSD -1
REMARK  0 active torsions:
REMARK  status: ('A' for Active; 'I' for Inactive)
ROOT
ATOM      1  C   UNL d   1      -3.469   1.912  -2.533  0.00  0.00     0.077 C 
ATOM      2  C1  UNL d   1      -4.347   2.003  -3.745  0.00  0.00    -0.074 A 
ATOM      3  C2  UNL d   1      -4.887   0.853  -4.329  0.00  0.00    -0.005 A 
ATOM      4  C3  UNL d   1      -5.710   0.954  -5.451  0.00  0.00     0.006 A 
ATOM      5  C4  UNL d   1      -6.000   2.204  -5.999  0.00  0.00    -0.005 A 
ATOM      6  C5  UNL d   1      -5.469   3.365  -5.429  0.00  0.00    -0.074 A 
ATOM      7  C6  UNL d   1      -5.779   4.717  -6.000  0.00  0.00     0.077 C 
ATOM      8  C7  UNL d   1      -4.649   3.256  -4.297  0.00  0.00    -0.001 A 
ENDROOT
TORSDOF 0
ENDMDL
