MODEL 1
REMARK minimizedAffinity 7.93410444
REMARK minimizedRMSD -1
REMARK  0 active torsions:
REMARK  status: ('A' for Active; 'I' for Inactive)
ROOT
ATOM      1  C   UNL d   1      -0.303   2.978   2.028  0.00  0.00     0.077 C 
ATOM      2  C1  UNL d   1       0.244   1.830   1.234  0.00  0.00    -0.074 A 
ATOM      3  C2  UNL d   1       0.351   0.553   1.795  0.00  0.00    -0.005 A 
ATOM      4  C3  UNL d   1       0.853  -0.507   1.040  0.00  0.00     0.006 A 
ATOM      5  C4  UNL d   1       1.253  -0.301  -0.281  0.00  0.00    -0.005 A 
ATOM      6  C5  UNL d   1       1.153   0.968  -0.859  0.00  0.00    -0.074 A 
ATOM      7  C6  UNL d   1       1.569   1.204  -2.281  0.00  0.00     0.077 C 
ATOM      8  C7  UNL d   1       0.640   2.027  -0.097  0.00  0.00    -0.001 A 
ENDROOT
TORSDOF 0
ENDMDL
