MODEL 1
REMARK minimizedAffinity 5.92280483
REMARK minimizedRMSD -1
REMARK  0 active torsions:
REMARK  status: ('A' for Active; 'I' for Inactive)
ROOT
ATOM      1  C   UNL d   1       1.353   5.704  -0.143  0.00  0.00     0.077 C 
ATOM      2  C1  UNL d   1       0.947   4.514   0.675  0.00  0.00    -0.074 A 
ATOM      3  C2  UNL d   1       1.001   4.550   2.072  0.00  0.00    -0.005 A 
ATOM      4  C3  UNL d   1       0.612   3.439   2.820  0.00  0.00     0.006 A 
ATOM      5  C4  UNL d   1       0.165   2.282   2.179  0.00  0.00    -0.005 A 
ATOM      6  C5  UNL d   1       0.104   2.228   0.783  0.00  0.00    -0.074 A 
ATOM      7  C6  UNL d   1      -0.383   0.997   0.079  0.00  0.00     0.077 C 
ATOM      8  C7  UNL d   1       0.490   3.351   0.039  0.00  0.00    -0.001 A 
ENDROOT
TORSDOF 0
ENDMDL
