MODEL 1
REMARK minimizedAffinity 1.82716024
REMARK minimizedRMSD -1
REMARK  0 active torsions:
REMARK  status: ('A' for Active; 'I' for Inactive)
ROOT
ATOM      1  C   UNL d   1      -5.048   0.268  -3.922  0.00  0.00     0.077 C 
ATOM      2  C1  UNL d   1      -4.909   1.569  -4.654  0.00  0.00    -0.074 A 
ATOM      3  C2  UNL d   1      -5.999   2.139  -5.320  0.00  0.00    -0.005 A 
ATOM      4  C3  UNL d   1      -5.857   3.354  -5.989  0.00  0.00     0.006 A 
ATOM      5  C4  UNL d   1      -4.626   4.011  -6.000  0.00  0.00    -0.005 A 
ATOM      6  C5  UNL d   1      -3.525   3.457  -5.339  0.00  0.00    -0.074 A 
ATOM      7  C6  UNL d   1      -2.198   4.155  -5.332  0.00  0.00     0.077 C 
ATOM      8  C7  UNL d   1      -3.678   2.239  -4.663  0.00  0.00    -0.001 A 
ENDROOT
TORSDOF 0
ENDMDL
