MODEL 1
REMARK minimizedAffinity 2.92141247
REMARK minimizedRMSD -1
REMARK  0 active torsions:
REMARK  status: ('A' for Active; 'I' for Inactive)
ROOT
ATOM      1  C   UNL d   1      -5.571   5.331  -5.999  0.00  0.00     0.077 C 
ATOM      2  C1  UNL d   1      -5.311   3.955  -5.462  0.00  0.00    -0.074 A 
ATOM      3  C2  UNL d   1      -5.999   2.845  -5.964  0.00  0.00    -0.005 A 
ATOM      4  C3  UNL d   1      -5.740   1.570  -5.461  0.00  0.00     0.006 A 
ATOM      5  C4  UNL d   1      -4.791   1.392  -4.453  0.00  0.00    -0.005 A 
ATOM      6  C5  UNL d   1      -4.093   2.489  -3.940  0.00  0.00    -0.074 A 
ATOM      7  C6  UNL d   1      -3.063   2.313  -2.864  0.00  0.00     0.077 C 
ATOM      8  C7  UNL d   1      -4.354   3.766  -4.455  0.00  0.00    -0.001 A 
ENDROOT
TORSDOF 0
ENDMDL
