MODEL 1
REMARK minimizedAffinity -2.66165924
REMARK minimizedRMSD -1
REMARK  0 active torsions:
REMARK  status: ('A' for Active; 'I' for Inactive)
ROOT
ATOM      1  C   UNL d   1      -2.341   4.910  -5.961  0.00  0.00     0.077 C 
ATOM      2  C1  UNL d   1      -3.586   4.075  -5.930  0.00  0.00    -0.074 A 
ATOM      3  C2  UNL d   1      -4.851   4.667  -5.999  0.00  0.00    -0.005 A 
ATOM      4  C3  UNL d   1      -6.000   3.876  -5.979  0.00  0.00     0.006 A 
ATOM      5  C4  UNL d   1      -5.896   2.488  -5.891  0.00  0.00    -0.005 A 
ATOM      6  C5  UNL d   1      -4.639   1.878  -5.823  0.00  0.00    -0.074 A 
ATOM      7  C6  UNL d   1      -4.509   0.386  -5.737  0.00  0.00     0.077 C 
ATOM      8  C7  UNL d   1      -3.489   2.678  -5.850  0.00  0.00    -0.001 A 
ENDROOT
TORSDOF 0
ENDMDL
