MODEL 1
REMARK minimizedAffinity 1.20022428
REMARK minimizedRMSD -1
REMARK  0 active torsions:
REMARK  status: ('A' for Active; 'I' for Inactive)
ROOT
ATOM      1  C   UNL d   1      -5.891   0.460  -5.783  0.00  0.00     0.077 C 
ATOM      2  C1  UNL d   1      -5.361   1.784  -5.320  0.00  0.00    -0.074 A 
ATOM      3  C2  UNL d   1      -4.325   1.857  -4.384  0.00  0.00    -0.005 A 
ATOM      4  C3  UNL d   1      -3.836   3.096  -3.970  0.00  0.00     0.006 A 
ATOM      5  C4  UNL d   1      -4.377   4.273  -4.488  0.00  0.00    -0.005 A 
ATOM      6  C5  UNL d   1      -5.413   4.221  -5.426  0.00  0.00    -0.074 A 
ATOM      7  C6  UNL d   1      -5.999   5.476  -6.000  0.00  0.00     0.077 C 
ATOM      8  C7  UNL d   1      -5.894   2.972  -5.842  0.00  0.00    -0.001 A 
ENDROOT
TORSDOF 0
ENDMDL
