MODEL 1
REMARK minimizedAffinity 3.34964299
REMARK minimizedRMSD -1
REMARK  0 active torsions:
REMARK  status: ('A' for Active; 'I' for Inactive)
ROOT
ATOM      1  C   UNL d   1       1.002   3.692   2.828  0.00  0.00     0.077 C 
ATOM      2  C1  UNL d   1       0.323   2.891   1.758  0.00  0.00    -0.074 A 
ATOM      3  C2  UNL d   1      -1.017   3.119   1.431  0.00  0.00    -0.005 A 
ATOM      4  C3  UNL d   1      -1.633   2.373   0.426  0.00  0.00     0.006 A 
ATOM      5  C4  UNL d   1      -0.916   1.392  -0.260  0.00  0.00    -0.005 A 
ATOM      6  C5  UNL d   1       0.425   1.150   0.053  0.00  0.00    -0.074 A 
ATOM      7  C6  UNL d   1       1.213   0.106  -0.682  0.00  0.00     0.077 C 
ATOM      8  C7  UNL d   1       1.039   1.909   1.059  0.00  0.00    -0.001 A 
ENDROOT
TORSDOF 0
ENDMDL
