MODEL 1
REMARK minimizedAffinity 0.86022222
REMARK minimizedRMSD -1
REMARK  0 active torsions:
REMARK  status: ('A' for Active; 'I' for Inactive)
ROOT
ATOM      1  C   UNL d   1      -5.917   3.159  -5.536  0.00  0.00     0.077 C 
ATOM      2  C1  UNL d   1      -4.539   3.040  -4.956  0.00  0.00    -0.074 A 
ATOM      3  C2  UNL d   1      -4.210   1.987  -4.097  0.00  0.00    -0.005 A 
ATOM      4  C3  UNL d   1      -2.922   1.883  -3.573  0.00  0.00     0.006 A 
ATOM      5  C4  UNL d   1      -1.951   2.830  -3.902  0.00  0.00    -0.005 A 
ATOM      6  C5  UNL d   1      -2.262   3.889  -4.761  0.00  0.00    -0.074 A 
ATOM      7  C6  UNL d   1      -1.227   4.910  -5.133  0.00  0.00     0.077 C 
ATOM      8  C7  UNL d   1      -3.557   3.982  -5.289  0.00  0.00    -0.001 A 
ENDROOT
TORSDOF 0
ENDMDL
