MODEL 1
REMARK minimizedAffinity 3.03544211
REMARK minimizedRMSD -1
REMARK  0 active torsions:
REMARK  status: ('A' for Active; 'I' for Inactive)
ROOT
ATOM      1  C   UNL d   1       1.413  -0.534   2.167  0.00  0.00     0.077 C 
ATOM      2  C1  UNL d   1       0.956   0.550   1.237  0.00  0.00    -0.074 A 
ATOM      3  C2  UNL d   1       0.404   1.736   1.732  0.00  0.00    -0.005 A 
ATOM      4  C3  UNL d   1      -0.008   2.740   0.855  0.00  0.00     0.006 A 
ATOM      5  C4  UNL d   1       0.127   2.568  -0.523  0.00  0.00    -0.005 A 
ATOM      6  C5  UNL d   1       0.677   1.389  -1.036  0.00  0.00    -0.074 A 
ATOM      7  C6  UNL d   1       0.838   1.192  -2.514  0.00  0.00     0.077 C 
ATOM      8  C7  UNL d   1       1.095   0.388  -0.149  0.00  0.00    -0.001 A 
ENDROOT
TORSDOF 0
ENDMDL
