MODEL 1
REMARK minimizedAffinity 4.74862099
REMARK minimizedRMSD -1
REMARK  0 active torsions:
REMARK  status: ('A' for Active; 'I' for Inactive)
ROOT
ATOM      1  C   UNL d   1      -3.506   1.775  -2.483  0.00  0.00     0.077 C 
ATOM      2  C1  UNL d   1      -4.370   1.786  -3.709  0.00  0.00    -0.074 A 
ATOM      3  C2  UNL d   1      -4.801   0.592  -4.296  0.00  0.00    -0.005 A 
ATOM      4  C3  UNL d   1      -5.612   0.618  -5.431  0.00  0.00     0.006 A 
ATOM      5  C4  UNL d   1      -5.999   1.837  -5.989  0.00  0.00    -0.005 A 
ATOM      6  C5  UNL d   1      -5.579   3.041  -5.416  0.00  0.00    -0.074 A 
ATOM      7  C6  UNL d   1      -5.995   4.359  -5.998  0.00  0.00     0.077 C 
ATOM      8  C7  UNL d   1      -4.770   3.006  -4.272  0.00  0.00    -0.001 A 
ENDROOT
TORSDOF 0
ENDMDL
