MODEL 1
REMARK minimizedAffinity 6.8647294
REMARK minimizedRMSD -1
REMARK  0 active torsions:
REMARK  status: ('A' for Active; 'I' for Inactive)
ROOT
ATOM      1  C   UNL d   1       0.746   3.879   1.756  0.00  0.00     0.077 C 
ATOM      2  C1  UNL d   1       0.436   2.596   1.043  0.00  0.00    -0.074 A 
ATOM      3  C2  UNL d   1      -0.104   1.504   1.729  0.00  0.00    -0.005 A 
ATOM      4  C3  UNL d   1      -0.396   0.321   1.050  0.00  0.00     0.006 A 
ATOM      5  C4  UNL d   1      -0.151   0.218  -0.319  0.00  0.00    -0.005 A 
ATOM      6  C5  UNL d   1       0.388   1.300  -1.023  0.00  0.00    -0.074 A 
ATOM      7  C6  UNL d   1       0.648   1.210  -2.497  0.00  0.00     0.077 C 
ATOM      8  C7  UNL d   1       0.672   2.488  -0.335  0.00  0.00    -0.001 A 
ENDROOT
TORSDOF 0
ENDMDL
