MODEL 1
REMARK minimizedAffinity 1.17519724
REMARK minimizedRMSD -1
REMARK  0 active torsions:
REMARK  status: ('A' for Active; 'I' for Inactive)
ROOT
ATOM      1  C   UNL d   1      -3.723   2.020  -2.039  0.00  0.00     0.077 C 
ATOM      2  C1  UNL d   1      -4.511   1.867  -3.306  0.00  0.00    -0.074 A 
ATOM      3  C2  UNL d   1      -4.905   0.604  -3.760  0.00  0.00    -0.005 A 
ATOM      4  C3  UNL d   1      -5.646   0.479  -4.935  0.00  0.00     0.006 A 
ATOM      5  C4  UNL d   1      -5.999   1.612  -5.667  0.00  0.00    -0.005 A 
ATOM      6  C5  UNL d   1      -5.615   2.884  -5.229  0.00  0.00    -0.074 A 
ATOM      7  C6  UNL d   1      -5.995   4.113  -5.999  0.00  0.00     0.077 C 
ATOM      8  C7  UNL d   1      -4.877   3.002  -4.044  0.00  0.00    -0.001 A 
ENDROOT
TORSDOF 0
ENDMDL
