MODEL 1
REMARK minimizedAffinity 3.21092486
REMARK minimizedRMSD -1
REMARK  0 active torsions:
REMARK  status: ('A' for Active; 'I' for Inactive)
ROOT
ATOM      1  C   UNL d   1       1.125   1.307  -2.542  0.00  0.00     0.077 C 
ATOM      2  C1  UNL d   1       0.756   1.083  -1.106  0.00  0.00    -0.074 A 
ATOM      3  C2  UNL d   1       0.614  -0.211  -0.594  0.00  0.00    -0.005 A 
ATOM      4  C3  UNL d   1       0.280  -0.404   0.746  0.00  0.00     0.006 A 
ATOM      5  C4  UNL d   1       0.083   0.692   1.587  0.00  0.00    -0.005 A 
ATOM      6  C5  UNL d   1       0.221   1.993   1.093  0.00  0.00    -0.074 A 
ATOM      7  C6  UNL d   1       0.023   3.183   1.984  0.00  0.00     0.077 C 
ATOM      8  C7  UNL d   1       0.565   2.179  -0.254  0.00  0.00    -0.001 A 
ENDROOT
TORSDOF 0
ENDMDL
