MODEL 1
REMARK minimizedAffinity 2.31446052
REMARK minimizedRMSD -1
REMARK  0 active torsions:
REMARK  status: ('A' for Active; 'I' for Inactive)
ROOT
ATOM      1  C   UNL d   1      -0.473   1.431  -2.351  0.00  0.00     0.077 C 
ATOM      2  C1  UNL d   1      -0.275   1.469  -0.865  0.00  0.00    -0.074 A 
ATOM      3  C2  UNL d   1      -0.370   0.304  -0.097  0.00  0.00    -0.005 A 
ATOM      4  C3  UNL d   1      -0.174   0.353   1.283  0.00  0.00     0.006 A 
ATOM      5  C4  UNL d   1       0.119   1.566   1.908  0.00  0.00    -0.005 A 
ATOM      6  C5  UNL d   1       0.218   2.741   1.157  0.00  0.00    -0.074 A 
ATOM      7  C6  UNL d   1       0.542   4.051   1.812  0.00  0.00     0.077 C 
ATOM      8  C7  UNL d   1       0.027   2.682  -0.230  0.00  0.00    -0.001 A 
ENDROOT
TORSDOF 0
ENDMDL
