MODEL 1
REMARK minimizedAffinity 6.24296474
REMARK minimizedRMSD -1
REMARK  0 active torsions:
REMARK  status: ('A' for Active; 'I' for Inactive)
ROOT
ATOM      1  C   UNL d   1      -3.829   1.809  -2.279  0.00  0.00     0.077 C 
ATOM      2  C1  UNL d   1      -4.577   1.820  -3.579  0.00  0.00    -0.074 A 
ATOM      3  C2  UNL d   1      -4.945   0.625  -4.207  0.00  0.00    -0.005 A 
ATOM      4  C3  UNL d   1      -5.649   0.651  -5.411  0.00  0.00     0.006 A 
ATOM      5  C4  UNL d   1      -5.990   1.870  -5.999  0.00  0.00    -0.005 A 
ATOM      6  C5  UNL d   1      -5.631   3.074  -5.386  0.00  0.00    -0.074 A 
ATOM      7  C6  UNL d   1      -5.999   4.392  -5.999  0.00  0.00     0.077 C 
ATOM      8  C7  UNL d   1      -4.930   3.040  -4.172  0.00  0.00    -0.001 A 
ENDROOT
TORSDOF 0
ENDMDL
