MODEL 1
REMARK minimizedAffinity -4.76861954
REMARK minimizedRMSD -1
REMARK  1 active torsions:
REMARK  status: ('A' for Active; 'I' for Inactive)
REMARK    1  A    between atoms: C1_2  and  C2_3 
ROOT
ATOM      1  C2  UNL d   1      -0.017  -0.651  -0.143  0.00  0.00    -0.081 A 
ATOM      2  C3  UNL d   1      -0.646  -0.789   1.101  0.00  0.00     0.006 A 
ATOM      3  C4  UNL d   1      -1.380   0.269   1.644  0.00  0.00     0.002 A 
ATOM      4  C5  UNL d   1      -1.502   1.478   0.950  0.00  0.00    -0.080 A 
ATOM      5  C6  UNL d   1      -2.312   2.610   1.508  0.00  0.00     0.076 C 
ATOM      6  C7  UNL d   1      -0.859   1.621  -0.284  0.00  0.00     0.002 A 
ATOM      7  C8  UNL d   1      -0.125   0.564  -0.827  0.00  0.00     0.006 A 
ENDROOT
BRANCH   1   8
ATOM      8  C1  UNL d   1       0.721  -1.811  -0.761  0.00  0.00     0.054 C 
ATOM      9  C   UNL d   1      -0.025  -2.361  -1.969  0.00  0.00     0.018 C 
ENDBRANCH   1   8
TORSDOF 1
ENDMDL
