MODEL 1
REMARK minimizedAffinity -5.24957895
REMARK minimizedRMSD -1
REMARK  1 active torsions:
REMARK  status: ('A' for Active; 'I' for Inactive)
REMARK    1  A    between atoms: C1_2  and  C2_3 
ROOT
ATOM      1  C2  UNL d   1      -0.816   2.263   0.305  0.00  0.00    -0.081 A 
ATOM      2  C3  UNL d   1      -1.521   2.066   1.498  0.00  0.00     0.006 A 
ATOM      3  C4  UNL d   1      -1.554   0.807   2.102  0.00  0.00     0.002 A 
ATOM      4  C5  UNL d   1      -0.875  -0.274   1.528  0.00  0.00    -0.080 A 
ATOM      5  C6  UNL d   1      -0.876  -1.623   2.182  0.00  0.00     0.076 C 
ATOM      6  C7  UNL d   1      -0.185  -0.081   0.326  0.00  0.00     0.002 A 
ATOM      7  C8  UNL d   1      -0.153   1.178  -0.278  0.00  0.00     0.006 A 
ENDROOT
BRANCH   1   8
ATOM      8  C1  UNL d   1      -0.726   3.634  -0.315  0.00  0.00     0.054 C 
ATOM      9  C   UNL d   1       0.352   4.474   0.355  0.00  0.00     0.018 C 
ENDBRANCH   1   8
TORSDOF 1
ENDMDL
