MODEL 1
REMARK minimizedAffinity -2.84320998
REMARK minimizedRMSD -1
REMARK  1 active torsions:
REMARK  status: ('A' for Active; 'I' for Inactive)
REMARK    1  A    between atoms: C1_2  and  C2_3 
ROOT
ATOM      1  C2  UNL d   1      -0.882   0.676   1.378  0.00  0.00    -0.081 A 
ATOM      2  C3  UNL d   1      -0.319   1.054   0.153  0.00  0.00     0.006 A 
ATOM      3  C4  UNL d   1       0.535   0.186  -0.532  0.00  0.00     0.002 A 
ATOM      4  C5  UNL d   1       0.832  -1.077  -0.008  0.00  0.00    -0.080 A 
ATOM      5  C6  UNL d   1       1.722  -2.030  -0.748  0.00  0.00     0.076 C 
ATOM      6  C7  UNL d   1       0.283  -1.448   1.224  0.00  0.00     0.002 A 
ATOM      7  C8  UNL d   1      -0.570  -0.580   1.909  0.00  0.00     0.006 A 
ENDROOT
BRANCH   1   8
ATOM      8  C1  UNL d   1      -1.854   1.584   2.088  0.00  0.00     0.054 C 
ATOM      9  C   UNL d   1      -1.481   3.047   1.900  0.00  0.00     0.018 C 
ENDBRANCH   1   8
TORSDOF 1
ENDMDL
