MODEL 1
REMARK minimizedAffinity -5.0796957
REMARK minimizedRMSD -1
REMARK  1 active torsions:
REMARK  status: ('A' for Active; 'I' for Inactive)
REMARK    1  A    between atoms: C1_2  and  C2_3 
ROOT
ATOM      1  C2  UNL d   1       0.555  -0.717  -0.216  0.00  0.00    -0.081 A 
ATOM      2  C3  UNL d   1      -0.119  -0.936   0.992  0.00  0.00     0.006 A 
ATOM      3  C4  UNL d   1      -0.974   0.039   1.513  0.00  0.00     0.002 A 
ATOM      4  C5  UNL d   1      -1.174   1.244   0.831  0.00  0.00    -0.080 A 
ATOM      5  C6  UNL d   1      -2.112   2.287   1.364  0.00  0.00     0.076 C 
ATOM      6  C7  UNL d   1      -0.487   1.470  -0.366  0.00  0.00     0.002 A 
ATOM      7  C8  UNL d   1       0.368   0.496  -0.887  0.00  0.00     0.006 A 
ENDROOT
BRANCH   1   8
ATOM      8  C1  UNL d   1       1.426  -1.793  -0.812  0.00  0.00     0.054 C 
ATOM      9  C   UNL d   1       0.660  -2.624  -1.832  0.00  0.00     0.018 C 
ENDBRANCH   1   8
TORSDOF 1
ENDMDL
