MODEL 1
REMARK minimizedAffinity -3.32811093
REMARK minimizedRMSD -1
REMARK  1 active torsions:
REMARK  status: ('A' for Active; 'I' for Inactive)
REMARK    1  A    between atoms: C1_2  and  C2_3 
ROOT
ATOM      1  C2  UNL d   1       0.527  -1.334  -0.776  0.00  0.00    -0.081 A 
ATOM      2  C3  UNL d   1       0.593   0.020  -1.123  0.00  0.00     0.006 A 
ATOM      3  C4  UNL d   1      -0.082   0.980  -0.365  0.00  0.00     0.002 A 
ATOM      4  C5  UNL d   1      -0.828   0.602   0.757  0.00  0.00    -0.080 A 
ATOM      5  C6  UNL d   1      -1.533   1.625   1.597  0.00  0.00     0.076 C 
ATOM      6  C7  UNL d   1      -0.908  -0.754   1.094  0.00  0.00     0.002 A 
ATOM      7  C8  UNL d   1      -0.234  -1.713   0.336  0.00  0.00     0.006 A 
ENDROOT
BRANCH   1   8
ATOM      8  C1  UNL d   1       1.307  -2.364  -1.553  0.00  0.00     0.054 C 
ATOM      9  C   UNL d   1       0.467  -2.967  -2.669  0.00  0.00     0.018 C 
ENDBRANCH   1   8
TORSDOF 1
ENDMDL
