MODEL 1
REMARK minimizedAffinity -4.80229902
REMARK minimizedRMSD -1
REMARK  1 active torsions:
REMARK  status: ('A' for Active; 'I' for Inactive)
REMARK    1  A    between atoms: C1_2  and  C2_3 
ROOT
ATOM      1  C2  UNL d   1       0.413  -0.736  -0.219  0.00  0.00    -0.081 A 
ATOM      2  C3  UNL d   1       0.086  -0.742   1.143  0.00  0.00     0.006 A 
ATOM      3  C4  UNL d   1      -0.673   0.293   1.693  0.00  0.00     0.002 A 
ATOM      4  C5  UNL d   1      -1.124   1.346   0.891  0.00  0.00    -0.080 A 
ATOM      5  C6  UNL d   1      -1.966   2.448   1.464  0.00  0.00     0.076 C 
ATOM      6  C7  UNL d   1      -0.783   1.361  -0.466  0.00  0.00     0.002 A 
ATOM      7  C8  UNL d   1      -0.024   0.327  -1.017  0.00  0.00     0.006 A 
ENDROOT
BRANCH   1   8
ATOM      8  C1  UNL d   1       1.176  -1.884  -0.829  0.00  0.00     0.054 C 
ATOM      9  C   UNL d   1       0.424  -2.485  -2.008  0.00  0.00     0.018 C 
ENDBRANCH   1   8
TORSDOF 1
ENDMDL
