MODEL 1
REMARK minimizedAffinity -2.43850231
REMARK minimizedRMSD -1
REMARK  1 active torsions:
REMARK  status: ('A' for Active; 'I' for Inactive)
REMARK    1  A    between atoms: C1_2  and  C2_3 
ROOT
ATOM      1  C2  UNL d   1       0.445  -0.777  -0.395  0.00  0.00    -0.081 A 
ATOM      2  C3  UNL d   1       0.005  -0.915   0.927  0.00  0.00     0.006 A 
ATOM      3  C4  UNL d   1      -0.881   0.012   1.480  0.00  0.00     0.002 A 
ATOM      4  C5  UNL d   1      -1.348   1.089   0.718  0.00  0.00    -0.080 A 
ATOM      5  C6  UNL d   1      -2.323   2.075   1.289  0.00  0.00     0.076 C 
ATOM      6  C7  UNL d   1      -0.894   1.237  -0.598  0.00  0.00     0.002 A 
ATOM      7  C8  UNL d   1      -0.008   0.310  -1.150  0.00  0.00     0.006 A 
ENDROOT
BRANCH   1   8
ATOM      8  C1  UNL d   1       1.350  -1.811  -1.014  0.00  0.00     0.054 C 
ATOM      9  C   UNL d   1       0.549  -2.933  -1.658  0.00  0.00     0.018 C 
ENDBRANCH   1   8
TORSDOF 1
ENDMDL
