MODEL 1
REMARK minimizedAffinity -4.7244153
REMARK minimizedRMSD -1
REMARK  1 active torsions:
REMARK  status: ('A' for Active; 'I' for Inactive)
REMARK    1  A    between atoms: C1_2  and  C2_3 
ROOT
ATOM      1  C2  UNL d   1       0.695  -0.682  -0.444  0.00  0.00    -0.081 A 
ATOM      2  C3  UNL d   1       0.262  -0.771   0.885  0.00  0.00     0.006 A 
ATOM      3  C4  UNL d   1      -0.635   0.168   1.401  0.00  0.00     0.002 A 
ATOM      4  C5  UNL d   1      -1.118   1.206   0.596  0.00  0.00    -0.080 A 
ATOM      5  C6  UNL d   1      -2.103   2.202   1.129  0.00  0.00     0.076 C 
ATOM      6  C7  UNL d   1      -0.671   1.304  -0.726  0.00  0.00     0.002 A 
ATOM      7  C8  UNL d   1       0.226   0.366  -1.242  0.00  0.00     0.006 A 
ENDROOT
BRANCH   1   8
ATOM      8  C1  UNL d   1       1.611  -1.731  -1.022  0.00  0.00     0.054 C 
ATOM      9  C   UNL d   1       0.888  -2.592  -2.047  0.00  0.00     0.018 C 
ENDBRANCH   1   8
TORSDOF 1
ENDMDL
