MODEL 1
REMARK minimizedAffinity -5.28656673
REMARK minimizedRMSD -1
REMARK  1 active torsions:
REMARK  status: ('A' for Active; 'I' for Inactive)
REMARK    1  A    between atoms: C1_2  and  C2_3 
ROOT
ATOM      1  C2  UNL d   1       0.626  -0.537  -0.864  0.00  0.00    -0.081 A 
ATOM      2  C3  UNL d   1       0.143  -1.043   0.348  0.00  0.00     0.006 A 
ATOM      3  C4  UNL d   1      -0.652  -0.250   1.180  0.00  0.00     0.002 A 
ATOM      4  C5  UNL d   1      -0.983   1.058   0.809  0.00  0.00    -0.080 A 
ATOM      5  C6  UNL d   1      -1.861   1.909   1.678  0.00  0.00     0.076 C 
ATOM      6  C7  UNL d   1      -0.486   1.569  -0.394  0.00  0.00     0.002 A 
ATOM      7  C8  UNL d   1       0.310   0.778  -1.225  0.00  0.00     0.006 A 
ENDROOT
BRANCH   1   8
ATOM      8  C1  UNL d   1       1.430  -1.410  -1.793  0.00  0.00     0.054 C 
ATOM      9  C   UNL d   1       0.531  -2.151  -2.773  0.00  0.00     0.018 C 
ENDBRANCH   1   8
TORSDOF 1
ENDMDL
