MODEL 1
REMARK minimizedAffinity -5.18315601
REMARK minimizedRMSD -1
REMARK  1 active torsions:
REMARK  status: ('A' for Active; 'I' for Inactive)
REMARK    1  A    between atoms: C1_2  and  C2_3 
ROOT
ATOM      1  C2  UNL d   1       0.353  -0.269  -0.264  0.00  0.00    -0.081 A 
ATOM      2  C3  UNL d   1      -0.332  -0.333   0.955  0.00  0.00     0.006 A 
ATOM      3  C4  UNL d   1      -1.052   0.769   1.422  0.00  0.00     0.002 A 
ATOM      4  C5  UNL d   1      -1.106   1.950   0.673  0.00  0.00    -0.080 A 
ATOM      5  C6  UNL d   1      -1.900   3.130   1.148  0.00  0.00     0.076 C 
ATOM      6  C7  UNL d   1      -0.407   2.020  -0.536  0.00  0.00     0.002 A 
ATOM      7  C8  UNL d   1       0.314   0.918  -1.003  0.00  0.00     0.006 A 
ENDROOT
BRANCH   1   8
ATOM      8  C1  UNL d   1       1.077  -1.478  -0.801  0.00  0.00     0.054 C 
ATOM      9  C   UNL d   1       0.363  -2.057  -2.013  0.00  0.00     0.018 C 
ENDBRANCH   1   8
TORSDOF 1
ENDMDL
