MODEL 1
REMARK minimizedAffinity -3.81370378
REMARK minimizedRMSD -1
REMARK  1 active torsions:
REMARK  status: ('A' for Active; 'I' for Inactive)
REMARK    1  A    between atoms: C1_2  and  C2_3 
ROOT
ATOM      1  C2  UNL d   1       0.125  -0.711  -0.422  0.00  0.00    -0.081 A 
ATOM      2  C3  UNL d   1      -0.713  -1.133   0.617  0.00  0.00     0.006 A 
ATOM      3  C4  UNL d   1      -1.504  -0.212   1.307  0.00  0.00     0.002 A 
ATOM      4  C5  UNL d   1      -1.478   1.144   0.965  0.00  0.00    -0.080 A 
ATOM      5  C6  UNL d   1      -2.345   2.138   1.678  0.00  0.00     0.076 C 
ATOM      6  C7  UNL d   1      -0.628   1.569  -0.062  0.00  0.00     0.002 A 
ATOM      7  C8  UNL d   1       0.164   0.648  -0.752  0.00  0.00     0.006 A 
ENDROOT
BRANCH   1   8
ATOM      8  C1  UNL d   1       0.931  -1.711  -1.211  0.00  0.00     0.054 C 
ATOM      9  C   UNL d   1       0.033  -2.606  -2.053  0.00  0.00     0.018 C 
ENDBRANCH   1   8
TORSDOF 1
ENDMDL
