MODEL 1
REMARK minimizedAffinity -4.13551569
REMARK minimizedRMSD -1
REMARK  1 active torsions:
REMARK  status: ('A' for Active; 'I' for Inactive)
REMARK    1  A    between atoms: C1_2  and  C2_3 
ROOT
ATOM      1  C2  UNL d   1       0.604  -0.936  -0.388  0.00  0.00    -0.081 A 
ATOM      2  C3  UNL d   1       0.204  -1.150   0.937  0.00  0.00     0.006 A 
ATOM      3  C4  UNL d   1      -0.525  -0.175   1.623  0.00  0.00     0.002 A 
ATOM      4  C5  UNL d   1      -0.874   1.024   0.993  0.00  0.00    -0.080 A 
ATOM      5  C6  UNL d   1      -1.682   2.066   1.708  0.00  0.00     0.076 C 
ATOM      6  C7  UNL d   1      -0.460   1.245  -0.325  0.00  0.00     0.002 A 
ATOM      7  C8  UNL d   1       0.270   0.271  -1.011  0.00  0.00     0.006 A 
ENDROOT
BRANCH   1   8
ATOM      8  C1  UNL d   1       1.335  -2.012  -1.151  0.00  0.00     0.054 C 
ATOM      9  C   UNL d   1       0.413  -2.713  -2.138  0.00  0.00     0.018 C 
ENDBRANCH   1   8
TORSDOF 1
ENDMDL
