MODEL 1
REMARK minimizedAffinity -5.15379667
REMARK minimizedRMSD -1
REMARK  1 active torsions:
REMARK  status: ('A' for Active; 'I' for Inactive)
REMARK    1  A    between atoms: C1_2  and  C2_3 
ROOT
ATOM      1  C2  UNL d   1       0.034  -0.412  -0.202  0.00  0.00    -0.081 A 
ATOM      2  C3  UNL d   1      -0.142  -0.283   1.181  0.00  0.00     0.006 A 
ATOM      3  C4  UNL d   1      -0.848   0.802   1.707  0.00  0.00     0.002 A 
ATOM      4  C5  UNL d   1      -1.396   1.770   0.859  0.00  0.00    -0.080 A 
ATOM      5  C6  UNL d   1      -2.182   2.923   1.409  0.00  0.00     0.076 C 
ATOM      6  C7  UNL d   1      -1.205   1.651  -0.522  0.00  0.00     0.002 A 
ATOM      7  C8  UNL d   1      -0.498   0.567  -1.048  0.00  0.00     0.006 A 
ENDROOT
BRANCH   1   8
ATOM      8  C1  UNL d   1       0.739  -1.615  -0.776  0.00  0.00     0.054 C 
ATOM      9  C   UNL d   1      -0.061  -2.235  -1.913  0.00  0.00     0.018 C 
ENDBRANCH   1   8
TORSDOF 1
ENDMDL
