MODEL 1
REMARK minimizedAffinity 6.47550678
REMARK minimizedRMSD -1
REMARK  0 active torsions:
REMARK  status: ('A' for Active; 'I' for Inactive)
ROOT
ATOM      1  C1  DEN d   1       0.146  -1.817   3.769  0.00  0.00     0.130 A 
ATOM      2  C2  DEN d   1       1.020  -0.694   3.444  0.00  0.00    -0.031 A 
ATOM      3  C3  DEN d   1       0.191   0.372   2.845  0.00  0.00     0.027 A 
ATOM      4  C4  DEN d   1      -2.349   0.393   2.398  0.00  0.00     0.027 A 
ATOM      5  C5  DEN d   1      -3.512  -0.340   2.494  0.00  0.00    -0.003 A 
ATOM      6  C6  DEN d   1      -3.532  -1.618   2.986  0.00  0.00     0.001 A 
ATOM      7  C7  DEN d   1      -2.372  -2.187   3.443  0.00  0.00     0.017 A 
ATOM      8  C8  DEN d   1      -1.195  -1.458   3.343  0.00  0.00    -0.094 A 
ATOM      9  C9  DEN d   1      -1.198  -0.162   2.854  0.00  0.00    -0.072 A 
ENDROOT
TORSDOF 0
ENDMDL
