MODEL 1
REMARK minimizedAffinity 9.56906223
REMARK minimizedRMSD -1
REMARK  0 active torsions:
REMARK  status: ('A' for Active; 'I' for Inactive)
ROOT
ATOM      1  C1  DEN d   1       2.194   1.729   5.648  0.00  0.00     0.130 A 
ATOM      2  C2  DEN d   1       1.544   2.989   5.998  0.00  0.00    -0.031 A 
ATOM      3  C3  DEN d   1       2.535   4.073   5.839  0.00  0.00     0.027 A 
ATOM      4  C4  DEN d   1       4.996   3.924   5.084  0.00  0.00     0.027 A 
ATOM      5  C5  DEN d   1       6.000   3.066   4.691  0.00  0.00    -0.003 A 
ATOM      6  C6  DEN d   1       5.817   1.711   4.623  0.00  0.00     0.001 A 
ATOM      7  C7  DEN d   1       4.588   1.177   4.909  0.00  0.00     0.017 A 
ATOM      8  C8  DEN d   1       3.574   2.034   5.313  0.00  0.00    -0.094 A 
ATOM      9  C9  DEN d   1       3.775   3.403   5.364  0.00  0.00    -0.072 A 
ENDROOT
TORSDOF 0
ENDMDL
