MODEL 1
REMARK minimizedAffinity 5.93795633
REMARK minimizedRMSD -1
REMARK  0 active torsions:
REMARK  status: ('A' for Active; 'I' for Inactive)
ROOT
ATOM      1  C1  DEN d   1       4.486   1.938   2.315  0.00  0.00     0.130 A 
ATOM      2  C2  DEN d   1       4.988   1.413   3.582  0.00  0.00    -0.031 A 
ATOM      3  C3  DEN d   1       5.208   2.553   4.494  0.00  0.00     0.027 A 
ATOM      4  C4  DEN d   1       4.817   5.068   4.072  0.00  0.00     0.027 A 
ATOM      5  C5  DEN d   1       4.410   6.000   3.143  0.00  0.00    -0.003 A 
ATOM      6  C6  DEN d   1       4.036   5.650   1.873  0.00  0.00     0.001 A 
ATOM      7  C7  DEN d   1       4.017   4.329   1.510  0.00  0.00     0.017 A 
ATOM      8  C8  DEN d   1       4.433   3.384   2.439  0.00  0.00    -0.094 A 
ATOM      9  C9  DEN d   1       4.797   3.757   3.722  0.00  0.00    -0.072 A 
ENDROOT
TORSDOF 0
ENDMDL
