MODEL 1
REMARK minimizedAffinity 7.649014
REMARK minimizedRMSD -1
REMARK  0 active torsions:
REMARK  status: ('A' for Active; 'I' for Inactive)
ROOT
ATOM      1  C1  DEN d   1       0.626   1.522   4.796  0.00  0.00     0.130 A 
ATOM      2  C2  DEN d   1      -0.104   2.314   3.810  0.00  0.00    -0.031 A 
ATOM      3  C3  DEN d   1      -0.406   1.443   2.657  0.00  0.00     0.027 A 
ATOM      4  C4  DEN d   1       0.179  -1.044   2.305  0.00  0.00     0.027 A 
ATOM      5  C5  DEN d   1       0.803  -2.140   2.859  0.00  0.00    -0.003 A 
ATOM      6  C6  DEN d   1       1.435  -2.084   4.073  0.00  0.00     0.001 A 
ATOM      7  C7  DEN d   1       1.420  -0.918   4.793  0.00  0.00     0.017 A 
ATOM      8  C8  DEN d   1       0.799   0.193   4.237  0.00  0.00    -0.094 A 
ATOM      9  C9  DEN d   1       0.155   0.112   3.014  0.00  0.00    -0.072 A 
ENDROOT
TORSDOF 0
ENDMDL
