MODEL 1
REMARK minimizedAffinity 7.43641567
REMARK minimizedRMSD -1
REMARK  0 active torsions:
REMARK  status: ('A' for Active; 'I' for Inactive)
ROOT
ATOM      1  C1  DEN d   1       2.306  -1.758   4.619  0.00  0.00     0.130 A 
ATOM      2  C2  DEN d   1       1.680  -3.048   4.897  0.00  0.00    -0.031 A 
ATOM      3  C3  DEN d   1       0.339  -3.047   4.277  0.00  0.00     0.027 A 
ATOM      4  C4  DEN d   1      -0.819  -1.186   2.918  0.00  0.00     0.027 A 
ATOM      5  C5  DEN d   1      -0.687   0.095   2.429  0.00  0.00    -0.003 A 
ATOM      6  C6  DEN d   1       0.429   0.854   2.663  0.00  0.00     0.001 A 
ATOM      7  C7  DEN d   1       1.477   0.322   3.367  0.00  0.00     0.017 A 
ATOM      8  C8  DEN d   1       1.348  -0.966   3.870  0.00  0.00    -0.094 A 
ATOM      9  C9  DEN d   1       0.216  -1.722   3.612  0.00  0.00    -0.072 A 
ENDROOT
TORSDOF 0
ENDMDL
