MODEL 1
REMARK minimizedAffinity 10.772109
REMARK minimizedRMSD -1
REMARK  0 active torsions:
REMARK  status: ('A' for Active; 'I' for Inactive)
ROOT
ATOM      1  C1  DEN d   1      -0.946  -0.550   2.202  0.00  0.00     0.130 A 
ATOM      2  C2  DEN d   1      -0.019   0.468   1.716  0.00  0.00    -0.031 A 
ATOM      3  C3  DEN d   1       1.315   0.177   2.280  0.00  0.00     0.027 A 
ATOM      4  C4  DEN d   1       2.031  -1.744   3.845  0.00  0.00     0.027 A 
ATOM      5  C5  DEN d   1       1.592  -2.850   4.537  0.00  0.00    -0.003 A 
ATOM      6  C6  DEN d   1       0.281  -3.245   4.528  0.00  0.00     0.001 A 
ATOM      7  C7  DEN d   1      -0.631  -2.553   3.774  0.00  0.00     0.017 A 
ATOM      8  C8  DEN d   1      -0.197  -1.432   3.079  0.00  0.00    -0.094 A 
ATOM      9  C9  DEN d   1       1.136  -1.056   3.092  0.00  0.00    -0.072 A 
ENDROOT
TORSDOF 0
ENDMDL
