MODEL 1
REMARK minimizedAffinity 10.2776213
REMARK minimizedRMSD -1
REMARK  0 active torsions:
REMARK  status: ('A' for Active; 'I' for Inactive)
ROOT
ATOM      1  C1  DEN d   1       2.840  -3.762   1.579  0.00  0.00     0.130 A 
ATOM      2  C2  DEN d   1       1.836  -3.314   0.617  0.00  0.00    -0.031 A 
ATOM      3  C3  DEN d   1       1.054  -2.230   1.244  0.00  0.00     0.027 A 
ATOM      4  C4  DEN d   1       1.301  -1.203   3.597  0.00  0.00     0.027 A 
ATOM      5  C5  DEN d   1       2.005  -1.262   4.779  0.00  0.00    -0.003 A 
ATOM      6  C6  DEN d   1       3.006  -2.174   4.988  0.00  0.00     0.001 A 
ATOM      7  C7  DEN d   1       3.361  -3.034   3.983  0.00  0.00     0.017 A 
ATOM      8  C8  DEN d   1       2.651  -2.986   2.791  0.00  0.00    -0.094 A 
ATOM      9  C9  DEN d   1       1.651  -2.048   2.595  0.00  0.00    -0.072 A 
ENDROOT
TORSDOF 0
ENDMDL
