MODEL 1
REMARK minimizedAffinity 4.86959934
REMARK minimizedRMSD -1
REMARK  0 active torsions:
REMARK  status: ('A' for Active; 'I' for Inactive)
ROOT
ATOM      1  C1  DEN d   1      -2.936   1.104   4.100  0.00  0.00     0.130 A 
ATOM      2  C2  DEN d   1      -4.119   1.186   3.247  0.00  0.00    -0.031 A 
ATOM      3  C3  DEN d   1      -3.954   0.221   2.142  0.00  0.00     0.027 A 
ATOM      4  C4  DEN d   1      -1.993  -1.388   1.673  0.00  0.00     0.027 A 
ATOM      5  C5  DEN d   1      -0.758  -1.810   2.112  0.00  0.00    -0.003 A 
ATOM      6  C6  DEN d   1      -0.152  -1.271   3.216  0.00  0.00     0.001 A 
ATOM      7  C7  DEN d   1      -0.801  -0.310   3.945  0.00  0.00     0.017 A 
ATOM      8  C8  DEN d   1      -2.043   0.126   3.504  0.00  0.00    -0.094 A 
ATOM      9  C9  DEN d   1      -2.645  -0.440   2.393  0.00  0.00    -0.072 A 
ENDROOT
TORSDOF 0
ENDMDL
