MODEL 1
REMARK minimizedAffinity 8.09374142
REMARK minimizedRMSD -1
REMARK  0 active torsions:
REMARK  status: ('A' for Active; 'I' for Inactive)
ROOT
ATOM      1  C1  DEN d   1      -0.202  -2.296   1.738  0.00  0.00     0.130 A 
ATOM      2  C2  DEN d   1       1.179  -2.663   1.439  0.00  0.00    -0.031 A 
ATOM      3  C3  DEN d   1       1.485  -2.211   0.067  0.00  0.00     0.027 A 
ATOM      4  C4  DEN d   1      -0.036  -0.981  -1.614  0.00  0.00     0.027 A 
ATOM      5  C5  DEN d   1      -1.297  -0.464  -1.817  0.00  0.00    -0.003 A 
ATOM      6  C6  DEN d   1      -2.283  -0.551  -0.870  0.00  0.00     0.001 A 
ATOM      7  C7  DEN d   1      -2.011  -1.129   0.342  0.00  0.00     0.017 A 
ATOM      8  C8  DEN d   1      -0.745  -1.659   0.551  0.00  0.00    -0.094 A 
ATOM      9  C9  DEN d   1       0.242  -1.550  -0.414  0.00  0.00    -0.072 A 
ENDROOT
TORSDOF 0
ENDMDL
