MODEL 1
REMARK minimizedAffinity 5.95484543
REMARK minimizedRMSD -1
REMARK  0 active torsions:
REMARK  status: ('A' for Active; 'I' for Inactive)
ROOT
ATOM      1  C1  DEN d   1      -0.792  -0.660   3.667  0.00  0.00     0.130 A 
ATOM      2  C2  DEN d   1      -0.106  -1.754   2.984  0.00  0.00    -0.031 A 
ATOM      3  C3  DEN d   1      -0.781  -1.978   1.689  0.00  0.00     0.027 A 
ATOM      4  C4  DEN d   1      -2.807  -0.742   0.679  0.00  0.00     0.027 A 
ATOM      5  C5  DEN d   1      -3.736   0.252   0.893  0.00  0.00    -0.003 A 
ATOM      6  C6  DEN d   1      -3.770   0.983   2.051  0.00  0.00     0.001 A 
ATOM      7  C7  DEN d   1      -2.829   0.761   3.022  0.00  0.00     0.017 A 
ATOM      8  C8  DEN d   1      -1.894  -0.245   2.817  0.00  0.00    -0.094 A 
ATOM      9  C9  DEN d   1      -1.868  -0.964   1.634  0.00  0.00    -0.072 A 
ENDROOT
TORSDOF 0
ENDMDL
