MODEL 1
REMARK minimizedAffinity 0.309800088
REMARK minimizedRMSD -1
REMARK  0 active torsions:
REMARK  status: ('A' for Active; 'I' for Inactive)
ROOT
ATOM      1  C1  DEN d   1      -1.469   1.093   3.450  0.00  0.00     0.130 A 
ATOM      2  C2  DEN d   1      -2.655   0.499   2.839  0.00  0.00    -0.031 A 
ATOM      3  C3  DEN d   1      -2.343  -0.905   2.506  0.00  0.00     0.027 A 
ATOM      4  C4  DEN d   1      -0.150  -2.212   2.879  0.00  0.00     0.027 A 
ATOM      5  C5  DEN d   1       1.140  -2.128   3.353  0.00  0.00    -0.003 A 
ATOM      6  C6  DEN d   1       1.658  -0.964   3.858  0.00  0.00     0.001 A 
ATOM      7  C7  DEN d   1       0.866   0.151   3.942  0.00  0.00     0.017 A 
ATOM      8  C8  DEN d   1      -0.433   0.075   3.458  0.00  0.00    -0.094 A 
ATOM      9  C9  DEN d   1      -0.942  -1.113   2.963  0.00  0.00    -0.072 A 
ENDROOT
TORSDOF 0
ENDMDL
