MODEL 1
REMARK minimizedAffinity -4.47042322
REMARK minimizedRMSD -1
REMARK  0 active torsions:
REMARK  status: ('A' for Active; 'I' for Inactive)
ROOT
ATOM      1  C   UNL d   1       0.866  -0.386   0.336  0.00  0.00     0.078 C 
ATOM      2  C1  UNL d   1       0.005   0.204  -0.740  0.00  0.00    -0.077 A 
ATOM      3  C2  UNL d   1      -0.058  -0.377  -2.013  0.00  0.00    -0.001 A 
ATOM      4  C3  UNL d   1      -0.857   0.188  -3.008  0.00  0.00     0.003 A 
ATOM      5  C4  UNL d   1      -1.596   1.339  -2.742  0.00  0.00    -0.005 A 
ATOM      6  C5  UNL d   1      -1.537   1.926  -1.480  0.00  0.00     0.003 A 
ATOM      7  C6  UNL d   1      -0.740   1.362  -0.483  0.00  0.00    -0.001 A 
ENDROOT
TORSDOF 0
ENDMDL
