MODEL 1
REMARK minimizedAffinity -5.38920498
REMARK minimizedRMSD -1
REMARK  0 active torsions:
REMARK  status: ('A' for Active; 'I' for Inactive)
ROOT
ATOM      1  C   UNL d   1       0.789  -2.956   1.808  0.00  0.00     0.078 C 
ATOM      2  C1  UNL d   1       0.674  -1.734   0.946  0.00  0.00    -0.077 A 
ATOM      3  C2  UNL d   1       1.808  -1.143   0.377  0.00  0.00    -0.001 A 
ATOM      4  C3  UNL d   1       1.687  -0.001  -0.415  0.00  0.00     0.003 A 
ATOM      5  C4  UNL d   1       0.433   0.561  -0.646  0.00  0.00    -0.005 A 
ATOM      6  C5  UNL d   1      -0.702  -0.019  -0.083  0.00  0.00     0.003 A 
ATOM      7  C6  UNL d   1      -0.583  -1.161   0.710  0.00  0.00    -0.001 A 
ENDROOT
TORSDOF 0
ENDMDL
