MODEL 1
REMARK minimizedAffinity -4.60913515
REMARK minimizedRMSD -1
REMARK  0 active torsions:
REMARK  status: ('A' for Active; 'I' for Inactive)
ROOT
ATOM      1  C   UNL d   1       0.782  -0.737   0.043  0.00  0.00     0.078 C 
ATOM      2  C1  UNL d   1      -0.273   0.166  -0.523  0.00  0.00    -0.077 A 
ATOM      3  C2  UNL d   1      -0.818  -0.069  -1.791  0.00  0.00    -0.001 A 
ATOM      4  C3  UNL d   1      -1.792   0.786  -2.310  0.00  0.00     0.003 A 
ATOM      5  C4  UNL d   1      -2.228   1.882  -1.569  0.00  0.00    -0.005 A 
ATOM      6  C5  UNL d   1      -1.690   2.125  -0.307  0.00  0.00     0.003 A 
ATOM      7  C6  UNL d   1      -0.716   1.272   0.214  0.00  0.00    -0.001 A 
ENDROOT
TORSDOF 0
ENDMDL
