MODEL 1
REMARK minimizedAffinity -5.93157578
REMARK minimizedRMSD -1
REMARK  0 active torsions:
REMARK  status: ('A' for Active; 'I' for Inactive)
ROOT
ATOM      1  C   UNL d   1      -0.192   0.406  -0.038  0.00  0.00     0.078 C 
ATOM      2  C1  UNL d   1       0.071  -0.911   0.628  0.00  0.00    -0.077 A 
ATOM      3  C2  UNL d   1      -0.363  -1.157   1.936  0.00  0.00    -0.001 A 
ATOM      4  C3  UNL d   1      -0.102  -2.385   2.548  0.00  0.00     0.003 A 
ATOM      5  C4  UNL d   1       0.595  -3.375   1.859  0.00  0.00    -0.005 A 
ATOM      6  C5  UNL d   1       1.033  -3.139   0.558  0.00  0.00     0.003 A 
ATOM      7  C6  UNL d   1       0.773  -1.912  -0.055  0.00  0.00    -0.001 A 
ENDROOT
TORSDOF 0
ENDMDL
