MODEL 1
REMARK minimizedAffinity -4.67016697
REMARK minimizedRMSD -1
REMARK  0 active torsions:
REMARK  status: ('A' for Active; 'I' for Inactive)
ROOT
ATOM      1  C   UNL d   1      -0.737   1.228  -0.679  0.00  0.00     0.078 C 
ATOM      2  C1  UNL d   1       0.155   0.190  -0.066  0.00  0.00    -0.077 A 
ATOM      3  C2  UNL d   1       1.512   0.114  -0.403  0.00  0.00    -0.001 A 
ATOM      4  C3  UNL d   1       2.328  -0.864   0.168  0.00  0.00     0.003 A 
ATOM      5  C4  UNL d   1       1.796  -1.774   1.079  0.00  0.00    -0.005 A 
ATOM      6  C5  UNL d   1       0.446  -1.708   1.420  0.00  0.00     0.003 A 
ATOM      7  C6  UNL d   1      -0.371  -0.731   0.849  0.00  0.00    -0.001 A 
ENDROOT
TORSDOF 0
ENDMDL
