MODEL 1
REMARK minimizedAffinity -4.52892637
REMARK minimizedRMSD -1
REMARK  0 active torsions:
REMARK  status: ('A' for Active; 'I' for Inactive)
ROOT
ATOM      1  C   UNL d   1      -1.094   0.973  -0.843  0.00  0.00     0.078 C 
ATOM      2  C1  UNL d   1      -0.158  -0.050  -0.271  0.00  0.00    -0.077 A 
ATOM      3  C2  UNL d   1       1.213  -0.012  -0.554  0.00  0.00    -0.001 A 
ATOM      4  C3  UNL d   1       2.070  -0.976  -0.022  0.00  0.00     0.003 A 
ATOM      5  C4  UNL d   1       1.566  -1.987   0.793  0.00  0.00    -0.005 A 
ATOM      6  C5  UNL d   1       0.203  -2.035   1.078  0.00  0.00     0.003 A 
ATOM      7  C6  UNL d   1      -0.656  -1.071   0.548  0.00  0.00    -0.001 A 
ENDROOT
TORSDOF 0
ENDMDL
