MODEL 1
REMARK minimizedAffinity -2.32235003
REMARK minimizedRMSD -1
REMARK  0 active torsions:
REMARK  status: ('A' for Active; 'I' for Inactive)
ROOT
ATOM      1  C   UNL d   1      -2.265   1.551  -2.769  0.00  0.00     0.078 C 
ATOM      2  C1  UNL d   1      -1.373   0.872  -1.773  0.00  0.00    -0.077 A 
ATOM      3  C2  UNL d   1      -0.370   1.582  -1.102  0.00  0.00    -0.001 A 
ATOM      4  C3  UNL d   1       0.459   0.935  -0.184  0.00  0.00     0.003 A 
ATOM      5  C4  UNL d   1       0.294  -0.425   0.070  0.00  0.00    -0.005 A 
ATOM      6  C5  UNL d   1      -0.700  -1.140  -0.595  0.00  0.00     0.003 A 
ATOM      7  C6  UNL d   1      -1.530  -0.495  -1.513  0.00  0.00    -0.001 A 
ENDROOT
TORSDOF 0
ENDMDL
