MODEL 1
REMARK minimizedAffinity -4.55287838
REMARK minimizedRMSD -1
REMARK  0 active torsions:
REMARK  status: ('A' for Active; 'I' for Inactive)
ROOT
ATOM      1  C   UNL d   1      -1.008   1.418  -0.819  0.00  0.00     0.078 C 
ATOM      2  C1  UNL d   1      -0.030   0.339  -0.458  0.00  0.00    -0.077 A 
ATOM      3  C2  UNL d   1       1.324   0.450  -0.798  0.00  0.00    -0.001 A 
ATOM      4  C3  UNL d   1       2.221  -0.566  -0.464  0.00  0.00     0.003 A 
ATOM      5  C4  UNL d   1       1.774  -1.700   0.211  0.00  0.00    -0.005 A 
ATOM      6  C5  UNL d   1       0.428  -1.820   0.551  0.00  0.00     0.003 A 
ATOM      7  C6  UNL d   1      -0.470  -0.805   0.218  0.00  0.00    -0.001 A 
ENDROOT
TORSDOF 0
ENDMDL
