MODEL 1
REMARK minimizedAffinity -0.555614173
REMARK minimizedRMSD -1
REMARK  0 active torsions:
REMARK  status: ('A' for Active; 'I' for Inactive)
ROOT
ATOM      1  C   UNL d   1       1.777  -1.306   0.704  0.00  0.00     0.078 C 
ATOM      2  C1  UNL d   1       0.892  -0.176   0.268  0.00  0.00    -0.077 A 
ATOM      3  C2  UNL d   1       1.401   1.119   0.112  0.00  0.00    -0.001 A 
ATOM      4  C3  UNL d   1       0.564   2.163  -0.285  0.00  0.00     0.003 A 
ATOM      5  C4  UNL d   1      -0.786   1.923  -0.529  0.00  0.00    -0.005 A 
ATOM      6  C5  UNL d   1      -1.302   0.638  -0.374  0.00  0.00     0.003 A 
ATOM      7  C6  UNL d   1      -0.467  -0.407   0.023  0.00  0.00    -0.001 A 
ENDROOT
TORSDOF 0
ENDMDL
