MODEL 1
REMARK minimizedAffinity -3.56662726
REMARK minimizedRMSD -1
REMARK  0 active torsions:
REMARK  status: ('A' for Active; 'I' for Inactive)
ROOT
ATOM      1  C   UNL d   1       2.238  -1.145   0.565  0.00  0.00     0.078 C 
ATOM      2  C1  UNL d   1       1.015  -0.523  -0.040  0.00  0.00    -0.077 A 
ATOM      3  C2  UNL d   1       0.524  -0.953  -1.279  0.00  0.00    -0.001 A 
ATOM      4  C3  UNL d   1      -0.610  -0.359  -1.834  0.00  0.00     0.003 A 
ATOM      5  C4  UNL d   1      -1.263   0.669  -1.157  0.00  0.00    -0.005 A 
ATOM      6  C5  UNL d   1      -0.781   1.106   0.075  0.00  0.00     0.003 A 
ATOM      7  C6  UNL d   1       0.353   0.512   0.632  0.00  0.00    -0.001 A 
ENDROOT
TORSDOF 0
ENDMDL
