MODEL 1
REMARK minimizedAffinity -3.01420426
REMARK minimizedRMSD -1
REMARK  0 active torsions:
REMARK  status: ('A' for Active; 'I' for Inactive)
ROOT
ATOM      1  C   UNL d   1      -2.504   1.802  -2.812  0.00  0.00     0.078 C 
ATOM      2  C1  UNL d   1      -1.628   1.145  -1.787  0.00  0.00    -0.077 A 
ATOM      3  C2  UNL d   1      -1.395   1.748  -0.545  0.00  0.00    -0.001 A 
ATOM      4  C3  UNL d   1      -0.570   1.130   0.395  0.00  0.00     0.003 A 
ATOM      5  C4  UNL d   1       0.030  -0.093   0.104  0.00  0.00    -0.005 A 
ATOM      6  C5  UNL d   1      -0.195  -0.700  -1.131  0.00  0.00     0.003 A 
ATOM      7  C6  UNL d   1      -1.020  -0.083  -2.073  0.00  0.00    -0.001 A 
ENDROOT
TORSDOF 0
ENDMDL
