MODEL 1
REMARK minimizedAffinity -2.25472474
REMARK minimizedRMSD -1
REMARK  1 active torsions:
REMARK  status: ('A' for Active; 'I' for Inactive)
REMARK    1  A    between atoms: C1_2  and  C2_3 
ROOT
ATOM      1  C2  UNL d   1      -1.809   0.898   1.842  0.00  0.00    -0.077 A 
ATOM      2  C3  UNL d   1      -1.687   2.237   2.241  0.00  0.00     0.002 A 
ATOM      3  C4  UNL d   1      -2.011   2.618   3.545  0.00  0.00     0.002 A 
ATOM      4  C5  UNL d   1      -2.453   1.666   4.461  0.00  0.00    -0.004 A 
ATOM      5  C6  UNL d   1      -2.579   0.333   4.073  0.00  0.00     0.002 A 
ATOM      6  C7  UNL d   1      -2.258  -0.050   2.770  0.00  0.00     0.002 A 
ENDROOT
BRANCH   1   7
ATOM      7  C1  UNL d   1      -1.414   0.477   0.451  0.00  0.00     0.055 C 
ATOM      8  C   UNL d   1      -0.077  -0.251   0.451  0.00  0.00     0.019 C 
ENDBRANCH   1   7
TORSDOF 1
ENDMDL
