MODEL 1
REMARK minimizedAffinity -3.68036723
REMARK minimizedRMSD -1
REMARK  1 active torsions:
REMARK  status: ('A' for Active; 'I' for Inactive)
REMARK    1  A    between atoms: C1_2  and  C2_3 
ROOT
ATOM      1  C2  UNL d   1       0.804  -0.171  -0.367  0.00  0.00    -0.077 A 
ATOM      2  C3  UNL d   1       0.579   1.129  -0.841  0.00  0.00     0.002 A 
ATOM      3  C4  UNL d   1       1.387   1.663  -1.847  0.00  0.00     0.002 A 
ATOM      4  C5  UNL d   1       2.421   0.903  -2.390  0.00  0.00    -0.004 A 
ATOM      5  C6  UNL d   1       2.654  -0.390  -1.923  0.00  0.00     0.002 A 
ATOM      6  C7  UNL d   1       1.849  -0.925  -0.917  0.00  0.00     0.002 A 
ENDROOT
BRANCH   1   7
ATOM      7  C1  UNL d   1      -0.096  -0.767   0.684  0.00  0.00     0.055 C 
ATOM      8  C   UNL d   1      -1.207   0.198   1.072  0.00  0.00     0.019 C 
ENDBRANCH   1   7
TORSDOF 1
ENDMDL
