MODEL 1
REMARK minimizedAffinity -4.84827995
REMARK minimizedRMSD -1
REMARK  1 active torsions:
REMARK  status: ('A' for Active; 'I' for Inactive)
REMARK    1  A    between atoms: C1_2  and  C2_3 
ROOT
ATOM      1  C2  UNL d   1       0.273  -0.166  -0.275  0.00  0.00    -0.077 A 
ATOM      2  C3  UNL d   1       0.893   0.952  -0.850  0.00  0.00     0.002 A 
ATOM      3  C4  UNL d   1       2.103   0.815  -1.534  0.00  0.00     0.002 A 
ATOM      4  C5  UNL d   1       2.700  -0.438  -1.652  0.00  0.00    -0.004 A 
ATOM      5  C6  UNL d   1       2.092  -1.556  -1.082  0.00  0.00     0.002 A 
ATOM      6  C7  UNL d   1       0.884  -1.421  -0.398  0.00  0.00     0.002 A 
ENDROOT
BRANCH   1   7
ATOM      7  C1  UNL d   1      -1.056  -0.029   0.420  0.00  0.00     0.055 C 
ATOM      8  C   UNL d   1      -0.898   0.599   1.797  0.00  0.00     0.019 C 
ENDBRANCH   1   7
TORSDOF 1
ENDMDL
