MODEL 1
REMARK minimizedAffinity -4.22352695
REMARK minimizedRMSD -1
REMARK  1 active torsions:
REMARK  status: ('A' for Active; 'I' for Inactive)
REMARK    1  A    between atoms: C1_2  and  C2_3 
ROOT
ATOM      1  C2  UNL d   1       0.684  -0.387  -0.203  0.00  0.00    -0.077 A 
ATOM      2  C3  UNL d   1       1.556   0.688  -0.427  0.00  0.00     0.002 A 
ATOM      3  C4  UNL d   1       2.545   0.602  -1.410  0.00  0.00     0.002 A 
ATOM      4  C5  UNL d   1       2.668  -0.554  -2.177  0.00  0.00    -0.004 A 
ATOM      5  C6  UNL d   1       1.807  -1.629  -1.960  0.00  0.00     0.002 A 
ATOM      6  C7  UNL d   1       0.819  -1.545  -0.978  0.00  0.00     0.002 A 
ENDROOT
BRANCH   1   7
ATOM      7  C1  UNL d   1      -0.414  -0.277   0.823  0.00  0.00     0.055 C 
ATOM      8  C   UNL d   1      -1.332   0.899   0.526  0.00  0.00     0.019 C 
ENDBRANCH   1   7
TORSDOF 1
ENDMDL
