MODEL 1
REMARK minimizedAffinity -3.14737749
REMARK minimizedRMSD -1
REMARK  1 active torsions:
REMARK  status: ('A' for Active; 'I' for Inactive)
REMARK    1  A    between atoms: C1_2  and  C2_3 
ROOT
ATOM      1  C2  UNL d   1       0.038  -0.193   0.717  0.00  0.00    -0.077 A 
ATOM      2  C3  UNL d   1      -0.629  -0.200   1.950  0.00  0.00     0.002 A 
ATOM      3  C4  UNL d   1      -1.874   0.418   2.082  0.00  0.00     0.002 A 
ATOM      4  C5  UNL d   1      -2.464   1.042   0.986  0.00  0.00    -0.004 A 
ATOM      5  C6  UNL d   1      -1.808   1.056  -0.245  0.00  0.00     0.002 A 
ATOM      6  C7  UNL d   1      -0.563   0.440  -0.379  0.00  0.00     0.002 A 
ENDROOT
BRANCH   1   7
ATOM      7  C1  UNL d   1       1.358  -0.902   0.560  0.00  0.00     0.055 C 
ATOM      8  C   UNL d   1       1.391  -1.735  -0.714  0.00  0.00     0.019 C 
ENDBRANCH   1   7
TORSDOF 1
ENDMDL
