MODEL 1
REMARK minimizedAffinity -4.22299004
REMARK minimizedRMSD -1
REMARK  1 active torsions:
REMARK  status: ('A' for Active; 'I' for Inactive)
REMARK    1  A    between atoms: C1_2  and  C2_3 
ROOT
ATOM      1  C2  UNL d   1      -0.104  -0.172   0.114  0.00  0.00    -0.077 A 
ATOM      2  C3  UNL d   1       0.817  -0.186   1.171  0.00  0.00     0.002 A 
ATOM      3  C4  UNL d   1       2.080  -0.756   1.000  0.00  0.00     0.002 A 
ATOM      4  C5  UNL d   1       2.435  -1.311  -0.228  0.00  0.00    -0.004 A 
ATOM      5  C6  UNL d   1       1.525  -1.303  -1.285  0.00  0.00     0.002 A 
ATOM      6  C7  UNL d   1       0.262  -0.736  -1.115  0.00  0.00     0.002 A 
ENDROOT
BRANCH   1   7
ATOM      7  C1  UNL d   1      -1.449   0.486   0.282  0.00  0.00     0.055 C 
ATOM      8  C   UNL d   1      -1.856   0.547   1.747  0.00  0.00     0.019 C 
ENDBRANCH   1   7
TORSDOF 1
ENDMDL
