MODEL 1
REMARK minimizedAffinity -6.1350913
REMARK minimizedRMSD -1
REMARK  1 active torsions:
REMARK  status: ('A' for Active; 'I' for Inactive)
REMARK    1  A    between atoms: C1_2  and  C2_3 
ROOT
ATOM      1  C2  UNL d   1       1.138  -0.669  -0.567  0.00  0.00    -0.077 A 
ATOM      2  C3  UNL d   1       2.256  -0.763  -1.408  0.00  0.00     0.002 A 
ATOM      3  C4  UNL d   1       2.414   0.124  -2.475  0.00  0.00     0.002 A 
ATOM      4  C5  UNL d   1       1.460   1.112  -2.708  0.00  0.00    -0.004 A 
ATOM      5  C6  UNL d   1       0.344   1.213  -1.878  0.00  0.00     0.002 A 
ATOM      6  C7  UNL d   1       0.184   0.327  -0.812  0.00  0.00     0.002 A 
ENDROOT
BRANCH   1   7
ATOM      7  C1  UNL d   1       0.992  -1.593   0.614  0.00  0.00     0.055 C 
ATOM      8  C   UNL d   1       0.482  -2.961   0.186  0.00  0.00     0.019 C 
ENDBRANCH   1   7
TORSDOF 1
ENDMDL
