MODEL 1
REMARK minimizedAffinity -2.04366326
REMARK minimizedRMSD -1
REMARK  1 active torsions:
REMARK  status: ('A' for Active; 'I' for Inactive)
REMARK    1  A    between atoms: C1_2  and  C2_3 
ROOT
ATOM      1  C2  UNL d   1       0.414  -0.251  -0.561  0.00  0.00    -0.077 A 
ATOM      2  C3  UNL d   1       0.553   0.651  -1.626  0.00  0.00     0.002 A 
ATOM      3  C4  UNL d   1       1.514   0.432  -2.615  0.00  0.00     0.002 A 
ATOM      4  C5  UNL d   1       2.339  -0.689  -2.552  0.00  0.00    -0.004 A 
ATOM      5  C6  UNL d   1       2.209  -1.590  -1.496  0.00  0.00     0.002 A 
ATOM      6  C7  UNL d   1       1.250  -1.373  -0.506  0.00  0.00     0.002 A 
ENDROOT
BRANCH   1   7
ATOM      7  C1  UNL d   1      -0.655  -0.043   0.480  0.00  0.00     0.055 C 
ATOM      8  C   UNL d   1      -1.992   0.301  -0.160  0.00  0.00     0.019 C 
ENDBRANCH   1   7
TORSDOF 1
ENDMDL
