MODEL 1
REMARK minimizedAffinity -2.62080193
REMARK minimizedRMSD -1
REMARK  1 active torsions:
REMARK  status: ('A' for Active; 'I' for Inactive)
REMARK    1  A    between atoms: C1_2  and  C2_3 
ROOT
ATOM      1  C2  UNL d   1       0.385   0.030  -1.170  0.00  0.00    -0.077 A 
ATOM      2  C3  UNL d   1       1.130  -1.154  -1.254  0.00  0.00     0.002 A 
ATOM      3  C4  UNL d   1       2.173  -1.267  -2.176  0.00  0.00     0.002 A 
ATOM      4  C5  UNL d   1       2.482  -0.200  -3.016  0.00  0.00    -0.004 A 
ATOM      5  C6  UNL d   1       1.744   0.981  -2.941  0.00  0.00     0.002 A 
ATOM      6  C7  UNL d   1       0.701   1.096  -2.021  0.00  0.00     0.002 A 
ENDROOT
BRANCH   1   7
ATOM      7  C1  UNL d   1      -0.708   0.172  -0.143  0.00  0.00     0.055 C 
ATOM      8  C   UNL d   1      -0.141   0.203   1.269  0.00  0.00     0.019 C 
ENDBRANCH   1   7
TORSDOF 1
ENDMDL
