MODEL 1
REMARK minimizedAffinity -5.09163284
REMARK minimizedRMSD -1
REMARK  1 active torsions:
REMARK  status: ('A' for Active; 'I' for Inactive)
REMARK    1  A    between atoms: C1_2  and  C2_3 
ROOT
ATOM      1  C2  UNL d   1       0.186  -0.367  -0.332  0.00  0.00    -0.077 A 
ATOM      2  C3  UNL d   1       1.027   0.636  -0.834  0.00  0.00     0.002 A 
ATOM      3  C4  UNL d   1       2.335   0.333  -1.218  0.00  0.00     0.002 A 
ATOM      4  C5  UNL d   1       2.811  -0.971  -1.109  0.00  0.00    -0.004 A 
ATOM      5  C6  UNL d   1       1.983  -1.975  -0.608  0.00  0.00     0.002 A 
ATOM      6  C7  UNL d   1       0.676  -1.674  -0.223  0.00  0.00     0.002 A 
ENDROOT
BRANCH   1   7
ATOM      7  C1  UNL d   1      -1.241  -0.052   0.037  0.00  0.00     0.055 C 
ATOM      8  C   UNL d   1      -1.354   0.379   1.492  0.00  0.00     0.019 C 
ENDBRANCH   1   7
TORSDOF 1
ENDMDL
