MODEL 1
REMARK minimizedAffinity 0.143872738
REMARK minimizedRMSD -1
REMARK  1 active torsions:
REMARK  status: ('A' for Active; 'I' for Inactive)
REMARK    1  A    between atoms: C1_2  and  C2_3 
ROOT
ATOM      1  C2  UNL d   1      -0.488   0.768   2.145  0.00  0.00    -0.077 A 
ATOM      2  C3  UNL d   1       0.275   1.674   1.394  0.00  0.00     0.002 A 
ATOM      3  C4  UNL d   1       0.576   1.405   0.058  0.00  0.00     0.002 A 
ATOM      4  C5  UNL d   1       0.116   0.234  -0.540  0.00  0.00    -0.004 A 
ATOM      5  C6  UNL d   1      -0.642  -0.673   0.198  0.00  0.00     0.002 A 
ATOM      6  C7  UNL d   1      -0.944  -0.407   1.535  0.00  0.00     0.002 A 
ENDROOT
BRANCH   1   7
ATOM      7  C1  UNL d   1      -0.856   1.079   3.572  0.00  0.00     0.055 C 
ATOM      8  C   UNL d   1      -2.098   0.313   4.004  0.00  0.00     0.019 C 
ENDBRANCH   1   7
TORSDOF 1
ENDMDL
