MODEL 1
REMARK minimizedAffinity -0.122273184
REMARK minimizedRMSD -1
REMARK  0 active torsions:
REMARK  status: ('A' for Active; 'I' for Inactive)
ROOT
ATOM      1  C   UNL d   1       3.254  -0.510   0.602  0.00  0.00    -0.002 A 
ATOM      2  C1  UNL d   1       3.215  -0.888  -0.733  0.00  0.00     0.010 A 
ATOM      3  C2  UNL d   1       1.996  -0.993  -1.405  0.00  0.00     0.041 A 
ATOM      4  C3  UNL d   1       0.806  -0.707  -0.708  0.00  0.00    -0.075 A 
ATOM      5  S   UNL d   1      -0.802  -0.768  -1.327  0.00  0.00     0.015 SA
ATOM      6  C4  UNL d   1      -1.475  -0.293   0.165  0.00  0.00     0.022 A 
ATOM      7  C5  UNL d   1      -0.511  -0.089   1.124  0.00  0.00     0.026 A 
ATOM      8  C6  UNL d   1       0.820  -0.324   0.636  0.00  0.00    -0.082 A 
ATOM      9  C7  UNL d   1       2.071  -0.228   1.291  0.00  0.00     0.045 A 
ENDROOT
TORSDOF 0
ENDMDL
