MODEL 1
REMARK minimizedAffinity -0.427416265
REMARK minimizedRMSD -1
REMARK  0 active torsions:
REMARK  status: ('A' for Active; 'I' for Inactive)
ROOT
ATOM      1  C   UNL d   1       1.493  -1.357   3.339  0.00  0.00    -0.002 A 
ATOM      2  C1  UNL d   1       2.373  -0.524   2.663  0.00  0.00     0.010 A 
ATOM      3  C2  UNL d   1       2.008   0.059   1.447  0.00  0.00     0.041 A 
ATOM      4  C3  UNL d   1       0.731  -0.212   0.919  0.00  0.00    -0.075 A 
ATOM      5  S   UNL d   1       0.066   0.391  -0.554  0.00  0.00     0.015 SA
ATOM      6  C4  UNL d   1      -1.402  -0.443  -0.320  0.00  0.00     0.022 A 
ATOM      7  C5  UNL d   1      -1.402  -1.169   0.848  0.00  0.00     0.026 A 
ATOM      8  C6  UNL d   1      -0.173  -1.047   1.581  0.00  0.00    -0.082 A 
ATOM      9  C7  UNL d   1       0.227  -1.623   2.811  0.00  0.00     0.045 A 
ENDROOT
TORSDOF 0
ENDMDL
