MODEL 1
REMARK minimizedAffinity 5.94315624
REMARK minimizedRMSD -1
REMARK  0 active torsions:
REMARK  status: ('A' for Active; 'I' for Inactive)
ROOT
ATOM      1  C   UNL d   1       1.765  -2.279   0.392  0.00  0.00    -0.002 A 
ATOM      2  C1  UNL d   1       1.376  -3.023   1.497  0.00  0.00     0.010 A 
ATOM      3  C2  UNL d   1       0.336  -2.583   2.318  0.00  0.00     0.041 A 
ATOM      4  C3  UNL d   1      -0.313  -1.372   2.006  0.00  0.00    -0.075 A 
ATOM      5  S   UNL d   1      -1.613  -0.637   2.869  0.00  0.00     0.015 SA
ATOM      6  C4  UNL d   1      -1.682   0.681   1.790  0.00  0.00     0.022 A 
ATOM      7  C5  UNL d   1      -0.744   0.579   0.790  0.00  0.00     0.026 A 
ATOM      8  C6  UNL d   1       0.060  -0.606   0.898  0.00  0.00    -0.082 A 
ATOM      9  C7  UNL d   1       1.119  -1.079   0.085  0.00  0.00     0.045 A 
ENDROOT
TORSDOF 0
ENDMDL
