MODEL 1
REMARK minimizedAffinity 1.23367608
REMARK minimizedRMSD -1
REMARK  0 active torsions:
REMARK  status: ('A' for Active; 'I' for Inactive)
ROOT
ATOM      1  C   UNL d   1       2.048  -4.195   0.777  0.00  0.00    -0.002 A 
ATOM      2  C1  UNL d   1       1.465  -5.241   1.479  0.00  0.00     0.010 A 
ATOM      3  C2  UNL d   1       0.334  -5.023   2.268  0.00  0.00     0.041 A 
ATOM      4  C3  UNL d   1      -0.209  -3.725   2.337  0.00  0.00    -0.075 A 
ATOM      5  S   UNL d   1      -1.591  -3.223   3.237  0.00  0.00     0.015 SA
ATOM      6  C4  UNL d   1      -1.441  -1.609   2.710  0.00  0.00     0.022 A 
ATOM      7  C5  UNL d   1      -0.369  -1.440   1.867  0.00  0.00     0.026 A 
ATOM      8  C6  UNL d   1       0.359  -2.656   1.638  0.00  0.00    -0.082 A 
ATOM      9  C7  UNL d   1       1.506  -2.909   0.848  0.00  0.00     0.045 A 
ENDROOT
TORSDOF 0
ENDMDL
