MODEL 1
REMARK minimizedAffinity 1.24985015
REMARK minimizedRMSD -1
REMARK  0 active torsions:
REMARK  status: ('A' for Active; 'I' for Inactive)
ROOT
ATOM      1  C   UNL d   1      -1.550  -0.903   2.522  0.00  0.00    -0.002 A 
ATOM      2  C1  UNL d   1      -1.453  -0.278   1.287  0.00  0.00     0.010 A 
ATOM      3  C2  UNL d   1      -0.453  -0.641   0.384  0.00  0.00     0.041 A 
ATOM      4  C3  UNL d   1       0.456  -1.655   0.745  0.00  0.00    -0.075 A 
ATOM      5  S   UNL d   1       1.762  -2.265  -0.201  0.00  0.00     0.015 SA
ATOM      6  C4  UNL d   1       2.221  -3.372   1.011  0.00  0.00     0.022 A 
ATOM      7  C5  UNL d   1       1.409  -3.291   2.118  0.00  0.00     0.026 A 
ATOM      8  C6  UNL d   1       0.378  -2.300   1.982  0.00  0.00    -0.082 A 
ATOM      9  C7  UNL d   1      -0.647  -1.909   2.877  0.00  0.00     0.045 A 
ENDROOT
TORSDOF 0
ENDMDL
