MODEL 1
REMARK minimizedAffinity -1.04899108
REMARK minimizedRMSD -1
REMARK  0 active torsions:
REMARK  status: ('A' for Active; 'I' for Inactive)
ROOT
ATOM      1  C1  BNZ d   1      -1.527  -0.542   3.054  0.00  0.00     0.000 A 
ATOM      2  C2  BNZ d   1      -2.285  -0.051   2.024  0.00  0.00     0.000 A 
ATOM      3  C3  BNZ d   1      -1.878  -0.191   0.726  0.00  0.00     0.000 A 
ATOM      4  C4  BNZ d   1      -0.696  -0.785   0.463  0.00  0.00     0.000 A 
ATOM      5  C5  BNZ d   1       0.084  -1.276   1.491  0.00  0.00     0.000 A 
ATOM      6  C6  BNZ d   1      -0.348  -1.168   2.793  0.00  0.00     0.000 A 
ENDROOT
TORSDOF 0
ENDMDL
