MODEL 1
REMARK minimizedAffinity -2.67572331
REMARK minimizedRMSD -1
REMARK  0 active torsions:
REMARK  status: ('A' for Active; 'I' for Inactive)
ROOT
ATOM      1  C1  BNZ d   1      -0.693  -0.690   1.004  0.00  0.00     0.000 A 
ATOM      2  C2  BNZ d   1       0.409  -1.461   0.746  0.00  0.00     0.000 A 
ATOM      3  C3  BNZ d   1       0.755  -2.489   1.578  0.00  0.00     0.000 A 
ATOM      4  C4  BNZ d   1       0.022  -2.720   2.686  0.00  0.00     0.000 A 
ATOM      5  C5  BNZ d   1      -1.087  -1.946   2.965  0.00  0.00     0.000 A 
ATOM      6  C6  BNZ d   1      -1.454  -0.937   2.105  0.00  0.00     0.000 A 
ENDROOT
TORSDOF 0
ENDMDL
