MODEL 1
REMARK minimizedAffinity -3.31235838
REMARK minimizedRMSD -1
REMARK  0 active torsions:
REMARK  status: ('A' for Active; 'I' for Inactive)
ROOT
ATOM      1  C1  BNZ d   1      -0.687  -2.961   2.145  0.00  0.00     0.000 A 
ATOM      2  C2  BNZ d   1       0.602  -2.835   1.700  0.00  0.00     0.000 A 
ATOM      3  C3  BNZ d   1       1.560  -3.738   2.067  0.00  0.00     0.000 A 
ATOM      4  C4  BNZ d   1       1.238  -4.741   2.909  0.00  0.00     0.000 A 
ATOM      5  C5  BNZ d   1      -0.055  -4.876   3.374  0.00  0.00     0.000 A 
ATOM      6  C6  BNZ d   1      -1.026  -3.988   2.971  0.00  0.00     0.000 A 
ENDROOT
TORSDOF 0
ENDMDL
