MODEL 1
REMARK minimizedAffinity -3.11571741
REMARK minimizedRMSD -1
REMARK  0 active torsions:
REMARK  status: ('A' for Active; 'I' for Inactive)
ROOT
ATOM      1  C1  BNZ d   1       0.147  -2.004   3.129  0.00  0.00     0.000 A 
ATOM      2  C2  BNZ d   1       1.239  -2.574   2.532  0.00  0.00     0.000 A 
ATOM      3  C3  BNZ d   1       1.258  -3.908   2.234  0.00  0.00     0.000 A 
ATOM      4  C4  BNZ d   1       0.202  -4.677   2.569  0.00  0.00     0.000 A 
ATOM      5  C5  BNZ d   1      -0.903  -4.119   3.181  0.00  0.00     0.000 A 
ATOM      6  C6  BNZ d   1      -0.934  -2.769   3.444  0.00  0.00     0.000 A 
ENDROOT
TORSDOF 0
ENDMDL
