MODEL 1
REMARK minimizedAffinity -3.12637711
REMARK minimizedRMSD -1
REMARK  0 active torsions:
REMARK  status: ('A' for Active; 'I' for Inactive)
ROOT
ATOM      1  C1  BNZ d   1       0.005  -2.181   3.332  0.00  0.00     0.000 A 
ATOM      2  C2  BNZ d   1       1.074  -2.799   2.739  0.00  0.00     0.000 A 
ATOM      3  C3  BNZ d   1       1.075  -4.150   2.531  0.00  0.00     0.000 A 
ATOM      4  C4  BNZ d   1       0.026  -4.886   2.951  0.00  0.00     0.000 A 
ATOM      5  C5  BNZ d   1      -1.055  -4.279   3.559  0.00  0.00     0.000 A 
ATOM      6  C6  BNZ d   1      -1.070  -2.914   3.731  0.00  0.00     0.000 A 
ENDROOT
TORSDOF 0
ENDMDL
