MODEL 1
REMARK minimizedAffinity 0.793169618
REMARK minimizedRMSD -1
REMARK  0 active torsions:
REMARK  status: ('A' for Active; 'I' for Inactive)
ROOT
ATOM      1  C1  BNZ d   1       1.112   5.948   3.594  0.00  0.00     0.000 A 
ATOM      2  C2  BNZ d   1       0.420   5.952   4.776  0.00  0.00     0.000 A 
ATOM      3  C3  BNZ d   1       1.079   5.998   5.972  0.00  0.00     0.000 A 
ATOM      4  C4  BNZ d   1       2.428   5.999   5.987  0.00  0.00     0.000 A 
ATOM      5  C5  BNZ d   1       3.140   5.986   4.804  0.00  0.00     0.000 A 
ATOM      6  C6  BNZ d   1       2.472   5.979   3.601  0.00  0.00     0.000 A 
ENDROOT
TORSDOF 0
ENDMDL
