MODEL 1
REMARK minimizedAffinity -2.23403382
REMARK minimizedRMSD -1
REMARK  0 active torsions:
REMARK  status: ('A' for Active; 'I' for Inactive)
ROOT
ATOM      1  C1  BNZ d   1      -0.722  -0.457   0.370  0.00  0.00     0.000 A 
ATOM      2  C2  BNZ d   1      -1.240  -0.435   1.637  0.00  0.00     0.000 A 
ATOM      3  C3  BNZ d   1      -0.768  -1.281   2.601  0.00  0.00     0.000 A 
ATOM      4  C4  BNZ d   1       0.194  -2.173   2.288  0.00  0.00     0.000 A 
ATOM      5  C5  BNZ d   1       0.720  -2.214   1.012  0.00  0.00     0.000 A 
ATOM      6  C6  BNZ d   1       0.269  -1.335   0.054  0.00  0.00     0.000 A 
ENDROOT
TORSDOF 0
ENDMDL
