MODEL 1
REMARK minimizedAffinity -0.315920413
REMARK minimizedRMSD -1
REMARK  0 active torsions:
REMARK  status: ('A' for Active; 'I' for Inactive)
ROOT
ATOM      1  C1  BNZ d   1      -0.018  -0.768   1.529  0.00  0.00     0.000 A 
ATOM      2  C2  BNZ d   1      -1.070  -1.519   1.983  0.00  0.00     0.000 A 
ATOM      3  C3  BNZ d   1      -2.358  -1.164   1.697  0.00  0.00     0.000 A 
ATOM      4  C4  BNZ d   1      -2.595  -0.037   0.995  0.00  0.00     0.000 A 
ATOM      5  C5  BNZ d   1      -1.545   0.736   0.539  0.00  0.00     0.000 A 
ATOM      6  C6  BNZ d   1      -0.249   0.353   0.794  0.00  0.00     0.000 A 
ENDROOT
TORSDOF 0
ENDMDL
