MODEL 1
REMARK minimizedAffinity -0.436228544
REMARK minimizedRMSD -1
REMARK  0 active torsions:
REMARK  status: ('A' for Active; 'I' for Inactive)
ROOT
ATOM      1  C1  BNZ d   1       1.536   5.856   3.544  0.00  0.00     0.000 A 
ATOM      2  C2  BNZ d   1       0.793   5.739   4.689  0.00  0.00     0.000 A 
ATOM      3  C3  BNZ d   1       1.390   5.777   5.918  0.00  0.00     0.000 A 
ATOM      4  C4  BNZ d   1       2.732   5.890   6.000  0.00  0.00     0.000 A 
ATOM      5  C5  BNZ d   1       3.495   5.999   4.855  0.00  0.00     0.000 A 
ATOM      6  C6  BNZ d   1       2.887   6.000   3.621  0.00  0.00     0.000 A 
ENDROOT
TORSDOF 0
ENDMDL
