MODEL 1
REMARK minimizedAffinity -5.0956192
REMARK minimizedRMSD -1
REMARK  1 active torsions:
REMARK  status: ('A' for Active; 'I' for Inactive)
REMARK    1  A    between atoms: N_2  and  C1_3 
ROOT
ATOM      1  C1  UNL d   1       0.230   0.024   0.456  0.00  0.00     0.143 A 
ATOM      2  C2  UNL d   1       0.956   1.103  -0.058  0.00  0.00    -0.057 A 
ATOM      3  C3  UNL d   1       2.346   1.182   0.096  0.00  0.00     0.033 A 
ATOM      4  C4  UNL d   1       3.032   0.194   0.795  0.00  0.00    -0.042 A 
ATOM      5  C5  UNL d   1       2.327  -0.875   1.336  0.00  0.00     0.033 A 
ATOM      6  C6  UNL d   1       0.940  -0.952   1.173  0.00  0.00    -0.057 A 
ENDROOT
BRANCH   1   7
ATOM      7  N   UNL d   1      -1.164  -0.063   0.421  0.00  0.00    -0.732 N 
ATOM      8  C   UNL d   1      -1.875  -0.005  -0.838  0.00  0.00     0.284 C 
ATOM      9  H3  UNL d   1      -1.526  -0.756   1.072  0.00  0.00     0.395 HD
ENDBRANCH   1   7
TORSDOF 1
ENDMDL
