MODEL 1
REMARK minimizedAffinity -3.12007999
REMARK minimizedRMSD -1
REMARK  1 active torsions:
REMARK  status: ('A' for Active; 'I' for Inactive)
REMARK    1  A    between atoms: N_2  and  C1_3 
ROOT
ATOM      1  C1  UNL d   1       0.374  -0.781   1.203  0.00  0.00     0.143 A 
ATOM      2  C2  UNL d   1       0.798   0.494   1.592  0.00  0.00    -0.057 A 
ATOM      3  C3  UNL d   1       2.040   1.000   1.191  0.00  0.00     0.033 A 
ATOM      4  C4  UNL d   1       2.895   0.226   0.414  0.00  0.00    -0.042 A 
ATOM      5  C5  UNL d   1       2.505  -1.054   0.036  0.00  0.00     0.033 A 
ATOM      6  C6  UNL d   1       1.261  -1.551   0.434  0.00  0.00    -0.057 A 
ENDROOT
BRANCH   1   7
ATOM      7  N   UNL d   1      -0.807  -1.379   1.651  0.00  0.00    -0.732 N 
ATOM      8  C   UNL d   1      -0.806  -2.744   2.131  0.00  0.00     0.284 C 
ATOM      9  H3  UNL d   1      -1.378  -0.744   2.205  0.00  0.00     0.395 HD
ENDBRANCH   1   7
TORSDOF 1
ENDMDL
