MODEL 1
REMARK minimizedAffinity -3.4732759
REMARK minimizedRMSD -1
REMARK  1 active torsions:
REMARK  status: ('A' for Active; 'I' for Inactive)
REMARK    1  A    between atoms: N_2  and  C1_3 
ROOT
ATOM      1  C1  UNL d   1      -2.050  -0.094  -1.377  0.00  0.00     0.143 A 
ATOM      2  C2  UNL d   1      -2.363  -1.314  -1.987  0.00  0.00    -0.057 A 
ATOM      3  C3  UNL d   1      -3.059  -1.361  -3.201  0.00  0.00     0.033 A 
ATOM      4  C4  UNL d   1      -3.480  -0.186  -3.814  0.00  0.00    -0.042 A 
ATOM      5  C5  UNL d   1      -3.202   1.037  -3.213  0.00  0.00     0.033 A 
ATOM      6  C6  UNL d   1      -2.501   1.078  -2.004  0.00  0.00    -0.057 A 
ENDROOT
BRANCH   1   7
ATOM      7  N   UNL d   1      -1.447   0.015  -0.121  0.00  0.00    -0.732 N 
ATOM      8  C   UNL d   1      -0.229   0.777   0.048  0.00  0.00     0.284 C 
ATOM      9  H3  UNL d   1      -2.126   0.145   0.625  0.00  0.00     0.395 HD
ENDBRANCH   1   7
TORSDOF 1
ENDMDL
