MODEL 1
REMARK minimizedAffinity -5.14327717
REMARK minimizedRMSD -1
REMARK  1 active torsions:
REMARK  status: ('A' for Active; 'I' for Inactive)
REMARK    1  A    between atoms: N_2  and  C1_3 
ROOT
ATOM      1  C1  UNL d   1      -0.339  -0.032   0.393  0.00  0.00     0.143 A 
ATOM      2  C2  UNL d   1       0.607  -0.928   0.902  0.00  0.00    -0.057 A 
ATOM      3  C3  UNL d   1       1.912  -0.515   1.198  0.00  0.00     0.033 A 
ATOM      4  C4  UNL d   1       2.303   0.798   0.961  0.00  0.00    -0.042 A 
ATOM      5  C5  UNL d   1       1.386   1.700   0.431  0.00  0.00     0.033 A 
ATOM      6  C6  UNL d   1       0.083   1.283   0.144  0.00  0.00    -0.057 A 
ENDROOT
BRANCH   1   7
ATOM      7  N   UNL d   1      -1.623  -0.405  -0.014  0.00  0.00    -0.732 N 
ATOM      8  C   UNL d   1      -2.050  -0.204  -1.382  0.00  0.00     0.284 C 
ATOM      9  H3  UNL d   1      -1.914  -1.294   0.387  0.00  0.00     0.395 HD
ENDBRANCH   1   7
TORSDOF 1
ENDMDL
