MODEL 1
REMARK minimizedAffinity 2.31732941
REMARK minimizedRMSD -1
REMARK  1 active torsions:
REMARK  status: ('A' for Active; 'I' for Inactive)
REMARK    1  A    between atoms: N_2  and  C1_3 
ROOT
ATOM      1  C1  UNL d   1       2.293   2.662   0.402  0.00  0.00     0.143 A 
ATOM      2  C2  UNL d   1       2.940   3.713  -0.257  0.00  0.00    -0.057 A 
ATOM      3  C3  UNL d   1       2.215   4.759  -0.841  0.00  0.00     0.033 A 
ATOM      4  C4  UNL d   1       0.825   4.757  -0.801  0.00  0.00    -0.042 A 
ATOM      5  C5  UNL d   1       0.160   3.709  -0.173  0.00  0.00     0.033 A 
ATOM      6  C6  UNL d   1       0.890   2.671   0.414  0.00  0.00    -0.057 A 
ENDROOT
BRANCH   1   7
ATOM      7  N   UNL d   1       2.953   1.543   0.916  0.00  0.00    -0.732 N 
ATOM      8  C   UNL d   1       2.219   0.510   1.614  0.00  0.00     0.284 C 
ATOM      9  H3  UNL d   1       3.669   1.190   0.285  0.00  0.00     0.395 HD
ENDBRANCH   1   7
TORSDOF 1
ENDMDL
