MODEL 1
REMARK minimizedAffinity 9.94688225
REMARK minimizedRMSD -1
REMARK  1 active torsions:
REMARK  status: ('A' for Active; 'I' for Inactive)
REMARK    1  A    between atoms: N_2  and  C1_3 
ROOT
ATOM      1  C1  UNL d   1      -0.780  -1.683  -0.393  0.00  0.00     0.143 A 
ATOM      2  C2  UNL d   1      -0.686  -1.035   0.844  0.00  0.00    -0.057 A 
ATOM      3  C3  UNL d   1       0.539  -0.919   1.511  0.00  0.00     0.033 A 
ATOM      4  C4  UNL d   1       1.691  -1.475   0.965  0.00  0.00    -0.042 A 
ATOM      5  C5  UNL d   1       1.617  -2.146  -0.251  0.00  0.00     0.033 A 
ATOM      6  C6  UNL d   1       0.391  -2.253  -0.915  0.00  0.00    -0.057 A 
ENDROOT
BRANCH   1   7
ATOM      7  N   UNL d   1      -1.986  -1.918  -1.058  0.00  0.00    -0.732 N 
ATOM      8  C   UNL d   1      -2.787  -3.081  -0.743  0.00  0.00     0.284 C 
ATOM      9  H3  UNL d   1      -2.525  -1.067  -1.197  0.00  0.00     0.395 HD
ENDBRANCH   1   7
TORSDOF 1
ENDMDL
