MODEL 1
REMARK minimizedAffinity -0.509868681
REMARK minimizedRMSD -1
REMARK  1 active torsions:
REMARK  status: ('A' for Active; 'I' for Inactive)
REMARK    1  A    between atoms: N_2  and  C1_3 
ROOT
ATOM      1  C1  UNL d   1       4.435  -1.741   4.072  0.00  0.00     0.143 A 
ATOM      2  C2  UNL d   1       4.037  -0.722   3.201  0.00  0.00    -0.057 A 
ATOM      3  C3  UNL d   1       2.742  -0.685   2.670  0.00  0.00     0.033 A 
ATOM      4  C4  UNL d   1       1.828  -1.687   2.980  0.00  0.00    -0.042 A 
ATOM      5  C5  UNL d   1       2.210  -2.724   3.825  0.00  0.00     0.033 A 
ATOM      6  C6  UNL d   1       3.503  -2.751   4.356  0.00  0.00    -0.057 A 
ENDROOT
BRANCH   1   7
ATOM      7  N   UNL d   1       5.738  -1.887   4.555  0.00  0.00    -0.732 N 
ATOM      8  C   UNL d   1       5.998  -1.921   5.978  0.00  0.00     0.284 C 
ATOM      9  H3  UNL d   1       6.278  -2.562   4.017  0.00  0.00     0.395 HD
ENDBRANCH   1   7
TORSDOF 1
ENDMDL
