MODEL 1
REMARK minimizedAffinity 11.3662186
REMARK minimizedRMSD -1
REMARK  1 active torsions:
REMARK  status: ('A' for Active; 'I' for Inactive)
REMARK    1  A    between atoms: N_2  and  C1_3 
ROOT
ATOM      1  C1  UNL d   1       4.240  -1.754   3.355  0.00  0.00     0.143 A 
ATOM      2  C2  UNL d   1       3.083  -2.004   4.102  0.00  0.00    -0.057 A 
ATOM      3  C3  UNL d   1       1.853  -1.437   3.748  0.00  0.00     0.033 A 
ATOM      4  C4  UNL d   1       1.764  -0.582   2.654  0.00  0.00    -0.042 A 
ATOM      5  C5  UNL d   1       2.905  -0.299   1.912  0.00  0.00     0.033 A 
ATOM      6  C6  UNL d   1       4.129  -0.875   2.267  0.00  0.00    -0.057 A 
ENDROOT
BRANCH   1   7
ATOM      7  N   UNL d   1       5.511  -2.209   3.714  0.00  0.00    -0.732 N 
ATOM      8  C   UNL d   1       5.988  -2.069   5.073  0.00  0.00     0.284 C 
ATOM      9  H3  UNL d   1       5.739  -3.102   3.283  0.00  0.00     0.395 HD
ENDBRANCH   1   7
TORSDOF 1
ENDMDL
