MODEL 1
REMARK minimizedAffinity -0.0849853382
REMARK minimizedRMSD -1
REMARK  1 active torsions:
REMARK  status: ('A' for Active; 'I' for Inactive)
REMARK    1  A    between atoms: N_2  and  C1_3 
ROOT
ATOM      1  C1  UNL d   1       4.277  -2.208   4.228  0.00  0.00     0.143 A 
ATOM      2  C2  UNL d   1       3.302  -3.022   4.814  0.00  0.00    -0.057 A 
ATOM      3  C3  UNL d   1       1.951  -2.902   4.466  0.00  0.00     0.033 A 
ATOM      4  C4  UNL d   1       1.546  -1.941   3.545  0.00  0.00    -0.042 A 
ATOM      5  C5  UNL d   1       2.495  -1.104   2.968  0.00  0.00     0.033 A 
ATOM      6  C6  UNL d   1       3.844  -1.234   3.315  0.00  0.00    -0.057 A 
ENDROOT
BRANCH   1   7
ATOM      7  N   UNL d   1       5.622  -2.212   4.604  0.00  0.00    -0.732 N 
ATOM      8  C   UNL d   1       5.998  -2.119   5.998  0.00  0.00     0.284 C 
ATOM      9  H3  UNL d   1       6.173  -2.879   4.068  0.00  0.00     0.395 HD
ENDBRANCH   1   7
TORSDOF 1
ENDMDL
