MODEL 1
REMARK minimizedAffinity 7.5784831
REMARK minimizedRMSD -1
REMARK  1 active torsions:
REMARK  status: ('A' for Active; 'I' for Inactive)
REMARK    1  A    between atoms: N_2  and  C1_3 
ROOT
ATOM      1  C1  UNL d   1       2.636  -0.991   2.847  0.00  0.00     0.143 A 
ATOM      2  C2  UNL d   1       3.983  -1.271   3.105  0.00  0.00    -0.057 A 
ATOM      3  C3  UNL d   1       4.355  -2.262   4.020  0.00  0.00     0.033 A 
ATOM      4  C4  UNL d   1       3.385  -2.974   4.718  0.00  0.00    -0.042 A 
ATOM      5  C5  UNL d   1       2.041  -2.695   4.496  0.00  0.00     0.033 A 
ATOM      6  C6  UNL d   1       1.675  -1.708   3.575  0.00  0.00    -0.057 A 
ENDROOT
BRANCH   1   7
ATOM      7  N   UNL d   1       2.203   0.050   2.022  0.00  0.00    -0.732 N 
ATOM      8  C   UNL d   1       2.270   1.424   2.471  0.00  0.00     0.284 C 
ATOM      9  H3  UNL d   1       2.477  -0.084   1.051  0.00  0.00     0.395 HD
ENDBRANCH   1   7
TORSDOF 1
ENDMDL
