MODEL 1
REMARK minimizedAffinity -0.399889886
REMARK minimizedRMSD -1
REMARK  1 active torsions:
REMARK  status: ('A' for Active; 'I' for Inactive)
REMARK    1  A    between atoms: N_2  and  C1_3 
ROOT
ATOM      1  C1  UNL d   1       4.449  -1.938   4.315  0.00  0.00     0.143 A 
ATOM      2  C2  UNL d   1       3.395  -1.769   5.220  0.00  0.00    -0.057 A 
ATOM      3  C3  UNL d   1       2.147  -1.296   4.799  0.00  0.00     0.033 A 
ATOM      4  C4  UNL d   1       1.938  -0.955   3.467  0.00  0.00    -0.042 A 
ATOM      5  C5  UNL d   1       2.978  -1.092   2.555  0.00  0.00     0.033 A 
ATOM      6  C6  UNL d   1       4.221  -1.571   2.980  0.00  0.00    -0.057 A 
ENDROOT
BRANCH   1   7
ATOM      7  N   UNL d   1       5.743  -2.311   4.689  0.00  0.00    -0.732 N 
ATOM      8  C   UNL d   1       6.000  -2.868   5.999  0.00  0.00     0.284 C 
ATOM      9  H3  UNL d   1       6.247  -2.772   3.935  0.00  0.00     0.395 HD
ENDBRANCH   1   7
TORSDOF 1
ENDMDL
