MODEL 1
REMARK minimizedAffinity 10.4540033
REMARK minimizedRMSD -1
REMARK  1 active torsions:
REMARK  status: ('A' for Active; 'I' for Inactive)
REMARK    1  A    between atoms: N_2  and  C1_3 
ROOT
ATOM      1  C1  UNL d   1      -5.854   1.655  -4.451  0.00  0.00     0.143 A 
ATOM      2  C2  UNL d   1      -5.818   0.810  -5.565  0.00  0.00    -0.057 A 
ATOM      3  C3  UNL d   1      -5.899  -0.581  -5.425  0.00  0.00     0.033 A 
ATOM      4  C4  UNL d   1      -5.988  -1.154  -4.160  0.00  0.00    -0.042 A 
ATOM      5  C5  UNL d   1      -6.000  -0.335  -3.037  0.00  0.00     0.033 A 
ATOM      6  C6  UNL d   1      -5.925   1.053  -3.184  0.00  0.00    -0.057 A 
ENDROOT
BRANCH   1   7
ATOM      7  N   UNL d   1      -5.678   3.039  -4.518  0.00  0.00    -0.732 N 
ATOM      8  C   UNL d   1      -4.352   3.617  -4.475  0.00  0.00     0.284 C 
ATOM      9  H3  UNL d   1      -6.300   3.477  -5.194  0.00  0.00     0.395 HD
ENDBRANCH   1   7
TORSDOF 1
ENDMDL
