MODEL 1
REMARK minimizedAffinity 9.00984955
REMARK minimizedRMSD -1
REMARK  1 active torsions:
REMARK  status: ('A' for Active; 'I' for Inactive)
REMARK    1  A    between atoms: N_2  and  C1_3 
ROOT
ATOM      1  C1  UNL d   1       0.235   3.753   1.261  0.00  0.00     0.143 A 
ATOM      2  C2  UNL d   1       0.540   3.657  -0.100  0.00  0.00    -0.057 A 
ATOM      3  C3  UNL d   1       1.571   2.827  -0.556  0.00  0.00     0.033 A 
ATOM      4  C4  UNL d   1       2.337   2.098   0.348  0.00  0.00    -0.042 A 
ATOM      5  C5  UNL d   1       2.067   2.198   1.709  0.00  0.00     0.033 A 
ATOM      6  C6  UNL d   1       1.032   3.023   2.157  0.00  0.00    -0.057 A 
ENDROOT
BRANCH   1   7
ATOM      7  N   UNL d   1      -0.713   4.636   1.785  0.00  0.00    -0.732 N 
ATOM      8  C   UNL d   1      -0.796   5.999   1.306  0.00  0.00     0.284 C 
ATOM      9  H3  UNL d   1      -1.617   4.192   1.934  0.00  0.00     0.395 HD
ENDBRANCH   1   7
TORSDOF 1
ENDMDL
