MODEL 1
REMARK minimizedAffinity 3.80329299
REMARK minimizedRMSD -1
REMARK  1 active torsions:
REMARK  status: ('A' for Active; 'I' for Inactive)
REMARK    1  A    between atoms: N_2  and  C1_3 
ROOT
ATOM      1  C1  UNL d   1       3.528  -2.481   5.049  0.00  0.00     0.143 A 
ATOM      2  C2  UNL d   1       2.839  -1.277   4.864  0.00  0.00    -0.057 A 
ATOM      3  C3  UNL d   1       1.895  -1.131   3.841  0.00  0.00     0.033 A 
ATOM      4  C4  UNL d   1       1.642  -2.181   2.964  0.00  0.00    -0.042 A 
ATOM      5  C5  UNL d   1       2.333  -3.379   3.114  0.00  0.00     0.033 A 
ATOM      6  C6  UNL d   1       3.270  -3.520   4.142  0.00  0.00    -0.057 A 
ENDROOT
BRANCH   1   7
ATOM      7  N   UNL d   1       4.549  -2.656   5.986  0.00  0.00    -0.732 N 
ATOM      8  C   UNL d   1       5.899  -2.222   5.695  0.00  0.00     0.284 C 
ATOM      9  H3  UNL d   1       4.244  -2.457   6.936  0.00  0.00     0.395 HD
ENDBRANCH   1   7
TORSDOF 1
ENDMDL
