MODEL 1
REMARK minimizedAffinity -2.36479521
REMARK minimizedRMSD -1
REMARK  0 active torsions:
REMARK  status: ('A' for Active; 'I' for Inactive)
ROOT
ATOM      1  C1  BNZ d   1       5.993   1.754   3.290  0.00  0.00     0.000 A 
ATOM      2  C2  BNZ d   1       5.988   1.954   4.644  0.00  0.00     0.000 A 
ATOM      3  C3  BNZ d   1       5.999   0.895   5.508  0.00  0.00     0.000 A 
ATOM      4  C4  BNZ d   1       5.975  -0.361   5.018  0.00  0.00     0.000 A 
ATOM      5  C5  BNZ d   1       5.971  -0.579   3.655  0.00  0.00     0.000 A 
ATOM      6  C6  BNZ d   1       5.999   0.490   2.788  0.00  0.00     0.000 A 
ENDROOT
TORSDOF 0
ENDMDL
