MODEL 1
REMARK minimizedAffinity -2.40197754
REMARK minimizedRMSD -1
REMARK  0 active torsions:
REMARK  status: ('A' for Active; 'I' for Inactive)
ROOT
ATOM      1  C1  BNZ d   1       5.976   2.303   4.576  0.00  0.00     0.000 A 
ATOM      2  C2  BNZ d   1       5.971   1.491   5.679  0.00  0.00     0.000 A 
ATOM      3  C3  BNZ d   1       5.999   0.131   5.547  0.00  0.00     0.000 A 
ATOM      4  C4  BNZ d   1       5.990  -0.416   4.314  0.00  0.00     0.000 A 
ATOM      5  C5  BNZ d   1       5.985   0.389   3.192  0.00  0.00     0.000 A 
ATOM      6  C6  BNZ d   1       5.997   1.758   3.329  0.00  0.00     0.000 A 
ENDROOT
TORSDOF 0
ENDMDL
