MODEL 1
REMARK minimizedAffinity -2.89042091
REMARK minimizedRMSD -1
REMARK  0 active torsions:
REMARK  status: ('A' for Active; 'I' for Inactive)
ROOT
ATOM      1  C1  BNZ d   1       6.000   0.903   5.656  0.00  0.00     0.000 A 
ATOM      2  C2  BNZ d   1       5.975   2.228   5.999  0.00  0.00     0.000 A 
ATOM      3  C3  BNZ d   1       5.776   3.193   5.052  0.00  0.00     0.000 A 
ATOM      4  C4  BNZ d   1       5.641   2.835   3.759  0.00  0.00     0.000 A 
ATOM      5  C5  BNZ d   1       5.673   1.503   3.395  0.00  0.00     0.000 A 
ATOM      6  C6  BNZ d   1       5.835   0.532   4.357  0.00  0.00     0.000 A 
ENDROOT
TORSDOF 0
ENDMDL
