MODEL 1
REMARK minimizedAffinity 3.09124923
REMARK minimizedRMSD -1
REMARK  0 active torsions:
REMARK  status: ('A' for Active; 'I' for Inactive)
ROOT
ATOM      1  C1  BNZ d   1       5.969   5.126   4.182  0.00  0.00     0.000 A 
ATOM      2  C2  BNZ d   1       5.961   3.757   4.200  0.00  0.00     0.000 A 
ATOM      3  C3  BNZ d   1       5.994   3.042   3.036  0.00  0.00     0.000 A 
ATOM      4  C4  BNZ d   1       5.994   3.695   1.856  0.00  0.00     0.000 A 
ATOM      5  C5  BNZ d   1       5.992   5.075   1.821  0.00  0.00     0.000 A 
ATOM      6  C6  BNZ d   1       5.998   5.792   2.996  0.00  0.00     0.000 A 
ENDROOT
TORSDOF 0
ENDMDL
