MODEL 1
REMARK minimizedAffinity -3.91736221
REMARK minimizedRMSD -1
REMARK  0 active torsions:
REMARK  status: ('A' for Active; 'I' for Inactive)
ROOT
ATOM      1  C1  BNZ d   1       5.209  -0.586   3.475  0.00  0.00     0.000 A 
ATOM      2  C2  BNZ d   1       5.224   0.476   2.610  0.00  0.00     0.000 A 
ATOM      3  C3  BNZ d   1       5.340   1.756   3.075  0.00  0.00     0.000 A 
ATOM      4  C4  BNZ d   1       5.401   1.976   4.404  0.00  0.00     0.000 A 
ATOM      5  C5  BNZ d   1       5.378   0.917   5.290  0.00  0.00     0.000 A 
ATOM      6  C6  BNZ d   1       5.300  -0.373   4.816  0.00  0.00     0.000 A 
ENDROOT
TORSDOF 0
ENDMDL
