MODEL 1
REMARK minimizedAffinity -2.37141871
REMARK minimizedRMSD -1
REMARK  0 active torsions:
REMARK  status: ('A' for Active; 'I' for Inactive)
ROOT
ATOM      1  C1  BNZ d   1       6.000   1.171   2.998  0.00  0.00     0.000 A 
ATOM      2  C2  BNZ d   1       5.998   2.498   2.659  0.00  0.00     0.000 A 
ATOM      3  C3  BNZ d   1       5.287   3.407   3.391  0.00  0.00     0.000 A 
ATOM      4  C4  BNZ d   1       4.548   2.983   4.437  0.00  0.00     0.000 A 
ATOM      5  C5  BNZ d   1       4.532   1.647   4.786  0.00  0.00     0.000 A 
ATOM      6  C6  BNZ d   1       5.280   0.741   4.069  0.00  0.00     0.000 A 
ENDROOT
TORSDOF 0
ENDMDL
