MODEL 1
REMARK minimizedAffinity 6.34972906
REMARK minimizedRMSD -1
REMARK  0 active torsions:
REMARK  status: ('A' for Active; 'I' for Inactive)
ROOT
ATOM      1  C1  BNZ d   1       4.533   1.511   4.091  0.00  0.00     0.000 A 
ATOM      2  C2  BNZ d   1       5.282   2.657   4.119  0.00  0.00     0.000 A 
ATOM      3  C3  BNZ d   1       5.999   3.052   3.024  0.00  0.00     0.000 A 
ATOM      4  C4  BNZ d   1       6.000   2.280   1.919  0.00  0.00     0.000 A 
ATOM      5  C5  BNZ d   1       5.258   1.116   1.878  0.00  0.00     0.000 A 
ATOM      6  C6  BNZ d   1       4.506   0.742   2.968  0.00  0.00     0.000 A 
ENDROOT
TORSDOF 0
ENDMDL
