MODEL 1
REMARK minimizedAffinity -1.91076994
REMARK minimizedRMSD -1
REMARK  0 active torsions:
REMARK  status: ('A' for Active; 'I' for Inactive)
ROOT
ATOM      1  C1  BNZ d   1       5.979   1.831   4.438  0.00  0.00     0.000 A 
ATOM      2  C2  BNZ d   1       5.975   1.184   5.645  0.00  0.00     0.000 A 
ATOM      3  C3  BNZ d   1       5.999  -0.182   5.707  0.00  0.00     0.000 A 
ATOM      4  C4  BNZ d   1       5.988  -0.897   4.563  0.00  0.00     0.000 A 
ATOM      5  C5  BNZ d   1       5.984  -0.259   3.339  0.00  0.00     0.000 A 
ATOM      6  C6  BNZ d   1       5.998   1.116   3.281  0.00  0.00     0.000 A 
ENDROOT
TORSDOF 0
ENDMDL
