MODEL 1
REMARK minimizedAffinity -3.48026323
REMARK minimizedRMSD -1
REMARK  0 active torsions:
REMARK  status: ('A' for Active; 'I' for Inactive)
ROOT
ATOM      1  C1  BNZ d   1       5.475  -0.691   4.494  0.00  0.00     0.000 A 
ATOM      2  C2  BNZ d   1       5.667   0.174   3.450  0.00  0.00     0.000 A 
ATOM      3  C3  BNZ d   1       5.861   1.509   3.673  0.00  0.00     0.000 A 
ATOM      4  C4  BNZ d   1       5.822   1.982   4.936  0.00  0.00     0.000 A 
ATOM      5  C5  BNZ d   1       5.620   1.124   5.998  0.00  0.00     0.000 A 
ATOM      6  C6  BNZ d   1       5.465  -0.225   5.772  0.00  0.00     0.000 A 
ENDROOT
TORSDOF 0
ENDMDL
