MODEL 1
REMARK minimizedAffinity -1.40997684
REMARK minimizedRMSD -1
REMARK  0 active torsions:
REMARK  status: ('A' for Active; 'I' for Inactive)
ROOT
ATOM      1  C1  BNZ d   1       6.000   0.005   3.051  0.00  0.00     0.000 A 
ATOM      2  C2  BNZ d   1       5.998   1.358   3.261  0.00  0.00     0.000 A 
ATOM      3  C3  BNZ d   1       5.999   1.870   4.528  0.00  0.00     0.000 A 
ATOM      4  C4  BNZ d   1       5.962   1.030   5.583  0.00  0.00     0.000 A 
ATOM      5  C5  BNZ d   1       5.955  -0.336   5.388  0.00  0.00     0.000 A 
ATOM      6  C6  BNZ d   1       5.992  -0.849   4.111  0.00  0.00     0.000 A 
ENDROOT
TORSDOF 0
ENDMDL
