MODEL 1
REMARK minimizedAffinity -0.777091861
REMARK minimizedRMSD -1
REMARK  0 active torsions:
REMARK  status: ('A' for Active; 'I' for Inactive)
ROOT
ATOM      1  C1  BNZ d   1       5.995   1.676   3.501  0.00  0.00     0.000 A 
ATOM      2  C2  BNZ d   1       5.999   0.310   3.597  0.00  0.00     0.000 A 
ATOM      3  C3  BNZ d   1       5.960  -0.306   4.817  0.00  0.00     0.000 A 
ATOM      4  C4  BNZ d   1       5.958   0.443   5.938  0.00  0.00     0.000 A 
ATOM      5  C5  BNZ d   1       5.963   1.822   5.858  0.00  0.00     0.000 A 
ATOM      6  C6  BNZ d   1       5.963   2.438   4.628  0.00  0.00     0.000 A 
ENDROOT
TORSDOF 0
ENDMDL
