MODEL 1
REMARK minimizedAffinity -2.05952883
REMARK minimizedRMSD -1
REMARK  0 active torsions:
REMARK  status: ('A' for Active; 'I' for Inactive)
ROOT
ATOM      1  C1  BNZ d   1       6.000   3.328   3.406  0.00  0.00     0.000 A 
ATOM      2  C2  BNZ d   1       5.996   3.770   2.110  0.00  0.00     0.000 A 
ATOM      3  C3  BNZ d   1       5.999   5.107   1.827  0.00  0.00     0.000 A 
ATOM      4  C4  BNZ d   1       5.966   5.999   2.837  0.00  0.00     0.000 A 
ATOM      5  C5  BNZ d   1       5.960   5.569   4.149  0.00  0.00     0.000 A 
ATOM      6  C6  BNZ d   1       5.996   4.223   4.431  0.00  0.00     0.000 A 
ENDROOT
TORSDOF 0
ENDMDL
