MODEL 1
REMARK minimizedAffinity 9.25149632
REMARK minimizedRMSD -1
REMARK  1 active torsions:
REMARK  status: ('A' for Active; 'I' for Inactive)
REMARK    1  A    between atoms: C1_2  and  C2_3 
ROOT
ATOM      1  C2  UNL d   1       4.628   2.320  -0.240  0.00  0.00    -0.077 A 
ATOM      2  C3  UNL d   1       3.592   1.651   0.427  0.00  0.00     0.002 A 
ATOM      3  C4  UNL d   1       2.901   2.279   1.466  0.00  0.00     0.002 A 
ATOM      4  C5  UNL d   1       3.235   3.577   1.843  0.00  0.00    -0.004 A 
ATOM      5  C6  UNL d   1       4.266   4.249   1.187  0.00  0.00     0.002 A 
ATOM      6  C7  UNL d   1       4.959   3.624   0.150  0.00  0.00     0.002 A 
ENDROOT
BRANCH   1   7
ATOM      7  C1  UNL d   1       5.342   1.663  -1.393  0.00  0.00     0.055 C 
ATOM      8  C   UNL d   1       4.375   1.309  -2.513  0.00  0.00     0.019 C 
ENDBRANCH   1   7
TORSDOF 1
ENDMDL
