MODEL 1
REMARK minimizedAffinity 6.21840811
REMARK minimizedRMSD -1
REMARK  1 active torsions:
REMARK  status: ('A' for Active; 'I' for Inactive)
REMARK    1  A    between atoms: C1_2  and  C2_3 
ROOT
ATOM      1  C2  UNL d   1       2.900   3.089   1.591  0.00  0.00    -0.077 A 
ATOM      2  C3  UNL d   1       3.861   2.217   1.060  0.00  0.00     0.002 A 
ATOM      3  C4  UNL d   1       3.473   1.140   0.261  0.00  0.00     0.002 A 
ATOM      4  C5  UNL d   1       2.124   0.927  -0.017  0.00  0.00    -0.004 A 
ATOM      5  C6  UNL d   1       1.161   1.788   0.508  0.00  0.00     0.002 A 
ATOM      6  C7  UNL d   1       1.547   2.864   1.308  0.00  0.00     0.002 A 
ENDROOT
BRANCH   1   7
ATOM      7  C1  UNL d   1       3.320   4.280   2.413  0.00  0.00     0.055 C 
ATOM      8  C   UNL d   1       4.267   5.182   1.635  0.00  0.00     0.019 C 
ENDBRANCH   1   7
TORSDOF 1
ENDMDL
