MODEL 1
REMARK minimizedAffinity 0.318757325
REMARK minimizedRMSD -1
REMARK  1 active torsions:
REMARK  status: ('A' for Active; 'I' for Inactive)
REMARK    1  A    between atoms: C1_2  and  C2_3 
ROOT
ATOM      1  C2  UNL d   1       1.407   2.544   1.541  0.00  0.00    -0.077 A 
ATOM      2  C3  UNL d   1       0.954   2.420   2.862  0.00  0.00     0.002 A 
ATOM      3  C4  UNL d   1      -0.400   2.581   3.162  0.00  0.00     0.002 A 
ATOM      4  C5  UNL d   1      -1.312   2.862   2.147  0.00  0.00    -0.004 A 
ATOM      5  C6  UNL d   1      -0.871   2.989   0.831  0.00  0.00     0.002 A 
ATOM      6  C7  UNL d   1       0.482   2.830   0.529  0.00  0.00     0.002 A 
ENDROOT
BRANCH   1   7
ATOM      7  C1  UNL d   1       2.859   2.322   1.208  0.00  0.00     0.055 C 
ATOM      8  C   UNL d   1       3.016   1.465  -0.040  0.00  0.00     0.019 C 
ENDBRANCH   1   7
TORSDOF 1
ENDMDL
