MODEL 1
REMARK minimizedAffinity 7.98024797
REMARK minimizedRMSD -1
REMARK  1 active torsions:
REMARK  status: ('A' for Active; 'I' for Inactive)
REMARK    1  A    between atoms: C1_2  and  C2_3 
ROOT
ATOM      1  C2  UNL d   1       3.416   3.567   1.093  0.00  0.00    -0.077 A 
ATOM      2  C3  UNL d   1       2.134   3.551   0.524  0.00  0.00     0.002 A 
ATOM      3  C4  UNL d   1       1.399   2.365   0.473  0.00  0.00     0.002 A 
ATOM      4  C5  UNL d   1       1.935   1.188   0.992  0.00  0.00    -0.004 A 
ATOM      5  C6  UNL d   1       3.209   1.193   1.558  0.00  0.00     0.002 A 
ATOM      6  C7  UNL d   1       3.946   2.378   1.609  0.00  0.00     0.002 A 
ENDROOT
BRANCH   1   7
ATOM      7  C1  UNL d   1       4.190   4.855   1.194  0.00  0.00     0.055 C 
ATOM      8  C   UNL d   1       4.976   4.928   2.495  0.00  0.00     0.019 C 
ENDBRANCH   1   7
TORSDOF 1
ENDMDL
