MODEL 1
REMARK minimizedAffinity -3.18435264
REMARK minimizedRMSD -1
REMARK  1 active torsions:
REMARK  status: ('A' for Active; 'I' for Inactive)
REMARK    1  A    between atoms: C1_2  and  C2_3 
ROOT
ATOM      1  C2  UNL d   1       1.388   2.862   1.493  0.00  0.00    -0.077 A 
ATOM      2  C3  UNL d   1       1.785   1.632   0.951  0.00  0.00     0.002 A 
ATOM      3  C4  UNL d   1       3.134   1.371   0.705  0.00  0.00     0.002 A 
ATOM      4  C5  UNL d   1       4.097   2.334   1.002  0.00  0.00    -0.004 A 
ATOM      5  C6  UNL d   1       3.712   3.561   1.539  0.00  0.00     0.002 A 
ATOM      6  C7  UNL d   1       2.363   3.824   1.785  0.00  0.00     0.002 A 
ENDROOT
BRANCH   1   7
ATOM      7  C1  UNL d   1      -0.062   3.127   1.805  0.00  0.00     0.055 C 
ATOM      8  C   UNL d   1      -0.269   3.402   3.287  0.00  0.00     0.019 C 
ENDBRANCH   1   7
TORSDOF 1
ENDMDL
