MODEL 1
REMARK minimizedAffinity 1.14538157
REMARK minimizedRMSD -1
REMARK  1 active torsions:
REMARK  status: ('A' for Active; 'I' for Inactive)
REMARK    1  A    between atoms: C1_2  and  C2_3 
ROOT
ATOM      1  C2  UNL d   1       3.582  -5.812  -4.694  0.00  0.00    -0.077 A 
ATOM      2  C3  UNL d   1       4.797  -5.669  -5.379  0.00  0.00     0.002 A 
ATOM      3  C4  UNL d   1       6.000  -5.587  -4.674  0.00  0.00     0.002 A 
ATOM      4  C5  UNL d   1       5.999  -5.651  -3.282  0.00  0.00    -0.004 A 
ATOM      5  C6  UNL d   1       4.796  -5.791  -2.592  0.00  0.00     0.002 A 
ATOM      6  C7  UNL d   1       3.593  -5.872  -3.295  0.00  0.00     0.002 A 
ENDROOT
BRANCH   1   7
ATOM      7  C1  UNL d   1       2.289  -5.950  -5.455  0.00  0.00     0.055 C 
ATOM      8  C   UNL d   1       1.089  -5.690  -4.557  0.00  0.00     0.019 C 
ENDBRANCH   1   7
TORSDOF 1
ENDMDL
