MODEL 1
REMARK minimizedAffinity 0.33289665
REMARK minimizedRMSD -1
REMARK  1 active torsions:
REMARK  status: ('A' for Active; 'I' for Inactive)
REMARK    1  A    between atoms: C1_2  and  C2_3 
ROOT
ATOM      1  C2  UNL d   1       4.271  -4.995  -3.427  0.00  0.00    -0.077 A 
ATOM      2  C3  UNL d   1       5.586  -4.750  -3.849  0.00  0.00     0.002 A 
ATOM      3  C4  UNL d   1       5.999  -5.128  -5.128  0.00  0.00     0.002 A 
ATOM      4  C5  UNL d   1       5.104  -5.749  -5.996  0.00  0.00    -0.004 A 
ATOM      5  C6  UNL d   1       3.795  -5.999  -5.585  0.00  0.00     0.002 A 
ATOM      6  C7  UNL d   1       3.380  -5.623  -4.307  0.00  0.00     0.002 A 
ENDROOT
BRANCH   1   7
ATOM      7  C1  UNL d   1       3.810  -4.544  -2.066  0.00  0.00     0.055 C 
ATOM      8  C   UNL d   1       2.624  -5.366  -1.583  0.00  0.00     0.019 C 
ENDBRANCH   1   7
TORSDOF 1
ENDMDL
