MODEL 1
REMARK minimizedAffinity 1.10344493
REMARK minimizedRMSD -1
REMARK  1 active torsions:
REMARK  status: ('A' for Active; 'I' for Inactive)
REMARK    1  A    between atoms: C1_2  and  C2_3 
ROOT
ATOM      1  C2  UNL d   1       4.085  -5.378  -3.199  0.00  0.00    -0.077 A 
ATOM      2  C3  UNL d   1       3.003  -5.938  -3.893  0.00  0.00     0.002 A 
ATOM      3  C4  UNL d   1       3.016  -6.000  -5.288  0.00  0.00     0.002 A 
ATOM      4  C5  UNL d   1       4.108  -5.509  -5.999  0.00  0.00    -0.004 A 
ATOM      5  C6  UNL d   1       5.188  -4.949  -5.318  0.00  0.00     0.002 A 
ATOM      6  C7  UNL d   1       5.177  -4.885  -3.924  0.00  0.00     0.002 A 
ENDROOT
BRANCH   1   7
ATOM      7  C1  UNL d   1       4.095  -5.355  -1.692  0.00  0.00     0.055 C 
ATOM      8  C   UNL d   1       2.836  -5.990  -1.120  0.00  0.00     0.019 C 
ENDBRANCH   1   7
TORSDOF 1
ENDMDL
