MODEL 1
REMARK minimizedAffinity 4.60304976
REMARK minimizedRMSD -1
REMARK  1 active torsions:
REMARK  status: ('A' for Active; 'I' for Inactive)
REMARK    1  A    between atoms: C1_2  and  C2_3 
ROOT
ATOM      1  C2  UNL d   1      -3.197   3.022  -5.115  0.00  0.00    -0.077 A 
ATOM      2  C3  UNL d   1      -3.933   3.823  -6.000  0.00  0.00     0.002 A 
ATOM      3  C4  UNL d   1      -5.329   3.785  -5.992  0.00  0.00     0.002 A 
ATOM      4  C5  UNL d   1      -6.000   2.953  -5.099  0.00  0.00    -0.004 A 
ATOM      5  C6  UNL d   1      -5.277   2.151  -4.217  0.00  0.00     0.002 A 
ATOM      6  C7  UNL d   1      -3.882   2.186  -4.224  0.00  0.00     0.002 A 
ENDROOT
BRANCH   1   7
ATOM      7  C1  UNL d   1      -1.693   3.097  -5.089  0.00  0.00     0.055 C 
ATOM      8  C   UNL d   1      -1.146   2.757  -3.710  0.00  0.00     0.019 C 
ENDBRANCH   1   7
TORSDOF 1
ENDMDL
