MODEL 1
REMARK minimizedAffinity 5.9867363
REMARK minimizedRMSD -1
REMARK  1 active torsions:
REMARK  status: ('A' for Active; 'I' for Inactive)
REMARK    1  A    between atoms: C1_2  and  C2_3 
ROOT
ATOM      1  C2  UNL d   1       2.701   2.256   0.753  0.00  0.00    -0.077 A 
ATOM      2  C3  UNL d   1       1.375   1.837   0.575  0.00  0.00     0.002 A 
ATOM      3  C4  UNL d   1       0.395   2.747   0.175  0.00  0.00     0.002 A 
ATOM      4  C5  UNL d   1       0.731   4.080  -0.055  0.00  0.00    -0.004 A 
ATOM      5  C6  UNL d   1       2.047   4.506   0.122  0.00  0.00     0.002 A 
ATOM      6  C7  UNL d   1       3.028   3.598   0.523  0.00  0.00     0.002 A 
ENDROOT
BRANCH   1   7
ATOM      7  C1  UNL d   1       3.770   1.265   1.137  0.00  0.00     0.055 C 
ATOM      8  C   UNL d   1       4.786   1.086   0.019  0.00  0.00     0.019 C 
ENDBRANCH   1   7
TORSDOF 1
ENDMDL
