MODEL 1
REMARK minimizedAffinity -0.646448553
REMARK minimizedRMSD -1
REMARK  1 active torsions:
REMARK  status: ('A' for Active; 'I' for Inactive)
REMARK    1  A    between atoms: C1_2  and  C2_3 
ROOT
ATOM      1  C2  UNL d   1       4.098  -5.276  -3.469  0.00  0.00    -0.077 A 
ATOM      2  C3  UNL d   1       5.481  -5.235  -3.697  0.00  0.00     0.002 A 
ATOM      3  C4  UNL d   1       6.000  -5.554  -4.953  0.00  0.00     0.002 A 
ATOM      4  C5  UNL d   1       5.143  -5.912  -5.992  0.00  0.00    -0.004 A 
ATOM      5  C6  UNL d   1       3.767  -5.957  -5.775  0.00  0.00     0.002 A 
ATOM      6  C7  UNL d   1       3.246  -5.640  -4.520  0.00  0.00     0.002 A 
ENDROOT
BRANCH   1   7
ATOM      7  C1  UNL d   1       3.533  -4.885  -2.129  0.00  0.00     0.055 C 
ATOM      8  C   UNL d   1       2.187  -5.550  -1.880  0.00  0.00     0.019 C 
ENDBRANCH   1   7
TORSDOF 1
ENDMDL
