MODEL 1
REMARK minimizedAffinity 5.27814102
REMARK minimizedRMSD -1
REMARK  3 active torsions:
REMARK  status: ('A' for Active; 'I' for Inactive)
REMARK    1  A    between atoms: C3'_2  and  C2'_3 
REMARK    2  A    between atoms: C2'_3  and  C1'_4 
REMARK    3  A    between atoms: C1'_4  and  C1_5 
ROOT
ATOM      1  C1  N4B d   1       0.878   2.014  -3.109  0.00  0.00    -0.075 A 
ATOM      2  C2  N4B d   1       0.734   2.314  -1.736  0.00  0.00     0.002 A 
ATOM      3  C3  N4B d   1       1.525   1.682  -0.808  0.00  0.00     0.002 A 
ATOM      4  C4  N4B d   1       2.450   0.736  -1.226  0.00  0.00    -0.004 A 
ATOM      5  C5  N4B d   1       2.601   0.471  -2.555  0.00  0.00     0.002 A 
ATOM      6  C6  N4B d   1       1.815   1.102  -3.499  0.00  0.00     0.002 A 
ENDROOT
BRANCH   1   7
ATOM      7  C1' N4B d   1      -0.023   2.616  -4.152  0.00  0.00     0.057 C 
BRANCH   7   8
ATOM      8  C2' N4B d   1       0.818   3.431  -5.129  0.00  0.00     0.009 C 
BRANCH   8   9
ATOM      9  C3' N4B d   1      -0.037   4.346  -5.990  0.00  0.00     0.004 C 
ATOM     10  C4' N4B d   1       0.454   5.762  -5.998  0.00  0.00     0.003 C 
ENDBRANCH   8   9
ENDBRANCH   7   8
ENDBRANCH   1   7
TORSDOF 3
ENDMDL
