MODEL 1
REMARK minimizedAffinity 10.2821198
REMARK minimizedRMSD -1
REMARK  3 active torsions:
REMARK  status: ('A' for Active; 'I' for Inactive)
REMARK    1  A    between atoms: C3'_2  and  C2'_3 
REMARK    2  A    between atoms: C2'_3  and  C1'_4 
REMARK    3  A    between atoms: C1'_4  and  C1_5 
ROOT
ATOM      1  C1  N4B d   1       2.079   3.829  -5.572  0.00  0.00    -0.075 A 
ATOM      2  C2  N4B d   1       0.759   4.106  -5.990  0.00  0.00     0.002 A 
ATOM      3  C3  N4B d   1      -0.263   3.254  -5.648  0.00  0.00     0.002 A 
ATOM      4  C4  N4B d   1       0.013   2.115  -4.907  0.00  0.00    -0.004 A 
ATOM      5  C5  N4B d   1       1.287   1.868  -4.485  0.00  0.00     0.002 A 
ATOM      6  C6  N4B d   1       2.323   2.717  -4.819  0.00  0.00     0.002 A 
ENDROOT
BRANCH   1   7
ATOM      7  C1' N4B d   1       3.242   4.684  -5.995  0.00  0.00     0.057 C 
BRANCH   7   8
ATOM      8  C2' N4B d   1       4.511   3.838  -5.997  0.00  0.00     0.009 C 
BRANCH   8   9
ATOM      9  C3' N4B d   1       5.691   4.582  -5.396  0.00  0.00     0.004 C 
ATOM     10  C4' N4B d   1       5.843   5.970  -5.943  0.00  0.00     0.003 C 
ENDBRANCH   8   9
ENDBRANCH   7   8
ENDBRANCH   1   7
TORSDOF 3
ENDMDL
