MODEL 1
REMARK minimizedAffinity 16.3938332
REMARK minimizedRMSD -1
REMARK  3 active torsions:
REMARK  status: ('A' for Active; 'I' for Inactive)
REMARK    1  A    between atoms: C3'_2  and  C2'_3 
REMARK    2  A    between atoms: C2'_3  and  C1'_4 
REMARK    3  A    between atoms: C1'_4  and  C1_5 
ROOT
ATOM      1  C1  N4B d   1       2.570   3.257  -1.184  0.00  0.00    -0.075 A 
ATOM      2  C2  N4B d   1       1.872   2.696  -0.092  0.00  0.00     0.002 A 
ATOM      3  C3  N4B d   1       1.296   1.455  -0.210  0.00  0.00     0.002 A 
ATOM      4  C4  N4B d   1       1.388   0.768  -1.411  0.00  0.00    -0.004 A 
ATOM      5  C5  N4B d   1       2.086   1.306  -2.453  0.00  0.00     0.002 A 
ATOM      6  C6  N4B d   1       2.673   2.550  -2.347  0.00  0.00     0.002 A 
ENDROOT
BRANCH   1   7
ATOM      7  C1' N4B d   1       3.143   4.647  -1.130  0.00  0.00     0.057 C 
BRANCH   7   8
ATOM      8  C2' N4B d   1       4.651   4.559  -0.916  0.00  0.00     0.009 C 
BRANCH   8   9
ATOM      9  C3' N4B d   1       5.262   5.916  -0.613  0.00  0.00     0.004 C 
ATOM     10  C4' N4B d   1       5.889   5.981   0.748  0.00  0.00     0.003 C 
ENDBRANCH   8   9
ENDBRANCH   7   8
ENDBRANCH   1   7
TORSDOF 3
ENDMDL
