MODEL 1
REMARK minimizedAffinity 8.11858845
REMARK minimizedRMSD -1
REMARK  3 active torsions:
REMARK  status: ('A' for Active; 'I' for Inactive)
REMARK    1  A    between atoms: C3'_2  and  C2'_3 
REMARK    2  A    between atoms: C2'_3  and  C1'_4 
REMARK    3  A    between atoms: C1'_4  and  C1_5 
ROOT
ATOM      1  C1  N4B d   1      -0.758   3.368  -4.453  0.00  0.00    -0.075 A 
ATOM      2  C2  N4B d   1      -2.134   3.053  -4.470  0.00  0.00     0.002 A 
ATOM      3  C3  N4B d   1      -2.997   3.787  -5.247  0.00  0.00     0.002 A 
ATOM      4  C4  N4B d   1      -2.511   4.847  -5.998  0.00  0.00    -0.004 A 
ATOM      5  C5  N4B d   1      -1.176   5.128  -5.996  0.00  0.00     0.002 A 
ATOM      6  C6  N4B d   1      -0.297   4.397  -5.222  0.00  0.00     0.002 A 
ENDROOT
BRANCH   1   7
ATOM      7  C1' N4B d   1       0.210   2.650  -3.553  0.00  0.00     0.057 C 
BRANCH   7   8
ATOM      8  C2' N4B d   1       0.007   3.125  -2.118  0.00  0.00     0.009 C 
BRANCH   8   9
ATOM      9  C3' N4B d   1       0.817   2.306  -1.128  0.00  0.00     0.004 C 
ATOM     10  C4' N4B d   1       0.023   1.900   0.078  0.00  0.00     0.003 C 
ENDBRANCH   8   9
ENDBRANCH   7   8
ENDBRANCH   1   7
TORSDOF 3
ENDMDL
