MODEL 1
REMARK minimizedAffinity 5.86537647
REMARK minimizedRMSD -1
REMARK  3 active torsions:
REMARK  status: ('A' for Active; 'I' for Inactive)
REMARK    1  A    between atoms: C3'_2  and  C2'_3 
REMARK    2  A    between atoms: C2'_3  and  C1'_4 
REMARK    3  A    between atoms: C1'_4  and  C1_5 
ROOT
ATOM      1  C1  N4B d   1      -1.011   3.528  -5.880  0.00  0.00    -0.075 A 
ATOM      2  C2  N4B d   1      -0.253   4.719  -5.853  0.00  0.00     0.002 A 
ATOM      3  C3  N4B d   1      -0.886   5.937  -5.904  0.00  0.00     0.002 A 
ATOM      4  C4  N4B d   1      -2.269   5.988  -5.999  0.00  0.00    -0.004 A 
ATOM      5  C5  N4B d   1      -2.995   4.833  -5.998  0.00  0.00     0.002 A 
ATOM      6  C6  N4B d   1      -2.372   3.602  -5.944  0.00  0.00     0.002 A 
ENDROOT
BRANCH   1   7
ATOM      7  C1' N4B d   1      -0.359   2.173  -5.913  0.00  0.00     0.057 C 
BRANCH   7   8
ATOM      8  C2' N4B d   1       0.676   2.087  -4.796  0.00  0.00     0.009 C 
BRANCH   8   9
ATOM      9  C3' N4B d   1       1.776   1.089  -5.115  0.00  0.00     0.004 C 
ATOM     10  C4' N4B d   1       1.985   0.085  -4.021  0.00  0.00     0.003 C 
ENDBRANCH   8   9
ENDBRANCH   7   8
ENDBRANCH   1   7
TORSDOF 3
ENDMDL
