MODEL 1
REMARK minimizedAffinity 5.35904217
REMARK minimizedRMSD -1
REMARK  3 active torsions:
REMARK  status: ('A' for Active; 'I' for Inactive)
REMARK    1  A    between atoms: C3'_2  and  C2'_3 
REMARK    2  A    between atoms: C2'_3  and  C1'_4 
REMARK    3  A    between atoms: C1'_4  and  C1_5 
ROOT
ATOM      1  C1  N4B d   1       0.700   3.012  -4.229  0.00  0.00    -0.075 A 
ATOM      2  C2  N4B d   1      -0.374   2.184  -4.625  0.00  0.00     0.002 A 
ATOM      3  C3  N4B d   1      -1.311   2.653  -5.513  0.00  0.00     0.002 A 
ATOM      4  C4  N4B d   1      -1.207   3.947  -6.000  0.00  0.00    -0.004 A 
ATOM      5  C5  N4B d   1      -0.154   4.732  -5.632  0.00  0.00     0.002 A 
ATOM      6  C6  N4B d   1       0.798   4.272  -4.744  0.00  0.00     0.002 A 
ENDROOT
BRANCH   1   7
ATOM      7  C1' N4B d   1       1.701   2.573  -3.196  0.00  0.00     0.057 C 
BRANCH   7   8
ATOM      8  C2' N4B d   1       2.621   1.519  -3.806  0.00  0.00     0.009 C 
BRANCH   8   9
ATOM      9  C3' N4B d   1       2.288   0.121  -3.314  0.00  0.00     0.004 C 
ATOM     10  C4' N4B d   1       3.427  -0.523  -2.582  0.00  0.00     0.003 C 
ENDBRANCH   8   9
ENDBRANCH   7   8
ENDBRANCH   1   7
TORSDOF 3
ENDMDL
