MODEL 1
REMARK minimizedAffinity 4.55429316
REMARK minimizedRMSD -1
REMARK  3 active torsions:
REMARK  status: ('A' for Active; 'I' for Inactive)
REMARK    1  A    between atoms: C3'_2  and  C2'_3 
REMARK    2  A    between atoms: C2'_3  and  C1'_4 
REMARK    3  A    between atoms: C1'_4  and  C1_5 
ROOT
ATOM      1  C1  N4B d   1       0.368   2.237  -3.926  0.00  0.00    -0.075 A 
ATOM      2  C2  N4B d   1       0.763   2.965  -2.782  0.00  0.00     0.002 A 
ATOM      3  C3  N4B d   1       1.891   2.597  -2.090  0.00  0.00     0.002 A 
ATOM      4  C4  N4B d   1       2.625   1.498  -2.509  0.00  0.00    -0.004 A 
ATOM      5  C5  N4B d   1       2.251   0.816  -3.630  0.00  0.00     0.002 A 
ATOM      6  C6  N4B d   1       1.122   1.177  -4.338  0.00  0.00     0.002 A 
ENDROOT
BRANCH   1   7
ATOM      7  C1' N4B d   1      -0.904   2.549  -4.665  0.00  0.00     0.057 C 
BRANCH   7   8
ATOM      8  C2' N4B d   1      -0.581   3.432  -5.867  0.00  0.00     0.009 C 
BRANCH   8   9
ATOM      9  C3' N4B d   1      -1.546   4.599  -5.991  0.00  0.00     0.004 C 
ATOM     10  C4' N4B d   1      -0.856   5.929  -5.956  0.00  0.00     0.003 C 
ENDBRANCH   8   9
ENDBRANCH   7   8
ENDBRANCH   1   7
TORSDOF 3
ENDMDL
