MODEL 1
REMARK minimizedAffinity 7.26092958
REMARK minimizedRMSD -1
REMARK  3 active torsions:
REMARK  status: ('A' for Active; 'I' for Inactive)
REMARK    1  A    between atoms: C3'_2  and  C2'_3 
REMARK    2  A    between atoms: C2'_3  and  C1'_4 
REMARK    3  A    between atoms: C1'_4  and  C1_5 
ROOT
ATOM      1  C1  N4B d   1       0.217   3.736  -5.260  0.00  0.00    -0.075 A 
ATOM      2  C2  N4B d   1      -1.160   3.457  -5.406  0.00  0.00     0.002 A 
ATOM      3  C3  N4B d   1      -2.029   4.458  -5.767  0.00  0.00     0.002 A 
ATOM      4  C4  N4B d   1      -1.548   5.744  -5.969  0.00  0.00    -0.004 A 
ATOM      5  C5  N4B d   1      -0.213   5.998  -5.851  0.00  0.00     0.002 A 
ATOM      6  C6  N4B d   1       0.672   5.001  -5.492  0.00  0.00     0.002 A 
ENDROOT
BRANCH   1   7
ATOM      7  C1' N4B d   1       1.191   2.694  -4.784  0.00  0.00     0.057 C 
BRANCH   7   8
ATOM      8  C2' N4B d   1       0.620   2.001  -3.550  0.00  0.00     0.009 C 
BRANCH   8   9
ATOM      9  C3' N4B d   1       1.468   2.249  -2.315  0.00  0.00     0.004 C 
ATOM     10  C4' N4B d   1       0.692   2.870  -1.192  0.00  0.00     0.003 C 
ENDBRANCH   8   9
ENDBRANCH   7   8
ENDBRANCH   1   7
TORSDOF 3
ENDMDL
