MODEL 1
REMARK minimizedAffinity 5.00015116
REMARK minimizedRMSD -1
REMARK  3 active torsions:
REMARK  status: ('A' for Active; 'I' for Inactive)
REMARK    1  A    between atoms: C3'_2  and  C2'_3 
REMARK    2  A    between atoms: C2'_3  and  C1'_4 
REMARK    3  A    between atoms: C1'_4  and  C1_5 
ROOT
ATOM      1  C1  N4B d   1      -4.521   3.572  -5.342  0.00  0.00    -0.075 A 
ATOM      2  C2  N4B d   1      -5.060   3.376  -4.051  0.00  0.00     0.002 A 
ATOM      3  C3  N4B d   1      -5.800   4.369  -3.458  0.00  0.00     0.002 A 
ATOM      4  C4  N4B d   1      -5.997   5.569  -4.125  0.00  0.00    -0.004 A 
ATOM      5  C5  N4B d   1      -5.494   5.741  -5.382  0.00  0.00     0.002 A 
ATOM      6  C6  N4B d   1      -4.752   4.749  -5.992  0.00  0.00     0.002 A 
ENDROOT
BRANCH   1   7
ATOM      7  C1' N4B d   1      -3.634   2.548  -5.995  0.00  0.00     0.057 C 
BRANCH   7   8
ATOM      8  C2' N4B d   1      -2.190   3.040  -5.959  0.00  0.00     0.009 C 
BRANCH   8   9
ATOM      9  C3' N4B d   1      -1.366   2.308  -4.914  0.00  0.00     0.004 C 
ATOM     10  C4' N4B d   1       0.039   2.824  -4.816  0.00  0.00     0.003 C 
ENDBRANCH   8   9
ENDBRANCH   7   8
ENDBRANCH   1   7
TORSDOF 3
ENDMDL
