MODEL 1
REMARK minimizedAffinity 12.0934019
REMARK minimizedRMSD -1
REMARK  3 active torsions:
REMARK  status: ('A' for Active; 'I' for Inactive)
REMARK    1  A    between atoms: C3'_2  and  C2'_3 
REMARK    2  A    between atoms: C2'_3  and  C1'_4 
REMARK    3  A    between atoms: C1'_4  and  C1_5 
ROOT
ATOM      1  C1  N4B d   1       4.007   3.827   2.225  0.00  0.00    -0.075 A 
ATOM      2  C2  N4B d   1       4.401   4.699   3.263  0.00  0.00     0.002 A 
ATOM      3  C3  N4B d   1       5.201   5.780   2.985  0.00  0.00     0.002 A 
ATOM      4  C4  N4B d   1       5.632   5.998   1.685  0.00  0.00    -0.004 A 
ATOM      5  C5  N4B d   1       5.226   5.165   0.684  0.00  0.00     0.002 A 
ATOM      6  C6  N4B d   1       4.419   4.077   0.948  0.00  0.00     0.002 A 
ENDROOT
BRANCH   1   7
ATOM      7  C1' N4B d   1       3.204   2.583   2.494  0.00  0.00     0.057 C 
BRANCH   7   8
ATOM      8  C2' N4B d   1       1.788   2.776   1.959  0.00  0.00     0.009 C 
BRANCH   8   9
ATOM      9  C3' N4B d   1       1.453   1.776   0.866  0.00  0.00     0.004 C 
ATOM     10  C4' N4B d   1       1.126   2.433  -0.442  0.00  0.00     0.003 C 
ENDBRANCH   8   9
ENDBRANCH   7   8
ENDBRANCH   1   7
TORSDOF 3
ENDMDL
