MODEL 1
REMARK minimizedAffinity 13.6645002
REMARK minimizedRMSD -1
REMARK  3 active torsions:
REMARK  status: ('A' for Active; 'I' for Inactive)
REMARK    1  A    between atoms: C3'_2  and  C2'_3 
REMARK    2  A    between atoms: C2'_3  and  C1'_4 
REMARK    3  A    between atoms: C1'_4  and  C1_5 
ROOT
ATOM      1  C1  N4B d   1       2.824   1.849  -4.466  0.00  0.00    -0.075 A 
ATOM      2  C2  N4B d   1       2.483   0.547  -4.037  0.00  0.00     0.002 A 
ATOM      3  C3  N4B d   1       1.992   0.349  -2.769  0.00  0.00     0.002 A 
ATOM      4  C4  N4B d   1       1.852   1.430  -1.912  0.00  0.00    -0.004 A 
ATOM      5  C5  N4B d   1       2.160   2.687  -2.343  0.00  0.00     0.002 A 
ATOM      6  C6  N4B d   1       2.650   2.901  -3.615  0.00  0.00     0.002 A 
ENDROOT
BRANCH   1   7
ATOM      7  C1' N4B d   1       3.445   2.103  -5.813  0.00  0.00     0.057 C 
BRANCH   7   8
ATOM      8  C2' N4B d   1       3.757   3.591  -5.947  0.00  0.00     0.009 C 
BRANCH   8   9
ATOM      9  C3' N4B d   1       5.252   3.857  -5.977  0.00  0.00     0.004 C 
ATOM     10  C4' N4B d   1       5.582   5.320  -5.954  0.00  0.00     0.003 C 
ENDBRANCH   8   9
ENDBRANCH   7   8
ENDBRANCH   1   7
TORSDOF 3
ENDMDL
