MODEL 1
REMARK minimizedAffinity 7.96414566
REMARK minimizedRMSD -1
REMARK  3 active torsions:
REMARK  status: ('A' for Active; 'I' for Inactive)
REMARK    1  A    between atoms: C3'_2  and  C2'_3 
REMARK    2  A    between atoms: C2'_3  and  C1'_4 
REMARK    3  A    between atoms: C1'_4  and  C1_5 
ROOT
ATOM      1  C1  N4B d   1      -3.140   4.987  -5.956  0.00  0.00    -0.075 A 
ATOM      2  C2  N4B d   1      -3.521   3.628  -5.999  0.00  0.00     0.002 A 
ATOM      3  C3  N4B d   1      -4.845   3.282  -5.880  0.00  0.00     0.002 A 
ATOM      4  C4  N4B d   1      -5.799   4.273  -5.698  0.00  0.00    -0.004 A 
ATOM      5  C5  N4B d   1      -5.425   5.585  -5.683  0.00  0.00     0.002 A 
ATOM      6  C6  N4B d   1      -4.098   5.947  -5.806  0.00  0.00     0.002 A 
ENDROOT
BRANCH   1   7
ATOM      7  C1' N4B d   1      -1.696   5.408  -5.997  0.00  0.00     0.057 C 
BRANCH   7   8
ATOM      8  C2' N4B d   1      -0.811   4.167  -5.948  0.00  0.00     0.009 C 
BRANCH   8   9
ATOM      9  C3' N4B d   1       0.666   4.520  -5.999  0.00  0.00     0.004 C 
ATOM     10  C4' N4B d   1       0.914   5.996  -5.906  0.00  0.00     0.003 C 
ENDBRANCH   8   9
ENDBRANCH   7   8
ENDBRANCH   1   7
TORSDOF 3
ENDMDL
