MODEL 1
REMARK minimizedAffinity 2.01328325
REMARK minimizedRMSD -1
REMARK  3 active torsions:
REMARK  status: ('A' for Active; 'I' for Inactive)
REMARK    1  A    between atoms: C3'_2  and  C2'_3 
REMARK    2  A    between atoms: C2'_3  and  C1'_4 
REMARK    3  A    between atoms: C1'_4  and  C1_5 
ROOT
ATOM      1  C1  N4B d   1      -3.565   3.791  -5.391  0.00  0.00    -0.075 A 
ATOM      2  C2  N4B d   1      -4.822   3.587  -4.780  0.00  0.00     0.002 A 
ATOM      3  C3  N4B d   1      -5.762   4.588  -4.791  0.00  0.00     0.002 A 
ATOM      4  C4  N4B d   1      -5.462   5.804  -5.388  0.00  0.00    -0.004 A 
ATOM      5  C5  N4B d   1      -4.255   5.984  -5.998  0.00  0.00     0.002 A 
ATOM      6  C6  N4B d   1      -3.302   4.985  -5.998  0.00  0.00     0.002 A 
ENDROOT
BRANCH   1   7
ATOM      7  C1' N4B d   1      -2.474   2.757  -5.329  0.00  0.00     0.057 C 
BRANCH   7   8
ATOM      8  C2' N4B d   1      -1.211   3.322  -5.973  0.00  0.00     0.009 C 
BRANCH   8   9
ATOM      9  C3' N4B d   1      -0.600   4.437  -5.141  0.00  0.00     0.004 C 
ATOM     10  C4' N4B d   1      -0.038   5.546  -5.980  0.00  0.00     0.003 C 
ENDBRANCH   8   9
ENDBRANCH   7   8
ENDBRANCH   1   7
TORSDOF 3
ENDMDL
