MODEL 1
REMARK minimizedAffinity 9.16269302
REMARK minimizedRMSD -1
REMARK  3 active torsions:
REMARK  status: ('A' for Active; 'I' for Inactive)
REMARK    1  A    between atoms: C3'_2  and  C2'_3 
REMARK    2  A    between atoms: C2'_3  and  C1'_4 
REMARK    3  A    between atoms: C1'_4  and  C1_5 
ROOT
ATOM      1  C1  N4B d   1      -0.499   2.644  -4.827  0.00  0.00    -0.075 A 
ATOM      2  C2  N4B d   1      -1.789   2.690  -5.400  0.00  0.00     0.002 A 
ATOM      3  C3  N4B d   1      -2.238   3.846  -5.989  0.00  0.00     0.002 A 
ATOM      4  C4  N4B d   1      -1.426   4.971  -6.000  0.00  0.00    -0.004 A 
ATOM      5  C5  N4B d   1      -0.172   4.911  -5.466  0.00  0.00     0.002 A 
ATOM      6  C6  N4B d   1       0.294   3.754  -4.874  0.00  0.00     0.002 A 
ENDROOT
BRANCH   1   7
ATOM      7  C1' N4B d   1       0.002   1.429  -4.096  0.00  0.00     0.057 C 
BRANCH   7   8
ATOM      8  C2' N4B d   1       1.466   1.639  -3.720  0.00  0.00     0.009 C 
BRANCH   8   9
ATOM      9  C3' N4B d   1       2.249   0.338  -3.735  0.00  0.00     0.004 C 
ATOM     10  C4' N4B d   1       3.387   0.334  -2.759  0.00  0.00     0.003 C 
ENDBRANCH   8   9
ENDBRANCH   7   8
ENDBRANCH   1   7
TORSDOF 3
ENDMDL
