MODEL 1
REMARK minimizedAffinity 0.808875978
REMARK minimizedRMSD -1
REMARK  0 active torsions:
REMARK  status: ('A' for Active; 'I' for Inactive)
ROOT
ATOM      1  O1  BZF d   1      -2.787   2.427  -5.728  0.00  0.00    -0.204 OA
ATOM      2  C2  BZF d   1      -3.391   1.185  -5.765  0.00  0.00     0.174 A 
ATOM      3  C3  BZF d   1      -3.522   0.680  -4.521  0.00  0.00    -0.012 A 
ATOM      4  C3A BZF d   1      -3.050   1.708  -3.646  0.00  0.00    -0.107 A 
ATOM      5  C4  BZF d   1      -2.943   1.809  -2.288  0.00  0.00     0.055 A 
ATOM      6  C5  BZF d   1      -2.371   2.919  -1.751  0.00  0.00    -0.016 A 
ATOM      7  C6  BZF d   1      -1.891   3.943  -2.542  0.00  0.00     0.022 A 
ATOM      8  C7  BZF d   1      -1.980   3.890  -3.893  0.00  0.00     0.029 A 
ATOM      9  C7A BZF d   1      -2.587   2.785  -4.437  0.00  0.00     0.058 A 
ENDROOT
TORSDOF 0
ENDMDL
