MODEL 1
REMARK minimizedAffinity -4.18946743
REMARK minimizedRMSD -1
REMARK  0 active torsions:
REMARK  status: ('A' for Active; 'I' for Inactive)
ROOT
ATOM      1  O1  BZF d   1       1.646  -1.897  -0.321  0.00  0.00    -0.204 OA
ATOM      2  C2  BZF d   1       1.309  -1.112  -1.406  0.00  0.00     0.174 A 
ATOM      3  C3  BZF d   1       0.181  -0.414  -1.161  0.00  0.00    -0.012 A 
ATOM      4  C3A BZF d   1      -0.161  -0.717   0.195  0.00  0.00    -0.107 A 
ATOM      5  C4  BZF d   1      -1.173  -0.316   1.020  0.00  0.00     0.055 A 
ATOM      6  C5  BZF d   1      -1.263  -0.854   2.264  0.00  0.00    -0.016 A 
ATOM      7  C6  BZF d   1      -0.363  -1.799   2.714  0.00  0.00     0.022 A 
ATOM      8  C7  BZF d   1       0.660  -2.224   1.933  0.00  0.00     0.029 A 
ATOM      9  C7A BZF d   1       0.773  -1.658   0.687  0.00  0.00     0.058 A 
ENDROOT
TORSDOF 0
ENDMDL
