MODEL 1
REMARK minimizedAffinity -2.57957268
REMARK minimizedRMSD -1
REMARK  0 active torsions:
REMARK  status: ('A' for Active; 'I' for Inactive)
ROOT
ATOM      1  O1  BZF d   1       1.807  -3.286   0.093  0.00  0.00    -0.204 OA
ATOM      2  C2  BZF d   1       2.013  -4.267   1.043  0.00  0.00     0.174 A 
ATOM      3  C3  BZF d   1       1.337  -3.985   2.176  0.00  0.00    -0.012 A 
ATOM      4  C3A BZF d   1       0.594  -2.798   1.885  0.00  0.00    -0.107 A 
ATOM      5  C4  BZF d   1      -0.279  -2.036   2.607  0.00  0.00     0.055 A 
ATOM      6  C5  BZF d   1      -0.775  -0.897   2.055  0.00  0.00    -0.016 A 
ATOM      7  C6  BZF d   1      -0.416  -0.488   0.788  0.00  0.00     0.022 A 
ATOM      8  C7  BZF d   1       0.443  -1.213   0.031  0.00  0.00     0.029 A 
ATOM      9  C7A BZF d   1       0.921  -2.382   0.573  0.00  0.00     0.058 A 
ENDROOT
TORSDOF 0
ENDMDL
