MODEL 1
REMARK minimizedAffinity -2.88851428
REMARK minimizedRMSD -1
REMARK  0 active torsions:
REMARK  status: ('A' for Active; 'I' for Inactive)
ROOT
ATOM      1  O1  BZF d   1       4.180   5.957   3.645  0.00  0.00    -0.204 OA
ATOM      2  C2  BZF d   1       3.952   5.923   2.283  0.00  0.00     0.174 A 
ATOM      3  C3  BZF d   1       2.631   5.861   2.020  0.00  0.00    -0.012 A 
ATOM      4  C3A BZF d   1       1.989   5.950   3.296  0.00  0.00    -0.107 A 
ATOM      5  C4  BZF d   1       0.682   5.959   3.691  0.00  0.00     0.055 A 
ATOM      6  C5  BZF d   1       0.393   5.984   5.019  0.00  0.00    -0.016 A 
ATOM      7  C6  BZF d   1       1.385   5.994   5.977  0.00  0.00     0.022 A 
ATOM      8  C7  BZF d   1       2.696   5.990   5.634  0.00  0.00     0.029 A 
ATOM      9  C7A BZF d   1       2.991   5.999   4.293  0.00  0.00     0.058 A 
ENDROOT
TORSDOF 0
ENDMDL
