MODEL 1
REMARK minimizedAffinity -0.912793696
REMARK minimizedRMSD -1
REMARK  0 active torsions:
REMARK  status: ('A' for Active; 'I' for Inactive)
ROOT
ATOM      1  O1  BZF d   1       0.442  -5.270   2.640  0.00  0.00    -0.204 OA
ATOM      2  C2  BZF d   1       1.669  -5.061   2.040  0.00  0.00     0.174 A 
ATOM      3  C3  BZF d   1       1.880  -3.746   1.828  0.00  0.00    -0.012 A 
ATOM      4  C3A BZF d   1       0.752  -3.085   2.409  0.00  0.00    -0.107 A 
ATOM      5  C4  BZF d   1       0.393  -1.773   2.532  0.00  0.00     0.055 A 
ATOM      6  C5  BZF d   1      -0.808  -1.467   3.089  0.00  0.00    -0.016 A 
ATOM      7  C6  BZF d   1      -1.676  -2.445   3.528  0.00  0.00     0.022 A 
ATOM      8  C7  BZF d   1      -1.362  -3.760   3.432  0.00  0.00     0.029 A 
ATOM      9  C7A BZF d   1      -0.134  -4.072   2.900  0.00  0.00     0.058 A 
ENDROOT
TORSDOF 0
ENDMDL
