MODEL 1
REMARK minimizedAffinity 6.15358257
REMARK minimizedRMSD -1
REMARK  0 active torsions:
REMARK  status: ('A' for Active; 'I' for Inactive)
ROOT
ATOM      1  O1  BZF d   1      -5.115  -0.367   2.625  0.00  0.00    -0.204 OA
ATOM      2  C2  BZF d   1      -5.989  -1.057   1.807  0.00  0.00     0.174 A 
ATOM      3  C3  BZF d   1      -5.334  -1.615   0.770  0.00  0.00    -0.012 A 
ATOM      4  C3A BZF d   1      -3.951  -1.329   1.000  0.00  0.00    -0.107 A 
ATOM      5  C4  BZF d   1      -2.804  -1.634   0.325  0.00  0.00     0.055 A 
ATOM      6  C5  BZF d   1      -1.621  -1.142   0.777  0.00  0.00    -0.016 A 
ATOM      7  C6  BZF d   1      -1.549  -0.339   1.896  0.00  0.00     0.022 A 
ATOM      8  C7  BZF d   1      -2.659  -0.013   2.602  0.00  0.00     0.029 A 
ATOM      9  C7A BZF d   1      -3.852  -0.536   2.167  0.00  0.00     0.058 A 
ENDROOT
TORSDOF 0
ENDMDL
