MODEL 1
REMARK minimizedAffinity -2.86768794
REMARK minimizedRMSD -1
REMARK  0 active torsions:
REMARK  status: ('A' for Active; 'I' for Inactive)
ROOT
ATOM      1  O1  BZF d   1       1.836  -0.872  -2.509  0.00  0.00    -0.204 OA
ATOM      2  C2  BZF d   1       3.005  -0.470  -1.892  0.00  0.00     0.174 A 
ATOM      3  C3  BZF d   1       2.756  -0.011  -0.648  0.00  0.00    -0.012 A 
ATOM      4  C3A BZF d   1       1.355  -0.220  -0.444  0.00  0.00    -0.107 A 
ATOM      5  C4  BZF d   1       0.513   0.018   0.605  0.00  0.00     0.055 A 
ATOM      6  C5  BZF d   1      -0.814  -0.232   0.456  0.00  0.00    -0.016 A 
ATOM      7  C6  BZF d   1      -1.334  -0.716  -0.726  0.00  0.00     0.022 A 
ATOM      8  C7  BZF d   1      -0.538  -0.973  -1.793  0.00  0.00     0.029 A 
ATOM      9  C7A BZF d   1       0.809  -0.752  -1.635  0.00  0.00     0.058 A 
ENDROOT
TORSDOF 0
ENDMDL
