MODEL 1
REMARK minimizedAffinity 1.7382673
REMARK minimizedRMSD -1
REMARK  0 active torsions:
REMARK  status: ('A' for Active; 'I' for Inactive)
ROOT
ATOM      1  C1  DEN d   1       1.149   2.216  -0.068  0.00  0.00     0.130 A 
ATOM      2  C2  DEN d   1       0.072   3.091   0.388  0.00  0.00    -0.031 A 
ATOM      3  C3  DEN d   1      -0.863   2.281   1.195  0.00  0.00     0.027 A 
ATOM      4  C4  DEN d   1      -0.745  -0.228   1.783  0.00  0.00     0.027 A 
ATOM      5  C5  DEN d   1      -0.022  -1.387   1.614  0.00  0.00    -0.003 A 
ATOM      6  C6  DEN d   1       1.114  -1.435   0.851  0.00  0.00     0.001 A 
ATOM      7  C7  DEN d   1       1.586  -0.290   0.264  0.00  0.00     0.017 A 
ATOM      8  C8  DEN d   1       0.859   0.882   0.424  0.00  0.00    -0.094 A 
ATOM      9  C9  DEN d   1      -0.281   0.912   1.210  0.00  0.00    -0.072 A 
ENDROOT
TORSDOF 0
ENDMDL
