MODEL 1
REMARK minimizedAffinity 6.14719725
REMARK minimizedRMSD -1
REMARK  0 active torsions:
REMARK  status: ('A' for Active; 'I' for Inactive)
ROOT
ATOM      1  C1  DEN d   1       0.965   1.358  -1.801  0.00  0.00     0.130 A 
ATOM      2  C2  DEN d   1       1.332   2.002  -0.543  0.00  0.00    -0.031 A 
ATOM      3  C3  DEN d   1       2.253   1.101   0.180  0.00  0.00     0.027 A 
ATOM      4  C4  DEN d   1       3.144  -1.214  -0.526  0.00  0.00     0.027 A 
ATOM      5  C5  DEN d   1       3.104  -2.181  -1.506  0.00  0.00    -0.003 A 
ATOM      6  C6  DEN d   1       2.329  -2.052  -2.628  0.00  0.00     0.001 A 
ATOM      7  C7  DEN d   1       1.595  -0.911  -2.819  0.00  0.00     0.017 A 
ATOM      8  C8  DEN d   1       1.625   0.065  -1.832  0.00  0.00    -0.094 A 
ATOM      9  C9  DEN d   1       2.425  -0.078  -0.711  0.00  0.00    -0.072 A 
ENDROOT
TORSDOF 0
ENDMDL
