MODEL 1
REMARK minimizedAffinity 0.775822878
REMARK minimizedRMSD -1
REMARK  0 active torsions:
REMARK  status: ('A' for Active; 'I' for Inactive)
ROOT
ATOM      1  C1  DEN d   1       1.130   0.776   0.221  0.00  0.00     0.130 A 
ATOM      2  C2  DEN d   1       2.561   0.636   0.476  0.00  0.00    -0.031 A 
ATOM      3  C3  DEN d   1       3.144   1.990   0.561  0.00  0.00     0.027 A 
ATOM      4  C4  DEN d   1       1.975   4.277   0.328  0.00  0.00     0.027 A 
ATOM      5  C5  DEN d   1       0.771   4.904   0.096  0.00  0.00    -0.003 A 
ATOM      6  C6  DEN d   1      -0.382   4.204  -0.143  0.00  0.00     0.001 A 
ATOM      7  C7  DEN d   1      -0.364   2.835  -0.110  0.00  0.00     0.017 A 
ATOM      8  C8  DEN d   1       0.848   2.196   0.117  0.00  0.00    -0.094 A 
ATOM      9  C9  DEN d   1       2.000   2.921   0.368  0.00  0.00    -0.072 A 
ENDROOT
TORSDOF 0
ENDMDL
