MODEL 1
REMARK minimizedAffinity 8.33350182
REMARK minimizedRMSD -1
REMARK  0 active torsions:
REMARK  status: ('A' for Active; 'I' for Inactive)
ROOT
ATOM      1  C1  DEN d   1       3.463  -0.642  -0.667  0.00  0.00     0.130 A 
ATOM      2  C2  DEN d   1       2.311  -1.418  -1.118  0.00  0.00    -0.031 A 
ATOM      3  C3  DEN d   1       1.088  -0.692  -0.721  0.00  0.00     0.027 A 
ATOM      4  C4  DEN d   1       0.869   1.548   0.539  0.00  0.00     0.027 A 
ATOM      5  C5  DEN d   1       1.568   2.572   1.139  0.00  0.00    -0.003 A 
ATOM      6  C6  DEN d   1       2.936   2.580   1.208  0.00  0.00     0.001 A 
ATOM      7  C7  DEN d   1       3.650   1.564   0.628  0.00  0.00     0.017 A 
ATOM      8  C8  DEN d   1       2.952   0.525   0.028  0.00  0.00    -0.094 A 
ATOM      9  C9  DEN d   1       1.569   0.542  -0.042  0.00  0.00    -0.072 A 
ENDROOT
TORSDOF 0
ENDMDL
