MODEL 1
REMARK minimizedAffinity 4.06336975
REMARK minimizedRMSD -1
REMARK  0 active torsions:
REMARK  status: ('A' for Active; 'I' for Inactive)
ROOT
ATOM      1  C1  DEN d   1       2.610  -6.000   0.756  0.00  0.00     0.130 A 
ATOM      2  C2  DEN d   1       3.941  -5.952   0.157  0.00  0.00    -0.031 A 
ATOM      3  C3  DEN d   1       4.328  -4.533   0.017  0.00  0.00     0.027 A 
ATOM      4  C4  DEN d   1       3.003  -2.419   0.670  0.00  0.00     0.027 A 
ATOM      5  C5  DEN d   1       1.820  -1.954   1.202  0.00  0.00    -0.003 A 
ATOM      6  C6  DEN d   1       0.813  -2.798   1.588  0.00  0.00     0.001 A 
ATOM      7  C7  DEN d   1       0.987  -4.153   1.490  0.00  0.00     0.017 A 
ATOM      8  C8  DEN d   1       2.174  -4.628   0.947  0.00  0.00    -0.094 A 
ATOM      9  C9  DEN d   1       3.185  -3.760   0.574  0.00  0.00    -0.072 A 
ENDROOT
TORSDOF 0
ENDMDL
