MODEL 1
REMARK minimizedAffinity 12.4757376
REMARK minimizedRMSD -1
REMARK  0 active torsions:
REMARK  status: ('A' for Active; 'I' for Inactive)
ROOT
ATOM      1  C1  DEN d   1      -3.276   3.661  -0.498  0.00  0.00     0.130 A 
ATOM      2  C2  DEN d   1      -1.915   3.129  -0.494  0.00  0.00    -0.031 A 
ATOM      3  C3  DEN d   1      -1.915   1.880   0.293  0.00  0.00     0.027 A 
ATOM      4  C4  DEN d   1      -3.880   0.720   1.496  0.00  0.00     0.027 A 
ATOM      5  C5  DEN d   1      -5.225   0.801   1.785  0.00  0.00    -0.003 A 
ATOM      6  C6  DEN d   1      -6.000   1.849   1.366  0.00  0.00     0.001 A 
ATOM      7  C7  DEN d   1      -5.446   2.837   0.595  0.00  0.00     0.017 A 
ATOM      8  C8  DEN d   1      -4.090   2.767   0.306  0.00  0.00    -0.094 A 
ATOM      9  C9  DEN d   1      -3.326   1.692   0.728  0.00  0.00    -0.072 A 
ENDROOT
TORSDOF 0
ENDMDL
