MODEL 1
REMARK minimizedAffinity 6.0289259
REMARK minimizedRMSD -1
REMARK  0 active torsions:
REMARK  status: ('A' for Active; 'I' for Inactive)
ROOT
ATOM      1  C1  DEN d   1       1.062   1.789   0.155  0.00  0.00     0.130 A 
ATOM      2  C2  DEN d   1       1.961   2.135   1.253  0.00  0.00    -0.031 A 
ATOM      3  C3  DEN d   1       3.343   1.845   0.820  0.00  0.00     0.027 A 
ATOM      4  C4  DEN d   1       4.173   0.905  -1.434  0.00  0.00     0.027 A 
ATOM      5  C5  DEN d   1       3.781   0.448  -2.673  0.00  0.00    -0.003 A 
ATOM      6  C6  DEN d   1       2.464   0.375  -3.040  0.00  0.00     0.001 A 
ATOM      7  C7  DEN d   1       1.493   0.807  -2.176  0.00  0.00     0.017 A 
ATOM      8  C8  DEN d   1       1.880   1.262  -0.923  0.00  0.00    -0.094 A 
ATOM      9  C9  DEN d   1       3.218   1.340  -0.574  0.00  0.00    -0.072 A 
ENDROOT
TORSDOF 0
ENDMDL
