MODEL 1
REMARK minimizedAffinity 2.35722804
REMARK minimizedRMSD -1
REMARK  0 active torsions:
REMARK  status: ('A' for Active; 'I' for Inactive)
ROOT
ATOM      1  C1  DEN d   1       1.249   3.143   0.124  0.00  0.00     0.130 A 
ATOM      2  C2  DEN d   1       2.388   2.262   0.366  0.00  0.00    -0.031 A 
ATOM      3  C3  DEN d   1       1.865   0.948   0.792  0.00  0.00     0.027 A 
ATOM      4  C4  DEN d   1      -0.583   0.196   1.095  0.00  0.00     0.027 A 
ATOM      5  C5  DEN d   1      -1.899   0.598   1.019  0.00  0.00    -0.003 A 
ATOM      6  C6  DEN d   1      -2.253   1.876   0.676  0.00  0.00     0.001 A 
ATOM      7  C7  DEN d   1      -1.281   2.786   0.351  0.00  0.00     0.017 A 
ATOM      8  C8  DEN d   1       0.047   2.390   0.432  0.00  0.00    -0.094 A 
ATOM      9  C9  DEN d   1       0.384   1.090   0.769  0.00  0.00    -0.072 A 
ENDROOT
TORSDOF 0
ENDMDL
