MODEL 1
REMARK minimizedAffinity 0.299347341
REMARK minimizedRMSD -1
REMARK  0 active torsions:
REMARK  status: ('A' for Active; 'I' for Inactive)
ROOT
ATOM      1  C1  DEN d   1       2.182   1.886   1.602  0.00  0.00     0.130 A 
ATOM      2  C2  DEN d   1       3.340   2.293   0.810  0.00  0.00    -0.031 A 
ATOM      3  C3  DEN d   1       2.851   3.072  -0.346  0.00  0.00     0.027 A 
ATOM      4  C4  DEN d   1       0.428   3.688  -0.980  0.00  0.00     0.027 A 
ATOM      5  C5  DEN d   1      -0.894   3.557  -0.619  0.00  0.00    -0.003 A 
ATOM      6  C6  DEN d   1      -1.284   2.837   0.479  0.00  0.00     0.001 A 
ATOM      7  C7  DEN d   1      -0.336   2.258   1.282  0.00  0.00     0.017 A 
ATOM      8  C8  DEN d   1       0.999   2.379   0.920  0.00  0.00    -0.094 A 
ATOM      9  C9  DEN d   1       1.373   3.121  -0.187  0.00  0.00    -0.072 A 
ENDROOT
TORSDOF 0
ENDMDL
