MODEL 1
REMARK minimizedAffinity 3.8756187
REMARK minimizedRMSD -1
REMARK  0 active torsions:
REMARK  status: ('A' for Active; 'I' for Inactive)
ROOT
ATOM      1  C1  DEN d   1       0.601   1.519   1.338  0.00  0.00     0.130 A 
ATOM      2  C2  DEN d   1       1.711   2.274   0.762  0.00  0.00    -0.031 A 
ATOM      3  C3  DEN d   1       1.167   3.148  -0.297  0.00  0.00     0.027 A 
ATOM      4  C4  DEN d   1      -1.272   3.409  -1.092  0.00  0.00     0.027 A 
ATOM      5  C5  DEN d   1      -2.565   2.969  -0.912  0.00  0.00    -0.003 A 
ATOM      6  C6  DEN d   1      -2.885   1.999   0.000  0.00  0.00     0.001 A 
ATOM      7  C7  DEN d   1      -1.907   1.468   0.798  0.00  0.00     0.017 A 
ATOM      8  C8  DEN d   1      -0.600   1.901   0.617  0.00  0.00    -0.094 A 
ATOM      9  C9  DEN d   1      -0.298   2.892  -0.302  0.00  0.00    -0.072 A 
ENDROOT
TORSDOF 0
ENDMDL
