MODEL 1
REMARK minimizedAffinity 1.19091511
REMARK minimizedRMSD -1
REMARK  0 active torsions:
REMARK  status: ('A' for Active; 'I' for Inactive)
ROOT
ATOM      1  C1  DEN d   1       1.157   1.032  -0.250  0.00  0.00     0.130 A 
ATOM      2  C2  DEN d   1       1.545  -0.367  -0.405  0.00  0.00    -0.031 A 
ATOM      3  C3  DEN d   1       2.889  -0.536   0.185  0.00  0.00     0.027 A 
ATOM      4  C4  DEN d   1       4.395   1.223   1.321  0.00  0.00     0.027 A 
ATOM      5  C5  DEN d   1       4.499   2.550   1.677  0.00  0.00    -0.003 A 
ATOM      6  C6  DEN d   1       3.520   3.463   1.388  0.00  0.00     0.001 A 
ATOM      7  C7  DEN d   1       2.372   3.052   0.763  0.00  0.00     0.017 A 
ATOM      8  C8  DEN d   1       2.263   1.718   0.395  0.00  0.00    -0.094 A 
ATOM      9  C9  DEN d   1       3.258   0.808   0.707  0.00  0.00    -0.072 A 
ENDROOT
TORSDOF 0
ENDMDL
