MODEL 1
REMARK minimizedAffinity 10.253788
REMARK minimizedRMSD -1
REMARK  0 active torsions:
REMARK  status: ('A' for Active; 'I' for Inactive)
ROOT
ATOM      1  C1  DEN d   1       2.990   0.415   0.778  0.00  0.00     0.130 A 
ATOM      2  C2  DEN d   1       2.893   1.862   0.950  0.00  0.00    -0.031 A 
ATOM      3  C3  DEN d   1       2.292   2.428  -0.274  0.00  0.00     0.027 A 
ATOM      4  C4  DEN d   1       1.504   1.211  -2.407  0.00  0.00     0.027 A 
ATOM      5  C5  DEN d   1       1.394  -0.016  -3.024  0.00  0.00    -0.003 A 
ATOM      6  C6  DEN d   1       1.836  -1.171  -2.436  0.00  0.00     0.001 A 
ATOM      7  C7  DEN d   1       2.368  -1.130  -1.174  0.00  0.00     0.017 A 
ATOM      8  C8  DEN d   1       2.489   0.104  -0.549  0.00  0.00    -0.094 A 
ATOM      9  C9  DEN d   1       2.024   1.259  -1.155  0.00  0.00    -0.072 A 
ENDROOT
TORSDOF 0
ENDMDL
