MODEL 1
REMARK minimizedAffinity 8.99070358
REMARK minimizedRMSD -1
REMARK  0 active torsions:
REMARK  status: ('A' for Active; 'I' for Inactive)
ROOT
ATOM      1  C1  DEN d   1       1.658   2.591  -0.713  0.00  0.00     0.130 A 
ATOM      2  C2  DEN d   1       1.828   2.834   0.717  0.00  0.00    -0.031 A 
ATOM      3  C3  DEN d   1       2.021   1.530   1.382  0.00  0.00     0.027 A 
ATOM      4  C4  DEN d   1       2.078  -0.829   0.342  0.00  0.00     0.027 A 
ATOM      5  C5  DEN d   1       1.968  -1.542  -0.832  0.00  0.00    -0.003 A 
ATOM      6  C6  DEN d   1       1.715  -0.935  -2.033  0.00  0.00     0.001 A 
ATOM      7  C7  DEN d   1       1.609   0.430  -2.095  0.00  0.00     0.017 A 
ATOM      8  C8  DEN d   1       1.711   1.154  -0.915  0.00  0.00    -0.094 A 
ATOM      9  C9  DEN d   1       1.979   0.523   0.288  0.00  0.00    -0.072 A 
ENDROOT
TORSDOF 0
ENDMDL
