MODEL 1
REMARK minimizedAffinity 3.97901201
REMARK minimizedRMSD -1
REMARK  0 active torsions:
REMARK  status: ('A' for Active; 'I' for Inactive)
ROOT
ATOM      1  C1  DEN d   1      -0.578  -5.542   1.745  0.00  0.00     0.130 A 
ATOM      2  C2  DEN d   1      -0.779  -4.481   2.728  0.00  0.00    -0.031 A 
ATOM      3  C3  DEN d   1      -1.833  -3.580   2.219  0.00  0.00     0.027 A 
ATOM      4  C4  DEN d   1      -3.169  -3.728   0.018  0.00  0.00     0.027 A 
ATOM      5  C5  DEN d   1      -3.343  -4.447  -1.144  0.00  0.00    -0.003 A 
ATOM      6  C6  DEN d   1      -2.590  -5.553  -1.438  0.00  0.00     0.001 A 
ATOM      7  C7  DEN d   1      -1.658  -5.998  -0.537  0.00  0.00     0.017 A 
ATOM      8  C8  DEN d   1      -1.472  -5.274   0.633  0.00  0.00    -0.094 A 
ATOM      9  C9  DEN d   1      -2.252  -4.166   0.917  0.00  0.00    -0.072 A 
ENDROOT
TORSDOF 0
ENDMDL
