MODEL 1
REMARK minimizedAffinity 10.2161522
REMARK minimizedRMSD -1
REMARK  0 active torsions:
REMARK  status: ('A' for Active; 'I' for Inactive)
ROOT
ATOM      1  C1  DEN d   1       2.157   2.585   0.060  0.00  0.00     0.130 A 
ATOM      2  C2  DEN d   1       2.981   1.606   0.764  0.00  0.00    -0.031 A 
ATOM      3  C3  DEN d   1       2.087   0.763   1.583  0.00  0.00     0.027 A 
ATOM      4  C4  DEN d   1      -0.479   0.874   1.823  0.00  0.00     0.027 A 
ATOM      5  C5  DEN d   1      -1.615   1.546   1.430  0.00  0.00    -0.003 A 
ATOM      6  C6  DEN d   1      -1.570   2.624   0.586  0.00  0.00     0.001 A 
ATOM      7  C7  DEN d   1      -0.369   3.034   0.072  0.00  0.00     0.017 A 
ATOM      8  C8  DEN d   1       0.782   2.366   0.470  0.00  0.00    -0.094 A 
ATOM      9  C9  DEN d   1       0.715   1.271   1.314  0.00  0.00    -0.072 A 
ENDROOT
TORSDOF 0
ENDMDL
