MODEL 1
REMARK minimizedAffinity 4.56684256
REMARK minimizedRMSD -1
REMARK  0 active torsions:
REMARK  status: ('A' for Active; 'I' for Inactive)
ROOT
ATOM      1  C1  DEN d   1       0.535   2.498   3.540  0.00  0.00     0.130 A 
ATOM      2  C2  DEN d   1      -0.665   2.750   2.748  0.00  0.00    -0.031 A 
ATOM      3  C3  DEN d   1      -0.266   2.844   1.329  0.00  0.00     0.027 A 
ATOM      4  C4  DEN d   1       2.083   2.618   0.287  0.00  0.00     0.027 A 
ATOM      5  C5  DEN d   1       3.417   2.413   0.560  0.00  0.00    -0.003 A 
ATOM      6  C6  DEN d   1       3.885   2.257   1.838  0.00  0.00     0.001 A 
ATOM      7  C7  DEN d   1       3.006   2.258   2.888  0.00  0.00     0.017 A 
ATOM      8  C8  DEN d   1       1.660   2.472   2.621  0.00  0.00    -0.094 A 
ATOM      9  C9  DEN d   1       1.204   2.616   1.322  0.00  0.00    -0.072 A 
ENDROOT
TORSDOF 0
ENDMDL
