MODEL 1
REMARK minimizedAffinity -0.97213459
REMARK minimizedRMSD -1
REMARK  2 active torsions:
REMARK  status: ('A' for Active; 'I' for Inactive)
REMARK    1  A    between atoms: C1_2  and  C2_3 
REMARK    2  A    between atoms: C2_3  and  C3_4 
ROOT
ATOM      1  C3  UNL d   1       1.185  -2.985   0.132  0.00  0.00    -0.075 A 
ATOM      2  C4  UNL d   1       1.951  -2.179  -0.723  0.00  0.00     0.002 A 
ATOM      3  C5  UNL d   1       1.374  -1.086  -1.370  0.00  0.00     0.002 A 
ATOM      4  C6  UNL d   1       0.026  -0.791  -1.179  0.00  0.00    -0.004 A 
ATOM      5  C7  UNL d   1      -0.748  -1.594  -0.344  0.00  0.00     0.002 A 
ATOM      6  C8  UNL d   1      -0.172  -2.687   0.308  0.00  0.00     0.002 A 
ENDROOT
BRANCH   1   7
ATOM      7  C2  UNL d   1       1.811  -4.153   0.858  0.00  0.00     0.056 C 
BRANCH   7   8
ATOM      8  C1  UNL d   1       1.125  -5.496   0.587  0.00  0.00     0.007 C 
ATOM      9  C   UNL d   1       0.302  -5.999   1.765  0.00  0.00     0.009 C 
ENDBRANCH   7   8
ENDBRANCH   1   7
TORSDOF 2
ENDMDL
