MODEL 1
REMARK minimizedAffinity -2.95684528
REMARK minimizedRMSD -1
REMARK  2 active torsions:
REMARK  status: ('A' for Active; 'I' for Inactive)
REMARK    1  A    between atoms: C1_2  and  C2_3 
REMARK    2  A    between atoms: C2_3  and  C3_4 
ROOT
ATOM      1  C3  UNL d   1       1.276  -2.949   0.048  0.00  0.00    -0.075 A 
ATOM      2  C4  UNL d   1       1.869  -1.746  -0.363  0.00  0.00     0.002 A 
ATOM      3  C5  UNL d   1       1.079  -0.649  -0.708  0.00  0.00     0.002 A 
ATOM      4  C6  UNL d   1      -0.310  -0.744  -0.657  0.00  0.00    -0.004 A 
ATOM      5  C7  UNL d   1      -0.910  -1.939  -0.266  0.00  0.00     0.002 A 
ATOM      6  C8  UNL d   1      -0.122  -3.037   0.084  0.00  0.00     0.002 A 
ENDROOT
BRANCH   1   7
ATOM      7  C2  UNL d   1       2.126  -4.131   0.451  0.00  0.00     0.056 C 
BRANCH   7   8
ATOM      8  C1  UNL d   1       1.431  -5.486   0.280  0.00  0.00     0.007 C 
ATOM      9  C   UNL d   1       0.792  -5.998   1.564  0.00  0.00     0.009 C 
ENDBRANCH   7   8
ENDBRANCH   1   7
TORSDOF 2
ENDMDL
