MODEL 1
REMARK minimizedAffinity 1.63369739
REMARK minimizedRMSD -1
REMARK  2 active torsions:
REMARK  status: ('A' for Active; 'I' for Inactive)
REMARK    1  A    between atoms: C1_2  and  C2_3 
REMARK    2  A    between atoms: C2_3  and  C3_4 
ROOT
ATOM      1  C3  UNL d   1       1.072   0.332  -1.233  0.00  0.00    -0.075 A 
ATOM      2  C4  UNL d   1       1.770  -0.384  -0.249  0.00  0.00     0.002 A 
ATOM      3  C5  UNL d   1       2.147  -1.709  -0.471  0.00  0.00     0.002 A 
ATOM      4  C6  UNL d   1       1.823  -2.337  -1.671  0.00  0.00    -0.004 A 
ATOM      5  C7  UNL d   1       1.115  -1.641  -2.649  0.00  0.00     0.002 A 
ATOM      6  C8  UNL d   1       0.741  -0.314  -2.432  0.00  0.00     0.002 A 
ENDROOT
BRANCH   1   7
ATOM      7  C2  UNL d   1       0.687   1.775  -1.012  0.00  0.00     0.056 C 
BRANCH   7   8
ATOM      8  C1  UNL d   1       1.717   2.580  -0.211  0.00  0.00     0.007 C 
ATOM      9  C   UNL d   1       1.542   4.086  -0.351  0.00  0.00     0.009 C 
ENDBRANCH   7   8
ENDBRANCH   1   7
TORSDOF 2
ENDMDL
