MODEL 1
REMARK minimizedAffinity 1.87974107
REMARK minimizedRMSD -1
REMARK  2 active torsions:
REMARK  status: ('A' for Active; 'I' for Inactive)
REMARK    1  A    between atoms: C1_2  and  C2_3 
REMARK    2  A    between atoms: C2_3  and  C3_4 
ROOT
ATOM      1  C3  UNL d   1       0.357  -1.395  -2.383  0.00  0.00    -0.075 A 
ATOM      2  C4  UNL d   1       0.466  -0.293  -1.522  0.00  0.00     0.002 A 
ATOM      3  C5  UNL d   1       1.341  -0.327  -0.436  0.00  0.00     0.002 A 
ATOM      4  C6  UNL d   1       2.109  -1.464  -0.191  0.00  0.00    -0.004 A 
ATOM      5  C7  UNL d   1       1.996  -2.570  -1.031  0.00  0.00     0.002 A 
ATOM      6  C8  UNL d   1       1.125  -2.537  -2.121  0.00  0.00     0.002 A 
ENDROOT
BRANCH   1   7
ATOM      7  C2  UNL d   1      -0.566  -1.353  -3.578  0.00  0.00     0.056 C 
BRANCH   7   8
ATOM      8  C1  UNL d   1       0.016  -0.620  -4.791  0.00  0.00     0.007 C 
ATOM      9  C   UNL d   1       0.172   0.879  -4.568  0.00  0.00     0.009 C 
ENDBRANCH   7   8
ENDBRANCH   1   7
TORSDOF 2
ENDMDL
