MODEL 1
REMARK minimizedAffinity -4.85973501
REMARK minimizedRMSD -1
REMARK  2 active torsions:
REMARK  status: ('A' for Active; 'I' for Inactive)
REMARK    1  A    between atoms: C1_2  and  C2_3 
REMARK    2  A    between atoms: C2_3  and  C3_4 
ROOT
ATOM      1  C3  UNL d   1       1.282  -2.749  -0.002  0.00  0.00    -0.075 A 
ATOM      2  C4  UNL d   1      -0.117  -2.651   0.019  0.00  0.00     0.002 A 
ATOM      3  C5  UNL d   1      -0.749  -1.460  -0.341  0.00  0.00     0.002 A 
ATOM      4  C6  UNL d   1       0.008  -0.352  -0.715  0.00  0.00    -0.004 A 
ATOM      5  C7  UNL d   1       1.399  -0.433  -0.724  0.00  0.00     0.002 A 
ATOM      6  C8  UNL d   1       2.033  -1.625  -0.369  0.00  0.00     0.002 A 
ENDROOT
BRANCH   1   7
ATOM      7  C2  UNL d   1       1.971  -4.044   0.357  0.00  0.00     0.056 C 
BRANCH   7   8
ATOM      8  C1  UNL d   1       1.107  -5.291   0.140  0.00  0.00     0.007 C 
ATOM      9  C   UNL d   1       0.737  -5.998   1.437  0.00  0.00     0.009 C 
ENDBRANCH   7   8
ENDBRANCH   1   7
TORSDOF 2
ENDMDL
