MODEL 1
REMARK minimizedAffinity -2.46354604
REMARK minimizedRMSD -1
REMARK  2 active torsions:
REMARK  status: ('A' for Active; 'I' for Inactive)
REMARK    1  A    between atoms: C1_2  and  C2_3 
REMARK    2  A    between atoms: C2_3  and  C3_4 
ROOT
ATOM      1  C3  UNL d   1       0.206  -2.668  -0.080  0.00  0.00    -0.075 A 
ATOM      2  C4  UNL d   1      -0.792  -1.880  -0.672  0.00  0.00     0.002 A 
ATOM      3  C5  UNL d   1      -0.503  -0.590  -1.119  0.00  0.00     0.002 A 
ATOM      4  C6  UNL d   1       0.780  -0.069  -0.970  0.00  0.00    -0.004 A 
ATOM      5  C7  UNL d   1       1.774  -0.837  -0.368  0.00  0.00     0.002 A 
ATOM      6  C8  UNL d   1       1.490  -2.130   0.075  0.00  0.00     0.002 A 
ENDROOT
BRANCH   1   7
ATOM      7  C2  UNL d   1      -0.092  -4.076   0.378  0.00  0.00     0.056 C 
BRANCH   7   8
ATOM      8  C1  UNL d   1       1.126  -5.006   0.370  0.00  0.00     0.007 C 
ATOM      9  C   UNL d   1       1.130  -6.000   1.523  0.00  0.00     0.009 C 
ENDBRANCH   7   8
ENDBRANCH   1   7
TORSDOF 2
ENDMDL
