MODEL 1
REMARK minimizedAffinity -1.98768198
REMARK minimizedRMSD -1
REMARK  2 active torsions:
REMARK  status: ('A' for Active; 'I' for Inactive)
REMARK    1  A    between atoms: C1_2  and  C2_3 
REMARK    2  A    between atoms: C2_3  and  C3_4 
ROOT
ATOM      1  C3  UNL d   1       1.589  -3.134   0.374  0.00  0.00    -0.075 A 
ATOM      2  C4  UNL d   1       2.550  -2.594  -0.492  0.00  0.00     0.002 A 
ATOM      3  C5  UNL d   1       2.233  -1.516  -1.319  0.00  0.00     0.002 A 
ATOM      4  C6  UNL d   1       0.951  -0.971  -1.298  0.00  0.00    -0.004 A 
ATOM      5  C7  UNL d   1      -0.017  -1.510  -0.452  0.00  0.00     0.002 A 
ATOM      6  C8  UNL d   1       0.299  -2.586   0.379  0.00  0.00     0.002 A 
ENDROOT
BRANCH   1   7
ATOM      7  C2  UNL d   1       1.934  -4.281   1.293  0.00  0.00     0.056 C 
BRANCH   7   8
ATOM      8  C1  UNL d   1       1.490  -5.652   0.772  0.00  0.00     0.007 C 
ATOM      9  C   UNL d   1       0.054  -6.000   1.144  0.00  0.00     0.009 C 
ENDBRANCH   7   8
ENDBRANCH   1   7
TORSDOF 2
ENDMDL
