MODEL 1
REMARK minimizedAffinity 2.31172061
REMARK minimizedRMSD -1
REMARK  2 active torsions:
REMARK  status: ('A' for Active; 'I' for Inactive)
REMARK    1  A    between atoms: C1_2  and  C2_3 
REMARK    2  A    between atoms: C2_3  and  C3_4 
ROOT
ATOM      1  C3  UNL d   1       1.634  -3.720   0.377  0.00  0.00    -0.075 A 
ATOM      2  C4  UNL d   1       2.074  -4.959   0.867  0.00  0.00     0.002 A 
ATOM      3  C5  UNL d   1       1.168  -5.999   1.077  0.00  0.00     0.002 A 
ATOM      4  C6  UNL d   1      -0.186  -5.813   0.812  0.00  0.00    -0.004 A 
ATOM      5  C7  UNL d   1      -0.637  -4.581   0.341  0.00  0.00     0.002 A 
ATOM      6  C8  UNL d   1       0.267  -3.540   0.125  0.00  0.00     0.002 A 
ENDROOT
BRANCH   1   7
ATOM      7  C2  UNL d   1       2.612  -2.600   0.119  0.00  0.00     0.056 C 
BRANCH   7   8
ATOM      8  C1  UNL d   1       3.797  -2.570   1.091  0.00  0.00     0.007 C 
ATOM      9  C   UNL d   1       3.373  -2.527   2.553  0.00  0.00     0.009 C 
ENDBRANCH   7   8
ENDBRANCH   1   7
TORSDOF 2
ENDMDL
