MODEL 1
REMARK minimizedAffinity -2.0577755
REMARK minimizedRMSD -1
REMARK  2 active torsions:
REMARK  status: ('A' for Active; 'I' for Inactive)
REMARK    1  A    between atoms: C1_2  and  C2_3 
REMARK    2  A    between atoms: C2_3  and  C3_4 
ROOT
ATOM      1  C3  UNL d   1      -4.198   1.096   1.046  0.00  0.00    -0.075 A 
ATOM      2  C4  UNL d   1      -3.441   1.534   2.142  0.00  0.00     0.002 A 
ATOM      3  C5  UNL d   1      -3.338   0.751   3.291  0.00  0.00     0.002 A 
ATOM      4  C6  UNL d   1      -3.998  -0.474   3.364  0.00  0.00    -0.004 A 
ATOM      5  C7  UNL d   1      -4.767  -0.912   2.288  0.00  0.00     0.002 A 
ATOM      6  C8  UNL d   1      -4.867  -0.132   1.135  0.00  0.00     0.002 A 
ENDROOT
BRANCH   1   7
ATOM      7  C2  UNL d   1      -4.289   1.926  -0.212  0.00  0.00     0.056 C 
BRANCH   7   8
ATOM      8  C1  UNL d   1      -3.055   2.795  -0.477  0.00  0.00     0.007 C 
ATOM      9  C   UNL d   1      -3.329   4.286  -0.334  0.00  0.00     0.009 C 
ENDBRANCH   7   8
ENDBRANCH   1   7
TORSDOF 2
ENDMDL
