MODEL 1
REMARK minimizedAffinity -4.26456976
REMARK minimizedRMSD -1
REMARK  2 active torsions:
REMARK  status: ('A' for Active; 'I' for Inactive)
REMARK    1  A    between atoms: C2'_3  and  C1'_4 
REMARK    2  A    between atoms: C1'_4  and  C1_5 
ROOT
ATOM      1  C1  I4B d   1       1.008  -0.151   0.961  0.00  0.00    -0.075 A 
ATOM      2  C2  I4B d   1       1.916  -0.850   0.206  0.00  0.00     0.003 A 
ATOM      3  C3  I4B d   1       2.681  -1.888   0.792  0.00  0.00     0.002 A 
ATOM      4  C4  I4B d   1       2.544  -2.157   2.138  0.00  0.00    -0.004 A 
ATOM      5  C5  I4B d   1       1.606  -1.462   2.897  0.00  0.00     0.002 A 
ATOM      6  C6  I4B d   1       0.824  -0.461   2.303  0.00  0.00     0.003 A 
ENDROOT
BRANCH   1   7
ATOM      7  C1' I4B d   1       0.240   0.961   0.319  0.00  0.00     0.060 C 
BRANCH   7   8
ATOM      8  C2' I4B d   1      -0.188   0.497  -1.058  0.00  0.00    -0.013 C 
ATOM      9  C4' I4B d   1      -1.381  -0.419  -0.979  0.00  0.00     0.013 C 
ATOM     10  C3' I4B d   1      -0.492   1.713  -1.882  0.00  0.00     0.013 C 
ENDBRANCH   7   8
ENDBRANCH   1   7
TORSDOF 2
ENDMDL
