MODEL 1
REMARK minimizedAffinity -3.54030657
REMARK minimizedRMSD -1
REMARK  2 active torsions:
REMARK  status: ('A' for Active; 'I' for Inactive)
REMARK    1  A    between atoms: C2'_3  and  C1'_4 
REMARK    2  A    between atoms: C1'_4  and  C1_5 
ROOT
ATOM      1  C1  I4B d   1      -0.247  -0.080  -0.259  0.00  0.00    -0.075 A 
ATOM      2  C2  I4B d   1       0.985  -0.539   0.133  0.00  0.00     0.003 A 
ATOM      3  C3  I4B d   1       1.292  -0.671   1.509  0.00  0.00     0.002 A 
ATOM      4  C4  I4B d   1       0.362  -0.288   2.453  0.00  0.00    -0.004 A 
ATOM      5  C5  I4B d   1      -0.896   0.155   2.054  0.00  0.00     0.002 A 
ATOM      6  C6  I4B d   1      -1.207   0.249   0.690  0.00  0.00     0.003 A 
ENDROOT
BRANCH   1   7
ATOM      7  C1' I4B d   1      -0.526   0.079  -1.720  0.00  0.00     0.060 C 
BRANCH   7   8
ATOM      8  C2' I4B d   1      -0.823   1.542  -1.982  0.00  0.00    -0.013 C 
ATOM      9  C4' I4B d   1       0.332   2.216  -2.676  0.00  0.00     0.013 C 
ATOM     10  C3' I4B d   1      -2.071   1.620  -2.809  0.00  0.00     0.013 C 
ENDBRANCH   7   8
ENDBRANCH   1   7
TORSDOF 2
ENDMDL
