MODEL 1
REMARK minimizedAffinity -2.59771323
REMARK minimizedRMSD -1
REMARK  2 active torsions:
REMARK  status: ('A' for Active; 'I' for Inactive)
REMARK    1  A    between atoms: C2'_3  and  C1'_4 
REMARK    2  A    between atoms: C1'_4  and  C1_5 
ROOT
ATOM      1  C1  I4B d   1      -0.399   0.793  -1.129  0.00  0.00    -0.075 A 
ATOM      2  C2  I4B d   1      -1.580   1.182  -1.709  0.00  0.00     0.003 A 
ATOM      3  C3  I4B d   1      -1.620   2.321  -2.550  0.00  0.00     0.002 A 
ATOM      4  C4  I4B d   1      -0.474   3.065  -2.742  0.00  0.00    -0.004 A 
ATOM      5  C5  I4B d   1       0.728   2.656  -2.171  0.00  0.00     0.002 A 
ATOM      6  C6  I4B d   1       0.769   1.506  -1.370  0.00  0.00     0.003 A 
ENDROOT
BRANCH   1   7
ATOM      7  C1' I4B d   1      -0.399  -0.395  -0.219  0.00  0.00     0.060 C 
BRANCH   7   8
ATOM      8  C2' I4B d   1      -0.605   0.102   1.197  0.00  0.00    -0.013 C 
ATOM      9  C4' I4B d   1      -2.069   0.281   1.504  0.00  0.00     0.013 C 
ATOM     10  C3' I4B d   1       0.027  -0.887   2.131  0.00  0.00     0.013 C 
ENDBRANCH   7   8
ENDBRANCH   1   7
TORSDOF 2
ENDMDL
