MODEL 1
REMARK minimizedAffinity -4.87665653
REMARK minimizedRMSD -1
REMARK  2 active torsions:
REMARK  status: ('A' for Active; 'I' for Inactive)
REMARK    1  A    between atoms: C2'_3  and  C1'_4 
REMARK    2  A    between atoms: C1'_4  and  C1_5 
ROOT
ATOM      1  C1  I4B d   1       0.711  -0.349  -0.181  0.00  0.00    -0.075 A 
ATOM      2  C2  I4B d   1      -0.084  -0.172   0.923  0.00  0.00     0.003 A 
ATOM      3  C3  I4B d   1       0.345  -0.630   2.192  0.00  0.00     0.002 A 
ATOM      4  C4  I4B d   1       1.546  -1.300   2.302  0.00  0.00    -0.004 A 
ATOM      5  C5  I4B d   1       2.362  -1.459   1.185  0.00  0.00     0.002 A 
ATOM      6  C6  I4B d   1       1.948  -0.970  -0.062  0.00  0.00     0.003 A 
ENDROOT
BRANCH   1   7
ATOM      7  C1' I4B d   1       0.212   0.118  -1.511  0.00  0.00     0.060 C 
BRANCH   7   8
ATOM      8  C2' I4B d   1      -0.004   1.615  -1.430  0.00  0.00    -0.013 C 
ATOM      9  C4' I4B d   1       1.112   2.365  -2.109  0.00  0.00     0.013 C 
ATOM     10  C3' I4B d   1      -1.328   1.927  -2.061  0.00  0.00     0.013 C 
ENDBRANCH   7   8
ENDBRANCH   1   7
TORSDOF 2
ENDMDL
