MODEL 1
REMARK minimizedAffinity -4.78073978
REMARK minimizedRMSD -1
REMARK  2 active torsions:
REMARK  status: ('A' for Active; 'I' for Inactive)
REMARK    1  A    between atoms: C2'_3  and  C1'_4 
REMARK    2  A    between atoms: C1'_4  and  C1_5 
ROOT
ATOM      1  C1  I4B d   1       0.476  -0.399  -0.270  0.00  0.00    -0.075 A 
ATOM      2  C2  I4B d   1       1.160  -1.585  -0.170  0.00  0.00     0.003 A 
ATOM      3  C3  I4B d   1       2.149  -1.755   0.829  0.00  0.00     0.002 A 
ATOM      4  C4  I4B d   1       2.455  -0.704   1.669  0.00  0.00    -0.004 A 
ATOM      5  C5  I4B d   1       1.744   0.489   1.581  0.00  0.00     0.002 A 
ATOM      6  C6  I4B d   1       0.740   0.639   0.614  0.00  0.00     0.003 A 
ENDROOT
BRANCH   1   7
ATOM      7  C1' I4B d   1      -0.538  -0.242  -1.358  0.00  0.00     0.060 C 
BRANCH   7   8
ATOM      8  C2' I4B d   1      -0.379   1.144  -1.948  0.00  0.00    -0.013 C 
ATOM      9  C4' I4B d   1       0.770   1.194  -2.921  0.00  0.00     0.013 C 
ATOM     10  C3' I4B d   1      -1.670   1.515  -2.615  0.00  0.00     0.013 C 
ENDBRANCH   7   8
ENDBRANCH   1   7
TORSDOF 2
ENDMDL
