MODEL 1
REMARK minimizedAffinity -1.79962671
REMARK minimizedRMSD -1
REMARK  2 active torsions:
REMARK  status: ('A' for Active; 'I' for Inactive)
REMARK    1  A    between atoms: C2'_3  and  C1'_4 
REMARK    2  A    between atoms: C1'_4  and  C1_5 
ROOT
ATOM      1  C1  I4B d   1      -0.900   0.685  -1.355  0.00  0.00    -0.075 A 
ATOM      2  C2  I4B d   1      -0.252  -0.469  -1.719  0.00  0.00     0.003 A 
ATOM      3  C3  I4B d   1       0.285  -1.327  -0.729  0.00  0.00     0.002 A 
ATOM      4  C4  I4B d   1       0.196  -0.970   0.601  0.00  0.00    -0.004 A 
ATOM      5  C5  I4B d   1      -0.481   0.189   0.969  0.00  0.00     0.002 A 
ATOM      6  C6  I4B d   1      -1.043   1.016  -0.014  0.00  0.00     0.003 A 
ENDROOT
BRANCH   1   7
ATOM      7  C1' I4B d   1      -1.426   1.585  -2.428  0.00  0.00     0.060 C 
BRANCH   7   8
ATOM      8  C2' I4B d   1      -0.716   2.918  -2.309  0.00  0.00    -0.013 C 
ATOM      9  C4' I4B d   1       0.165   3.176  -3.504  0.00  0.00     0.013 C 
ATOM     10  C3' I4B d   1      -1.758   3.987  -2.164  0.00  0.00     0.013 C 
ENDBRANCH   7   8
ENDBRANCH   1   7
TORSDOF 2
ENDMDL
