MODEL 1
REMARK minimizedAffinity -3.8521142
REMARK minimizedRMSD -1
REMARK  0 active torsions:
REMARK  status: ('A' for Active; 'I' for Inactive)
ROOT
ATOM      1  C2' OXE d   1       0.377  -1.489  -0.129  0.00  0.00     0.078 C 
ATOM      2  C1' OXE d   1       1.980   0.748  -0.679  0.00  0.00     0.078 C 
ATOM      3  C1  OXE d   1       0.600   0.992  -0.122  0.00  0.00    -0.078 A 
ATOM      4  C2  OXE d   1      -0.195  -0.107   0.101  0.00  0.00    -0.078 A 
ATOM      5  C3  OXE d   1      -1.456   0.058   0.665  0.00  0.00     0.003 A 
ATOM      6  C4  OXE d   1      -1.981   1.340   0.866  0.00  0.00    -0.002 A 
ATOM      7  C5  OXE d   1      -1.203   2.474   0.608  0.00  0.00    -0.002 A 
ATOM      8  C6  OXE d   1       0.102   2.316   0.156  0.00  0.00     0.003 A 
ENDROOT
TORSDOF 0
ENDMDL
