MODEL 1
REMARK minimizedAffinity -3.51555157
REMARK minimizedRMSD -1
REMARK  0 active torsions:
REMARK  status: ('A' for Active; 'I' for Inactive)
ROOT
ATOM      1  C2' OXE d   1       1.108  -1.069   0.592  0.00  0.00     0.078 C 
ATOM      2  C1' OXE d   1       2.948   1.048   0.703  0.00  0.00     0.078 C 
ATOM      3  C1  OXE d   1       1.480   1.390   0.744  0.00  0.00    -0.078 A 
ATOM      4  C2  OXE d   1       0.586   0.351   0.642  0.00  0.00    -0.078 A 
ATOM      5  C3  OXE d   1      -0.780   0.606   0.729  0.00  0.00     0.003 A 
ATOM      6  C4  OXE d   1      -1.255   1.923   0.764  0.00  0.00    -0.002 A 
ATOM      7  C5  OXE d   1      -0.362   2.998   0.829  0.00  0.00    -0.002 A 
ATOM      8  C6  OXE d   1       1.006   2.747   0.862  0.00  0.00     0.003 A 
ENDROOT
TORSDOF 0
ENDMDL
