MODEL 1
REMARK minimizedAffinity -4.97315264
REMARK minimizedRMSD -1
REMARK  0 active torsions:
REMARK  status: ('A' for Active; 'I' for Inactive)
ROOT
ATOM      1  C2' OXE d   1       0.241  -0.926   0.235  0.00  0.00     0.078 C 
ATOM      2  C1' OXE d   1      -2.107   0.542   0.692  0.00  0.00     0.078 C 
ATOM      3  C1  OXE d   1      -0.833   1.311   0.451  0.00  0.00    -0.078 A 
ATOM      4  C2  OXE d   1       0.320   0.585   0.275  0.00  0.00    -0.078 A 
ATOM      5  C3  OXE d   1       1.514   1.244  -0.005  0.00  0.00     0.003 A 
ATOM      6  C4  OXE d   1       1.580   2.642   0.043  0.00  0.00    -0.002 A 
ATOM      7  C5  OXE d   1       0.425   3.400   0.261  0.00  0.00    -0.002 A 
ATOM      8  C6  OXE d   1      -0.795   2.753   0.424  0.00  0.00     0.003 A 
ENDROOT
TORSDOF 0
ENDMDL
