MODEL 1
REMARK minimizedAffinity -5.59992838
REMARK minimizedRMSD -1
REMARK  0 active torsions:
REMARK  status: ('A' for Active; 'I' for Inactive)
ROOT
ATOM      1  C2' OXE d   1      -0.483  -1.251  -0.052  0.00  0.00     0.078 C 
ATOM      2  C1' OXE d   1      -2.591   0.309   0.948  0.00  0.00     0.078 C 
ATOM      3  C1  OXE d   1      -1.283   1.000   0.654  0.00  0.00    -0.078 A 
ATOM      4  C2  OXE d   1      -0.242   0.220   0.209  0.00  0.00    -0.078 A 
ATOM      5  C3  OXE d   1       0.970   0.815  -0.129  0.00  0.00     0.003 A 
ATOM      6  C4  OXE d   1       1.187   2.175   0.126  0.00  0.00    -0.002 A 
ATOM      7  C5  OXE d   1       0.153   2.979   0.616  0.00  0.00    -0.002 A 
ATOM      8  C6  OXE d   1      -1.098   2.417   0.845  0.00  0.00     0.003 A 
ENDROOT
TORSDOF 0
ENDMDL
