MODEL 1
REMARK minimizedAffinity -5.16392708
REMARK minimizedRMSD -1
REMARK  0 active torsions:
REMARK  status: ('A' for Active; 'I' for Inactive)
ROOT
ATOM      1  C2' OXE d   1       0.770  -0.640   0.017  0.00  0.00     0.078 C 
ATOM      2  C1' OXE d   1       2.710   1.351   0.407  0.00  0.00     0.078 C 
ATOM      3  C1  OXE d   1       1.261   1.772   0.399  0.00  0.00    -0.078 A 
ATOM      4  C2  OXE d   1       0.322   0.798   0.160  0.00  0.00    -0.078 A 
ATOM      5  C3  OXE d   1      -1.032   1.122   0.196  0.00  0.00     0.003 A 
ATOM      6  C4  OXE d   1      -1.438   2.456   0.320  0.00  0.00    -0.002 A 
ATOM      7  C5  OXE d   1      -0.495   3.469   0.524  0.00  0.00    -0.002 A 
ATOM      8  C6  OXE d   1       0.853   3.139   0.609  0.00  0.00     0.003 A 
ENDROOT
TORSDOF 0
ENDMDL
