MODEL 1
REMARK minimizedAffinity -3.16530418
REMARK minimizedRMSD -1
REMARK  0 active torsions:
REMARK  status: ('A' for Active; 'I' for Inactive)
ROOT
ATOM      1  C2' OXE d   1      -0.151  -1.549   0.366  0.00  0.00     0.078 C 
ATOM      2  C1' OXE d   1       1.402   0.656  -0.412  0.00  0.00     0.078 C 
ATOM      3  C1  OXE d   1       0.048   0.928   0.195  0.00  0.00    -0.078 A 
ATOM      4  C2  OXE d   1      -0.724  -0.158   0.530  0.00  0.00    -0.078 A 
ATOM      5  C3  OXE d   1      -1.959   0.037   1.143  0.00  0.00     0.003 A 
ATOM      6  C4  OXE d   1      -2.486   1.327   1.281  0.00  0.00    -0.002 A 
ATOM      7  C5  OXE d   1      -1.732   2.445   0.910  0.00  0.00    -0.002 A 
ATOM      8  C6  OXE d   1      -0.449   2.265   0.406  0.00  0.00     0.003 A 
ENDROOT
TORSDOF 0
ENDMDL
