MODEL 1
REMARK minimizedAffinity -1.09589195
REMARK minimizedRMSD -1
REMARK  0 active torsions:
REMARK  status: ('A' for Active; 'I' for Inactive)
ROOT
ATOM      1  C2' OXE d   1      -2.370   0.664   1.246  0.00  0.00     0.078 C 
ATOM      2  C1' OXE d   1      -0.475   2.664   0.707  0.00  0.00     0.078 C 
ATOM      3  C1  OXE d   1      -0.068   1.230   0.478  0.00  0.00    -0.078 A 
ATOM      4  C2  OXE d   1      -0.986   0.255   0.789  0.00  0.00    -0.078 A 
ATOM      5  C3  OXE d   1      -0.681  -1.081   0.546  0.00  0.00     0.003 A 
ATOM      6  C4  OXE d   1       0.604  -1.452   0.133  0.00  0.00    -0.002 A 
ATOM      7  C5  OXE d   1       1.567  -0.477  -0.151  0.00  0.00    -0.002 A 
ATOM      8  C6  OXE d   1       1.234   0.867  -0.025  0.00  0.00     0.003 A 
ENDROOT
TORSDOF 0
ENDMDL
