MODEL 1
REMARK minimizedAffinity -1.17122602
REMARK minimizedRMSD -1
REMARK  0 active torsions:
REMARK  status: ('A' for Active; 'I' for Inactive)
ROOT
ATOM      1  C2' OXE d   1      -3.290   1.254   0.895  0.00  0.00     0.078 C 
ATOM      2  C1' OXE d   1      -0.975   2.785   1.316  0.00  0.00     0.078 C 
ATOM      3  C1  OXE d   1      -0.806   1.388   0.774  0.00  0.00    -0.078 A 
ATOM      4  C2  OXE d   1      -1.941   0.629   0.615  0.00  0.00    -0.078 A 
ATOM      5  C3  OXE d   1      -1.846  -0.647   0.067  0.00  0.00     0.003 A 
ATOM      6  C4  OXE d   1      -0.593  -1.221  -0.180  0.00  0.00    -0.002 A 
ATOM      7  C5  OXE d   1       0.578  -0.480   0.013  0.00  0.00    -0.002 A 
ATOM      8  C6  OXE d   1       0.487   0.837   0.448  0.00  0.00     0.003 A 
ENDROOT
TORSDOF 0
ENDMDL
