MODEL 1
REMARK minimizedAffinity -4.99161911
REMARK minimizedRMSD -1
REMARK  0 active torsions:
REMARK  status: ('A' for Active; 'I' for Inactive)
ROOT
ATOM      1  C2' OXE d   1      -0.112  -1.099   0.217  0.00  0.00     0.078 C 
ATOM      2  C1' OXE d   1      -2.207   0.001   1.727  0.00  0.00     0.078 C 
ATOM      3  C1  OXE d   1      -1.269   0.953   1.028  0.00  0.00    -0.078 A 
ATOM      4  C2  OXE d   1      -0.219   0.406   0.330  0.00  0.00    -0.078 A 
ATOM      5  C3  OXE d   1       0.645   1.237  -0.378  0.00  0.00     0.003 A 
ATOM      6  C4  OXE d   1       0.546   2.629  -0.259  0.00  0.00    -0.002 A 
ATOM      7  C5  OXE d   1      -0.492   3.206   0.479  0.00  0.00    -0.002 A 
ATOM      8  C6  OXE d   1      -1.431   2.384   1.093  0.00  0.00     0.003 A 
ENDROOT
TORSDOF 0
ENDMDL
