MODEL 1
REMARK minimizedAffinity -3.56884027
REMARK minimizedRMSD -1
REMARK  0 active torsions:
REMARK  status: ('A' for Active; 'I' for Inactive)
ROOT
ATOM      1  C2' OXE d   1      -1.466   2.104   0.329  0.00  0.00     0.078 C 
ATOM      2  C1' OXE d   1      -0.475  -0.440  -0.327  0.00  0.00     0.078 C 
ATOM      3  C1  OXE d   1       0.489   0.562   0.258  0.00  0.00    -0.078 A 
ATOM      4  C2  OXE d   1       0.007   1.819   0.533  0.00  0.00    -0.078 A 
ATOM      5  C3  OXE d   1       0.841   2.763   1.124  0.00  0.00     0.003 A 
ATOM      6  C4  OXE d   1       2.203   2.495   1.300  0.00  0.00    -0.002 A 
ATOM      7  C5  OXE d   1       2.724   1.234   0.990  0.00  0.00    -0.002 A 
ATOM      8  C6  OXE d   1       1.874   0.245   0.509  0.00  0.00     0.003 A 
ENDROOT
TORSDOF 0
ENDMDL
