MODEL 1
REMARK minimizedAffinity -5.8268981
REMARK minimizedRMSD -1
REMARK  0 active torsions:
REMARK  status: ('A' for Active; 'I' for Inactive)
ROOT
ATOM      1  C2' OXE d   1      -2.592   0.656   0.756  0.00  0.00     0.078 C 
ATOM      2  C1' OXE d   1      -0.297  -0.948   0.959  0.00  0.00     0.078 C 
ATOM      3  C1  OXE d   1      -0.105   0.524   0.688  0.00  0.00    -0.078 A 
ATOM      4  C2  OXE d   1      -1.235   1.293   0.544  0.00  0.00    -0.078 A 
ATOM      5  C3  OXE d   1      -1.114   2.665   0.348  0.00  0.00     0.003 A 
ATOM      6  C4  OXE d   1       0.144   3.244   0.144  0.00  0.00    -0.002 A 
ATOM      7  C5  OXE d   1       1.306   2.472   0.247  0.00  0.00    -0.002 A 
ATOM      8  C6  OXE d   1       1.201   1.122   0.560  0.00  0.00     0.003 A 
ENDROOT
TORSDOF 0
ENDMDL
