MODEL 1
REMARK minimizedAffinity 2.64927363
REMARK minimizedRMSD -1
REMARK  0 active torsions:
REMARK  status: ('A' for Active; 'I' for Inactive)
ROOT
ATOM      1  C2' OXE d   1       1.842   2.332   1.625  0.00  0.00     0.078 C 
ATOM      2  C1' OXE d   1       2.036  -0.255   0.554  0.00  0.00     0.078 C 
ATOM      3  C1  OXE d   1       0.657   0.304   0.796  0.00  0.00    -0.078 A 
ATOM      4  C2  OXE d   1       0.571   1.552   1.364  0.00  0.00    -0.078 A 
ATOM      5  C3  OXE d   1      -0.677   2.137   1.559  0.00  0.00     0.003 A 
ATOM      6  C4  OXE d   1      -1.847   1.405   1.325  0.00  0.00    -0.002 A 
ATOM      7  C5  OXE d   1      -1.782   0.117   0.784  0.00  0.00    -0.002 A 
ATOM      8  C6  OXE d   1      -0.542  -0.431   0.475  0.00  0.00     0.003 A 
ENDROOT
TORSDOF 0
ENDMDL
