MODEL 1
REMARK minimizedAffinity -2.70339465
REMARK minimizedRMSD -1
REMARK  0 active torsions:
REMARK  status: ('A' for Active; 'I' for Inactive)
ROOT
ATOM      1  C2' OXE d   1       1.448  -1.673   0.433  0.00  0.00     0.078 C 
ATOM      2  C1' OXE d   1      -0.703  -2.877  -0.909  0.00  0.00     0.078 C 
ATOM      3  C1  OXE d   1      -0.862  -1.443  -0.470  0.00  0.00    -0.078 A 
ATOM      4  C2  OXE d   1       0.178  -0.876   0.227  0.00  0.00    -0.078 A 
ATOM      5  C3  OXE d   1       0.105   0.461   0.607  0.00  0.00     0.003 A 
ATOM      6  C4  OXE d   1      -1.077   1.187   0.421  0.00  0.00    -0.002 A 
ATOM      7  C5  OXE d   1      -2.163   0.616  -0.251  0.00  0.00    -0.002 A 
ATOM      8  C6  OXE d   1      -2.056  -0.681  -0.740  0.00  0.00     0.003 A 
ENDROOT
TORSDOF 0
ENDMDL
