MODEL 1
REMARK minimizedAffinity -5.80274296
REMARK minimizedRMSD -1
REMARK  0 active torsions:
REMARK  status: ('A' for Active; 'I' for Inactive)
ROOT
ATOM      1  C2' OXE d   1       0.195  -0.948   0.112  0.00  0.00     0.078 C 
ATOM      2  C1' OXE d   1       2.570   0.549   0.071  0.00  0.00     0.078 C 
ATOM      3  C1  OXE d   1       1.268   1.298   0.211  0.00  0.00    -0.078 A 
ATOM      4  C2  OXE d   1       0.108   0.561   0.183  0.00  0.00    -0.078 A 
ATOM      5  C3  OXE d   1      -1.117   1.197   0.362  0.00  0.00     0.003 A 
ATOM      6  C4  OXE d   1      -1.189   2.594   0.417  0.00  0.00    -0.002 A 
ATOM      7  C5  OXE d   1      -0.023   3.366   0.407  0.00  0.00    -0.002 A 
ATOM      8  C6  OXE d   1       1.214   2.732   0.348  0.00  0.00     0.003 A 
ENDROOT
TORSDOF 0
ENDMDL
