MODEL 1
REMARK minimizedAffinity -5.51545668
REMARK minimizedRMSD -1
REMARK  0 active torsions:
REMARK  status: ('A' for Active; 'I' for Inactive)
ROOT
ATOM      1  C2' OXE d   1       0.356  -0.889  -0.206  0.00  0.00     0.078 C 
ATOM      2  C1' OXE d   1      -1.983   0.326   0.760  0.00  0.00     0.078 C 
ATOM      3  C1  OXE d   1      -0.803   1.215   0.455  0.00  0.00    -0.078 A 
ATOM      4  C2  OXE d   1       0.353   0.606   0.027  0.00  0.00    -0.078 A 
ATOM      5  C3  OXE d   1       1.454   1.384  -0.321  0.00  0.00     0.003 A 
ATOM      6  C4  OXE d   1       1.446   2.765  -0.093  0.00  0.00    -0.002 A 
ATOM      7  C5  OXE d   1       0.293   3.400   0.380  0.00  0.00    -0.002 A 
ATOM      8  C6  OXE d   1      -0.851   2.647   0.618  0.00  0.00     0.003 A 
ENDROOT
TORSDOF 0
ENDMDL
