MODEL 1
REMARK minimizedAffinity 3.60791206
REMARK minimizedRMSD -1
REMARK  0 active torsions:
REMARK  status: ('A' for Active; 'I' for Inactive)
ROOT
ATOM      1  C2' OXE d   1      -1.175  -1.310   0.128  0.00  0.00     0.078 C 
ATOM      2  C1' OXE d   1       1.103  -0.104   1.239  0.00  0.00     0.078 C 
ATOM      3  C1  OXE d   1      -0.208   0.632   1.353  0.00  0.00    -0.078 A 
ATOM      4  C2  OXE d   1      -1.309   0.056   0.765  0.00  0.00    -0.078 A 
ATOM      5  C3  OXE d   1      -2.554   0.666   0.888  0.00  0.00     0.003 A 
ATOM      6  C4  OXE d   1      -2.668   1.935   1.471  0.00  0.00    -0.002 A 
ATOM      7  C5  OXE d   1      -1.552   2.557   2.040  0.00  0.00    -0.002 A 
ATOM      8  C6  OXE d   1      -0.325   1.901   2.027  0.00  0.00     0.003 A 
ENDROOT
TORSDOF 0
ENDMDL
