MODEL 1
REMARK minimizedAffinity -5.00222778
REMARK minimizedRMSD -1
REMARK  0 active torsions:
REMARK  status: ('A' for Active; 'I' for Inactive)
ROOT
ATOM      1  C2' OXE d   1       0.779   2.956  -0.459  0.00  0.00     0.078 C 
ATOM      2  C1' OXE d   1       2.955   1.234  -0.030  0.00  0.00     0.078 C 
ATOM      3  C1  OXE d   1       1.574   0.713   0.281  0.00  0.00    -0.078 A 
ATOM      4  C2  OXE d   1       0.520   1.578   0.112  0.00  0.00    -0.078 A 
ATOM      5  C3  OXE d   1      -0.780   1.131   0.333  0.00  0.00     0.003 A 
ATOM      6  C4  OXE d   1      -1.011  -0.141   0.870  0.00  0.00    -0.002 A 
ATOM      7  C5  OXE d   1       0.052  -1.023   1.087  0.00  0.00    -0.002 A 
ATOM      8  C6  OXE d   1       1.344  -0.628   0.758  0.00  0.00     0.003 A 
ENDROOT
TORSDOF 0
ENDMDL
