MODEL 1
REMARK minimizedAffinity -4.58794975
REMARK minimizedRMSD -1
REMARK  0 active torsions:
REMARK  status: ('A' for Active; 'I' for Inactive)
ROOT
ATOM      1  C2' OXE d   1       2.311   1.286  -0.073  0.00  0.00     0.078 C 
ATOM      2  C1' OXE d   1       0.629   3.514   0.220  0.00  0.00     0.078 C 
ATOM      3  C1  OXE d   1      -0.017   2.170  -0.008  0.00  0.00    -0.078 A 
ATOM      4  C2  OXE d   1       0.815   1.093  -0.197  0.00  0.00    -0.078 A 
ATOM      5  C3  OXE d   1       0.271  -0.178  -0.356  0.00  0.00     0.003 A 
ATOM      6  C4  OXE d   1      -1.113  -0.347  -0.479  0.00  0.00    -0.002 A 
ATOM      7  C5  OXE d   1      -1.977   0.744  -0.330  0.00  0.00    -0.002 A 
ATOM      8  C6  OXE d   1      -1.448   1.999  -0.052  0.00  0.00     0.003 A 
ENDROOT
TORSDOF 0
ENDMDL
