MODEL 1
REMARK minimizedAffinity -3.72132945
REMARK minimizedRMSD -1
REMARK  0 active torsions:
REMARK  status: ('A' for Active; 'I' for Inactive)
ROOT
ATOM      1  C   UNL d   1       0.353   3.289   0.731  0.00  0.00     0.077 C 
ATOM      2  C1  UNL d   1       0.264   1.820   0.442  0.00  0.00    -0.074 A 
ATOM      3  C2  UNL d   1      -0.976   1.180   0.350  0.00  0.00    -0.005 A 
ATOM      4  C3  UNL d   1      -1.045  -0.185   0.071  0.00  0.00     0.006 A 
ATOM      5  C4  UNL d   1       0.125  -0.923  -0.117  0.00  0.00    -0.005 A 
ATOM      6  C5  UNL d   1       1.374  -0.300  -0.029  0.00  0.00    -0.074 A 
ATOM      7  C6  UNL d   1       2.640  -1.076  -0.239  0.00  0.00     0.077 C 
ATOM      8  C7  UNL d   1       1.434   1.073   0.244  0.00  0.00    -0.001 A 
ENDROOT
TORSDOF 0
ENDMDL
