MODEL 1
REMARK minimizedAffinity -2.91609335
REMARK minimizedRMSD -1
REMARK  0 active torsions:
REMARK  status: ('A' for Active; 'I' for Inactive)
ROOT
ATOM      1  C   UNL d   1       2.212   2.977   0.202  0.00  0.00     0.077 C 
ATOM      2  C1  UNL d   1       1.821   1.529   0.206  0.00  0.00    -0.074 A 
ATOM      3  C2  UNL d   1       2.777   0.527   0.403  0.00  0.00    -0.005 A 
ATOM      4  C3  UNL d   1       2.396  -0.816   0.413  0.00  0.00     0.006 A 
ATOM      5  C4  UNL d   1       1.059  -1.169   0.227  0.00  0.00    -0.005 A 
ATOM      6  C5  UNL d   1       0.090  -0.180   0.029  0.00  0.00    -0.074 A 
ATOM      7  C6  UNL d   1      -1.353  -0.542  -0.163  0.00  0.00     0.077 C 
ATOM      8  C7  UNL d   1       0.478   1.166   0.027  0.00  0.00    -0.001 A 
ENDROOT
TORSDOF 0
ENDMDL
