MODEL 1
REMARK minimizedAffinity -3.49819255
REMARK minimizedRMSD -1
REMARK  0 active torsions:
REMARK  status: ('A' for Active; 'I' for Inactive)
ROOT
ATOM      1  C   UNL d   1       2.480   1.972   2.722  0.00  0.00     0.077 C 
ATOM      2  C1  UNL d   1       2.049   0.995   1.670  0.00  0.00    -0.074 A 
ATOM      3  C2  UNL d   1       2.957   0.086   1.117  0.00  0.00    -0.005 A 
ATOM      4  C3  UNL d   1       2.538  -0.823   0.145  0.00  0.00     0.006 A 
ATOM      5  C4  UNL d   1       1.210  -0.834  -0.282  0.00  0.00    -0.005 A 
ATOM      6  C5  UNL d   1       0.287   0.067   0.261  0.00  0.00    -0.074 A 
ATOM      7  C6  UNL d   1      -1.147   0.062  -0.180  0.00  0.00     0.077 C 
ATOM      8  C7  UNL d   1       0.714   0.973   1.242  0.00  0.00    -0.001 A 
ENDROOT
TORSDOF 0
ENDMDL
