MODEL 1
REMARK minimizedAffinity 0.298529118
REMARK minimizedRMSD -1
REMARK  0 active torsions:
REMARK  status: ('A' for Active; 'I' for Inactive)
ROOT
ATOM      1  C   UNL d   1      -1.072   0.234  -0.807  0.00  0.00     0.077 C 
ATOM      2  C1  UNL d   1      -0.363  -0.668   0.159  0.00  0.00    -0.074 A 
ATOM      3  C2  UNL d   1      -0.925  -1.888   0.549  0.00  0.00    -0.005 A 
ATOM      4  C3  UNL d   1      -0.250  -2.720   1.442  0.00  0.00     0.006 A 
ATOM      5  C4  UNL d   1       0.992  -2.342   1.952  0.00  0.00    -0.005 A 
ATOM      6  C5  UNL d   1       1.571  -1.127   1.573  0.00  0.00    -0.074 A 
ATOM      7  C6  UNL d   1       2.910  -0.710   2.105  0.00  0.00     0.077 C 
ATOM      8  C7  UNL d   1       0.889  -0.299   0.670  0.00  0.00    -0.001 A 
ENDROOT
TORSDOF 0
ENDMDL
