MODEL 1
REMARK minimizedAffinity -5.44355822
REMARK minimizedRMSD -1
REMARK  0 active torsions:
REMARK  status: ('A' for Active; 'I' for Inactive)
ROOT
ATOM      1  C   UNL d   1      -1.438   0.457  -0.193  0.00  0.00     0.077 C 
ATOM      2  C1  UNL d   1      -0.011   0.317   0.245  0.00  0.00    -0.074 A 
ATOM      3  C2  UNL d   1       0.917   1.337   0.011  0.00  0.00    -0.005 A 
ATOM      4  C3  UNL d   1       2.239   1.196   0.434  0.00  0.00     0.006 A 
ATOM      5  C4  UNL d   1       2.646   0.035   1.093  0.00  0.00    -0.005 A 
ATOM      6  C5  UNL d   1       1.732  -0.995   1.336  0.00  0.00    -0.074 A 
ATOM      7  C6  UNL d   1       2.151  -2.245   2.052  0.00  0.00     0.077 C 
ATOM      8  C7  UNL d   1       0.404  -0.843   0.915  0.00  0.00    -0.001 A 
ENDROOT
TORSDOF 0
ENDMDL
