MODEL 1
REMARK minimizedAffinity -5.12066364
REMARK minimizedRMSD -1
REMARK  0 active torsions:
REMARK  status: ('A' for Active; 'I' for Inactive)
ROOT
ATOM      1  C   UNL d   1       3.027   2.246   1.512  0.00  0.00     0.077 C 
ATOM      2  C1  UNL d   1       2.364   0.985   1.044  0.00  0.00    -0.074 A 
ATOM      3  C2  UNL d   1       3.081  -0.213   0.954  0.00  0.00    -0.005 A 
ATOM      4  C3  UNL d   1       2.448  -1.381   0.526  0.00  0.00     0.006 A 
ATOM      5  C4  UNL d   1       1.096  -1.362   0.183  0.00  0.00    -0.005 A 
ATOM      6  C5  UNL d   1       0.363  -0.174   0.267  0.00  0.00    -0.074 A 
ATOM      7  C6  UNL d   1      -1.094  -0.138  -0.088  0.00  0.00     0.077 C 
ATOM      8  C7  UNL d   1       1.004   0.993   0.705  0.00  0.00    -0.001 A 
ENDROOT
TORSDOF 0
ENDMDL
