MODEL 1
REMARK minimizedAffinity -2.46450734
REMARK minimizedRMSD -1
REMARK  0 active torsions:
REMARK  status: ('A' for Active; 'I' for Inactive)
ROOT
ATOM      1  C   UNL d   1       1.129  -1.101   0.535  0.00  0.00     0.077 C 
ATOM      2  C1  UNL d   1      -0.094  -0.482  -0.076  0.00  0.00    -0.074 A 
ATOM      3  C2  UNL d   1      -0.552   0.770   0.345  0.00  0.00    -0.005 A 
ATOM      4  C3  UNL d   1      -1.685   1.337  -0.239  0.00  0.00     0.006 A 
ATOM      5  C4  UNL d   1      -2.370   0.659  -1.248  0.00  0.00    -0.005 A 
ATOM      6  C5  UNL d   1      -1.925  -0.594  -1.683  0.00  0.00    -0.074 A 
ATOM      7  C6  UNL d   1      -2.644  -1.331  -2.773  0.00  0.00     0.077 C 
ATOM      8  C7  UNL d   1      -0.782  -1.154  -1.096  0.00  0.00    -0.001 A 
ENDROOT
TORSDOF 0
ENDMDL
