MODEL 1
REMARK minimizedAffinity -0.703581452
REMARK minimizedRMSD -1
REMARK  0 active torsions:
REMARK  status: ('A' for Active; 'I' for Inactive)
ROOT
ATOM      1  C   UNL d   1      -0.443  -1.979   1.645  0.00  0.00     0.077 C 
ATOM      2  C1  UNL d   1      -0.224  -0.928   0.597  0.00  0.00    -0.074 A 
ATOM      3  C2  UNL d   1      -0.317  -1.239  -0.763  0.00  0.00    -0.005 A 
ATOM      4  C3  UNL d   1      -0.120  -0.249  -1.726  0.00  0.00     0.006 A 
ATOM      5  C4  UNL d   1       0.172   1.060  -1.339  0.00  0.00    -0.005 A 
ATOM      6  C5  UNL d   1       0.268   1.389   0.017  0.00  0.00    -0.074 A 
ATOM      7  C6  UNL d   1       0.572   2.793   0.451  0.00  0.00     0.077 C 
ATOM      8  C7  UNL d   1       0.062   0.390   0.978  0.00  0.00    -0.001 A 
ENDROOT
TORSDOF 0
ENDMDL
