MODEL 1
REMARK minimizedAffinity -0.634798825
REMARK minimizedRMSD -1
REMARK  0 active torsions:
REMARK  status: ('A' for Active; 'I' for Inactive)
ROOT
ATOM      1  C   UNL d   1      -1.160   1.832  -0.325  0.00  0.00     0.077 C 
ATOM      2  C1  UNL d   1      -0.789   0.420   0.019  0.00  0.00    -0.074 A 
ATOM      3  C2  UNL d   1      -1.740  -0.468   0.535  0.00  0.00    -0.005 A 
ATOM      4  C3  UNL d   1      -1.383  -1.781   0.841  0.00  0.00     0.006 A 
ATOM      5  C4  UNL d   1      -0.074  -2.219   0.634  0.00  0.00    -0.005 A 
ATOM      6  C5  UNL d   1       0.889  -1.347   0.119  0.00  0.00    -0.074 A 
ATOM      7  C6  UNL d   1       2.298  -1.805  -0.118  0.00  0.00     0.077 C 
ATOM      8  C7  UNL d   1       0.521  -0.031  -0.193  0.00  0.00    -0.001 A 
ENDROOT
TORSDOF 0
ENDMDL
