MODEL 1
REMARK minimizedAffinity -3.02770209
REMARK minimizedRMSD -1
REMARK  0 active torsions:
REMARK  status: ('A' for Active; 'I' for Inactive)
ROOT
ATOM      1  C2' OXE d   1       0.686   0.060  -1.805  0.00  0.00     0.078 C 
ATOM      2  C1' OXE d   1      -0.359   2.553  -1.049  0.00  0.00     0.078 C 
ATOM      3  C1  OXE d   1      -0.150   1.522   0.031  0.00  0.00    -0.078 A 
ATOM      4  C2  OXE d   1       0.318   0.289  -0.354  0.00  0.00    -0.078 A 
ATOM      5  C3  OXE d   1       0.580  -0.681   0.609  0.00  0.00     0.003 A 
ATOM      6  C4  OXE d   1       0.227  -0.465   1.947  0.00  0.00    -0.002 A 
ATOM      7  C5  OXE d   1      -0.288   0.770   2.354  0.00  0.00    -0.002 A 
ATOM      8  C6  OXE d   1      -0.443   1.786   1.418  0.00  0.00     0.003 A 
ENDROOT
TORSDOF 0
ENDMDL
