MODEL 1
REMARK minimizedAffinity -3.22478247
REMARK minimizedRMSD -1
REMARK  0 active torsions:
REMARK  status: ('A' for Active; 'I' for Inactive)
ROOT
ATOM      1  C2' OXE d   1       1.304  -0.808   2.202  0.00  0.00     0.078 C 
ATOM      2  C1' OXE d   1      -0.124   1.598   1.971  0.00  0.00     0.078 C 
ATOM      3  C1  OXE d   1       0.140   0.813   0.710  0.00  0.00    -0.078 A 
ATOM      4  C2  OXE d   1       0.880  -0.339   0.827  0.00  0.00    -0.078 A 
ATOM      5  C3  OXE d   1       1.106  -1.130  -0.297  0.00  0.00     0.003 A 
ATOM      6  C4  OXE d   1       0.719  -0.684  -1.566  0.00  0.00    -0.002 A 
ATOM      7  C5  OXE d   1      -0.001   0.506  -1.712  0.00  0.00    -0.002 A 
ATOM      8  C6  OXE d   1      -0.335   1.243  -0.581  0.00  0.00     0.003 A 
ENDROOT
TORSDOF 0
ENDMDL
