MODEL 1
REMARK minimizedAffinity -2.33124542
REMARK minimizedRMSD -1
REMARK  0 active torsions:
REMARK  status: ('A' for Active; 'I' for Inactive)
ROOT
ATOM      1  C2' OXE d   1       0.189   0.636   2.075  0.00  0.00     0.078 C 
ATOM      2  C1' OXE d   1      -0.011  -0.496  -0.486  0.00  0.00     0.078 C 
ATOM      3  C1  OXE d   1      -0.115   1.005  -0.370  0.00  0.00    -0.078 A 
ATOM      4  C2  OXE d   1      -0.063   1.546   0.892  0.00  0.00    -0.078 A 
ATOM      5  C3  OXE d   1      -0.099   2.928   1.052  0.00  0.00     0.003 A 
ATOM      6  C4  OXE d   1      -0.342   3.762  -0.046  0.00  0.00    -0.002 A 
ATOM      7  C5  OXE d   1      -0.438   3.228  -1.336  0.00  0.00    -0.002 A 
ATOM      8  C6  OXE d   1      -0.285   1.858  -1.520  0.00  0.00     0.003 A 
ENDROOT
TORSDOF 0
ENDMDL
