MODEL 1
REMARK minimizedAffinity -4.70506811
REMARK minimizedRMSD -1
REMARK  0 active torsions:
REMARK  status: ('A' for Active; 'I' for Inactive)
ROOT
ATOM      1  C2' OXE d   1       0.023  -0.313  -1.001  0.00  0.00     0.078 C 
ATOM      2  C1' OXE d   1       0.282   0.454   1.687  0.00  0.00     0.078 C 
ATOM      3  C1  OXE d   1       0.114   1.544   0.658  0.00  0.00    -0.078 A 
ATOM      4  C2  OXE d   1       0.035   1.162  -0.660  0.00  0.00    -0.078 A 
ATOM      5  C3  OXE d   1      -0.175   2.123  -1.644  0.00  0.00     0.003 A 
ATOM      6  C4  OXE d   1      -0.153   3.485  -1.321  0.00  0.00    -0.002 A 
ATOM      7  C5  OXE d   1      -0.033   3.897   0.010  0.00  0.00    -0.002 A 
ATOM      8  C6  OXE d   1       0.058   2.940   1.014  0.00  0.00     0.003 A 
ENDROOT
TORSDOF 0
ENDMDL
