MODEL 1
REMARK minimizedAffinity -5.70571756
REMARK minimizedRMSD -1
REMARK  0 active torsions:
REMARK  status: ('A' for Active; 'I' for Inactive)
ROOT
ATOM      1  C2' OXE d   1       0.896  -0.524  -0.913  0.00  0.00     0.078 C 
ATOM      2  C1' OXE d   1       1.155  -0.367   1.878  0.00  0.00     0.078 C 
ATOM      3  C1  OXE d   1       0.430   0.753   1.175  0.00  0.00    -0.078 A 
ATOM      4  C2  OXE d   1       0.349   0.691  -0.196  0.00  0.00    -0.078 A 
ATOM      5  C3  OXE d   1      -0.357   1.671  -0.889  0.00  0.00     0.003 A 
ATOM      6  C4  OXE d   1      -0.851   2.796  -0.219  0.00  0.00    -0.002 A 
ATOM      7  C5  OXE d   1      -0.744   2.899   1.172  0.00  0.00    -0.002 A 
ATOM      8  C6  OXE d   1      -0.145   1.867   1.887  0.00  0.00     0.003 A 
ENDROOT
TORSDOF 0
ENDMDL
