MODEL 1
REMARK minimizedAffinity -4.47070122
REMARK minimizedRMSD -1
REMARK  0 active torsions:
REMARK  status: ('A' for Active; 'I' for Inactive)
ROOT
ATOM      1  C2' OXE d   1      -0.050   0.057  -1.046  0.00  0.00     0.078 C 
ATOM      2  C1' OXE d   1      -0.623   2.538  -2.227  0.00  0.00     0.078 C 
ATOM      3  C1  OXE d   1      -0.743   2.428  -0.728  0.00  0.00    -0.078 A 
ATOM      4  C2  OXE d   1      -0.505   1.198  -0.163  0.00  0.00    -0.078 A 
ATOM      5  C3  OXE d   1      -0.548   1.056   1.221  0.00  0.00     0.003 A 
ATOM      6  C4  OXE d   1      -0.980   2.114   2.030  0.00  0.00    -0.002 A 
ATOM      7  C5  OXE d   1      -1.265   3.364   1.471  0.00  0.00    -0.002 A 
ATOM      8  C6  OXE d   1      -1.110   3.549   0.101  0.00  0.00     0.003 A 
ENDROOT
TORSDOF 0
ENDMDL
