MODEL 1
REMARK minimizedAffinity -6.61233521
REMARK minimizedRMSD -1
REMARK  0 active torsions:
REMARK  status: ('A' for Active; 'I' for Inactive)
ROOT
ATOM      1  C2' OXE d   1       1.085  -0.082   2.034  0.00  0.00     0.078 C 
ATOM      2  C1' OXE d   1       0.377  -0.369  -0.667  0.00  0.00     0.078 C 
ATOM      3  C1  OXE d   1      -0.142   0.839   0.071  0.00  0.00    -0.078 A 
ATOM      4  C2  OXE d   1       0.171   0.947   1.405  0.00  0.00    -0.078 A 
ATOM      5  C3  OXE d   1      -0.237   2.070   2.120  0.00  0.00     0.003 A 
ATOM      6  C4  OXE d   1      -1.091   3.012   1.534  0.00  0.00    -0.002 A 
ATOM      7  C5  OXE d   1      -1.454   2.900   0.187  0.00  0.00    -0.002 A 
ATOM      8  C6  OXE d   1      -0.954   1.845  -0.568  0.00  0.00     0.003 A 
ENDROOT
TORSDOF 0
ENDMDL
