MODEL 1
REMARK minimizedAffinity -4.4484849
REMARK minimizedRMSD -1
REMARK  0 active torsions:
REMARK  status: ('A' for Active; 'I' for Inactive)
ROOT
ATOM      1  C2' OXE d   1       1.523  -0.152   1.853  0.00  0.00     0.078 C 
ATOM      2  C1' OXE d   1       0.472  -0.679  -0.696  0.00  0.00     0.078 C 
ATOM      3  C1  OXE d   1      -0.173   0.414   0.118  0.00  0.00    -0.078 A 
ATOM      4  C2  OXE d   1       0.318   0.634   1.382  0.00  0.00    -0.078 A 
ATOM      5  C3  OXE d   1      -0.205   1.668   2.155  0.00  0.00     0.003 A 
ATOM      6  C4  OXE d   1      -1.326   2.383   1.716  0.00  0.00    -0.002 A 
ATOM      7  C5  OXE d   1      -1.866   2.148   0.447  0.00  0.00    -0.002 A 
ATOM      8  C6  OXE d   1      -1.276   1.199  -0.380  0.00  0.00     0.003 A 
ENDROOT
TORSDOF 0
ENDMDL
