MODEL 1
REMARK minimizedAffinity -4.97924519
REMARK minimizedRMSD -1
REMARK  0 active torsions:
REMARK  status: ('A' for Active; 'I' for Inactive)
ROOT
ATOM      1  C2' OXE d   1      -0.810   2.130  -1.869  0.00  0.00     0.078 C 
ATOM      2  C1' OXE d   1       0.292  -0.288  -0.965  0.00  0.00     0.078 C 
ATOM      3  C1  OXE d   1      -0.190   0.696   0.071  0.00  0.00    -0.078 A 
ATOM      4  C2  OXE d   1      -0.684   1.897  -0.379  0.00  0.00    -0.078 A 
ATOM      5  C3  OXE d   1      -1.193   2.818   0.532  0.00  0.00     0.003 A 
ATOM      6  C4  OXE d   1      -1.064   2.598   1.909  0.00  0.00    -0.002 A 
ATOM      7  C5  OXE d   1      -0.527   1.399   2.389  0.00  0.00    -0.002 A 
ATOM      8  C6  OXE d   1      -0.125   0.422   1.485  0.00  0.00     0.003 A 
ENDROOT
TORSDOF 0
ENDMDL
