MODEL 1
REMARK minimizedAffinity -5.15620136
REMARK minimizedRMSD -1
REMARK  0 active torsions:
REMARK  status: ('A' for Active; 'I' for Inactive)
ROOT
ATOM      1  C2' OXE d   1       0.604   0.251  -0.966  0.00  0.00     0.078 C 
ATOM      2  C1' OXE d   1      -0.249   2.916  -1.192  0.00  0.00     0.078 C 
ATOM      3  C1  OXE d   1      -0.460   2.220   0.129  0.00  0.00    -0.078 A 
ATOM      4  C2  OXE d   1      -0.082   0.902   0.216  0.00  0.00    -0.078 A 
ATOM      5  C3  OXE d   1      -0.205   0.229   1.428  0.00  0.00     0.003 A 
ATOM      6  C4  OXE d   1      -0.850   0.834   2.514  0.00  0.00    -0.002 A 
ATOM      7  C5  OXE d   1      -1.278   2.164   2.433  0.00  0.00    -0.002 A 
ATOM      8  C6  OXE d   1      -1.053   2.882   1.264  0.00  0.00     0.003 A 
ENDROOT
TORSDOF 0
ENDMDL
