MODEL 1
REMARK minimizedAffinity -6.49917507
REMARK minimizedRMSD -1
REMARK  3 active torsions:
REMARK  status: ('A' for Active; 'I' for Inactive)
REMARK    1  A    between atoms: C3'_2  and  C2'_3 
REMARK    2  A    between atoms: C2'_3  and  C1'_4 
REMARK    3  A    between atoms: C1'_4  and  C1_5 
ROOT
ATOM      1  C1  N4B d   1      -0.410  -0.159   0.822  0.00  0.00    -0.075 A 
ATOM      2  C2  N4B d   1      -0.193  -0.261   2.214  0.00  0.00     0.002 A 
ATOM      3  C3  N4B d   1      -1.262  -0.283   3.076  0.00  0.00     0.002 A 
ATOM      4  C4  N4B d   1      -2.551  -0.186   2.573  0.00  0.00    -0.004 A 
ATOM      5  C5  N4B d   1      -2.753  -0.114   1.225  0.00  0.00     0.002 A 
ATOM      6  C6  N4B d   1      -1.688  -0.094   0.347  0.00  0.00     0.002 A 
ENDROOT
BRANCH   1   7
ATOM      7  C1' N4B d   1       0.730  -0.044  -0.153  0.00  0.00     0.057 C 
BRANCH   7   8
ATOM      8  C2' N4B d   1       0.222   0.590  -1.444  0.00  0.00     0.009 C 
BRANCH   8   9
ATOM      9  C3' N4B d   1       0.827  -0.064  -2.674  0.00  0.00     0.004 C 
ATOM     10  C4' N4B d   1       0.179  -1.373  -3.015  0.00  0.00     0.003 C 
ENDBRANCH   8   9
ENDBRANCH   7   8
ENDBRANCH   1   7
TORSDOF 3
ENDMDL
