MODEL 1
REMARK minimizedAffinity -6.87485456
REMARK minimizedRMSD -1
REMARK  3 active torsions:
REMARK  status: ('A' for Active; 'I' for Inactive)
REMARK    1  A    between atoms: C3'_2  and  C2'_3 
REMARK    2  A    between atoms: C2'_3  and  C1'_4 
REMARK    3  A    between atoms: C1'_4  and  C1_5 
ROOT
ATOM      1  C1  N4B d   1      -0.676  -0.350   0.818  0.00  0.00    -0.075 A 
ATOM      2  C2  N4B d   1      -0.332  -0.486   2.181  0.00  0.00     0.002 A 
ATOM      3  C3  N4B d   1      -1.208  -0.073   3.155  0.00  0.00     0.002 A 
ATOM      4  C4  N4B d   1      -2.420   0.494   2.791  0.00  0.00    -0.004 A 
ATOM      5  C5  N4B d   1      -2.755   0.599   1.473  0.00  0.00     0.002 A 
ATOM      6  C6  N4B d   1      -1.886   0.184   0.484  0.00  0.00     0.002 A 
ENDROOT
BRANCH   1   7
ATOM      7  C1' N4B d   1       0.285  -0.708  -0.283  0.00  0.00     0.057 C 
BRANCH   7   8
ATOM      8  C2' N4B d   1       0.343   0.438  -1.289  0.00  0.00     0.009 C 
BRANCH   8   9
ATOM      9  C3' N4B d   1       0.832  -0.026  -2.650  0.00  0.00     0.004 C 
ATOM     10  C4' N4B d   1       0.894  -1.520  -2.767  0.00  0.00     0.003 C 
ENDBRANCH   8   9
ENDBRANCH   7   8
ENDBRANCH   1   7
TORSDOF 3
ENDMDL
