MODEL 1
REMARK minimizedAffinity -3.91725469
REMARK minimizedRMSD -1
REMARK  3 active torsions:
REMARK  status: ('A' for Active; 'I' for Inactive)
REMARK    1  A    between atoms: C3'_2  and  C2'_3 
REMARK    2  A    between atoms: C2'_3  and  C1'_4 
REMARK    3  A    between atoms: C1'_4  and  C1_5 
ROOT
ATOM      1  C1  N4B d   1      -1.202   0.115   0.061  0.00  0.00    -0.075 A 
ATOM      2  C2  N4B d   1      -0.199  -0.122   1.026  0.00  0.00     0.002 A 
ATOM      3  C3  N4B d   1      -0.529  -0.189   2.358  0.00  0.00     0.002 A 
ATOM      4  C4  N4B d   1      -1.847  -0.004   2.747  0.00  0.00    -0.004 A 
ATOM      5  C5  N4B d   1      -2.814   0.199   1.806  0.00  0.00     0.002 A 
ATOM      6  C6  N4B d   1      -2.497   0.265   0.464  0.00  0.00     0.002 A 
ENDROOT
BRANCH   1   7
ATOM      7  C1' N4B d   1      -0.876   0.282  -1.398  0.00  0.00     0.057 C 
BRANCH   7   8
ATOM      8  C2' N4B d   1       0.639   0.302  -1.574  0.00  0.00     0.009 C 
BRANCH   8   9
ATOM      9  C3' N4B d   1       1.050  -0.017  -3.001  0.00  0.00     0.004 C 
ATOM     10  C4' N4B d   1       0.417  -1.273  -3.521  0.00  0.00     0.003 C 
ENDBRANCH   8   9
ENDBRANCH   7   8
ENDBRANCH   1   7
TORSDOF 3
ENDMDL
