MODEL 1
REMARK minimizedAffinity -5.96995258
REMARK minimizedRMSD -1
REMARK  3 active torsions:
REMARK  status: ('A' for Active; 'I' for Inactive)
REMARK    1  A    between atoms: C3'_2  and  C2'_3 
REMARK    2  A    between atoms: C2'_3  and  C1'_4 
REMARK    3  A    between atoms: C1'_4  and  C1_5 
ROOT
ATOM      1  C1  N4B d   1       0.060   0.168  -0.035  0.00  0.00    -0.075 A 
ATOM      2  C2  N4B d   1       1.025   0.101   0.994  0.00  0.00     0.002 A 
ATOM      3  C3  N4B d   1       0.627  -0.034   2.301  0.00  0.00     0.002 A 
ATOM      4  C4  N4B d   1      -0.725  -0.085   2.605  0.00  0.00    -0.004 A 
ATOM      5  C5  N4B d   1      -1.650  -0.045   1.603  0.00  0.00     0.002 A 
ATOM      6  C6  N4B d   1      -1.265   0.086   0.284  0.00  0.00     0.002 A 
ENDROOT
BRANCH   1   7
ATOM      7  C1' N4B d   1       0.444   0.402  -1.470  0.00  0.00     0.057 C 
BRANCH   7   8
ATOM      8  C2' N4B d   1       0.498  -0.937  -2.199  0.00  0.00     0.009 C 
BRANCH   8   9
ATOM      9  C3' N4B d   1       1.589  -0.966  -3.256  0.00  0.00     0.004 C 
ATOM     10  C4' N4B d   1       2.197   0.383  -3.499  0.00  0.00     0.003 C 
ENDBRANCH   8   9
ENDBRANCH   7   8
ENDBRANCH   1   7
TORSDOF 3
ENDMDL
