MODEL 1
REMARK minimizedAffinity -3.98991299
REMARK minimizedRMSD -1
REMARK  3 active torsions:
REMARK  status: ('A' for Active; 'I' for Inactive)
REMARK    1  A    between atoms: C3'_2  and  C2'_3 
REMARK    2  A    between atoms: C2'_3  and  C1'_4 
REMARK    3  A    between atoms: C1'_4  and  C1_5 
ROOT
ATOM      1  C1  N4B d   1       0.073  -0.112  -1.548  0.00  0.00    -0.075 A 
ATOM      2  C2  N4B d   1       1.227   0.334  -2.230  0.00  0.00     0.002 A 
ATOM      3  C3  N4B d   1       1.597  -0.256  -3.413  0.00  0.00     0.002 A 
ATOM      4  C4  N4B d   1       0.842  -1.302  -3.923  0.00  0.00    -0.004 A 
ATOM      5  C5  N4B d   1      -0.285  -1.710  -3.272  0.00  0.00     0.002 A 
ATOM      6  C6  N4B d   1      -0.671  -1.124  -2.084  0.00  0.00     0.002 A 
ENDROOT
BRANCH   1   7
ATOM      7  C1' N4B d   1      -0.323   0.444  -0.208  0.00  0.00     0.057 C 
BRANCH   7   8
ATOM      8  C2' N4B d   1       0.935   0.737   0.604  0.00  0.00     0.009 C 
BRANCH   8   9
ATOM      9  C3' N4B d   1       1.218  -0.351   1.626  0.00  0.00     0.004 C 
ATOM     10  C4' N4B d   1       0.502  -0.129   2.924  0.00  0.00     0.003 C 
ENDBRANCH   8   9
ENDBRANCH   7   8
ENDBRANCH   1   7
TORSDOF 3
ENDMDL
