MODEL 1
REMARK minimizedAffinity -6.45501232
REMARK minimizedRMSD -1
REMARK  3 active torsions:
REMARK  status: ('A' for Active; 'I' for Inactive)
REMARK    1  A    between atoms: C3'_2  and  C2'_3 
REMARK    2  A    between atoms: C2'_3  and  C1'_4 
REMARK    3  A    between atoms: C1'_4  and  C1_5 
ROOT
ATOM      1  C1  N4B d   1      -0.339   0.232   0.938  0.00  0.00    -0.075 A 
ATOM      2  C2  N4B d   1       0.004   0.134   2.304  0.00  0.00     0.002 A 
ATOM      3  C3  N4B d   1      -0.982   0.003   3.252  0.00  0.00     0.002 A 
ATOM      4  C4  N4B d   1      -2.312  -0.014   2.860  0.00  0.00    -0.004 A 
ATOM      5  C5  N4B d   1      -2.634   0.055   1.536  0.00  0.00     0.002 A 
ATOM      6  C6  N4B d   1      -1.653   0.183   0.572  0.00  0.00     0.002 A 
ENDROOT
BRANCH   1   7
ATOM      7  C1' N4B d   1       0.699   0.462  -0.127  0.00  0.00     0.057 C 
BRANCH   7   8
ATOM      8  C2' N4B d   1       0.020   0.473  -1.493  0.00  0.00     0.009 C 
BRANCH   8   9
ATOM      9  C3' N4B d   1       0.971   0.056  -2.603  0.00  0.00     0.004 C 
ATOM     10  C4' N4B d   1       0.452  -1.096  -3.410  0.00  0.00     0.003 C 
ENDBRANCH   8   9
ENDBRANCH   7   8
ENDBRANCH   1   7
TORSDOF 3
ENDMDL
