MODEL 1
REMARK minimizedAffinity -5.71967316
REMARK minimizedRMSD -1
REMARK  3 active torsions:
REMARK  status: ('A' for Active; 'I' for Inactive)
REMARK    1  A    between atoms: C3'_2  and  C2'_3 
REMARK    2  A    between atoms: C2'_3  and  C1'_4 
REMARK    3  A    between atoms: C1'_4  and  C1_5 
ROOT
ATOM      1  C1  N4B d   1      -1.134  -0.200   1.647  0.00  0.00    -0.075 A 
ATOM      2  C2  N4B d   1      -0.595   0.276   2.862  0.00  0.00     0.002 A 
ATOM      3  C3  N4B d   1      -1.304   1.173   3.623  0.00  0.00     0.002 A 
ATOM      4  C4  N4B d   1      -2.540   1.621   3.181  0.00  0.00    -0.004 A 
ATOM      5  C5  N4B d   1      -3.065   1.138   2.018  0.00  0.00     0.002 A 
ATOM      6  C6  N4B d   1      -2.365   0.232   1.246  0.00  0.00     0.002 A 
ENDROOT
BRANCH   1   7
ATOM      7  C1' N4B d   1      -0.359  -1.115   0.739  0.00  0.00     0.057 C 
BRANCH   7   8
ATOM      8  C2' N4B d   1       0.638  -0.292  -0.070  0.00  0.00     0.009 C 
BRANCH   8   9
ATOM      9  C3' N4B d   1       0.118   0.025  -1.462  0.00  0.00     0.004 C 
ATOM     10  C4' N4B d   1       0.494  -1.017  -2.473  0.00  0.00     0.003 C 
ENDBRANCH   8   9
ENDBRANCH   7   8
ENDBRANCH   1   7
TORSDOF 3
ENDMDL
