MODEL 1
REMARK minimizedAffinity -6.58317375
REMARK minimizedRMSD -1
REMARK  3 active torsions:
REMARK  status: ('A' for Active; 'I' for Inactive)
REMARK    1  A    between atoms: C3'_2  and  C2'_3 
REMARK    2  A    between atoms: C2'_3  and  C1'_4 
REMARK    3  A    between atoms: C1'_4  and  C1_5 
ROOT
ATOM      1  C1  N4B d   1      -0.170  -0.083   1.025  0.00  0.00    -0.075 A 
ATOM      2  C2  N4B d   1       0.061  -0.317   2.399  0.00  0.00     0.002 A 
ATOM      3  C3  N4B d   1      -0.997  -0.386   3.271  0.00  0.00     0.002 A 
ATOM      4  C4  N4B d   1      -2.289  -0.208   2.798  0.00  0.00    -0.004 A 
ATOM      5  C5  N4B d   1      -2.505  -0.008   1.466  0.00  0.00     0.002 A 
ATOM      6  C6  N4B d   1      -1.451   0.060   0.577  0.00  0.00     0.002 A 
ENDROOT
BRANCH   1   7
ATOM      7  C1' N4B d   1       0.961   0.086   0.047  0.00  0.00     0.057 C 
BRANCH   7   8
ATOM      8  C2' N4B d   1       0.403   0.061  -1.372  0.00  0.00     0.009 C 
BRANCH   8   9
ATOM      9  C3' N4B d   1       1.500  -0.099  -2.411  0.00  0.00     0.004 C 
ATOM     10  C4' N4B d   1       1.448  -1.424  -3.111  0.00  0.00     0.003 C 
ENDBRANCH   8   9
ENDBRANCH   7   8
ENDBRANCH   1   7
TORSDOF 3
ENDMDL
