MODEL 1
REMARK minimizedAffinity 0.104806647
REMARK minimizedRMSD -1
REMARK  1 active torsions:
REMARK  status: ('A' for Active; 'I' for Inactive)
REMARK    1  A    between atoms: N_2  and  C1_3 
ROOT
ATOM      1  C1  UNL d   1       0.749   0.283  -0.519  0.00  0.00     0.143 A 
ATOM      2  C2  UNL d   1       0.227   1.230   0.368  0.00  0.00    -0.057 A 
ATOM      3  C3  UNL d   1       0.795   1.433   1.631  0.00  0.00     0.033 A 
ATOM      4  C4  UNL d   1       1.883   0.669   2.042  0.00  0.00    -0.042 A 
ATOM      5  C5  UNL d   1       2.403  -0.295   1.186  0.00  0.00     0.033 A 
ATOM      6  C6  UNL d   1       1.835  -0.489  -0.077  0.00  0.00    -0.057 A 
ENDROOT
BRANCH   1   7
ATOM      7  N   UNL d   1       0.168  -0.035  -1.749  0.00  0.00    -0.732 N 
ATOM      8  C   UNL d   1       0.814   0.340  -2.989  0.00  0.00     0.284 C 
ATOM      9  H3  UNL d   1      -0.238  -0.968  -1.758  0.00  0.00     0.395 HD
ENDBRANCH   1   7
TORSDOF 1
ENDMDL
