MODEL 1
REMARK minimizedAffinity -1.79435551
REMARK minimizedRMSD -1
REMARK  1 active torsions:
REMARK  status: ('A' for Active; 'I' for Inactive)
REMARK    1  A    between atoms: N_2  and  C1_3 
ROOT
ATOM      1  C1  UNL d   1      -0.820   0.309   0.706  0.00  0.00     0.143 A 
ATOM      2  C2  UNL d   1      -1.621   0.720   1.776  0.00  0.00    -0.057 A 
ATOM      3  C3  UNL d   1      -1.057   1.119   2.994  0.00  0.00     0.033 A 
ATOM      4  C4  UNL d   1       0.322   1.087   3.172  0.00  0.00    -0.042 A 
ATOM      5  C5  UNL d   1       1.137   0.659   2.130  0.00  0.00     0.033 A 
ATOM      6  C6  UNL d   1       0.568   0.267   0.914  0.00  0.00    -0.057 A 
ENDROOT
BRANCH   1   7
ATOM      7  N   UNL d   1      -1.325  -0.194  -0.496  0.00  0.00    -0.732 N 
ATOM      8  C   UNL d   1      -0.610  -1.220  -1.224  0.00  0.00     0.284 C 
ATOM      9  H3  UNL d   1      -2.333  -0.330  -0.467  0.00  0.00     0.395 HD
ENDBRANCH   1   7
TORSDOF 1
ENDMDL
