MODEL 1
REMARK minimizedAffinity 0.325974107
REMARK minimizedRMSD -1
REMARK  1 active torsions:
REMARK  status: ('A' for Active; 'I' for Inactive)
REMARK    1  A    between atoms: N_2  and  C1_3 
ROOT
ATOM      1  C1  UNL d   1      -0.466  -0.400   1.144  0.00  0.00     0.143 A 
ATOM      2  C2  UNL d   1      -0.307  -0.946  -0.134  0.00  0.00    -0.057 A 
ATOM      3  C3  UNL d   1      -1.355  -0.939  -1.062  0.00  0.00     0.033 A 
ATOM      4  C4  UNL d   1      -2.595  -0.410  -0.717  0.00  0.00    -0.042 A 
ATOM      5  C5  UNL d   1      -2.783   0.116   0.556  0.00  0.00     0.033 A 
ATOM      6  C6  UNL d   1      -1.731   0.112   1.477  0.00  0.00    -0.057 A 
ENDROOT
BRANCH   1   7
ATOM      7  N   UNL d   1       0.506  -0.465   2.145  0.00  0.00    -0.732 N 
ATOM      8  C   UNL d   1       0.167  -0.926   3.474  0.00  0.00     0.284 C 
ATOM      9  H3  UNL d   1       1.397  -0.814   1.798  0.00  0.00     0.395 HD
ENDBRANCH   1   7
TORSDOF 1
ENDMDL
