MODEL 1
REMARK minimizedAffinity 5.47302723
REMARK minimizedRMSD -1
REMARK  1 active torsions:
REMARK  status: ('A' for Active; 'I' for Inactive)
REMARK    1  A    between atoms: N_2  and  C1_3 
ROOT
ATOM      1  C1  UNL d   1      -2.050  -1.908  -5.318  0.00  0.00     0.143 A 
ATOM      2  C2  UNL d   1      -1.191  -2.384  -4.321  0.00  0.00    -0.057 A 
ATOM      3  C3  UNL d   1      -0.210  -1.561  -3.754  0.00  0.00     0.033 A 
ATOM      4  C4  UNL d   1      -0.052  -0.252  -4.195  0.00  0.00    -0.042 A 
ATOM      5  C5  UNL d   1      -0.879   0.235  -5.202  0.00  0.00     0.033 A 
ATOM      6  C6  UNL d   1      -1.860  -0.590  -5.760  0.00  0.00    -0.057 A 
ENDROOT
BRANCH   1   7
ATOM      7  N   UNL d   1      -2.979  -2.706  -5.990  0.00  0.00    -0.732 N 
ATOM      8  C   UNL d   1      -4.387  -2.372  -5.972  0.00  0.00     0.284 C 
ATOM      9  H3  UNL d   1      -2.638  -3.021  -6.895  0.00  0.00     0.395 HD
ENDBRANCH   1   7
TORSDOF 1
ENDMDL
