MODEL 1
REMARK minimizedAffinity -0.101291992
REMARK minimizedRMSD -1
REMARK  1 active torsions:
REMARK  status: ('A' for Active; 'I' for Inactive)
REMARK    1  A    between atoms: N_2  and  C1_3 
ROOT
ATOM      1  C1  UNL d   1       3.997   4.844   2.591  0.00  0.00     0.143 A 
ATOM      2  C2  UNL d   1       3.050   4.858   1.562  0.00  0.00    -0.057 A 
ATOM      3  C3  UNL d   1       2.558   3.668   1.011  0.00  0.00     0.033 A 
ATOM      4  C4  UNL d   1       3.029   2.439   1.462  0.00  0.00    -0.042 A 
ATOM      5  C5  UNL d   1       3.989   2.402   2.467  0.00  0.00     0.033 A 
ATOM      6  C6  UNL d   1       4.471   3.593   3.017  0.00  0.00    -0.057 A 
ENDROOT
BRANCH   1   7
ATOM      7  N   UNL d   1       4.597   5.993   3.112  0.00  0.00    -0.732 N 
ATOM      8  C   UNL d   1       5.997   5.992   3.479  0.00  0.00     0.284 C 
ATOM      9  H3  UNL d   1       4.293   6.839   2.636  0.00  0.00     0.395 HD
ENDBRANCH   1   7
TORSDOF 1
ENDMDL
