MODEL 1
REMARK minimizedAffinity 6.2529726
REMARK minimizedRMSD -1
REMARK  1 active torsions:
REMARK  status: ('A' for Active; 'I' for Inactive)
REMARK    1  A    between atoms: N_2  and  C1_3 
ROOT
ATOM      1  C1  UNL d   1      -1.754   2.669   1.330  0.00  0.00     0.143 A 
ATOM      2  C2  UNL d   1      -1.894   2.394  -0.034  0.00  0.00    -0.057 A 
ATOM      3  C3  UNL d   1      -2.289   1.128  -0.483  0.00  0.00     0.033 A 
ATOM      4  C4  UNL d   1      -2.524   0.103   0.427  0.00  0.00    -0.042 A 
ATOM      5  C5  UNL d   1      -2.366   0.346   1.787  0.00  0.00     0.033 A 
ATOM      6  C6  UNL d   1      -1.978   1.614   2.229  0.00  0.00    -0.057 A 
ENDROOT
BRANCH   1   7
ATOM      7  N   UNL d   1      -1.269   3.878   1.835  0.00  0.00    -0.732 N 
ATOM      8  C   UNL d   1      -1.970   5.118   1.578  0.00  0.00     0.284 C 
ATOM      9  H3  UNL d   1      -0.916   3.789   2.785  0.00  0.00     0.395 HD
ENDBRANCH   1   7
TORSDOF 1
ENDMDL
