MODEL 1
REMARK minimizedAffinity 2.7973938
REMARK minimizedRMSD -1
REMARK  1 active torsions:
REMARK  status: ('A' for Active; 'I' for Inactive)
REMARK    1  A    between atoms: N_2  and  C1_3 
ROOT
ATOM      1  C1  UNL d   1      -0.427  -0.561   3.174  0.00  0.00     0.143 A 
ATOM      2  C2  UNL d   1       0.221  -0.371   1.950  0.00  0.00    -0.057 A 
ATOM      3  C3  UNL d   1      -0.428   0.243   0.872  0.00  0.00     0.033 A 
ATOM      4  C4  UNL d   1      -1.751   0.653   0.991  0.00  0.00    -0.042 A 
ATOM      5  C5  UNL d   1      -2.424   0.452   2.191  0.00  0.00     0.033 A 
ATOM      6  C6  UNL d   1      -1.768  -0.155   3.266  0.00  0.00    -0.057 A 
ENDROOT
BRANCH   1   7
ATOM      7  N   UNL d   1       0.131  -1.254   4.251  0.00  0.00    -0.732 N 
ATOM      8  C   UNL d   1       1.562  -1.247   4.470  0.00  0.00     0.284 C 
ATOM      9  H3  UNL d   1      -0.420  -1.159   5.102  0.00  0.00     0.395 HD
ENDBRANCH   1   7
TORSDOF 1
ENDMDL
