MODEL 1
REMARK minimizedAffinity 5.51070023
REMARK minimizedRMSD -1
REMARK  1 active torsions:
REMARK  status: ('A' for Active; 'I' for Inactive)
REMARK    1  A    between atoms: N_2  and  C1_3 
ROOT
ATOM      1  C1  UNL d   1       3.374   3.532   1.997  0.00  0.00     0.143 A 
ATOM      2  C2  UNL d   1       3.918   2.673   2.958  0.00  0.00    -0.057 A 
ATOM      3  C3  UNL d   1       4.706   3.162   4.007  0.00  0.00     0.033 A 
ATOM      4  C4  UNL d   1       4.988   4.521   4.097  0.00  0.00    -0.042 A 
ATOM      5  C5  UNL d   1       4.479   5.391   3.138  0.00  0.00     0.033 A 
ATOM      6  C6  UNL d   1       3.687   4.896   2.097  0.00  0.00    -0.057 A 
ENDROOT
BRANCH   1   7
ATOM      7  N   UNL d   1       2.665   3.094   0.876  0.00  0.00    -0.732 N 
ATOM      8  C   UNL d   1       1.410   2.389   1.026  0.00  0.00     0.284 C 
ATOM      9  H3  UNL d   1       2.670   3.778   0.122  0.00  0.00     0.395 HD
ENDBRANCH   1   7
TORSDOF 1
ENDMDL
