MODEL 1
REMARK minimizedAffinity -0.290784925
REMARK minimizedRMSD -1
REMARK  1 active torsions:
REMARK  status: ('A' for Active; 'I' for Inactive)
REMARK    1  A    between atoms: C1_2  and  C2_3 
ROOT
ATOM      1  C2  UNL d   1       1.455  -1.406  -0.549  0.00  0.00    -0.076 A 
ATOM      2  C3  UNL d   1       0.345  -0.796  -1.160  0.00  0.00     0.004 A 
ATOM      3  C4  UNL d   1      -0.061   0.487  -0.793  0.00  0.00    -0.003 A 
ATOM      4  C5  UNL d   1       0.638   1.180   0.189  0.00  0.00     0.000 A 
ATOM      5  C6  UNL d   1       1.752   0.598   0.792  0.00  0.00     0.000 A 
ATOM      6  C7  UNL d   1       2.184  -0.688   0.423  0.00  0.00    -0.073 A 
ATOM      7  C8  UNL d   1       3.388  -1.270   1.111  0.00  0.00     0.078 C 
ENDROOT
BRANCH   1   8
ATOM      8  C1  UNL d   1       1.831  -2.809  -0.968  0.00  0.00     0.053 C 
ATOM      9  C   UNL d   1       2.779  -2.828  -2.157  0.00  0.00     0.018 C 
ENDBRANCH   1   8
TORSDOF 1
ENDMDL
