MODEL 1
REMARK minimizedAffinity 3.17346621
REMARK minimizedRMSD -1
REMARK  1 active torsions:
REMARK  status: ('A' for Active; 'I' for Inactive)
REMARK    1  A    between atoms: C1_2  and  C2_3 
ROOT
ATOM      1  C2  UNL d   1       1.381  -2.421   1.820  0.00  0.00    -0.076 A 
ATOM      2  C3  UNL d   1       2.485  -1.656   2.234  0.00  0.00     0.004 A 
ATOM      3  C4  UNL d   1       3.445  -1.227   1.319  0.00  0.00    -0.003 A 
ATOM      4  C5  UNL d   1       3.315  -1.554  -0.026  0.00  0.00     0.000 A 
ATOM      5  C6  UNL d   1       2.217  -2.297  -0.458  0.00  0.00     0.000 A 
ATOM      6  C7  UNL d   1       1.232  -2.724   0.449  0.00  0.00    -0.073 A 
ATOM      7  C8  UNL d   1       0.071  -3.527  -0.071  0.00  0.00     0.078 C 
ENDROOT
BRANCH   1   8
ATOM      8  C1  UNL d   1       0.387  -2.881   2.861  0.00  0.00     0.053 C 
ATOM      9  C   UNL d   1       0.818  -2.526   4.276  0.00  0.00     0.018 C 
ENDBRANCH   1   8
TORSDOF 1
ENDMDL
