MODEL 1
REMARK minimizedAffinity 2.71617675
REMARK minimizedRMSD -1
REMARK  1 active torsions:
REMARK  status: ('A' for Active; 'I' for Inactive)
REMARK    1  A    between atoms: C1_2  and  C2_3 
ROOT
ATOM      1  C2  UNL d   1       1.512   0.304   0.211  0.00  0.00    -0.076 A 
ATOM      2  C3  UNL d   1       2.500   0.503   1.190  0.00  0.00     0.004 A 
ATOM      3  C4  UNL d   1       3.289  -0.555   1.638  0.00  0.00    -0.003 A 
ATOM      4  C5  UNL d   1       3.102  -1.829   1.113  0.00  0.00     0.000 A 
ATOM      5  C6  UNL d   1       2.138  -2.041   0.128  0.00  0.00     0.000 A 
ATOM      6  C7  UNL d   1       1.346  -0.982  -0.346  0.00  0.00    -0.073 A 
ATOM      7  C8  UNL d   1       0.316  -1.268  -1.405  0.00  0.00     0.078 C 
ENDROOT
BRANCH   1   8
ATOM      8  C1  UNL d   1       0.668   1.484  -0.217  0.00  0.00     0.053 C 
ATOM      9  C   UNL d   1       1.075   2.774   0.480  0.00  0.00     0.018 C 
ENDBRANCH   1   8
TORSDOF 1
ENDMDL
