MODEL 1
REMARK minimizedAffinity 11.3975086
REMARK minimizedRMSD -1
REMARK  1 active torsions:
REMARK  status: ('A' for Active; 'I' for Inactive)
REMARK    1  A    between atoms: C1_2  and  C2_3 
ROOT
ATOM      1  C2  UNL d   1       0.483   2.537   2.817  0.00  0.00    -0.076 A 
ATOM      2  C3  UNL d   1      -0.003   1.444   3.556  0.00  0.00     0.004 A 
ATOM      3  C4  UNL d   1      -1.354   1.104   3.530  0.00  0.00    -0.003 A 
ATOM      4  C5  UNL d   1      -2.242   1.851   2.764  0.00  0.00     0.000 A 
ATOM      5  C6  UNL d   1      -1.775   2.928   2.010  0.00  0.00     0.000 A 
ATOM      6  C7  UNL d   1      -0.413   3.274   2.013  0.00  0.00    -0.073 A 
ATOM      7  C8  UNL d   1       0.036   4.448   1.186  0.00  0.00     0.078 C 
ENDROOT
BRANCH   1   8
ATOM      8  C1  UNL d   1       1.954   2.875   2.906  0.00  0.00     0.053 C 
ATOM      9  C   UNL d   1       2.454   2.926   4.342  0.00  0.00     0.018 C 
ENDBRANCH   1   8
TORSDOF 1
ENDMDL
