MODEL 1
REMARK minimizedAffinity 4.1760478
REMARK minimizedRMSD -1
REMARK  1 active torsions:
REMARK  status: ('A' for Active; 'I' for Inactive)
REMARK    1  A    between atoms: C1_2  and  C2_3 
ROOT
ATOM      1  C2  UNL d   1       1.970  -0.408  -0.085  0.00  0.00    -0.076 A 
ATOM      2  C3  UNL d   1       0.761  -0.721  -0.730  0.00  0.00     0.004 A 
ATOM      3  C4  UNL d   1       0.458  -2.033  -1.089  0.00  0.00    -0.003 A 
ATOM      4  C5  UNL d   1       1.359  -3.054  -0.807  0.00  0.00     0.000 A 
ATOM      5  C6  UNL d   1       2.555  -2.764  -0.152  0.00  0.00     0.000 A 
ATOM      6  C7  UNL d   1       2.869  -1.449   0.230  0.00  0.00    -0.073 A 
ATOM      7  C8  UNL d   1       4.176  -1.192   0.929  0.00  0.00     0.078 C 
ENDROOT
BRANCH   1   8
ATOM      8  C1  UNL d   1       2.256   1.038   0.255  0.00  0.00     0.053 C 
ATOM      9  C   UNL d   1       1.074   1.950  -0.036  0.00  0.00     0.018 C 
ENDBRANCH   1   8
TORSDOF 1
ENDMDL
