MODEL 1
REMARK minimizedAffinity 3.71484017
REMARK minimizedRMSD -1
REMARK  1 active torsions:
REMARK  status: ('A' for Active; 'I' for Inactive)
REMARK    1  A    between atoms: C1_2  and  C2_3 
ROOT
ATOM      1  C2  UNL d   1      -1.349   1.934   1.677  0.00  0.00    -0.076 A 
ATOM      2  C3  UNL d   1      -1.069   2.378   0.373  0.00  0.00     0.004 A 
ATOM      3  C4  UNL d   1       0.229   2.341  -0.134  0.00  0.00    -0.003 A 
ATOM      4  C5  UNL d   1       1.268   1.859   0.655  0.00  0.00     0.000 A 
ATOM      5  C6  UNL d   1       1.005   1.399   1.944  0.00  0.00     0.000 A 
ATOM      6  C7  UNL d   1      -0.300   1.414   2.465  0.00  0.00    -0.073 A 
ATOM      7  C8  UNL d   1      -0.525   0.910   3.864  0.00  0.00     0.078 C 
ENDROOT
BRANCH   1   8
ATOM      8  C1  UNL d   1      -2.771   2.023   2.182  0.00  0.00     0.053 C 
ATOM      9  C   UNL d   1      -3.765   1.351   1.248  0.00  0.00     0.018 C 
ENDBRANCH   1   8
TORSDOF 1
ENDMDL
