MODEL 1
REMARK minimizedAffinity 5.49931717
REMARK minimizedRMSD -1
REMARK  1 active torsions:
REMARK  status: ('A' for Active; 'I' for Inactive)
REMARK    1  A    between atoms: C1_2  and  C2_3 
ROOT
ATOM      1  C2  UNL d   1       0.499   1.409   0.681  0.00  0.00    -0.076 A 
ATOM      2  C3  UNL d   1      -0.498   0.576   1.217  0.00  0.00     0.004 A 
ATOM      3  C4  UNL d   1      -1.333   1.022   2.240  0.00  0.00    -0.003 A 
ATOM      4  C5  UNL d   1      -1.184   2.310   2.743  0.00  0.00     0.000 A 
ATOM      5  C6  UNL d   1      -0.212   3.156   2.211  0.00  0.00     0.000 A 
ATOM      6  C7  UNL d   1       0.627   2.727   1.168  0.00  0.00    -0.073 A 
ATOM      7  C8  UNL d   1       1.662   3.680   0.636  0.00  0.00     0.078 C 
ENDROOT
BRANCH   1   8
ATOM      8  C1  UNL d   1       1.392   0.861  -0.409  0.00  0.00     0.053 C 
ATOM      9  C   UNL d   1       2.315  -0.239   0.093  0.00  0.00     0.018 C 
ENDBRANCH   1   8
TORSDOF 1
ENDMDL
