MODEL 1
REMARK minimizedAffinity -0.508106112
REMARK minimizedRMSD -1
REMARK  1 active torsions:
REMARK  status: ('A' for Active; 'I' for Inactive)
REMARK    1  A    between atoms: C1_2  and  C2_3 
ROOT
ATOM      1  C2  UNL d   1       1.190   0.399  -0.240  0.00  0.00    -0.076 A 
ATOM      2  C3  UNL d   1       0.084  -0.445  -0.036  0.00  0.00     0.004 A 
ATOM      3  C4  UNL d   1       0.172  -1.814  -0.285  0.00  0.00    -0.003 A 
ATOM      4  C5  UNL d   1       1.366  -2.360  -0.741  0.00  0.00     0.000 A 
ATOM      5  C6  UNL d   1       2.478  -1.540  -0.931  0.00  0.00     0.000 A 
ATOM      6  C7  UNL d   1       2.412  -0.161  -0.670  0.00  0.00    -0.073 A 
ATOM      7  C8  UNL d   1       3.639   0.677  -0.898  0.00  0.00     0.078 C 
ENDROOT
BRANCH   1   8
ATOM      8  C1  UNL d   1       1.028   1.880   0.021  0.00  0.00     0.053 C 
ATOM      9  C   UNL d   1       0.584   2.176   1.445  0.00  0.00     0.018 C 
ENDBRANCH   1   8
TORSDOF 1
ENDMDL
