MODEL 1
REMARK minimizedAffinity 3.67950034
REMARK minimizedRMSD -1
REMARK  1 active torsions:
REMARK  status: ('A' for Active; 'I' for Inactive)
REMARK    1  A    between atoms: C1_2  and  C2_3 
ROOT
ATOM      1  C2  UNL d   1      -2.238   0.164  -1.169  0.00  0.00    -0.077 A 
ATOM      2  C3  UNL d   1      -2.604   1.259  -1.964  0.00  0.00     0.002 A 
ATOM      3  C4  UNL d   1      -2.807   1.100  -3.336  0.00  0.00     0.002 A 
ATOM      4  C5  UNL d   1      -2.651  -0.153  -3.924  0.00  0.00    -0.004 A 
ATOM      5  C6  UNL d   1      -2.284  -1.248  -3.143  0.00  0.00     0.002 A 
ATOM      6  C7  UNL d   1      -2.080  -1.091  -1.772  0.00  0.00     0.002 A 
ENDROOT
BRANCH   1   7
ATOM      7  C1  UNL d   1      -2.066   0.323   0.319  0.00  0.00     0.055 C 
ATOM      8  C   UNL d   1      -1.707  -1.000   0.979  0.00  0.00     0.019 C 
ENDBRANCH   1   7
TORSDOF 1
ENDMDL
