MODEL 1
REMARK minimizedAffinity 6.97681141
REMARK minimizedRMSD -1
REMARK  1 active torsions:
REMARK  status: ('A' for Active; 'I' for Inactive)
REMARK    1  A    between atoms: C1_2  and  C2_3 
ROOT
ATOM      1  C2  UNL d   1      -2.796   0.292  -3.436  0.00  0.00    -0.077 A 
ATOM      2  C3  UNL d   1      -3.914  -0.479  -3.785  0.00  0.00     0.002 A 
ATOM      3  C4  UNL d   1      -3.904  -1.862  -3.594  0.00  0.00     0.002 A 
ATOM      4  C5  UNL d   1      -2.783  -2.485  -3.050  0.00  0.00    -0.004 A 
ATOM      5  C6  UNL d   1      -1.666  -1.726  -2.701  0.00  0.00     0.002 A 
ATOM      6  C7  UNL d   1      -1.673  -0.344  -2.892  0.00  0.00     0.002 A 
ENDROOT
BRANCH   1   7
ATOM      7  C1  UNL d   1      -2.823   1.790  -3.595  0.00  0.00     0.055 C 
ATOM      8  C   UNL d   1      -3.744   2.439  -2.572  0.00  0.00     0.019 C 
ENDBRANCH   1   7
TORSDOF 1
ENDMDL
