MODEL 1
REMARK minimizedAffinity 18.6930618
REMARK minimizedRMSD -1
REMARK  1 active torsions:
REMARK  status: ('A' for Active; 'I' for Inactive)
REMARK    1  A    between atoms: C1_2  and  C2_3 
ROOT
ATOM      1  C2  UNL d   1      -3.040   1.991  -3.380  0.00  0.00    -0.077 A 
ATOM      2  C3  UNL d   1      -2.822   1.877  -1.999  0.00  0.00     0.002 A 
ATOM      3  C4  UNL d   1      -2.374   0.674  -1.452  0.00  0.00     0.002 A 
ATOM      4  C5  UNL d   1      -2.137  -0.424  -2.277  0.00  0.00    -0.004 A 
ATOM      5  C6  UNL d   1      -2.354  -0.321  -3.651  0.00  0.00     0.002 A 
ATOM      6  C7  UNL d   1      -2.802   0.881  -4.200  0.00  0.00     0.002 A 
ENDROOT
BRANCH   1   7
ATOM      7  C1  UNL d   1      -3.476   3.303  -3.978  0.00  0.00     0.055 C 
ATOM      8  C   UNL d   1      -4.423   4.048  -3.049  0.00  0.00     0.019 C 
ENDBRANCH   1   7
TORSDOF 1
ENDMDL
