MODEL 1
REMARK minimizedAffinity 10.1305666
REMARK minimizedRMSD -1
REMARK  1 active torsions:
REMARK  status: ('A' for Active; 'I' for Inactive)
REMARK    1  A    between atoms: C1_2  and  C2_3 
ROOT
ATOM      1  C2  UNL d   1       1.698  -2.176   3.481  0.00  0.00    -0.077 A 
ATOM      2  C3  UNL d   1       1.963  -0.807   3.618  0.00  0.00     0.002 A 
ATOM      3  C4  UNL d   1       2.272  -0.269   4.869  0.00  0.00     0.002 A 
ATOM      4  C5  UNL d   1       2.323  -1.094   5.990  0.00  0.00    -0.004 A 
ATOM      5  C6  UNL d   1       2.058  -2.457   5.865  0.00  0.00     0.002 A 
ATOM      6  C7  UNL d   1       1.748  -2.996   4.615  0.00  0.00     0.002 A 
ENDROOT
BRANCH   1   7
ATOM      7  C1  UNL d   1       1.413  -2.767   2.124  0.00  0.00     0.055 C 
ATOM      8  C   UNL d   1       2.612  -3.538   1.593  0.00  0.00     0.019 C 
ENDBRANCH   1   7
TORSDOF 1
ENDMDL
