MODEL 1
REMARK minimizedAffinity 9.14672184
REMARK minimizedRMSD -1
REMARK  1 active torsions:
REMARK  status: ('A' for Active; 'I' for Inactive)
REMARK    1  A    between atoms: C1_2  and  C2_3 
ROOT
ATOM      1  C2  UNL d   1      -2.520  -1.231  -3.384  0.00  0.00    -0.077 A 
ATOM      2  C3  UNL d   1      -1.700  -0.663  -2.398  0.00  0.00     0.002 A 
ATOM      3  C4  UNL d   1      -1.496   0.717  -2.359  0.00  0.00     0.002 A 
ATOM      4  C5  UNL d   1      -2.111   1.542  -3.299  0.00  0.00    -0.004 A 
ATOM      5  C6  UNL d   1      -2.926   0.987  -4.284  0.00  0.00     0.002 A 
ATOM      6  C7  UNL d   1      -3.131  -0.393  -4.326  0.00  0.00     0.002 A 
ENDROOT
BRANCH   1   7
ATOM      7  C1  UNL d   1      -2.782  -2.714  -3.399  0.00  0.00     0.055 C 
ATOM      8  C   UNL d   1      -4.039  -3.063  -2.615  0.00  0.00     0.019 C 
ENDBRANCH   1   7
TORSDOF 1
ENDMDL
