MODEL 1
REMARK minimizedAffinity 1.43653691
REMARK minimizedRMSD -1
REMARK  1 active torsions:
REMARK  status: ('A' for Active; 'I' for Inactive)
REMARK    1  A    between atoms: C1_2  and  C2_3 
ROOT
ATOM      1  C2  UNL d   1       2.230   0.478   4.148  0.00  0.00    -0.077 A 
ATOM      2  C3  UNL d   1       2.022   0.237   2.782  0.00  0.00     0.002 A 
ATOM      3  C4  UNL d   1       1.907  -1.070   2.305  0.00  0.00     0.002 A 
ATOM      4  C5  UNL d   1       1.994  -2.145   3.187  0.00  0.00    -0.004 A 
ATOM      5  C6  UNL d   1       2.202  -1.916   4.547  0.00  0.00     0.002 A 
ATOM      6  C7  UNL d   1       2.318  -0.610   5.025  0.00  0.00     0.002 A 
ENDROOT
BRANCH   1   7
ATOM      7  C1  UNL d   1       2.305   1.889   4.671  0.00  0.00     0.055 C 
ATOM      8  C   UNL d   1       3.049   1.948   5.997  0.00  0.00     0.019 C 
ENDBRANCH   1   7
TORSDOF 1
ENDMDL
