MODEL 1
REMARK minimizedAffinity -2.58214355
REMARK minimizedRMSD -1
REMARK  0 active torsions:
REMARK  status: ('A' for Active; 'I' for Inactive)
ROOT
ATOM      1  C2' OXE d   1       5.992  -5.317  -2.643  0.00  0.00     0.078 C 
ATOM      2  C1' OXE d   1       3.355  -4.543  -2.069  0.00  0.00     0.078 C 
ATOM      3  C1  OXE d   1       3.651  -5.061  -3.455  0.00  0.00    -0.078 A 
ATOM      4  C2  OXE d   1       4.953  -5.393  -3.741  0.00  0.00    -0.078 A 
ATOM      5  C3  OXE d   1       5.271  -5.927  -4.987  0.00  0.00     0.003 A 
ATOM      6  C4  OXE d   1       4.306  -5.984  -6.000  0.00  0.00    -0.002 A 
ATOM      7  C5  OXE d   1       2.982  -5.613  -5.742  0.00  0.00    -0.002 A 
ATOM      8  C6  OXE d   1       2.630  -5.190  -4.465  0.00  0.00     0.003 A 
ENDROOT
TORSDOF 0
ENDMDL
