MODEL 1
REMARK minimizedAffinity 4.24805832
REMARK minimizedRMSD -1
REMARK  0 active torsions:
REMARK  status: ('A' for Active; 'I' for Inactive)
ROOT
ATOM      1  C2' OXE d   1       3.189  -5.048  -2.174  0.00  0.00     0.078 C 
ATOM      2  C1' OXE d   1       5.911  -5.730  -2.232  0.00  0.00     0.078 C 
ATOM      3  C1  OXE d   1       5.171  -5.675  -3.545  0.00  0.00    -0.078 A 
ATOM      4  C2  OXE d   1       3.828  -5.386  -3.503  0.00  0.00    -0.078 A 
ATOM      5  C3  OXE d   1       3.111  -5.269  -4.690  0.00  0.00     0.003 A 
ATOM      6  C4  OXE d   1       3.708  -5.594  -5.914  0.00  0.00    -0.002 A 
ATOM      7  C5  OXE d   1       5.065  -5.929  -5.975  0.00  0.00    -0.002 A 
ATOM      8  C6  OXE d   1       5.819  -5.933  -4.807  0.00  0.00     0.003 A 
ENDROOT
TORSDOF 0
ENDMDL
