MODEL 1
REMARK minimizedAffinity 2.59371638
REMARK minimizedRMSD -1
REMARK  0 active torsions:
REMARK  status: ('A' for Active; 'I' for Inactive)
ROOT
ATOM      1  C2' OXE d   1       2.953  -5.731  -1.842  0.00  0.00     0.078 C 
ATOM      2  C1' OXE d   1       5.668  -5.424  -2.487  0.00  0.00     0.078 C 
ATOM      3  C1  OXE d   1       4.691  -5.607  -3.622  0.00  0.00    -0.078 A 
ATOM      4  C2  OXE d   1       3.371  -5.803  -3.295  0.00  0.00    -0.078 A 
ATOM      5  C3  OXE d   1       2.421  -5.923  -4.305  0.00  0.00     0.003 A 
ATOM      6  C4  OXE d   1       2.817  -5.999  -5.646  0.00  0.00    -0.002 A 
ATOM      7  C5  OXE d   1       4.162  -5.841  -5.998  0.00  0.00    -0.002 A 
ATOM      8  C6  OXE d   1       5.104  -5.602  -5.004  0.00  0.00     0.003 A 
ENDROOT
TORSDOF 0
ENDMDL
