MODEL 1
REMARK minimizedAffinity 2.70894313
REMARK minimizedRMSD -1
REMARK  0 active torsions:
REMARK  status: ('A' for Active; 'I' for Inactive)
ROOT
ATOM      1  C2' OXE d   1       5.295  -5.761  -5.999  0.00  0.00     0.078 C 
ATOM      2  C1' OXE d   1       2.577  -5.058  -5.998  0.00  0.00     0.078 C 
ATOM      3  C1  OXE d   1       3.225  -5.366  -4.671  0.00  0.00    -0.078 A 
ATOM      4  C2  OXE d   1       4.543  -5.755  -4.686  0.00  0.00    -0.078 A 
ATOM      5  C3  OXE d   1       5.203  -5.998  -3.485  0.00  0.00     0.003 A 
ATOM      6  C4  OXE d   1       4.498  -6.000  -2.276  0.00  0.00    -0.002 A 
ATOM      7  C5  OXE d   1       3.145  -5.645  -2.243  0.00  0.00    -0.002 A 
ATOM      8  C6  OXE d   1       2.506  -5.285  -3.424  0.00  0.00     0.003 A 
ENDROOT
TORSDOF 0
ENDMDL
