MODEL 1
REMARK minimizedAffinity -1.79586112
REMARK minimizedRMSD -1
REMARK  0 active torsions:
REMARK  status: ('A' for Active; 'I' for Inactive)
ROOT
ATOM      1  C2' OXE d   1       5.639  -5.326  -6.000  0.00  0.00     0.078 C 
ATOM      2  C1' OXE d   1       2.855  -5.455  -5.663  0.00  0.00     0.078 C 
ATOM      3  C1  OXE d   1       3.720  -5.611  -4.437  0.00  0.00    -0.078 A 
ATOM      4  C2  OXE d   1       5.082  -5.593  -4.618  0.00  0.00    -0.078 A 
ATOM      5  C3  OXE d   1       5.926  -5.677  -3.514  0.00  0.00     0.003 A 
ATOM      6  C4  OXE d   1       5.403  -5.935  -2.241  0.00  0.00    -0.002 A 
ATOM      7  C5  OXE d   1       4.020  -5.996  -2.041  0.00  0.00    -0.002 A 
ATOM      8  C6  OXE d   1       3.165  -5.794  -3.119  0.00  0.00     0.003 A 
ENDROOT
TORSDOF 0
ENDMDL
