MODEL 1
REMARK minimizedAffinity 4.75670099
REMARK minimizedRMSD -1
REMARK  0 active torsions:
REMARK  status: ('A' for Active; 'I' for Inactive)
ROOT
ATOM      1  C2' OXE d   1      -2.363   1.426  -4.500  0.00  0.00     0.078 C 
ATOM      2  C1' OXE d   1      -2.024   3.775  -5.999  0.00  0.00     0.078 C 
ATOM      3  C1  OXE d   1      -3.430   3.372  -5.631  0.00  0.00    -0.078 A 
ATOM      4  C2  OXE d   1      -3.590   2.196  -4.938  0.00  0.00    -0.078 A 
ATOM      5  C3  OXE d   1      -4.861   1.806  -4.526  0.00  0.00     0.003 A 
ATOM      6  C4  OXE d   1      -5.991   2.519  -4.944  0.00  0.00    -0.002 A 
ATOM      7  C5  OXE d   1      -5.854   3.697  -5.685  0.00  0.00    -0.002 A 
ATOM      8  C6  OXE d   1      -4.581   4.159  -6.000  0.00  0.00     0.003 A 
ENDROOT
TORSDOF 0
ENDMDL
