MODEL 1
REMARK minimizedAffinity -2.45286131
REMARK minimizedRMSD -1
REMARK  0 active torsions:
REMARK  status: ('A' for Active; 'I' for Inactive)
ROOT
ATOM      1  C2' OXE d   1       3.374  -5.876  -1.746  0.00  0.00     0.078 C 
ATOM      2  C1' OXE d   1       5.967  -5.269  -2.634  0.00  0.00     0.078 C 
ATOM      3  C1  OXE d   1       4.901  -5.493  -3.677  0.00  0.00    -0.078 A 
ATOM      4  C2  OXE d   1       3.646  -5.836  -3.234  0.00  0.00    -0.078 A 
ATOM      5  C3  OXE d   1       2.612  -6.000  -4.152  0.00  0.00     0.003 A 
ATOM      6  C4  OXE d   1       2.874  -5.970  -5.527  0.00  0.00    -0.002 A 
ATOM      7  C5  OXE d   1       4.154  -5.662  -6.000  0.00  0.00    -0.002 A 
ATOM      8  C6  OXE d   1       5.167  -5.380  -5.090  0.00  0.00     0.003 A 
ENDROOT
TORSDOF 0
ENDMDL
