MODEL 1
REMARK minimizedAffinity 2.37455869
REMARK minimizedRMSD -1
REMARK  0 active torsions:
REMARK  status: ('A' for Active; 'I' for Inactive)
ROOT
ATOM      1  C2' OXE d   1       2.999  -6.000  -2.200  0.00  0.00     0.078 C 
ATOM      2  C1' OXE d   1       5.763  -5.997  -2.691  0.00  0.00     0.078 C 
ATOM      3  C1  OXE d   1       4.855  -5.467  -3.773  0.00  0.00    -0.078 A 
ATOM      4  C2  OXE d   1       3.502  -5.516  -3.543  0.00  0.00    -0.078 A 
ATOM      5  C3  OXE d   1       2.623  -4.989  -4.486  0.00  0.00     0.003 A 
ATOM      6  C4  OXE d   1       3.095  -4.553  -5.729  0.00  0.00    -0.002 A 
ATOM      7  C5  OXE d   1       4.468  -4.532  -6.000  0.00  0.00    -0.002 A 
ATOM      8  C6  OXE d   1       5.362  -4.945  -5.018  0.00  0.00     0.003 A 
ENDROOT
TORSDOF 0
ENDMDL
