MODEL 1
REMARK minimizedAffinity -1.20347059
REMARK minimizedRMSD -1
REMARK  0 active torsions:
REMARK  status: ('A' for Active; 'I' for Inactive)
ROOT
ATOM      1  C2' OXE d   1       3.263  -5.909  -1.511  0.00  0.00     0.078 C 
ATOM      2  C1' OXE d   1       5.992  -5.949  -2.168  0.00  0.00     0.078 C 
ATOM      3  C1  OXE d   1       4.996  -5.946  -3.300  0.00  0.00    -0.078 A 
ATOM      4  C2  OXE d   1       3.662  -5.974  -2.969  0.00  0.00    -0.078 A 
ATOM      5  C3  OXE d   1       2.701  -5.917  -3.974  0.00  0.00     0.003 A 
ATOM      6  C4  OXE d   1       3.079  -5.987  -5.321  0.00  0.00    -0.002 A 
ATOM      7  C5  OXE d   1       4.431  -6.000  -5.679  0.00  0.00    -0.002 A 
ATOM      8  C6  OXE d   1       5.400  -5.937  -4.684  0.00  0.00     0.003 A 
ENDROOT
TORSDOF 0
ENDMDL
