MODEL 1
REMARK minimizedAffinity -2.85162115
REMARK minimizedRMSD -1
REMARK  0 active torsions:
REMARK  status: ('A' for Active; 'I' for Inactive)
ROOT
ATOM      1  C2' OXE d   1       1.740  -5.993  -4.255  0.00  0.00     0.078 C 
ATOM      2  C1' OXE d   1       3.476  -5.917  -2.050  0.00  0.00     0.078 C 
ATOM      3  C1  OXE d   1       4.073  -5.724  -3.422  0.00  0.00    -0.078 A 
ATOM      4  C2  OXE d   1       3.223  -5.809  -4.498  0.00  0.00    -0.078 A 
ATOM      5  C3  OXE d   1       3.711  -5.584  -5.782  0.00  0.00     0.003 A 
ATOM      6  C4  OXE d   1       5.085  -5.425  -6.000  0.00  0.00    -0.002 A 
ATOM      7  C5  OXE d   1       5.974  -5.374  -4.920  0.00  0.00    -0.002 A 
ATOM      8  C6  OXE d   1       5.479  -5.480  -3.625  0.00  0.00     0.003 A 
ENDROOT
TORSDOF 0
ENDMDL
