MODEL 1
REMARK minimizedAffinity 1.5570209
REMARK minimizedRMSD -1
REMARK  0 active torsions:
REMARK  status: ('A' for Active; 'I' for Inactive)
ROOT
ATOM      1  C2' OXE d   1      -5.990   2.141  -4.896  0.00  0.00     0.078 C 
ATOM      2  C1' OXE d   1      -5.931   4.724  -5.995  0.00  0.00     0.078 C 
ATOM      3  C1  OXE d   1      -4.612   4.052  -5.704  0.00  0.00    -0.078 A 
ATOM      4  C2  OXE d   1      -4.650   2.808  -5.123  0.00  0.00    -0.078 A 
ATOM      5  C3  OXE d   1      -3.463   2.121  -4.884  0.00  0.00     0.003 A 
ATOM      6  C4  OXE d   1      -2.228   2.749  -5.088  0.00  0.00    -0.002 A 
ATOM      7  C5  OXE d   1      -2.167   4.032  -5.642  0.00  0.00    -0.002 A 
ATOM      8  C6  OXE d   1      -3.346   4.679  -5.995  0.00  0.00     0.003 A 
ENDROOT
TORSDOF 0
ENDMDL
