MODEL 1
REMARK minimizedAffinity 0.349674255
REMARK minimizedRMSD -1
REMARK  0 active torsions:
REMARK  status: ('A' for Active; 'I' for Inactive)
ROOT
ATOM      1  C2' OXE d   1       5.784  -4.609  -3.206  0.00  0.00     0.078 C 
ATOM      2  C1' OXE d   1       5.668  -4.360  -6.000  0.00  0.00     0.078 C 
ATOM      3  C1  OXE d   1       4.461  -4.924  -5.293  0.00  0.00    -0.078 A 
ATOM      4  C2  OXE d   1       4.545  -5.086  -3.931  0.00  0.00    -0.078 A 
ATOM      5  C3  OXE d   1       3.440  -5.551  -3.223  0.00  0.00     0.003 A 
ATOM      6  C4  OXE d   1       2.300  -6.000  -3.903  0.00  0.00    -0.002 A 
ATOM      7  C5  OXE d   1       2.210  -5.881  -5.294  0.00  0.00    -0.002 A 
ATOM      8  C6  OXE d   1       3.263  -5.307  -5.998  0.00  0.00     0.003 A 
ENDROOT
TORSDOF 0
ENDMDL
