MODEL 1
REMARK minimizedAffinity -0.211519152
REMARK minimizedRMSD -1
REMARK  0 active torsions:
REMARK  status: ('A' for Active; 'I' for Inactive)
ROOT
ATOM      1  C2' OXE d   1      -6.000   2.000  -5.814  0.00  0.00     0.078 C 
ATOM      2  C1' OXE d   1      -5.776   4.799  -5.822  0.00  0.00     0.078 C 
ATOM      3  C1  OXE d   1      -4.504   3.991  -5.898  0.00  0.00    -0.078 A 
ATOM      4  C2  OXE d   1      -4.620   2.623  -5.846  0.00  0.00    -0.078 A 
ATOM      5  C3  OXE d   1      -3.483   1.829  -5.968  0.00  0.00     0.003 A 
ATOM      6  C4  OXE d   1      -2.210   2.413  -5.987  0.00  0.00    -0.002 A 
ATOM      7  C5  OXE d   1      -2.068   3.804  -6.000  0.00  0.00    -0.002 A 
ATOM      8  C6  OXE d   1      -3.204   4.606  -5.999  0.00  0.00     0.003 A 
ENDROOT
TORSDOF 0
ENDMDL
