MODEL 1
REMARK minimizedAffinity -4.07025146
REMARK minimizedRMSD -1
REMARK  0 active torsions:
REMARK  status: ('A' for Active; 'I' for Inactive)
ROOT
ATOM      1  C2' OXE d   1       2.207  -6.000  -5.608  0.00  0.00     0.078 C 
ATOM      2  C1' OXE d   1       2.224  -5.434  -2.859  0.00  0.00     0.078 C 
ATOM      3  C1  OXE d   1       3.554  -5.552  -3.561  0.00  0.00    -0.078 A 
ATOM      4  C2  OXE d   1       3.537  -5.875  -4.897  0.00  0.00    -0.078 A 
ATOM      5  C3  OXE d   1       4.733  -5.942  -5.605  0.00  0.00     0.003 A 
ATOM      6  C4  OXE d   1       5.959  -5.836  -4.937  0.00  0.00    -0.002 A 
ATOM      7  C5  OXE d   1       6.000  -5.546  -3.569  0.00  0.00    -0.002 A 
ATOM      8  C6  OXE d   1       4.808  -5.359  -2.877  0.00  0.00     0.003 A 
ENDROOT
TORSDOF 0
ENDMDL
