MODEL 1
REMARK minimizedAffinity -2.43727827
REMARK minimizedRMSD -1
REMARK  0 active torsions:
REMARK  status: ('A' for Active; 'I' for Inactive)
ROOT
ATOM      1  C2' OXE d   1       3.101  -5.193  -1.905  0.00  0.00     0.078 C 
ATOM      2  C1' OXE d   1       5.827  -5.250  -2.573  0.00  0.00     0.078 C 
ATOM      3  C1  OXE d   1       4.827  -5.491  -3.676  0.00  0.00    -0.078 A 
ATOM      4  C2  OXE d   1       3.497  -5.508  -3.332  0.00  0.00    -0.078 A 
ATOM      5  C3  OXE d   1       2.530  -5.671  -4.320  0.00  0.00     0.003 A 
ATOM      6  C4  OXE d   1       2.905  -5.972  -5.635  0.00  0.00    -0.002 A 
ATOM      7  C5  OXE d   1       4.256  -5.999  -6.000  0.00  0.00    -0.002 A 
ATOM      8  C6  OXE d   1       5.226  -5.719  -5.043  0.00  0.00     0.003 A 
ENDROOT
TORSDOF 0
ENDMDL
