MODEL 1
REMARK minimizedAffinity 0.0140218269
REMARK minimizedRMSD -1
REMARK  0 active torsions:
REMARK  status: ('A' for Active; 'I' for Inactive)
ROOT
ATOM      1  C2' OXE d   1      -1.016   3.537   3.194  0.00  0.00     0.078 C 
ATOM      2  C1' OXE d   1      -2.238   2.072   1.134  0.00  0.00     0.078 C 
ATOM      3  C1  OXE d   1      -0.732   2.039   1.224  0.00  0.00    -0.078 A 
ATOM      4  C2  OXE d   1      -0.141   2.796   2.207  0.00  0.00    -0.078 A 
ATOM      5  C3  OXE d   1       1.241   2.757   2.368  0.00  0.00     0.003 A 
ATOM      6  C4  OXE d   1       2.044   2.077   1.445  0.00  0.00    -0.002 A 
ATOM      7  C5  OXE d   1       1.464   1.332   0.413  0.00  0.00    -0.002 A 
ATOM      8  C6  OXE d   1       0.079   1.268   0.314  0.00  0.00     0.003 A 
ENDROOT
TORSDOF 0
ENDMDL
