MODEL 1
REMARK minimizedAffinity 1.0719614
REMARK minimizedRMSD -1
REMARK  0 active torsions:
REMARK  status: ('A' for Active; 'I' for Inactive)
ROOT
ATOM      1  C2' OXE d   1      -6.000   2.231  -5.019  0.00  0.00     0.078 C 
ATOM      2  C1' OXE d   1      -5.751   4.859  -5.975  0.00  0.00     0.078 C 
ATOM      3  C1  OXE d   1      -4.485   4.076  -5.733  0.00  0.00    -0.078 A 
ATOM      4  C2  OXE d   1      -4.615   2.807  -5.221  0.00  0.00    -0.078 A 
ATOM      5  C3  OXE d   1      -3.482   2.021  -5.031  0.00  0.00     0.003 A 
ATOM      6  C4  OXE d   1      -2.204   2.565  -5.210  0.00  0.00    -0.002 A 
ATOM      7  C5  OXE d   1      -2.049   3.869  -5.694  0.00  0.00    -0.002 A 
ATOM      8  C6  OXE d   1      -3.177   4.621  -6.000  0.00  0.00     0.003 A 
ENDROOT
TORSDOF 0
ENDMDL
