MODEL 1
REMARK minimizedAffinity 2.1589694
REMARK minimizedRMSD -1
REMARK  0 active torsions:
REMARK  status: ('A' for Active; 'I' for Inactive)
ROOT
ATOM      1  C2' OXE d   1       1.437   3.500   2.837  0.00  0.00     0.078 C 
ATOM      2  C1' OXE d   1      -0.482   2.374   1.125  0.00  0.00     0.078 C 
ATOM      3  C1  OXE d   1       0.969   2.050   0.867  0.00  0.00    -0.078 A 
ATOM      4  C2  OXE d   1       1.904   2.643   1.680  0.00  0.00    -0.078 A 
ATOM      5  C3  OXE d   1       3.252   2.336   1.519  0.00  0.00     0.003 A 
ATOM      6  C4  OXE d   1       3.676   1.551   0.441  0.00  0.00    -0.002 A 
ATOM      7  C5  OXE d   1       2.743   0.969  -0.424  0.00  0.00    -0.002 A 
ATOM      8  C6  OXE d   1       1.386   1.174  -0.200  0.00  0.00     0.003 A 
ENDROOT
TORSDOF 0
ENDMDL
