MODEL 1
REMARK minimizedAffinity -1.16618574
REMARK minimizedRMSD -1
REMARK  0 active torsions:
REMARK  status: ('A' for Active; 'I' for Inactive)
ROOT
ATOM      1  C2' OXE d   1      -3.643   1.837  -4.878  0.00  0.00     0.078 C 
ATOM      2  C1' OXE d   1      -2.469   4.127  -5.999  0.00  0.00     0.078 C 
ATOM      3  C1  OXE d   1      -1.553   3.019  -5.542  0.00  0.00    -0.078 A 
ATOM      4  C2  OXE d   1      -2.134   1.922  -4.952  0.00  0.00    -0.078 A 
ATOM      5  C3  OXE d   1      -1.339   0.847  -4.562  0.00  0.00     0.003 A 
ATOM      6  C4  OXE d   1       0.056   0.939  -4.625  0.00  0.00    -0.002 A 
ATOM      7  C5  OXE d   1       0.670   2.064  -5.186  0.00  0.00    -0.002 A 
ATOM      8  C6  OXE d   1      -0.121   3.092  -5.687  0.00  0.00     0.003 A 
ENDROOT
TORSDOF 0
ENDMDL
