MODEL 1
REMARK minimizedAffinity 2.73700333
REMARK minimizedRMSD -1
REMARK  0 active torsions:
REMARK  status: ('A' for Active; 'I' for Inactive)
ROOT
ATOM      1  C   UNL d   1       0.985  -3.650  -0.685  0.00  0.00     0.172 C 
ATOM      2  N   UNL d   1       0.791  -2.353  -0.081  0.00  0.00    -0.070 N 
ATOM      3  C1  UNL d   1       1.760  -1.402   0.097  0.00  0.00    -0.004 A 
ATOM      4  C2  UNL d   1       1.176  -0.312   0.705  0.00  0.00    -0.047 A 
ATOM      5  C3  UNL d   1      -0.192  -0.619   0.899  0.00  0.00    -0.047 A 
ATOM      6  C4  UNL d   1      -0.403  -1.888   0.403  0.00  0.00    -0.004 A 
ENDROOT
TORSDOF 0
ENDMDL
