MODEL 1
REMARK minimizedAffinity 2.02182627
REMARK minimizedRMSD -1
REMARK  0 active torsions:
REMARK  status: ('A' for Active; 'I' for Inactive)
ROOT
ATOM      1  C   UNL d   1       2.939  -0.916   1.043  0.00  0.00     0.172 C 
ATOM      2  N   UNL d   1       1.725  -1.618   0.697  0.00  0.00    -0.070 N 
ATOM      3  C1  UNL d   1       0.469  -1.311   1.149  0.00  0.00    -0.004 A 
ATOM      4  C2  UNL d   1      -0.411  -2.212   0.590  0.00  0.00    -0.047 A 
ATOM      5  C3  UNL d   1       0.341  -3.091  -0.224  0.00  0.00    -0.047 A 
ATOM      6  C4  UNL d   1       1.661  -2.700  -0.140  0.00  0.00    -0.004 A 
ENDROOT
TORSDOF 0
ENDMDL
