MODEL 1
REMARK minimizedAffinity 0.736849725
REMARK minimizedRMSD -1
REMARK  0 active torsions:
REMARK  status: ('A' for Active; 'I' for Inactive)
ROOT
ATOM      1  C   UNL d   1       2.363  -0.433   1.130  0.00  0.00     0.172 C 
ATOM      2  N   UNL d   1       1.164  -1.216   0.941  0.00  0.00    -0.070 N 
ATOM      3  C1  UNL d   1      -0.117  -0.774   1.134  0.00  0.00    -0.004 A 
ATOM      4  C2  UNL d   1      -0.971  -1.818   0.849  0.00  0.00    -0.047 A 
ATOM      5  C3  UNL d   1      -0.175  -2.926   0.474  0.00  0.00    -0.047 A 
ATOM      6  C4  UNL d   1       1.143  -2.526   0.539  0.00  0.00    -0.004 A 
ENDROOT
TORSDOF 0
ENDMDL
