MODEL 1
REMARK minimizedAffinity -2.28300524
REMARK minimizedRMSD -1
REMARK  0 active torsions:
REMARK  status: ('A' for Active; 'I' for Inactive)
ROOT
ATOM      1  C   UNL d   1       2.574  -0.436   0.652  0.00  0.00     0.172 C 
ATOM      2  N   UNL d   1       1.502  -1.352   0.342  0.00  0.00    -0.070 N 
ATOM      3  C1  UNL d   1       1.621  -2.499  -0.397  0.00  0.00    -0.004 A 
ATOM      4  C2  UNL d   1       0.377  -3.089  -0.462  0.00  0.00    -0.047 A 
ATOM      5  C3  UNL d   1      -0.520  -2.269   0.262  0.00  0.00    -0.047 A 
ATOM      6  C4  UNL d   1       0.203  -1.200   0.749  0.00  0.00    -0.004 A 
ENDROOT
TORSDOF 0
ENDMDL
