MODEL 1
REMARK minimizedAffinity -0.14083384
REMARK minimizedRMSD -1
REMARK  0 active torsions:
REMARK  status: ('A' for Active; 'I' for Inactive)
ROOT
ATOM      1  C   UNL d   1       1.799  -3.317  -0.361  0.00  0.00     0.172 C 
ATOM      2  N   UNL d   1       0.701  -2.599   0.243  0.00  0.00    -0.070 N 
ATOM      3  C1  UNL d   1       0.800  -1.726   1.293  0.00  0.00    -0.004 A 
ATOM      4  C2  UNL d   1      -0.465  -1.254   1.570  0.00  0.00    -0.047 A 
ATOM      5  C3  UNL d   1      -1.355  -1.865   0.654  0.00  0.00    -0.047 A 
ATOM      6  C4  UNL d   1      -0.607  -2.693  -0.155  0.00  0.00    -0.004 A 
ENDROOT
TORSDOF 0
ENDMDL
