MODEL 1
REMARK minimizedAffinity -4.03565454
REMARK minimizedRMSD -1
REMARK  0 active torsions:
REMARK  status: ('A' for Active; 'I' for Inactive)
ROOT
ATOM      1  C   UNL d   1      -1.076  -3.257   0.365  0.00  0.00     0.172 C 
ATOM      2  N   UNL d   1      -0.102  -2.191   0.343  0.00  0.00    -0.070 N 
ATOM      3  C1  UNL d   1       1.147  -2.263  -0.212  0.00  0.00    -0.004 A 
ATOM      4  C2  UNL d   1       1.762  -1.044  -0.027  0.00  0.00    -0.047 A 
ATOM      5  C3  UNL d   1       0.850  -0.210   0.664  0.00  0.00    -0.047 A 
ATOM      6  C4  UNL d   1      -0.296  -0.946   0.880  0.00  0.00    -0.004 A 
ENDROOT
TORSDOF 0
ENDMDL
