MODEL 1
REMARK minimizedAffinity -3.1378088
REMARK minimizedRMSD -1
REMARK  0 active torsions:
REMARK  status: ('A' for Active; 'I' for Inactive)
ROOT
ATOM      1  C   UNL d   1       1.887  -2.747   0.350  0.00  0.00     0.172 C 
ATOM      2  N   UNL d   1       0.704  -1.923   0.437  0.00  0.00    -0.070 N 
ATOM      3  C1  UNL d   1      -0.524  -2.233  -0.082  0.00  0.00    -0.004 A 
ATOM      4  C2  UNL d   1      -1.381  -1.195   0.213  0.00  0.00    -0.047 A 
ATOM      5  C3  UNL d   1      -0.642  -0.227   0.933  0.00  0.00    -0.047 A 
ATOM      6  C4  UNL d   1       0.646  -0.703   1.057  0.00  0.00    -0.004 A 
ENDROOT
TORSDOF 0
ENDMDL
