MODEL 1
REMARK minimizedAffinity -2.30858636
REMARK minimizedRMSD -1
REMARK  0 active torsions:
REMARK  status: ('A' for Active; 'I' for Inactive)
ROOT
ATOM      1  C   UNL d   1      -5.848  -4.414   2.397  0.00  0.00     0.172 C 
ATOM      2  N   UNL d   1      -5.747  -4.488   3.835  0.00  0.00    -0.070 N 
ATOM      3  C1  UNL d   1      -5.429  -5.608   4.556  0.00  0.00    -0.004 A 
ATOM      4  C2  UNL d   1      -5.437  -5.267   5.892  0.00  0.00    -0.047 A 
ATOM      5  C3  UNL d   1      -5.772  -3.895   5.976  0.00  0.00    -0.047 A 
ATOM      6  C4  UNL d   1      -5.959  -3.437   4.689  0.00  0.00    -0.004 A 
ENDROOT
TORSDOF 0
ENDMDL
