MODEL 1
REMARK minimizedAffinity -1.25201094
REMARK minimizedRMSD -1
REMARK  0 active torsions:
REMARK  status: ('A' for Active; 'I' for Inactive)
ROOT
ATOM      1  C   UNL d   1      -4.736  -1.989   4.481  0.00  0.00     0.172 C 
ATOM      2  N   UNL d   1      -4.978  -3.059   3.541  0.00  0.00    -0.070 N 
ATOM      3  C1  UNL d   1      -4.885  -2.961   2.178  0.00  0.00    -0.004 A 
ATOM      4  C2  UNL d   1      -5.190  -4.194   1.645  0.00  0.00    -0.047 A 
ATOM      5  C3  UNL d   1      -5.477  -5.063   2.724  0.00  0.00    -0.047 A 
ATOM      6  C4  UNL d   1      -5.339  -4.335   3.886  0.00  0.00    -0.004 A 
ENDROOT
TORSDOF 0
ENDMDL
