MODEL 1
REMARK minimizedAffinity -1.07999969
REMARK minimizedRMSD -1
REMARK  0 active torsions:
REMARK  status: ('A' for Active; 'I' for Inactive)
ROOT
ATOM      1  C   UNL d   1      -0.365  -0.555   1.012  0.00  0.00     0.172 C 
ATOM      2  N   UNL d   1       0.239  -1.677   0.334  0.00  0.00    -0.070 N 
ATOM      3  C1  UNL d   1      -0.149  -2.985   0.453  0.00  0.00    -0.004 A 
ATOM      4  C2  UNL d   1       0.673  -3.745  -0.351  0.00  0.00    -0.047 A 
ATOM      5  C3  UNL d   1       1.588  -2.863  -0.974  0.00  0.00    -0.047 A 
ATOM      6  C4  UNL d   1       1.296  -1.589  -0.533  0.00  0.00    -0.004 A 
ENDROOT
TORSDOF 0
ENDMDL
