MODEL 1
REMARK minimizedAffinity -1.04251599
REMARK minimizedRMSD -1
REMARK  0 active torsions:
REMARK  status: ('A' for Active; 'I' for Inactive)
ROOT
ATOM      1  C   UNL d   1      -1.188  -1.733   1.554  0.00  0.00     0.172 C 
ATOM      2  N   UNL d   1      -1.462  -0.485   2.226  0.00  0.00    -0.070 N 
ATOM      3  C1  UNL d   1      -1.697   0.717   1.614  0.00  0.00    -0.004 A 
ATOM      4  C2  UNL d   1      -1.915   1.657   2.598  0.00  0.00    -0.047 A 
ATOM      5  C3  UNL d   1      -1.807   0.997   3.845  0.00  0.00    -0.047 A 
ATOM      6  C4  UNL d   1      -1.526  -0.328   3.585  0.00  0.00    -0.004 A 
ENDROOT
TORSDOF 0
ENDMDL
