MODEL 1
REMARK minimizedAffinity 2.73431396
REMARK minimizedRMSD -1
REMARK  0 active torsions:
REMARK  status: ('A' for Active; 'I' for Inactive)
ROOT
ATOM      1  C   UNL d   1       2.378  -3.612  -0.104  0.00  0.00     0.172 C 
ATOM      2  N   UNL d   1       1.258  -2.741   0.165  0.00  0.00    -0.070 N 
ATOM      3  C1  UNL d   1       1.224  -1.753   1.113  0.00  0.00    -0.004 A 
ATOM      4  C2  UNL d   1      -0.015  -1.153   1.054  0.00  0.00    -0.047 A 
ATOM      5  C3  UNL d   1      -0.752  -1.804   0.036  0.00  0.00    -0.047 A 
ATOM      6  C4  UNL d   1       0.060  -2.782  -0.497  0.00  0.00    -0.004 A 
ENDROOT
TORSDOF 0
ENDMDL
