MODEL 1
REMARK minimizedAffinity -0.920466065
REMARK minimizedRMSD -1
REMARK  0 active torsions:
REMARK  status: ('A' for Active; 'I' for Inactive)
ROOT
ATOM      1  C   UNL d   1       0.678  -3.246  -0.333  0.00  0.00     0.172 C 
ATOM      2  N   UNL d   1       0.629  -1.925   0.249  0.00  0.00    -0.070 N 
ATOM      3  C1  UNL d   1      -0.498  -1.295   0.705  0.00  0.00    -0.004 A 
ATOM      4  C2  UNL d   1      -0.125  -0.057   1.183  0.00  0.00    -0.047 A 
ATOM      5  C3  UNL d   1       1.274   0.062   1.006  0.00  0.00    -0.047 A 
ATOM      6  C4  UNL d   1       1.715  -1.109   0.426  0.00  0.00    -0.004 A 
ENDROOT
TORSDOF 0
ENDMDL
