MODEL 1
REMARK minimizedAffinity 2.04966474
REMARK minimizedRMSD -1
REMARK  0 active torsions:
REMARK  status: ('A' for Active; 'I' for Inactive)
ROOT
ATOM      1  C   UNL d   1       3.210  -4.150  -0.459  0.00  0.00     0.172 C 
ATOM      2  N   UNL d   1       1.929  -3.535  -0.203  0.00  0.00    -0.070 N 
ATOM      3  C1  UNL d   1       1.731  -2.252   0.234  0.00  0.00    -0.004 A 
ATOM      4  C2  UNL d   1       0.373  -2.051   0.354  0.00  0.00    -0.047 A 
ATOM      5  C3  UNL d   1      -0.268  -3.255  -0.022  0.00  0.00    -0.047 A 
ATOM      6  C4  UNL d   1       0.718  -4.157  -0.362  0.00  0.00    -0.004 A 
ENDROOT
TORSDOF 0
ENDMDL
