MODEL 1
REMARK minimizedAffinity -0.046985928
REMARK minimizedRMSD -1
REMARK  0 active torsions:
REMARK  status: ('A' for Active; 'I' for Inactive)
ROOT
ATOM      1  C   UNL d   1       1.112  -3.416  -0.094  0.00  0.00     0.172 C 
ATOM      2  N   UNL d   1       0.659  -2.120   0.355  0.00  0.00    -0.070 N 
ATOM      3  C1  UNL d   1      -0.648  -1.726   0.469  0.00  0.00    -0.004 A 
ATOM      4  C2  UNL d   1      -0.659  -0.427   0.927  0.00  0.00    -0.047 A 
ATOM      5  C3  UNL d   1       0.687  -0.025   1.093  0.00  0.00    -0.047 A 
ATOM      6  C4  UNL d   1       1.482  -1.092   0.732  0.00  0.00    -0.004 A 
ENDROOT
TORSDOF 0
ENDMDL
