MODEL 1
REMARK minimizedAffinity -2.28518367
REMARK minimizedRMSD -1
REMARK  0 active torsions:
REMARK  status: ('A' for Active; 'I' for Inactive)
ROOT
ATOM      1  C   UNL d   1      -1.737  -2.337   0.450  0.00  0.00     0.172 C 
ATOM      2  N   UNL d   1      -2.085  -1.027   0.948  0.00  0.00    -0.070 N 
ATOM      3  C1  UNL d   1      -1.474  -0.379   1.988  0.00  0.00    -0.004 A 
ATOM      4  C2  UNL d   1      -2.095   0.840   2.149  0.00  0.00    -0.047 A 
ATOM      5  C3  UNL d   1      -3.116   0.928   1.174  0.00  0.00    -0.047 A 
ATOM      6  C4  UNL d   1      -3.088  -0.241   0.443  0.00  0.00    -0.004 A 
ENDROOT
TORSDOF 0
ENDMDL
