MODEL 1
REMARK minimizedAffinity 2.18923569
REMARK minimizedRMSD -1
REMARK  0 active torsions:
REMARK  status: ('A' for Active; 'I' for Inactive)
ROOT
ATOM      1  C   UNL d   1       3.040  -1.452   0.799  0.00  0.00     0.172 C 
ATOM      2  N   UNL d   1       1.664  -1.876   0.687  0.00  0.00    -0.070 N 
ATOM      3  C1  UNL d   1       1.216  -2.950  -0.035  0.00  0.00    -0.004 A 
ATOM      4  C2  UNL d   1      -0.153  -3.018   0.115  0.00  0.00    -0.047 A 
ATOM      5  C3  UNL d   1      -0.540  -1.947   0.955  0.00  0.00    -0.047 A 
ATOM      6  C4  UNL d   1       0.604  -1.257   1.295  0.00  0.00    -0.004 A 
ENDROOT
TORSDOF 0
ENDMDL
