MODEL 1
REMARK minimizedAffinity 4.4549222
REMARK minimizedRMSD -1
REMARK  0 active torsions:
REMARK  status: ('A' for Active; 'I' for Inactive)
ROOT
ATOM      1  C   UNL d   1       3.915   4.335  -0.890  0.00  0.00     0.172 C 
ATOM      2  N   UNL d   1       3.608   3.211  -1.743  0.00  0.00    -0.070 N 
ATOM      3  C1  UNL d   1       4.351   2.066  -1.853  0.00  0.00    -0.004 A 
ATOM      4  C2  UNL d   1       3.727   1.243  -2.766  0.00  0.00    -0.047 A 
ATOM      5  C3  UNL d   1       2.569   1.918  -3.221  0.00  0.00    -0.047 A 
ATOM      6  C4  UNL d   1       2.520   3.133  -2.572  0.00  0.00    -0.004 A 
ENDROOT
TORSDOF 0
ENDMDL
