MODEL 1
REMARK minimizedAffinity -2.26654458
REMARK minimizedRMSD -1
REMARK  0 active torsions:
REMARK  status: ('A' for Active; 'I' for Inactive)
ROOT
ATOM      1  C2' OXE d   1      -1.513   0.390   1.915  0.00  0.00     0.078 C 
ATOM      2  C1' OXE d   1      -2.250  -0.495  -0.645  0.00  0.00     0.078 C 
ATOM      3  C1  OXE d   1      -0.809  -0.111  -0.421  0.00  0.00    -0.078 A 
ATOM      4  C2  OXE d   1      -0.467   0.365   0.822  0.00  0.00    -0.078 A 
ATOM      5  C3  OXE d   1       0.860   0.682   1.098  0.00  0.00     0.003 A 
ATOM      6  C4  OXE d   1       1.819   0.666   0.078  0.00  0.00    -0.002 A 
ATOM      7  C5  OXE d   1       1.484   0.222  -1.205  0.00  0.00    -0.002 A 
ATOM      8  C6  OXE d   1       0.187  -0.210  -1.460  0.00  0.00     0.003 A 
ENDROOT
TORSDOF 0
ENDMDL
