MODEL 1
REMARK minimizedAffinity -2.36095238
REMARK minimizedRMSD -1
REMARK  0 active torsions:
REMARK  status: ('A' for Active; 'I' for Inactive)
ROOT
ATOM      1  C2' OXE d   1      -1.657  -0.510   0.094  0.00  0.00     0.078 C 
ATOM      2  C1' OXE d   1       0.977  -1.380   0.520  0.00  0.00     0.078 C 
ATOM      3  C1  OXE d   1       0.176  -0.950   1.722  0.00  0.00    -0.078 A 
ATOM      4  C2  OXE d   1      -1.097  -0.481   1.500  0.00  0.00    -0.078 A 
ATOM      5  C3  OXE d   1      -1.898  -0.122   2.580  0.00  0.00     0.003 A 
ATOM      6  C4  OXE d   1      -1.368  -0.089   3.875  0.00  0.00    -0.002 A 
ATOM      7  C5  OXE d   1      -0.062  -0.524   4.119  0.00  0.00    -0.002 A 
ATOM      8  C6  OXE d   1       0.708  -0.997   3.062  0.00  0.00     0.003 A 
ENDROOT
TORSDOF 0
ENDMDL
