MODEL 1
REMARK minimizedAffinity -3.76465154
REMARK minimizedRMSD -1
REMARK  0 active torsions:
REMARK  status: ('A' for Active; 'I' for Inactive)
ROOT
ATOM      1  C2' OXE d   1      -2.051  -0.387   3.208  0.00  0.00     0.078 C 
ATOM      2  C1' OXE d   1       0.598  -1.068   2.577  0.00  0.00     0.078 C 
ATOM      3  C1  OXE d   1      -0.169  -0.234   1.582  0.00  0.00    -0.078 A 
ATOM      4  C2  OXE d   1      -1.480   0.055   1.878  0.00  0.00    -0.078 A 
ATOM      5  C3  OXE d   1      -2.217   0.867   1.021  0.00  0.00     0.003 A 
ATOM      6  C4  OXE d   1      -1.685   1.264  -0.212  0.00  0.00    -0.002 A 
ATOM      7  C5  OXE d   1      -0.365   0.946  -0.551  0.00  0.00    -0.002 A 
ATOM      8  C6  OXE d   1       0.418   0.236   0.352  0.00  0.00     0.003 A 
ENDROOT
TORSDOF 0
ENDMDL
