MODEL 1
REMARK minimizedAffinity -0.585511684
REMARK minimizedRMSD -1
REMARK  0 active torsions:
REMARK  status: ('A' for Active; 'I' for Inactive)
ROOT
ATOM      1  C2' OXE d   1       0.914  -0.986   0.824  0.00  0.00     0.078 C 
ATOM      2  C1' OXE d   1      -0.124  -0.864   3.429  0.00  0.00     0.078 C 
ATOM      3  C1  OXE d   1      -0.959  -0.290   2.311  0.00  0.00    -0.078 A 
ATOM      4  C2  OXE d   1      -0.423  -0.313   1.046  0.00  0.00    -0.078 A 
ATOM      5  C3  OXE d   1      -1.174   0.154  -0.029  0.00  0.00     0.003 A 
ATOM      6  C4  OXE d   1      -2.405   0.784   0.186  0.00  0.00    -0.002 A 
ATOM      7  C5  OXE d   1      -2.952   0.853   1.472  0.00  0.00    -0.002 A 
ATOM      8  C6  OXE d   1      -2.263   0.284   2.537  0.00  0.00     0.003 A 
ENDROOT
TORSDOF 0
ENDMDL
