MODEL 1
REMARK minimizedAffinity -0.226303622
REMARK minimizedRMSD -1
REMARK  0 active torsions:
REMARK  status: ('A' for Active; 'I' for Inactive)
ROOT
ATOM      1  C2' OXE d   1       1.216  -1.321   0.400  0.00  0.00     0.078 C 
ATOM      2  C1' OXE d   1       1.010   1.392   1.093  0.00  0.00     0.078 C 
ATOM      3  C1  OXE d   1      -0.254   0.667   0.705  0.00  0.00    -0.078 A 
ATOM      4  C2  OXE d   1      -0.138  -0.647   0.321  0.00  0.00    -0.078 A 
ATOM      5  C3  OXE d   1      -1.280  -1.377   0.006  0.00  0.00     0.003 A 
ATOM      6  C4  OXE d   1      -2.526  -0.744  -0.074  0.00  0.00    -0.002 A 
ATOM      7  C5  OXE d   1      -2.661   0.604   0.274  0.00  0.00    -0.002 A 
ATOM      8  C6  OXE d   1      -1.544   1.312   0.705  0.00  0.00     0.003 A 
ENDROOT
TORSDOF 0
ENDMDL
