MODEL 1
REMARK minimizedAffinity 2.60227609
REMARK minimizedRMSD -1
REMARK  0 active torsions:
REMARK  status: ('A' for Active; 'I' for Inactive)
ROOT
ATOM      1  C2' OXE d   1      -3.126   0.123   0.034  0.00  0.00     0.078 C 
ATOM      2  C1' OXE d   1      -2.452   0.046   2.758  0.00  0.00     0.078 C 
ATOM      3  C1  OXE d   1      -1.354  -0.202   1.755  0.00  0.00    -0.078 A 
ATOM      4  C2  OXE d   1      -1.702  -0.208   0.425  0.00  0.00    -0.078 A 
ATOM      5  C3  OXE d   1      -0.717  -0.377  -0.544  0.00  0.00     0.003 A 
ATOM      6  C4  OXE d   1       0.596  -0.693  -0.173  0.00  0.00    -0.002 A 
ATOM      7  C5  OXE d   1       0.963  -0.731   1.176  0.00  0.00    -0.002 A 
ATOM      8  C6  OXE d   1       0.012  -0.446   2.149  0.00  0.00     0.003 A 
ENDROOT
TORSDOF 0
ENDMDL
