MODEL 1
REMARK minimizedAffinity -1.45004761
REMARK minimizedRMSD -1
REMARK  0 active torsions:
REMARK  status: ('A' for Active; 'I' for Inactive)
ROOT
ATOM      1  C2' OXE d   1       1.020  -0.647   0.026  0.00  0.00     0.078 C 
ATOM      2  C1' OXE d   1      -1.678   0.123  -0.056  0.00  0.00     0.078 C 
ATOM      3  C1  OXE d   1      -1.076  -0.190   1.291  0.00  0.00    -0.078 A 
ATOM      4  C2  OXE d   1       0.232  -0.610   1.317  0.00  0.00    -0.078 A 
ATOM      5  C3  OXE d   1       0.852  -0.859   2.538  0.00  0.00     0.003 A 
ATOM      6  C4  OXE d   1       0.112  -0.833   3.727  0.00  0.00    -0.002 A 
ATOM      7  C5  OXE d   1      -1.232  -0.445   3.719  0.00  0.00    -0.002 A 
ATOM      8  C6  OXE d   1      -1.828  -0.080   2.517  0.00  0.00     0.003 A 
ENDROOT
TORSDOF 0
ENDMDL
