MODEL 1
REMARK minimizedAffinity -0.0454519875
REMARK minimizedRMSD -1
REMARK  0 active torsions:
REMARK  status: ('A' for Active; 'I' for Inactive)
ROOT
ATOM      1  C2' OXE d   1      -1.880  -0.016  -0.114  0.00  0.00     0.078 C 
ATOM      2  C1' OXE d   1       0.715  -1.019   0.258  0.00  0.00     0.078 C 
ATOM      3  C1  OXE d   1      -0.060  -0.602   1.482  0.00  0.00    -0.078 A 
ATOM      4  C2  OXE d   1      -1.311  -0.068   1.287  0.00  0.00    -0.078 A 
ATOM      5  C3  OXE d   1      -2.090   0.282   2.386  0.00  0.00     0.003 A 
ATOM      6  C4  OXE d   1      -1.552   0.240   3.678  0.00  0.00    -0.002 A 
ATOM      7  C5  OXE d   1      -0.265  -0.262   3.896  0.00  0.00    -0.002 A 
ATOM      8  C6  OXE d   1       0.477  -0.726   2.815  0.00  0.00     0.003 A 
ENDROOT
TORSDOF 0
ENDMDL
