MODEL 1
REMARK minimizedAffinity -0.518109083
REMARK minimizedRMSD -1
REMARK  0 active torsions:
REMARK  status: ('A' for Active; 'I' for Inactive)
ROOT
ATOM      1  C2' OXE d   1      -1.311  -0.183   2.524  0.00  0.00     0.078 C 
ATOM      2  C1' OXE d   1      -1.652  -0.337  -0.258  0.00  0.00     0.078 C 
ATOM      3  C1  OXE d   1      -0.251  -0.460   0.287  0.00  0.00    -0.078 A 
ATOM      4  C2  OXE d   1      -0.088  -0.336   1.646  0.00  0.00    -0.078 A 
ATOM      5  C3  OXE d   1       1.176  -0.496   2.206  0.00  0.00     0.003 A 
ATOM      6  C4  OXE d   1       2.303  -0.627   1.386  0.00  0.00    -0.002 A 
ATOM      7  C5  OXE d   1       2.164  -0.715  -0.004  0.00  0.00    -0.002 A 
ATOM      8  C6  OXE d   1       0.893  -0.676  -0.565  0.00  0.00     0.003 A 
ENDROOT
TORSDOF 0
ENDMDL
