MODEL 1
REMARK minimizedAffinity -3.45646834
REMARK minimizedRMSD -1
REMARK  1 active torsions:
REMARK  status: ('A' for Active; 'I' for Inactive)
REMARK    1  A    between atoms: C3_4  and  O_7 
ROOT
ATOM      1  C   UNL d   1       1.670  -0.522   0.874  0.00  0.00    -0.033 A 
ATOM      2  C1  UNL d   1       0.499  -0.099   0.244  0.00  0.00     0.039 A 
ATOM      3  C2  UNL d   1      -0.546   0.441   0.997  0.00  0.00    -0.080 A 
ATOM      4  C3  UNL d   1      -0.405   0.554   2.377  0.00  0.00     0.150 A 
ATOM      5  C4  UNL d   1       0.761   0.138   3.011  0.00  0.00    -0.007 A 
ATOM      6  C5  UNL d   1       1.802  -0.402   2.258  0.00  0.00     0.039 A 
ENDROOT
BRANCH   4   7
ATOM      7  O   UNL d   1      -1.399   1.070   3.155  0.00  0.00    -0.526 OA
ATOM      8  H5  UNL d   1      -2.154   1.288   2.584  0.00  0.00     0.418 HD
ENDBRANCH   4   7
TORSDOF 1
ENDMDL
