MODEL 1
REMARK minimizedAffinity -2.50888896
REMARK minimizedRMSD -1
REMARK  1 active torsions:
REMARK  status: ('A' for Active; 'I' for Inactive)
REMARK    1  A    between atoms: C3_4  and  O_7 
ROOT
ATOM      1  C   UNL d   1      -0.428  -0.346  -0.803  0.00  0.00    -0.033 A 
ATOM      2  C1  UNL d   1      -1.673  -0.007  -0.268  0.00  0.00     0.039 A 
ATOM      3  C2  UNL d   1      -1.784   0.339   1.081  0.00  0.00    -0.080 A 
ATOM      4  C3  UNL d   1      -0.645   0.342   1.881  0.00  0.00     0.150 A 
ATOM      5  C4  UNL d   1       0.598   0.010   1.354  0.00  0.00    -0.007 A 
ATOM      6  C5  UNL d   1       0.707  -0.336   0.008  0.00  0.00     0.039 A 
ENDROOT
BRANCH   4   7
ATOM      7  O   UNL d   1      -0.705   0.668   3.204  0.00  0.00    -0.526 OA
ATOM      8  H5  UNL d   1      -1.632   0.847   3.435  0.00  0.00     0.418 HD
ENDBRANCH   4   7
TORSDOF 1
ENDMDL
