MODEL 1
REMARK minimizedAffinity -1.83778465
REMARK minimizedRMSD -1
REMARK  1 active torsions:
REMARK  status: ('A' for Active; 'I' for Inactive)
REMARK    1  A    between atoms: C3_4  and  O_7 
ROOT
ATOM      1  C   UNL d   1      -1.148   0.430   0.898  0.00  0.00    -0.033 A 
ATOM      2  C1  UNL d   1      -1.232   0.379   2.291  0.00  0.00     0.039 A 
ATOM      3  C2  UNL d   1      -0.120  -0.001   3.045  0.00  0.00    -0.080 A 
ATOM      4  C3  UNL d   1       1.068  -0.326   2.396  0.00  0.00     0.150 A 
ATOM      5  C4  UNL d   1       1.159  -0.273   1.009  0.00  0.00    -0.007 A 
ATOM      6  C5  UNL d   1       0.048   0.106   0.257  0.00  0.00     0.039 A 
ENDROOT
BRANCH   4   7
ATOM      7  O   UNL d   1       2.178  -0.707   3.090  0.00  0.00    -0.526 OA
ATOM      8  H5  UNL d   1       1.958  -0.726   4.036  0.00  0.00     0.418 HD
ENDBRANCH   4   7
TORSDOF 1
ENDMDL
