MODEL 1
REMARK minimizedAffinity -5.30424643
REMARK minimizedRMSD -1
REMARK  1 active torsions:
REMARK  status: ('A' for Active; 'I' for Inactive)
REMARK    1  A    between atoms: C3_4  and  O_7 
ROOT
ATOM      1  C   UNL d   1      -1.262   0.916   1.601  0.00  0.00    -0.033 A 
ATOM      2  C1  UNL d   1      -0.534   0.450   0.504  0.00  0.00     0.039 A 
ATOM      3  C2  UNL d   1       0.680  -0.211   0.700  0.00  0.00    -0.080 A 
ATOM      4  C3  UNL d   1       1.154  -0.400   1.995  0.00  0.00     0.150 A 
ATOM      5  C4  UNL d   1       0.432   0.058   3.093  0.00  0.00    -0.007 A 
ATOM      6  C5  UNL d   1      -0.780   0.719   2.895  0.00  0.00     0.039 A 
ENDROOT
BRANCH   4   7
ATOM      7  O   UNL d   1       2.336  -1.035   2.236  0.00  0.00    -0.526 OA
ATOM      8  H5  UNL d   1       2.738  -1.270   1.384  0.00  0.00     0.418 HD
ENDBRANCH   4   7
TORSDOF 1
ENDMDL
