MODEL 1
REMARK minimizedAffinity -2.27406168
REMARK minimizedRMSD -1
REMARK  1 active torsions:
REMARK  status: ('A' for Active; 'I' for Inactive)
REMARK    1  A    between atoms: C3_4  and  O_7 
ROOT
ATOM      1  C   UNL d   1       1.497  -0.629   0.783  0.00  0.00    -0.033 A 
ATOM      2  C1  UNL d   1       0.326  -0.393   0.061  0.00  0.00     0.039 A 
ATOM      3  C2  UNL d   1      -0.855  -0.068   0.731  0.00  0.00    -0.080 A 
ATOM      4  C3  UNL d   1      -0.851   0.020   2.120  0.00  0.00     0.150 A 
ATOM      5  C4  UNL d   1       0.313  -0.210   2.845  0.00  0.00    -0.007 A 
ATOM      6  C5  UNL d   1       1.491  -0.536   2.175  0.00  0.00     0.039 A 
ENDROOT
BRANCH   4   7
ATOM      7  O   UNL d   1      -1.981   0.330   2.818  0.00  0.00    -0.526 OA
ATOM      8  H5  UNL d   1      -2.713   0.434   2.188  0.00  0.00     0.418 HD
ENDBRANCH   4   7
TORSDOF 1
ENDMDL
