MODEL 1
REMARK minimizedAffinity -1.46736276
REMARK minimizedRMSD -1
REMARK  1 active torsions:
REMARK  status: ('A' for Active; 'I' for Inactive)
REMARK    1  A    between atoms: C3_4  and  O_7 
ROOT
ATOM      1  C   UNL d   1      -1.198  -0.065   0.036  0.00  0.00    -0.033 A 
ATOM      2  C1  UNL d   1      -1.223   0.071   1.425  0.00  0.00     0.039 A 
ATOM      3  C2  UNL d   1      -0.076  -0.198   2.176  0.00  0.00    -0.080 A 
ATOM      4  C3  UNL d   1       1.087  -0.601   1.526  0.00  0.00     0.150 A 
ATOM      5  C4  UNL d   1       1.120  -0.735   0.141  0.00  0.00    -0.007 A 
ATOM      6  C5  UNL d   1      -0.026  -0.467  -0.606  0.00  0.00     0.039 A 
ENDROOT
BRANCH   4   7
ATOM      7  O   UNL d   1       2.229  -0.879   2.216  0.00  0.00    -0.526 OA
ATOM      8  H5  UNL d   1       2.049  -0.771   3.165  0.00  0.00     0.418 HD
ENDBRANCH   4   7
TORSDOF 1
ENDMDL
