MODEL 1
REMARK minimizedAffinity -4.87060833
REMARK minimizedRMSD -1
REMARK  1 active torsions:
REMARK  status: ('A' for Active; 'I' for Inactive)
REMARK    1  A    between atoms: C3_4  and  O_7 
ROOT
ATOM      1  C   UNL d   1      -1.061   1.345   2.192  0.00  0.00    -0.033 A 
ATOM      2  C1  UNL d   1      -0.349   1.337   3.393  0.00  0.00     0.039 A 
ATOM      3  C2  UNL d   1       0.812   0.570   3.513  0.00  0.00    -0.080 A 
ATOM      4  C3  UNL d   1       1.249  -0.183   2.427  0.00  0.00     0.150 A 
ATOM      5  C4  UNL d   1       0.547  -0.177   1.227  0.00  0.00    -0.007 A 
ATOM      6  C5  UNL d   1      -0.612   0.589   1.108  0.00  0.00     0.039 A 
ENDROOT
BRANCH   4   7
ATOM      7  O   UNL d   1       2.373  -0.951   2.499  0.00  0.00    -0.526 OA
ATOM      8  H5  UNL d   1       2.738  -0.879   3.397  0.00  0.00     0.418 HD
ENDBRANCH   4   7
TORSDOF 1
ENDMDL
