MODEL 1
REMARK minimizedAffinity -4.4630909
REMARK minimizedRMSD -1
REMARK  1 active torsions:
REMARK  status: ('A' for Active; 'I' for Inactive)
REMARK    1  A    between atoms: C3_4  and  O_7 
ROOT
ATOM      1  C   UNL d   1      -0.264  -1.029  -0.150  0.00  0.00    -0.033 A 
ATOM      2  C1  UNL d   1       0.814  -0.335   0.402  0.00  0.00     0.039 A 
ATOM      3  C2  UNL d   1       0.613   0.522   1.486  0.00  0.00    -0.080 A 
ATOM      4  C3  UNL d   1      -0.668   0.674   2.008  0.00  0.00     0.150 A 
ATOM      5  C4  UNL d   1      -1.746  -0.018   1.466  0.00  0.00    -0.007 A 
ATOM      6  C5  UNL d   1      -1.544  -0.872   0.382  0.00  0.00     0.039 A 
ENDROOT
BRANCH   4   7
ATOM      7  O   UNL d   1      -0.914   1.502   3.063  0.00  0.00    -0.526 OA
ATOM      8  H5  UNL d   1      -0.081   1.935   3.315  0.00  0.00     0.418 HD
ENDBRANCH   4   7
TORSDOF 1
ENDMDL
