MODEL 1
REMARK minimizedAffinity -3.74584532
REMARK minimizedRMSD -1
REMARK  1 active torsions:
REMARK  status: ('A' for Active; 'I' for Inactive)
REMARK    1  A    between atoms: C3_4  and  O_7 
ROOT
ATOM      1  C   UNL d   1       0.906   0.395   1.946  0.00  0.00    -0.033 A 
ATOM      2  C1  UNL d   1       0.471   1.038   0.785  0.00  0.00     0.039 A 
ATOM      3  C2  UNL d   1      -0.893   1.116   0.497  0.00  0.00    -0.080 A 
ATOM      4  C3  UNL d   1      -1.810   0.549   1.377  0.00  0.00     0.150 A 
ATOM      5  C4  UNL d   1      -1.384  -0.090   2.537  0.00  0.00    -0.007 A 
ATOM      6  C5  UNL d   1      -0.022  -0.168   2.822  0.00  0.00     0.039 A 
ENDROOT
BRANCH   4   7
ATOM      7  O   UNL d   1      -3.151   0.595   1.136  0.00  0.00    -0.526 OA
ATOM      8  H5  UNL d   1      -3.296   1.042   0.285  0.00  0.00     0.418 HD
ENDBRANCH   4   7
TORSDOF 1
ENDMDL
