MODEL 1
REMARK minimizedAffinity 6.9935317
REMARK minimizedRMSD -1
REMARK  1 active torsions:
REMARK  status: ('A' for Active; 'I' for Inactive)
REMARK    1  A    between atoms: C1_2  and  C2_3 
ROOT
ATOM      1  C2  UNL d   1       1.523   2.126   0.660  0.00  0.00    -0.073 A 
ATOM      2  C3  UNL d   1       1.854   0.876   0.124  0.00  0.00    -0.002 A 
ATOM      3  C4  UNL d   1       2.568  -0.051   0.884  0.00  0.00     0.004 A 
ATOM      4  C5  UNL d   1       2.952   0.258   2.189  0.00  0.00    -0.004 A 
ATOM      5  C6  UNL d   1       2.620   1.497   2.747  0.00  0.00    -0.075 A 
ATOM      6  C7  UNL d   1       3.027   1.846   4.149  0.00  0.00     0.076 C 
ATOM      7  C8  UNL d   1       1.905   2.424   1.976  0.00  0.00     0.001 A 
ENDROOT
BRANCH   1   8
ATOM      8  C1  UNL d   1       0.747   3.127  -0.155  0.00  0.00     0.053 C 
ATOM      9  C   UNL d   1      -0.738   2.802  -0.194  0.00  0.00     0.018 C 
ENDBRANCH   1   8
TORSDOF 1
ENDMDL
