MODEL 1
REMARK minimizedAffinity 0.509796798
REMARK minimizedRMSD -1
REMARK  1 active torsions:
REMARK  status: ('A' for Active; 'I' for Inactive)
REMARK    1  A    between atoms: C1_2  and  C2_3 
ROOT
ATOM      1  C2  UNL d   1       1.906  -0.689   2.822  0.00  0.00    -0.073 A 
ATOM      2  C3  UNL d   1       1.732  -0.518   1.444  0.00  0.00    -0.002 A 
ATOM      3  C4  UNL d   1       1.950   0.728   0.855  0.00  0.00     0.004 A 
ATOM      4  C5  UNL d   1       2.351   1.813   1.635  0.00  0.00    -0.004 A 
ATOM      5  C6  UNL d   1       2.541   1.659   3.012  0.00  0.00    -0.075 A 
ATOM      6  C7  UNL d   1       2.969   2.817   3.866  0.00  0.00     0.076 C 
ATOM      7  C8  UNL d   1       2.317   0.405   3.597  0.00  0.00     0.001 A 
ENDROOT
BRANCH   1   8
ATOM      8  C1  UNL d   1       1.678  -2.034   3.462  0.00  0.00     0.053 C 
ATOM      9  C   UNL d   1       2.962  -2.624   4.021  0.00  0.00     0.018 C 
ENDBRANCH   1   8
TORSDOF 1
ENDMDL
