MODEL 1
REMARK minimizedAffinity 6.84472847
REMARK minimizedRMSD -1
REMARK  1 active torsions:
REMARK  status: ('A' for Active; 'I' for Inactive)
REMARK    1  A    between atoms: C1_2  and  C2_3 
ROOT
ATOM      1  C2  UNL d   1       1.918   0.114   2.082  0.00  0.00    -0.073 A 
ATOM      2  C3  UNL d   1       2.364  -0.588   3.208  0.00  0.00    -0.002 A 
ATOM      3  C4  UNL d   1       1.774  -1.802   3.561  0.00  0.00     0.004 A 
ATOM      4  C5  UNL d   1       0.739  -2.330   2.790  0.00  0.00    -0.004 A 
ATOM      5  C6  UNL d   1       0.288  -1.650   1.654  0.00  0.00    -0.075 A 
ATOM      6  C7  UNL d   1      -0.826  -2.204   0.815  0.00  0.00     0.076 C 
ATOM      7  C8  UNL d   1       0.883  -0.430   1.307  0.00  0.00     0.001 A 
ENDROOT
BRANCH   1   8
ATOM      8  C1  UNL d   1       2.556   1.422   1.693  0.00  0.00     0.053 C 
ATOM      9  C   UNL d   1       2.705   2.359   2.881  0.00  0.00     0.018 C 
ENDBRANCH   1   8
TORSDOF 1
ENDMDL
