MODEL 1
REMARK minimizedAffinity 3.76151037
REMARK minimizedRMSD -1
REMARK  1 active torsions:
REMARK  status: ('A' for Active; 'I' for Inactive)
REMARK    1  A    between atoms: C1_2  and  C2_3 
ROOT
ATOM      1  C2  UNL d   1       1.736   0.630   1.421  0.00  0.00    -0.073 A 
ATOM      2  C3  UNL d   1       1.557   1.836   0.734  0.00  0.00    -0.002 A 
ATOM      3  C4  UNL d   1       0.466   2.007  -0.119  0.00  0.00     0.004 A 
ATOM      4  C5  UNL d   1      -0.460   0.977  -0.288  0.00  0.00    -0.004 A 
ATOM      5  C6  UNL d   1      -0.305  -0.231   0.399  0.00  0.00    -0.075 A 
ATOM      6  C7  UNL d   1      -1.291  -1.349   0.226  0.00  0.00     0.076 C 
ATOM      7  C8  UNL d   1       0.795  -0.396   1.251  0.00  0.00     0.001 A 
ENDROOT
BRANCH   1   8
ATOM      8  C1  UNL d   1       2.910   0.444   2.347  0.00  0.00     0.053 C 
ATOM      9  C   UNL d   1       2.533  -0.341   3.594  0.00  0.00     0.018 C 
ENDBRANCH   1   8
TORSDOF 1
ENDMDL
