MODEL 1
REMARK minimizedAffinity 4.07513332
REMARK minimizedRMSD -1
REMARK  1 active torsions:
REMARK  status: ('A' for Active; 'I' for Inactive)
REMARK    1  A    between atoms: C1_2  and  C2_3 
ROOT
ATOM      1  C2  UNL d   1       1.632   0.980   1.219  0.00  0.00    -0.073 A 
ATOM      2  C3  UNL d   1       0.736   0.038   0.701  0.00  0.00    -0.002 A 
ATOM      3  C4  UNL d   1      -0.384   0.453  -0.021  0.00  0.00     0.004 A 
ATOM      4  C5  UNL d   1      -0.616   1.812  -0.238  0.00  0.00    -0.004 A 
ATOM      5  C6  UNL d   1       0.275   2.767   0.262  0.00  0.00    -0.075 A 
ATOM      6  C7  UNL d   1       0.039   4.232   0.039  0.00  0.00     0.076 C 
ATOM      7  C8  UNL d   1       1.396   2.342   0.988  0.00  0.00     0.001 A 
ENDROOT
BRANCH   1   8
ATOM      8  C1  UNL d   1       2.846   0.536   1.993  0.00  0.00     0.053 C 
ATOM      9  C   UNL d   1       2.474  -0.075   3.335  0.00  0.00     0.018 C 
ENDBRANCH   1   8
TORSDOF 1
ENDMDL
