MODEL 1
REMARK minimizedAffinity 4.06333685
REMARK minimizedRMSD -1
REMARK  1 active torsions:
REMARK  status: ('A' for Active; 'I' for Inactive)
REMARK    1  A    between atoms: C1_2  and  C2_3 
ROOT
ATOM      1  C2  UNL d   1       0.094  -0.022   0.586  0.00  0.00    -0.073 A 
ATOM      2  C3  UNL d   1      -0.469   1.183   0.149  0.00  0.00    -0.002 A 
ATOM      3  C4  UNL d   1       0.286   2.357   0.157  0.00  0.00     0.004 A 
ATOM      4  C5  UNL d   1       1.610   2.337   0.593  0.00  0.00    -0.004 A 
ATOM      5  C6  UNL d   1       2.194   1.141   1.022  0.00  0.00    -0.075 A 
ATOM      6  C7  UNL d   1       3.617   1.104   1.497  0.00  0.00     0.076 C 
ATOM      7  C8  UNL d   1       1.429  -0.033   1.014  0.00  0.00     0.001 A 
ENDROOT
BRANCH   1   8
ATOM      8  C1  UNL d   1      -0.714  -1.293   0.573  0.00  0.00     0.053 C 
ATOM      9  C   UNL d   1       0.147  -2.514   0.287  0.00  0.00     0.018 C 
ENDBRANCH   1   8
TORSDOF 1
ENDMDL
