MODEL 1
REMARK minimizedAffinity 1.82906532
REMARK minimizedRMSD -1
REMARK  1 active torsions:
REMARK  status: ('A' for Active; 'I' for Inactive)
REMARK    1  A    between atoms: C1_2  and  C2_3 
ROOT
ATOM      1  C2  UNL d   1       1.812  -0.041   2.012  0.00  0.00    -0.073 A 
ATOM      2  C3  UNL d   1       0.854  -0.996   1.650  0.00  0.00    -0.002 A 
ATOM      3  C4  UNL d   1      -0.177  -0.661   0.771  0.00  0.00     0.004 A 
ATOM      4  C5  UNL d   1      -0.257   0.626   0.240  0.00  0.00    -0.004 A 
ATOM      5  C6  UNL d   1       0.697   1.590   0.581  0.00  0.00    -0.075 A 
ATOM      6  C7  UNL d   1       0.624   2.980   0.020  0.00  0.00     0.076 C 
ATOM      7  C8  UNL d   1       1.728   1.248   1.466  0.00  0.00     0.001 A 
ENDROOT
BRANCH   1   8
ATOM      8  C1  UNL d   1       2.930  -0.399   2.956  0.00  0.00     0.053 C 
ATOM      9  C   UNL d   1       2.426  -1.149   4.179  0.00  0.00     0.018 C 
ENDBRANCH   1   8
TORSDOF 1
ENDMDL
