MODEL 1
REMARK minimizedAffinity 6.42939949
REMARK minimizedRMSD -1
REMARK  1 active torsions:
REMARK  status: ('A' for Active; 'I' for Inactive)
REMARK    1  A    between atoms: C1_2  and  C2_3 
ROOT
ATOM      1  C2  UNL d   1       0.469  -0.738   0.309  0.00  0.00    -0.073 A 
ATOM      2  C3  UNL d   1      -0.857  -0.290   0.279  0.00  0.00    -0.002 A 
ATOM      3  C4  UNL d   1      -1.140   1.075   0.325  0.00  0.00     0.004 A 
ATOM      4  C5  UNL d   1      -0.104   2.006   0.394  0.00  0.00    -0.004 A 
ATOM      5  C6  UNL d   1       1.228   1.578   0.413  0.00  0.00    -0.075 A 
ATOM      6  C7  UNL d   1       2.354   2.567   0.490  0.00  0.00     0.076 C 
ATOM      7  C8  UNL d   1       1.505   0.205   0.369  0.00  0.00     0.001 A 
ENDROOT
BRANCH   1   8
ATOM      8  C1  UNL d   1       0.781  -2.211   0.253  0.00  0.00     0.053 C 
ATOM      9  C   UNL d   1       0.160  -2.880  -0.963  0.00  0.00     0.018 C 
ENDBRANCH   1   8
TORSDOF 1
ENDMDL
