MODEL 1
REMARK minimizedAffinity -2.16641378
REMARK minimizedRMSD -1
REMARK  0 active torsions:
REMARK  status: ('A' for Active; 'I' for Inactive)
ROOT
ATOM      1  C   UNL d   1      -0.902   0.764  -1.143  0.00  0.00     0.023 A 
ATOM      2  C1  UNL d   1      -0.898   0.887   0.247  0.00  0.00     0.003 A 
ATOM      3  C2  UNL d   1      -0.170  -0.014   1.027  0.00  0.00     0.048 A 
ATOM      4  C3  UNL d   1       0.551  -1.036   0.410  0.00  0.00     0.023 A 
ATOM      5  C4  UNL d   1       0.550  -1.163  -0.980  0.00  0.00     0.048 A 
ATOM      6  C5  UNL d   1      -0.179  -0.260  -1.755  0.00  0.00     0.003 A 
ATOM      7  I   UNL d   1       1.635  -2.379   1.569  0.00  0.00    -0.146 I 
ENDROOT
TORSDOF 0
ENDMDL
