MODEL 1
REMARK minimizedAffinity -0.932961166
REMARK minimizedRMSD -1
REMARK  0 active torsions:
REMARK  status: ('A' for Active; 'I' for Inactive)
ROOT
ATOM      1  C   UNL d   1      -2.626   1.521  -3.883  0.00  0.00     0.023 A 
ATOM      2  C1  UNL d   1      -1.710   2.412  -3.322  0.00  0.00     0.003 A 
ATOM      3  C2  UNL d   1      -1.012   2.062  -2.165  0.00  0.00     0.048 A 
ATOM      4  C3  UNL d   1      -1.233   0.819  -1.574  0.00  0.00     0.023 A 
ATOM      5  C4  UNL d   1      -2.147  -0.077  -2.131  0.00  0.00     0.048 A 
ATOM      6  C5  UNL d   1      -2.844   0.278  -3.288  0.00  0.00     0.003 A 
ATOM      7  I   UNL d   1      -0.195   0.295   0.149  0.00  0.00    -0.146 I 
ENDROOT
TORSDOF 0
ENDMDL
