MODEL 1
REMARK minimizedAffinity -4.13298368
REMARK minimizedRMSD -1
REMARK  0 active torsions:
REMARK  status: ('A' for Active; 'I' for Inactive)
ROOT
ATOM      1  C   UNL d   1       1.086  -2.670   2.184  0.00  0.00     0.023 A 
ATOM      2  C1  UNL d   1      -0.085  -1.967   2.466  0.00  0.00     0.003 A 
ATOM      3  C2  UNL d   1      -0.576  -1.031   1.554  0.00  0.00     0.048 A 
ATOM      4  C3  UNL d   1       0.108  -0.804   0.360  0.00  0.00     0.023 A 
ATOM      5  C4  UNL d   1       1.280  -1.506   0.073  0.00  0.00     0.048 A 
ATOM      6  C5  UNL d   1       1.768  -2.440   0.988  0.00  0.00     0.003 A 
ATOM      7  I   UNL d   1      -0.621   0.588  -1.000  0.00  0.00    -0.146 I 
ENDROOT
TORSDOF 0
ENDMDL
