MODEL 1
REMARK minimizedAffinity -3.35507274
REMARK minimizedRMSD -1
REMARK  0 active torsions:
REMARK  status: ('A' for Active; 'I' for Inactive)
ROOT
ATOM      1  C   UNL d   1      -2.326   1.304  -3.513  0.00  0.00     0.023 A 
ATOM      2  C1  UNL d   1      -2.049  -0.039  -3.256  0.00  0.00     0.003 A 
ATOM      3  C2  UNL d   1      -1.320  -0.398  -2.121  0.00  0.00     0.048 A 
ATOM      4  C3  UNL d   1      -0.872   0.590  -1.246  0.00  0.00     0.023 A 
ATOM      5  C4  UNL d   1      -1.147   1.935  -1.498  0.00  0.00     0.048 A 
ATOM      6  C5  UNL d   1      -1.875   2.290  -2.635  0.00  0.00     0.003 A 
ATOM      7  I   UNL d   1       0.213   0.058   0.445  0.00  0.00    -0.146 I 
ENDROOT
TORSDOF 0
ENDMDL
