MODEL 1
REMARK minimizedAffinity -2.19939685
REMARK minimizedRMSD -1
REMARK  0 active torsions:
REMARK  status: ('A' for Active; 'I' for Inactive)
ROOT
ATOM      1  C   UNL d   1       2.365  -2.250   0.834  0.00  0.00     0.023 A 
ATOM      2  C1  UNL d   1       1.072  -2.433   1.325  0.00  0.00     0.003 A 
ATOM      3  C2  UNL d   1       0.015  -1.679   0.811  0.00  0.00     0.048 A 
ATOM      4  C3  UNL d   1       0.258  -0.743  -0.194  0.00  0.00     0.023 A 
ATOM      5  C4  UNL d   1       1.550  -0.557  -0.689  0.00  0.00     0.048 A 
ATOM      6  C5  UNL d   1       2.603  -1.313  -0.172  0.00  0.00     0.003 A 
ATOM      7  I   UNL d   1      -1.313   0.381  -0.960  0.00  0.00    -0.146 I 
ENDROOT
TORSDOF 0
ENDMDL
