MODEL 1
REMARK minimizedAffinity -0.183336973
REMARK minimizedRMSD -1
REMARK  0 active torsions:
REMARK  status: ('A' for Active; 'I' for Inactive)
ROOT
ATOM      1  C   UNL d   1      -3.040  -0.122  -2.876  0.00  0.00     0.023 A 
ATOM      2  C1  UNL d   1      -3.626   0.886  -3.641  0.00  0.00     0.003 A 
ATOM      3  C2  UNL d   1      -2.884   2.014  -3.998  0.00  0.00     0.048 A 
ATOM      4  C3  UNL d   1      -1.556   2.126  -3.586  0.00  0.00     0.023 A 
ATOM      5  C4  UNL d   1      -0.965   1.119  -2.821  0.00  0.00     0.048 A 
ATOM      6  C5  UNL d   1      -1.712  -0.006  -2.466  0.00  0.00     0.003 A 
ATOM      7  I   UNL d   1      -0.449   3.804  -4.116  0.00  0.00    -0.146 I 
ENDROOT
TORSDOF 0
ENDMDL
