MODEL 1
REMARK minimizedAffinity -2.39614058
REMARK minimizedRMSD -1
REMARK  0 active torsions:
REMARK  status: ('A' for Active; 'I' for Inactive)
ROOT
ATOM      1  C   UNL d   1       1.918  -2.866   1.542  0.00  0.00     0.023 A 
ATOM      2  C1  UNL d   1       2.599  -1.949   0.740  0.00  0.00     0.003 A 
ATOM      3  C2  UNL d   1       1.951  -0.798   0.288  0.00  0.00     0.048 A 
ATOM      4  C3  UNL d   1       0.622  -0.569   0.643  0.00  0.00     0.023 A 
ATOM      5  C4  UNL d   1      -0.063  -1.482   1.445  0.00  0.00     0.048 A 
ATOM      6  C5  UNL d   1       0.589  -2.632   1.894  0.00  0.00     0.003 A 
ATOM      7  I   UNL d   1      -0.345   1.144  -0.029  0.00  0.00    -0.146 I 
ENDROOT
TORSDOF 0
ENDMDL
