MODEL 1
REMARK minimizedAffinity -3.78363895
REMARK minimizedRMSD -1
REMARK  0 active torsions:
REMARK  status: ('A' for Active; 'I' for Inactive)
ROOT
ATOM      1  C   UNL d   1      -1.523   1.398   1.313  0.00  0.00     0.023 A 
ATOM      2  C1  UNL d   1      -1.643   0.317   2.187  0.00  0.00     0.003 A 
ATOM      3  C2  UNL d   1      -0.827  -0.806   2.027  0.00  0.00     0.048 A 
ATOM      4  C3  UNL d   1       0.106  -0.840   0.992  0.00  0.00     0.023 A 
ATOM      5  C4  UNL d   1       0.231   0.239   0.116  0.00  0.00     0.048 A 
ATOM      6  C5  UNL d   1      -0.587   1.359   0.279  0.00  0.00     0.003 A 
ATOM      7  I   UNL d   1       1.321  -2.510   0.752  0.00  0.00    -0.146 I 
ENDROOT
TORSDOF 0
ENDMDL
