MODEL 1
REMARK minimizedAffinity -4.25523949
REMARK minimizedRMSD -1
REMARK  0 active torsions:
REMARK  status: ('A' for Active; 'I' for Inactive)
ROOT
ATOM      1  C   UNL d   1       1.894  -1.975   0.986  0.00  0.00     0.023 A 
ATOM      2  C1  UNL d   1       0.521  -2.185   1.120  0.00  0.00     0.003 A 
ATOM      3  C2  UNL d   1      -0.383  -1.306   0.521  0.00  0.00     0.048 A 
ATOM      4  C3  UNL d   1       0.092  -0.219  -0.213  0.00  0.00     0.023 A 
ATOM      5  C4  UNL d   1       1.465  -0.005  -0.350  0.00  0.00     0.048 A 
ATOM      6  C5  UNL d   1       2.365  -0.886   0.252  0.00  0.00     0.003 A 
ATOM      7  I   UNL d   1      -1.252   1.091  -1.106  0.00  0.00    -0.146 I 
ENDROOT
TORSDOF 0
ENDMDL
