MODEL 1
REMARK minimizedAffinity -3.91917968
REMARK minimizedRMSD -1
REMARK  0 active torsions:
REMARK  status: ('A' for Active; 'I' for Inactive)
ROOT
ATOM      1  C   UNL d   1       1.484  -2.691   1.850  0.00  0.00     0.023 A 
ATOM      2  C1  UNL d   1       2.047  -2.179   0.681  0.00  0.00     0.003 A 
ATOM      3  C2  UNL d   1       1.361  -1.216  -0.063  0.00  0.00     0.048 A 
ATOM      4  C3  UNL d   1       0.113  -0.769   0.369  0.00  0.00     0.023 A 
ATOM      5  C4  UNL d   1      -0.454  -1.278   1.539  0.00  0.00     0.048 A 
ATOM      6  C5  UNL d   1       0.235  -2.241   2.278  0.00  0.00     0.003 A 
ATOM      7  I   UNL d   1      -0.910   0.663  -0.736  0.00  0.00    -0.146 I 
ENDROOT
TORSDOF 0
ENDMDL
