MODEL 1
REMARK minimizedAffinity -4.63938475
REMARK minimizedRMSD -1
REMARK  0 active torsions:
REMARK  status: ('A' for Active; 'I' for Inactive)
ROOT
ATOM      1  C   UNL d   1       0.740  -3.143   1.887  0.00  0.00     0.023 A 
ATOM      2  C1  UNL d   1      -0.473  -2.526   2.194  0.00  0.00     0.003 A 
ATOM      3  C2  UNL d   1      -0.844  -1.349   1.542  0.00  0.00     0.048 A 
ATOM      4  C3  UNL d   1       0.002  -0.795   0.581  0.00  0.00     0.023 A 
ATOM      5  C4  UNL d   1       1.216  -1.409   0.270  0.00  0.00     0.048 A 
ATOM      6  C5  UNL d   1       1.583  -2.585   0.926  0.00  0.00     0.003 A 
ATOM      7  I   UNL d   1      -0.549   0.957  -0.392  0.00  0.00    -0.146 I 
ENDROOT
TORSDOF 0
ENDMDL
