MODEL 1
REMARK minimizedAffinity -4.58214617
REMARK minimizedRMSD -1
REMARK  0 active torsions:
REMARK  status: ('A' for Active; 'I' for Inactive)
ROOT
ATOM      1  C   UNL d   1      -2.180   1.421  -1.811  0.00  0.00     0.023 A 
ATOM      2  C1  UNL d   1      -1.598   0.361  -2.506  0.00  0.00     0.003 A 
ATOM      3  C2  UNL d   1      -0.599  -0.406  -1.903  0.00  0.00     0.048 A 
ATOM      4  C3  UNL d   1      -0.188  -0.109  -0.604  0.00  0.00     0.023 A 
ATOM      5  C4  UNL d   1      -0.768   0.951   0.095  0.00  0.00     0.048 A 
ATOM      6  C5  UNL d   1      -1.766   1.716  -0.512  0.00  0.00     0.003 A 
ATOM      7  I   UNL d   1       1.299  -1.249   0.295  0.00  0.00    -0.146 I 
ENDROOT
TORSDOF 0
ENDMDL
