MODEL 1
REMARK minimizedAffinity -0.351139754
REMARK minimizedRMSD -1
REMARK  0 active torsions:
REMARK  status: ('A' for Active; 'I' for Inactive)
ROOT
ATOM      1  C   UNL d   1       0.724  -1.143   0.674  0.00  0.00     0.023 A 
ATOM      2  C1  UNL d   1      -0.669  -1.192   0.730  0.00  0.00     0.003 A 
ATOM      3  C2  UNL d   1      -1.432  -0.275   0.003  0.00  0.00     0.048 A 
ATOM      4  C3  UNL d   1      -0.794   0.686  -0.780  0.00  0.00     0.023 A 
ATOM      5  C4  UNL d   1       0.599   0.738  -0.841  0.00  0.00     0.048 A 
ATOM      6  C5  UNL d   1       1.357  -0.179  -0.111  0.00  0.00     0.003 A 
ATOM      7  I   UNL d   1      -1.927   2.051  -1.864  0.00  0.00    -0.146 I 
ENDROOT
TORSDOF 0
ENDMDL
