MODEL 1
REMARK minimizedAffinity 12.8793993
REMARK minimizedRMSD -1
REMARK  1 active torsions:
REMARK  status: ('A' for Active; 'I' for Inactive)
REMARK    1  A    between atoms: C1_2  and  C2_3 
ROOT
ATOM      1  C2  UNL d   1       0.901  -3.311   1.154  0.00  0.00    -0.081 A 
ATOM      2  C3  UNL d   1       1.092  -3.979  -0.061  0.00  0.00     0.006 A 
ATOM      3  C4  UNL d   1       1.498  -3.279  -1.199  0.00  0.00     0.002 A 
ATOM      4  C5  UNL d   1       1.728  -1.900  -1.139  0.00  0.00    -0.080 A 
ATOM      5  C6  UNL d   1       2.194  -1.141  -2.346  0.00  0.00     0.076 C 
ATOM      6  C7  UNL d   1       1.521  -1.229   0.071  0.00  0.00     0.002 A 
ATOM      7  C8  UNL d   1       1.113  -1.929   1.209  0.00  0.00     0.006 A 
ENDROOT
BRANCH   1   8
ATOM      8  C1  UNL d   1       0.525  -4.074   2.398  0.00  0.00     0.054 C 
ATOM      9  C   UNL d   1       1.532  -5.175   2.697  0.00  0.00     0.018 C 
ENDBRANCH   1   8
TORSDOF 1
ENDMDL
