MODEL 1
REMARK minimizedAffinity 7.72215891
REMARK minimizedRMSD -1
REMARK  1 active torsions:
REMARK  status: ('A' for Active; 'I' for Inactive)
REMARK    1  A    between atoms: C1_2  and  C2_3 
ROOT
ATOM      1  C2  UNL d   1      -5.292  -2.611  -2.533  0.00  0.00    -0.081 A 
ATOM      2  C3  UNL d   1      -4.855  -2.473  -3.856  0.00  0.00     0.006 A 
ATOM      3  C4  UNL d   1      -4.917  -3.555  -4.739  0.00  0.00     0.002 A 
ATOM      4  C5  UNL d   1      -5.423  -4.788  -4.315  0.00  0.00    -0.080 A 
ATOM      5  C6  UNL d   1      -5.522  -5.948  -5.261  0.00  0.00     0.076 C 
ATOM      6  C7  UNL d   1      -5.843  -4.931  -2.989  0.00  0.00     0.002 A 
ATOM      7  C8  UNL d   1      -5.781  -3.851  -2.106  0.00  0.00     0.006 A 
ENDROOT
BRANCH   1   8
ATOM      8  C1  UNL d   1      -5.287  -1.430  -1.597  0.00  0.00     0.054 C 
ATOM      9  C   UNL d   1      -4.673  -0.204  -2.257  0.00  0.00     0.018 C 
ENDBRANCH   1   8
TORSDOF 1
ENDMDL
