MODEL 1
REMARK minimizedAffinity 7.32421255
REMARK minimizedRMSD -1
REMARK  1 active torsions:
REMARK  status: ('A' for Active; 'I' for Inactive)
REMARK    1  A    between atoms: C1_2  and  C2_3 
ROOT
ATOM      1  C2  UNL d   1      -4.591  -5.263  -2.335  0.00  0.00    -0.081 A 
ATOM      2  C3  UNL d   1      -5.493  -4.194  -2.256  0.00  0.00     0.006 A 
ATOM      3  C4  UNL d   1      -5.941  -3.559  -3.416  0.00  0.00     0.002 A 
ATOM      4  C5  UNL d   1      -5.502  -3.985  -4.674  0.00  0.00    -0.080 A 
ATOM      5  C6  UNL d   1      -5.999  -3.332  -5.929  0.00  0.00     0.076 C 
ATOM      6  C7  UNL d   1      -4.588  -5.042  -4.752  0.00  0.00     0.002 A 
ATOM      7  C8  UNL d   1      -4.138  -5.677  -3.592  0.00  0.00     0.006 A 
ENDROOT
BRANCH   1   8
ATOM      8  C1  UNL d   1      -4.156  -5.992  -1.089  0.00  0.00     0.054 C 
ATOM      9  C   UNL d   1      -5.217  -5.911  -0.001  0.00  0.00     0.018 C 
ENDBRANCH   1   8
TORSDOF 1
ENDMDL
