MODEL 1
REMARK minimizedAffinity 9.8825407
REMARK minimizedRMSD -1
REMARK  1 active torsions:
REMARK  status: ('A' for Active; 'I' for Inactive)
REMARK    1  A    between atoms: C1_2  and  C2_3 
ROOT
ATOM      1  C2  UNL d   1      -5.698  -3.578  -2.402  0.00  0.00    -0.081 A 
ATOM      2  C3  UNL d   1      -5.444  -4.946  -2.250  0.00  0.00     0.006 A 
ATOM      3  C4  UNL d   1      -5.107  -5.731  -3.355  0.00  0.00     0.002 A 
ATOM      4  C5  UNL d   1      -5.011  -5.160  -4.629  0.00  0.00    -0.080 A 
ATOM      5  C6  UNL d   1      -4.621  -5.985  -5.819  0.00  0.00     0.076 C 
ATOM      6  C7  UNL d   1      -5.282  -3.796  -4.784  0.00  0.00     0.002 A 
ATOM      7  C8  UNL d   1      -5.619  -3.011  -3.679  0.00  0.00     0.006 A 
ENDROOT
BRANCH   1   8
ATOM      8  C1  UNL d   1      -5.997  -2.716  -1.202  0.00  0.00     0.054 C 
ATOM      9  C   UNL d   1      -5.828  -1.238  -1.526  0.00  0.00     0.018 C 
ENDBRANCH   1   8
TORSDOF 1
ENDMDL
