MODEL 1
REMARK minimizedAffinity 6.2586565
REMARK minimizedRMSD -1
REMARK  1 active torsions:
REMARK  status: ('A' for Active; 'I' for Inactive)
REMARK    1  A    between atoms: C1_2  and  C2_3 
ROOT
ATOM      1  C2  UNL d   1      -5.468  -4.162  -4.561  0.00  0.00    -0.081 A 
ATOM      2  C3  UNL d   1      -4.883  -5.419  -4.364  0.00  0.00     0.006 A 
ATOM      3  C4  UNL d   1      -4.834  -5.985  -3.088  0.00  0.00     0.002 A 
ATOM      4  C5  UNL d   1      -5.376  -5.308  -1.990  0.00  0.00    -0.080 A 
ATOM      5  C6  UNL d   1      -5.357  -5.918  -0.620  0.00  0.00     0.076 C 
ATOM      6  C7  UNL d   1      -5.944  -4.045  -2.184  0.00  0.00     0.002 A 
ATOM      7  C8  UNL d   1      -5.993  -3.478  -3.459  0.00  0.00     0.006 A 
ENDROOT
BRANCH   1   8
ATOM      8  C1  UNL d   1      -5.580  -3.578  -5.946  0.00  0.00     0.054 C 
ATOM      9  C   UNL d   1      -5.848  -2.081  -5.895  0.00  0.00     0.018 C 
ENDBRANCH   1   8
TORSDOF 1
ENDMDL
