MODEL 1
REMARK minimizedAffinity -2.8106122
REMARK minimizedRMSD -1
REMARK  1 active torsions:
REMARK  status: ('A' for Active; 'I' for Inactive)
REMARK    1  A    between atoms: C1_2  and  C2_3 
ROOT
ATOM      1  C2  UNL d   1       4.684   3.000  -5.721  0.00  0.00    -0.081 A 
ATOM      2  C3  UNL d   1       3.595   2.294  -5.196  0.00  0.00     0.006 A 
ATOM      3  C4  UNL d   1       3.710   0.933  -4.900  0.00  0.00     0.002 A 
ATOM      4  C5  UNL d   1       4.916   0.259  -5.118  0.00  0.00    -0.080 A 
ATOM      5  C6  UNL d   1       5.062  -1.194  -4.776  0.00  0.00     0.076 C 
ATOM      6  C7  UNL d   1       5.999   0.961  -5.659  0.00  0.00     0.002 A 
ATOM      7  C8  UNL d   1       5.884   2.321  -5.955  0.00  0.00     0.006 A 
ENDROOT
BRANCH   1   8
ATOM      8  C1  UNL d   1       4.583   4.482  -5.980  0.00  0.00     0.054 C 
ATOM      9  C   UNL d   1       5.958   5.135  -6.000  0.00  0.00     0.018 C 
ENDBRANCH   1   8
TORSDOF 1
ENDMDL
