MODEL 1
REMARK minimizedAffinity 2.61426997
REMARK minimizedRMSD -1
REMARK  1 active torsions:
REMARK  status: ('A' for Active; 'I' for Inactive)
REMARK    1  A    between atoms: C1_2  and  C2_3 
ROOT
ATOM      1  C2  UNL d   1       2.670  -3.901   3.064  0.00  0.00    -0.081 A 
ATOM      2  C3  UNL d   1       1.288  -3.683   3.013  0.00  0.00     0.006 A 
ATOM      3  C4  UNL d   1       0.500  -4.351   2.072  0.00  0.00     0.002 A 
ATOM      4  C5  UNL d   1       1.080  -5.252   1.173  0.00  0.00    -0.080 A 
ATOM      5  C6  UNL d   1       0.241  -5.998   0.178  0.00  0.00     0.076 C 
ATOM      6  C7  UNL d   1       2.463  -5.456   1.212  0.00  0.00     0.002 A 
ATOM      7  C8  UNL d   1       3.251  -4.788   2.152  0.00  0.00     0.006 A 
ENDROOT
BRANCH   1   8
ATOM      8  C1  UNL d   1       3.513  -3.232   4.120  0.00  0.00     0.054 C 
ATOM      9  C   UNL d   1       4.947  -3.045   3.647  0.00  0.00     0.018 C 
ENDBRANCH   1   8
TORSDOF 1
ENDMDL
