MODEL 1
REMARK minimizedAffinity 3.93300724
REMARK minimizedRMSD -1
REMARK  1 active torsions:
REMARK  status: ('A' for Active; 'I' for Inactive)
REMARK    1  A    between atoms: C1_2  and  C2_3 
ROOT
ATOM      1  C2  UNL d   1      -5.320  -4.081  -2.221  0.00  0.00    -0.081 A 
ATOM      2  C3  UNL d   1      -5.446  -3.419  -3.449  0.00  0.00     0.006 A 
ATOM      3  C4  UNL d   1      -5.015  -4.028  -4.629  0.00  0.00     0.002 A 
ATOM      4  C5  UNL d   1      -4.457  -5.311  -4.604  0.00  0.00    -0.080 A 
ATOM      5  C6  UNL d   1      -4.017  -5.988  -5.868  0.00  0.00     0.076 C 
ATOM      6  C7  UNL d   1      -4.315  -5.966  -3.375  0.00  0.00     0.002 A 
ATOM      7  C8  UNL d   1      -4.746  -5.357  -2.195  0.00  0.00     0.006 A 
ENDROOT
BRANCH   1   8
ATOM      8  C1  UNL d   1      -5.844  -3.454  -0.955  0.00  0.00     0.054 C 
ATOM      9  C   UNL d   1      -5.998  -1.947  -1.106  0.00  0.00     0.018 C 
ENDBRANCH   1   8
TORSDOF 1
ENDMDL
