MODEL 1
REMARK minimizedAffinity 23.4756374
REMARK minimizedRMSD -1
REMARK  3 active torsions:
REMARK  status: ('A' for Active; 'I' for Inactive)
REMARK    1  A    between atoms: C3'_2  and  C2'_3 
REMARK    2  A    between atoms: C2'_3  and  C1'_4 
REMARK    3  A    between atoms: C1'_4  and  C1_5 
ROOT
ATOM      1  C1  N4B d   1       1.929   0.198   0.376  0.00  0.00    -0.075 A 
ATOM      2  C2  N4B d   1       0.804   0.210   1.229  0.00  0.00     0.002 A 
ATOM      3  C3  N4B d   1       0.742   1.102   2.271  0.00  0.00     0.002 A 
ATOM      4  C4  N4B d   1       1.797   1.974   2.491  0.00  0.00    -0.004 A 
ATOM      5  C5  N4B d   1       2.870   1.973   1.647  0.00  0.00     0.002 A 
ATOM      6  C6  N4B d   1       2.943   1.085   0.593  0.00  0.00     0.002 A 
ENDROOT
BRANCH   1   7
ATOM      7  C1' N4B d   1       2.081  -0.817  -0.725  0.00  0.00     0.057 C 
BRANCH   7   8
ATOM      8  C2' N4B d   1       2.034  -2.218  -0.124  0.00  0.00     0.009 C 
BRANCH   8   9
ATOM      9  C3' N4B d   1       3.407  -2.692   0.321  0.00  0.00     0.004 C 
ATOM     10  C4' N4B d   1       3.454  -4.166   0.593  0.00  0.00     0.003 C 
ENDBRANCH   8   9
ENDBRANCH   7   8
ENDBRANCH   1   7
TORSDOF 3
ENDMDL
