MODEL 1
REMARK minimizedAffinity 16.3509674
REMARK minimizedRMSD -1
REMARK  3 active torsions:
REMARK  status: ('A' for Active; 'I' for Inactive)
REMARK    1  A    between atoms: C3'_2  and  C2'_3 
REMARK    2  A    between atoms: C2'_3  and  C1'_4 
REMARK    3  A    between atoms: C1'_4  and  C1_5 
ROOT
ATOM      1  C1  N4B d   1      -2.517   0.972   2.876  0.00  0.00    -0.075 A 
ATOM      2  C2  N4B d   1      -3.124  -0.303   2.848  0.00  0.00     0.002 A 
ATOM      3  C3  N4B d   1      -4.407  -0.463   3.310  0.00  0.00     0.002 A 
ATOM      4  C4  N4B d   1      -5.093   0.628   3.820  0.00  0.00    -0.004 A 
ATOM      5  C5  N4B d   1      -4.510   1.861   3.821  0.00  0.00     0.002 A 
ATOM      6  C6  N4B d   1      -3.222   2.038   3.355  0.00  0.00     0.002 A 
ENDROOT
BRANCH   1   7
ATOM      7  C1' N4B d   1      -1.086   1.180   2.461  0.00  0.00     0.057 C 
BRANCH   7   8
ATOM      8  C2' N4B d   1      -0.167   0.528   3.489  0.00  0.00     0.009 C 
BRANCH   8   9
ATOM      9  C3' N4B d   1       0.799   1.527   4.103  0.00  0.00     0.004 C 
ATOM     10  C4' N4B d   1       0.912   1.386   5.591  0.00  0.00     0.003 C 
ENDBRANCH   8   9
ENDBRANCH   7   8
ENDBRANCH   1   7
TORSDOF 3
ENDMDL
