MODEL 1
REMARK minimizedAffinity 21.6134129
REMARK minimizedRMSD -1
REMARK  3 active torsions:
REMARK  status: ('A' for Active; 'I' for Inactive)
REMARK    1  A    between atoms: C3'_2  and  C2'_3 
REMARK    2  A    between atoms: C2'_3  and  C1'_4 
REMARK    3  A    between atoms: C1'_4  and  C1_5 
ROOT
ATOM      1  C1  N4B d   1       3.107  -0.070   0.065  0.00  0.00    -0.075 A 
ATOM      2  C2  N4B d   1       4.265  -0.761   0.483  0.00  0.00     0.002 A 
ATOM      3  C3  N4B d   1       4.367  -2.116   0.282  0.00  0.00     0.002 A 
ATOM      4  C4  N4B d   1       3.319  -2.801  -0.316  0.00  0.00    -0.004 A 
ATOM      5  C5  N4B d   1       2.214  -2.122  -0.739  0.00  0.00     0.002 A 
ATOM      6  C6  N4B d   1       2.101  -0.760  -0.547  0.00  0.00     0.002 A 
ENDROOT
BRANCH   1   7
ATOM      7  C1' N4B d   1       2.914   1.396   0.341  0.00  0.00     0.057 C 
BRANCH   7   8
ATOM      8  C2' N4B d   1       2.131   1.562   1.640  0.00  0.00     0.009 C 
BRANCH   8   9
ATOM      9  C3' N4B d   1       0.739   0.962   1.546  0.00  0.00     0.004 C 
ATOM     10  C4' N4B d   1      -0.166   1.418   2.651  0.00  0.00     0.003 C 
ENDBRANCH   8   9
ENDBRANCH   7   8
ENDBRANCH   1   7
TORSDOF 3
ENDMDL
