MODEL 1
REMARK minimizedAffinity 0.56815201
REMARK minimizedRMSD -1
REMARK  3 active torsions:
REMARK  status: ('A' for Active; 'I' for Inactive)
REMARK    1  A    between atoms: C3'_2  and  C2'_3 
REMARK    2  A    between atoms: C2'_3  and  C1'_4 
REMARK    3  A    between atoms: C1'_4  and  C1_5 
ROOT
ATOM      1  C1  N4B d   1       2.546  -3.741  -1.699  0.00  0.00    -0.075 A 
ATOM      2  C2  N4B d   1       1.845  -4.817  -2.286  0.00  0.00     0.002 A 
ATOM      3  C3  N4B d   1       2.525  -5.938  -2.695  0.00  0.00     0.002 A 
ATOM      4  C4  N4B d   1       3.902  -5.998  -2.544  0.00  0.00    -0.004 A 
ATOM      5  C5  N4B d   1       4.569  -4.965  -1.953  0.00  0.00     0.002 A 
ATOM      6  C6  N4B d   1       3.898  -3.834  -1.533  0.00  0.00     0.002 A 
ENDROOT
BRANCH   1   7
ATOM      7  C1' N4B d   1       1.858  -2.460  -1.314  0.00  0.00     0.057 C 
BRANCH   7   8
ATOM      8  C2' N4B d   1       1.909  -1.491  -2.492  0.00  0.00     0.009 C 
BRANCH   8   9
ATOM      9  C3' N4B d   1       1.923  -0.042  -2.036  0.00  0.00     0.004 C 
ATOM     10  C4' N4B d   1       2.324   0.110  -0.599  0.00  0.00     0.003 C 
ENDBRANCH   8   9
ENDBRANCH   7   8
ENDBRANCH   1   7
TORSDOF 3
ENDMDL
