MODEL 1
REMARK minimizedAffinity 13.6333055
REMARK minimizedRMSD -1
REMARK  3 active torsions:
REMARK  status: ('A' for Active; 'I' for Inactive)
REMARK    1  A    between atoms: C3'_2  and  C2'_3 
REMARK    2  A    between atoms: C2'_3  and  C1'_4 
REMARK    3  A    between atoms: C1'_4  and  C1_5 
ROOT
ATOM      1  C1  N4B d   1      -0.446   1.630   2.352  0.00  0.00    -0.075 A 
ATOM      2  C2  N4B d   1       0.452   1.822   1.279  0.00  0.00     0.002 A 
ATOM      3  C3  N4B d   1       1.802   1.671   1.479  0.00  0.00     0.002 A 
ATOM      4  C4  N4B d   1       2.277   1.348   2.742  0.00  0.00    -0.004 A 
ATOM      5  C5  N4B d   1       1.401   1.139   3.766  0.00  0.00     0.002 A 
ATOM      6  C6  N4B d   1       0.041   1.283   3.579  0.00  0.00     0.002 A 
ENDROOT
BRANCH   1   7
ATOM      7  C1' N4B d   1      -1.924   1.868   2.202  0.00  0.00     0.057 C 
BRANCH   7   8
ATOM      8  C2' N4B d   1      -2.684   0.821   3.011  0.00  0.00     0.009 C 
BRANCH   8   9
ATOM      9  C3' N4B d   1      -4.184   1.063   2.986  0.00  0.00     0.004 C 
ATOM     10  C4' N4B d   1      -4.581   2.320   3.701  0.00  0.00     0.003 C 
ENDBRANCH   8   9
ENDBRANCH   7   8
ENDBRANCH   1   7
TORSDOF 3
ENDMDL
