MODEL 1
REMARK minimizedAffinity 12.5947762
REMARK minimizedRMSD -1
REMARK  3 active torsions:
REMARK  status: ('A' for Active; 'I' for Inactive)
REMARK    1  A    between atoms: C3'_2  and  C2'_3 
REMARK    2  A    between atoms: C2'_3  and  C1'_4 
REMARK    3  A    between atoms: C1'_4  and  C1_5 
ROOT
ATOM      1  C1  N4B d   1      -1.996   1.424   2.410  0.00  0.00    -0.075 A 
ATOM      2  C2  N4B d   1      -1.095   2.133   3.236  0.00  0.00     0.002 A 
ATOM      3  C3  N4B d   1       0.251   2.106   2.965  0.00  0.00     0.002 A 
ATOM      4  C4  N4B d   1       0.720   1.365   1.891  0.00  0.00    -0.004 A 
ATOM      5  C5  N4B d   1      -0.159   0.704   1.083  0.00  0.00     0.002 A 
ATOM      6  C6  N4B d   1      -1.515   0.726   1.341  0.00  0.00     0.002 A 
ENDROOT
BRANCH   1   7
ATOM      7  C1' N4B d   1      -3.467   1.354   2.716  0.00  0.00     0.057 C 
BRANCH   7   8
ATOM      8  C2' N4B d   1      -3.866   2.576   3.538  0.00  0.00     0.009 C 
BRANCH   8   9
ATOM      9  C3' N4B d   1      -5.375   2.722   3.642  0.00  0.00     0.004 C 
ATOM     10  C4' N4B d   1      -5.893   3.929   2.919  0.00  0.00     0.003 C 
ENDBRANCH   8   9
ENDBRANCH   7   8
ENDBRANCH   1   7
TORSDOF 3
ENDMDL
