MODEL 1
REMARK minimizedAffinity -5.05443239
REMARK minimizedRMSD -1
REMARK  2 active torsions:
REMARK  status: ('A' for Active; 'I' for Inactive)
REMARK    1  A    between atoms: C1_2  and  C2_3 
REMARK    2  A    between atoms: C2_3  and  C3_4 
ROOT
ATOM      1  C3  UNL d   1       0.170  -0.308  -0.204  0.00  0.00    -0.075 A 
ATOM      2  C4  UNL d   1       0.449  -0.234   1.168  0.00  0.00     0.002 A 
ATOM      3  C5  UNL d   1      -0.044   0.822   1.935  0.00  0.00     0.002 A 
ATOM      4  C6  UNL d   1      -0.811   1.821   1.338  0.00  0.00    -0.004 A 
ATOM      5  C7  UNL d   1      -1.080   1.766  -0.027  0.00  0.00     0.002 A 
ATOM      6  C8  UNL d   1      -0.592   0.708  -0.796  0.00  0.00     0.002 A 
ENDROOT
BRANCH   1   7
ATOM      7  C2  UNL d   1       0.676  -1.465  -1.034  0.00  0.00     0.056 C 
BRANCH   7   8
ATOM      8  C1  UNL d   1      -0.434  -2.325  -1.647  0.00  0.00     0.007 C 
ATOM      9  C   UNL d   1      -0.046  -3.790  -1.794  0.00  0.00     0.009 C 
ENDBRANCH   7   8
ENDBRANCH   1   7
TORSDOF 2
ENDMDL
