MODEL 1
REMARK minimizedAffinity -3.49593902
REMARK minimizedRMSD -1
REMARK  2 active torsions:
REMARK  status: ('A' for Active; 'I' for Inactive)
REMARK    1  A    between atoms: C1_2  and  C2_3 
REMARK    2  A    between atoms: C2_3  and  C3_4 
ROOT
ATOM      1  C3  UNL d   1       0.418  -1.998  -1.365  0.00  0.00    -0.075 A 
ATOM      2  C4  UNL d   1      -0.632  -2.306  -2.242  0.00  0.00     0.002 A 
ATOM      3  C5  UNL d   1      -1.055  -3.626  -2.404  0.00  0.00     0.002 A 
ATOM      4  C6  UNL d   1      -0.429  -4.652  -1.701  0.00  0.00    -0.004 A 
ATOM      5  C7  UNL d   1       0.625  -4.359  -0.839  0.00  0.00     0.002 A 
ATOM      6  C8  UNL d   1       1.048  -3.040  -0.671  0.00  0.00     0.002 A 
ENDROOT
BRANCH   1   7
ATOM      7  C2  UNL d   1       0.861  -0.568  -1.163  0.00  0.00     0.056 C 
BRANCH   7   8
ATOM      8  C1  UNL d   1      -0.075   0.255  -0.271  0.00  0.00     0.007 C 
ATOM      9  C   UNL d   1       0.186   0.057   1.216  0.00  0.00     0.009 C 
ENDBRANCH   7   8
ENDBRANCH   1   7
TORSDOF 2
ENDMDL
