MODEL 1
REMARK minimizedAffinity -6.17359304
REMARK minimizedRMSD -1
REMARK  2 active torsions:
REMARK  status: ('A' for Active; 'I' for Inactive)
REMARK    1  A    between atoms: C1_2  and  C2_3 
REMARK    2  A    between atoms: C2_3  and  C3_4 
ROOT
ATOM      1  C3  UNL d   1      -0.165   1.072   0.204  0.00  0.00    -0.075 A 
ATOM      2  C4  UNL d   1      -0.304   1.789   1.402  0.00  0.00     0.002 A 
ATOM      3  C5  UNL d   1      -0.669   3.135   1.383  0.00  0.00     0.002 A 
ATOM      4  C6  UNL d   1      -0.889   3.783   0.170  0.00  0.00    -0.004 A 
ATOM      5  C7  UNL d   1      -0.739   3.085  -1.027  0.00  0.00     0.002 A 
ATOM      6  C8  UNL d   1      -0.378   1.737  -1.011  0.00  0.00     0.002 A 
ENDROOT
BRANCH   1   7
ATOM      7  C2  UNL d   1       0.201  -0.393   0.219  0.00  0.00     0.056 C 
BRANCH   7   8
ATOM      8  C1  UNL d   1       0.387  -1.003  -1.174  0.00  0.00     0.007 C 
ATOM      9  C   UNL d   1       0.447  -2.525  -1.160  0.00  0.00     0.009 C 
ENDBRANCH   7   8
ENDBRANCH   1   7
TORSDOF 2
ENDMDL
