MODEL 1
REMARK minimizedAffinity -4.84932709
REMARK minimizedRMSD -1
REMARK  2 active torsions:
REMARK  status: ('A' for Active; 'I' for Inactive)
REMARK    1  A    between atoms: C1_2  and  C2_3 
REMARK    2  A    between atoms: C2_3  and  C3_4 
ROOT
ATOM      1  C3  UNL d   1      -0.047   0.294  -0.017  0.00  0.00    -0.075 A 
ATOM      2  C4  UNL d   1      -1.062   1.223  -0.288  0.00  0.00     0.002 A 
ATOM      3  C5  UNL d   1      -1.320   2.269   0.599  0.00  0.00     0.002 A 
ATOM      4  C6  UNL d   1      -0.576   2.393   1.770  0.00  0.00    -0.004 A 
ATOM      5  C7  UNL d   1       0.424   1.466   2.057  0.00  0.00     0.002 A 
ATOM      6  C8  UNL d   1       0.687   0.421   1.169  0.00  0.00     0.002 A 
ENDROOT
BRANCH   1   7
ATOM      7  C2  UNL d   1       0.256  -0.823  -0.987  0.00  0.00     0.056 C 
BRANCH   7   8
ATOM      8  C1  UNL d   1      -0.868  -1.854  -1.123  0.00  0.00     0.007 C 
ATOM      9  C   UNL d   1      -0.429  -3.134  -1.821  0.00  0.00     0.009 C 
ENDBRANCH   7   8
ENDBRANCH   1   7
TORSDOF 2
ENDMDL
