MODEL 1
REMARK minimizedAffinity 5.34878254
REMARK minimizedRMSD -1
REMARK  0 active torsions:
REMARK  status: ('A' for Active; 'I' for Inactive)
ROOT
ATOM      1  C   UNL d   1      -2.819  -0.864   3.649  0.00  0.00     0.020 A 
ATOM      2  C1  UNL d   1      -1.550  -1.235   4.091  0.00  0.00     0.020 A 
ATOM      3  C2  UNL d   1      -0.434  -1.006   3.284  0.00  0.00     0.034 A 
ATOM      4  C3  UNL d   1      -0.585  -0.404   2.030  0.00  0.00     0.017 A 
ATOM      5  C4  UNL d   1      -1.859  -0.031   1.586  0.00  0.00     0.017 A 
ATOM      6  C5  UNL d   1      -2.973  -0.263   2.398  0.00  0.00     0.034 A 
ATOM      7 Cl   UNL d   1      -2.124   0.717   0.050  0.00  0.00    -0.070 Cl
ATOM      8 Cl1  UNL d   1       0.839  -0.150   1.084  0.00  0.00    -0.070 Cl
ENDROOT
TORSDOF 0
ENDMDL
