MODEL 1
REMARK minimizedAffinity 3.54099941
REMARK minimizedRMSD -1
REMARK  0 active torsions:
REMARK  status: ('A' for Active; 'I' for Inactive)
ROOT
ATOM      1  C   UNL d   1      -2.394  -1.073  -1.562  0.00  0.00     0.020 A 
ATOM      2  C1  UNL d   1      -3.518  -0.482  -0.985  0.00  0.00     0.020 A 
ATOM      3  C2  UNL d   1      -3.426   0.108   0.277  0.00  0.00     0.034 A 
ATOM      4  C3  UNL d   1      -2.209   0.109   0.967  0.00  0.00     0.017 A 
ATOM      5  C4  UNL d   1      -1.081  -0.484   0.387  0.00  0.00     0.017 A 
ATOM      6  C5  UNL d   1      -1.178  -1.073  -0.877  0.00  0.00     0.034 A 
ATOM      7 Cl   UNL d   1       0.456  -0.522   1.177  0.00  0.00    -0.070 Cl
ATOM      8 Cl1  UNL d   1      -2.168   0.857   2.524  0.00  0.00    -0.070 Cl
ENDROOT
TORSDOF 0
ENDMDL
