MODEL 1
REMARK minimizedAffinity 5.19458723
REMARK minimizedRMSD -1
REMARK  0 active torsions:
REMARK  status: ('A' for Active; 'I' for Inactive)
ROOT
ATOM      1  C   UNL d   1      -3.872  -0.954   3.075  0.00  0.00     0.020 A 
ATOM      2  C1  UNL d   1      -3.222  -1.681   4.071  0.00  0.00     0.020 A 
ATOM      3  C2  UNL d   1      -1.837  -1.578   4.220  0.00  0.00     0.034 A 
ATOM      4  C3  UNL d   1      -1.098  -0.746   3.370  0.00  0.00     0.017 A 
ATOM      5  C4  UNL d   1      -1.752  -0.017   2.371  0.00  0.00     0.017 A 
ATOM      6  C5  UNL d   1      -3.139  -0.124   2.227  0.00  0.00     0.034 A 
ATOM      7 Cl   UNL d   1      -0.908   1.030   1.285  0.00  0.00    -0.070 Cl
ATOM      8 Cl1  UNL d   1       0.611  -0.667   3.611  0.00  0.00    -0.070 Cl
ENDROOT
TORSDOF 0
ENDMDL
