MODEL 1
REMARK minimizedAffinity 16.0321255
REMARK minimizedRMSD -1
REMARK  0 active torsions:
REMARK  status: ('A' for Active; 'I' for Inactive)
ROOT
ATOM      1  C   UNL d   1       2.998   2.209   0.783  0.00  0.00     0.020 A 
ATOM      2  C1  UNL d   1       3.739   2.497  -0.363  0.00  0.00     0.020 A 
ATOM      3  C2  UNL d   1       3.309   2.034  -1.608  0.00  0.00     0.034 A 
ATOM      4  C3  UNL d   1       2.135   1.279  -1.711  0.00  0.00     0.017 A 
ATOM      5  C4  UNL d   1       1.392   0.990  -0.561  0.00  0.00     0.017 A 
ATOM      6  C5  UNL d   1       1.827   1.457   0.684  0.00  0.00     0.034 A 
ATOM      7 Cl   UNL d   1      -0.067   0.065  -0.608  0.00  0.00    -0.070 Cl
ATOM      8 Cl1  UNL d   1       1.663   0.738  -3.282  0.00  0.00    -0.070 Cl
ENDROOT
TORSDOF 0
ENDMDL
