MODEL 1
REMARK minimizedAffinity 8.65918827
REMARK minimizedRMSD -1
REMARK  0 active torsions:
REMARK  status: ('A' for Active; 'I' for Inactive)
ROOT
ATOM      1  C   UNL d   1      -2.115  -1.419   3.932  0.00  0.00     0.020 A 
ATOM      2  C1  UNL d   1      -3.326  -0.926   3.448  0.00  0.00     0.020 A 
ATOM      3  C2  UNL d   1      -3.355  -0.177   2.270  0.00  0.00     0.034 A 
ATOM      4  C3  UNL d   1      -2.170   0.081   1.571  0.00  0.00     0.017 A 
ATOM      5  C4  UNL d   1      -0.955  -0.414   2.057  0.00  0.00     0.017 A 
ATOM      6  C5  UNL d   1      -0.932  -1.163   3.238  0.00  0.00     0.034 A 
ATOM      7 Cl   UNL d   1       0.548  -0.137   1.250  0.00  0.00    -0.070 Cl
ATOM      8 Cl1  UNL d   1      -2.280   1.013   0.121  0.00  0.00    -0.070 Cl
ENDROOT
TORSDOF 0
ENDMDL
