MODEL 1
REMARK minimizedAffinity 6.97740984
REMARK minimizedRMSD -1
REMARK  0 active torsions:
REMARK  status: ('A' for Active; 'I' for Inactive)
ROOT
ATOM      1  C   UNL d   1      -0.541  -0.746   4.185  0.00  0.00     0.020 A 
ATOM      2  C1  UNL d   1      -1.887  -0.500   3.918  0.00  0.00     0.020 A 
ATOM      3  C2  UNL d   1      -2.275  -0.027   2.663  0.00  0.00     0.034 A 
ATOM      4  C3  UNL d   1      -1.316   0.202   1.670  0.00  0.00     0.017 A 
ATOM      5  C4  UNL d   1       0.036  -0.045   1.939  0.00  0.00     0.017 A 
ATOM      6  C5  UNL d   1       0.418  -0.519   3.197  0.00  0.00     0.034 A 
ATOM      7 Cl   UNL d   1       1.277   0.213   0.764  0.00  0.00    -0.070 Cl
ATOM      8 Cl1  UNL d   1      -1.866   0.788   0.140  0.00  0.00    -0.070 Cl
ENDROOT
TORSDOF 0
ENDMDL
