MODEL 1
REMARK minimizedAffinity 4.80703688
REMARK minimizedRMSD -1
REMARK  0 active torsions:
REMARK  status: ('A' for Active; 'I' for Inactive)
ROOT
ATOM      1  C   UNL d   1      -0.444   0.155   0.290  0.00  0.00     0.020 A 
ATOM      2  C1  UNL d   1      -1.749   0.250   0.771  0.00  0.00     0.020 A 
ATOM      3  C2  UNL d   1      -2.027  -0.062   2.104  0.00  0.00     0.034 A 
ATOM      4  C3  UNL d   1      -0.998  -0.471   2.960  0.00  0.00     0.017 A 
ATOM      5  C4  UNL d   1       0.312  -0.566   2.476  0.00  0.00     0.017 A 
ATOM      6  C5  UNL d   1       0.584  -0.252   1.141  0.00  0.00     0.034 A 
ATOM      7 Cl   UNL d   1       1.634  -1.063   3.472  0.00  0.00    -0.070 Cl
ATOM      8 Cl1  UNL d   1      -1.413  -0.841   4.596  0.00  0.00    -0.070 Cl
ENDROOT
TORSDOF 0
ENDMDL
