MODEL 1
REMARK minimizedAffinity 2.53253984
REMARK minimizedRMSD -1
REMARK  0 active torsions:
REMARK  status: ('A' for Active; 'I' for Inactive)
ROOT
ATOM      1  C   UNL d   1       2.032   0.972   0.949  0.00  0.00     0.020 A 
ATOM      2  C1  UNL d   1       2.703   1.610  -0.094  0.00  0.00     0.020 A 
ATOM      3  C2  UNL d   1       2.204   1.534  -1.396  0.00  0.00     0.034 A 
ATOM      4  C3  UNL d   1       1.030   0.819  -1.658  0.00  0.00     0.017 A 
ATOM      5  C4  UNL d   1       0.357   0.179  -0.611  0.00  0.00     0.017 A 
ATOM      6  C5  UNL d   1       0.861   0.258   0.690  0.00  0.00     0.034 A 
ATOM      7 Cl   UNL d   1      -1.097  -0.723  -0.858  0.00  0.00    -0.070 Cl
ATOM      8 Cl1  UNL d   1       0.469   0.767  -3.292  0.00  0.00    -0.070 Cl
ENDROOT
TORSDOF 0
ENDMDL
