MODEL 1
REMARK minimizedAffinity 8.20321751
REMARK minimizedRMSD -1
REMARK  0 active torsions:
REMARK  status: ('A' for Active; 'I' for Inactive)
ROOT
ATOM      1  C   UNL d   1       3.059   3.328   1.594  0.00  0.00     0.020 A 
ATOM      2  C1  UNL d   1       3.998   4.339   1.793  0.00  0.00     0.020 A 
ATOM      3  C2  UNL d   1       4.896   4.258   2.860  0.00  0.00     0.034 A 
ATOM      4  C3  UNL d   1       4.856   3.163   3.731  0.00  0.00     0.017 A 
ATOM      5  C4  UNL d   1       3.913   2.149   3.530  0.00  0.00     0.017 A 
ATOM      6  C5  UNL d   1       3.017   2.235   2.460  0.00  0.00     0.034 A 
ATOM      7 Cl   UNL d   1       3.803   0.767   4.563  0.00  0.00    -0.070 Cl
ATOM      8 Cl1  UNL d   1       5.996   3.127   5.029  0.00  0.00    -0.070 Cl
ENDROOT
TORSDOF 0
ENDMDL
