MODEL 1
REMARK minimizedAffinity 7.53104734
REMARK minimizedRMSD -1
REMARK  0 active torsions:
REMARK  status: ('A' for Active; 'I' for Inactive)
ROOT
ATOM      1  C   UNL d   1      -2.683   0.188   1.734  0.00  0.00     0.020 A 
ATOM      2  C1  UNL d   1      -2.977  -0.386   2.970  0.00  0.00     0.020 A 
ATOM      3  C2  UNL d   1      -1.944  -0.853   3.786  0.00  0.00     0.034 A 
ATOM      4  C3  UNL d   1      -0.613  -0.747   3.367  0.00  0.00     0.017 A 
ATOM      5  C4  UNL d   1      -0.319  -0.170   2.126  0.00  0.00     0.017 A 
ATOM      6  C5  UNL d   1      -1.357   0.296   1.313  0.00  0.00     0.034 A 
ATOM      7 Cl   UNL d   1       1.299  -0.005   1.540  0.00  0.00    -0.070 Cl
ATOM      8 Cl1  UNL d   1       0.614  -1.345   4.426  0.00  0.00    -0.070 Cl
ENDROOT
TORSDOF 0
ENDMDL
