MODEL 1
REMARK minimizedAffinity 2.69600153
REMARK minimizedRMSD -1
REMARK  1 active torsions:
REMARK  status: ('A' for Active; 'I' for Inactive)
REMARK    1  A    between atoms: C1_2  and  C2_3 
ROOT
ATOM      1  C2  UNL d   1      -0.624  -0.304   0.866  0.00  0.00    -0.076 A 
ATOM      2  C3  UNL d   1      -0.945  -1.424   0.079  0.00  0.00     0.004 A 
ATOM      3  C4  UNL d   1      -0.139  -1.802  -0.994  0.00  0.00    -0.003 A 
ATOM      4  C5  UNL d   1       1.002  -1.067  -1.296  0.00  0.00     0.000 A 
ATOM      5  C6  UNL d   1       1.345   0.036  -0.515  0.00  0.00     0.000 A 
ATOM      6  C7  UNL d   1       0.552   0.421   0.580  0.00  0.00    -0.073 A 
ATOM      7  C8  UNL d   1       0.966   1.623   1.385  0.00  0.00     0.078 C 
ENDROOT
BRANCH   1   8
ATOM      8  C1  UNL d   1      -1.551   0.074   1.999  0.00  0.00     0.053 C 
ATOM      9  C   UNL d   1      -2.896   0.584   1.506  0.00  0.00     0.018 C 
ENDBRANCH   1   8
TORSDOF 1
ENDMDL
