MODEL 1
REMARK minimizedAffinity -4.70972347
REMARK minimizedRMSD -1
REMARK  1 active torsions:
REMARK  status: ('A' for Active; 'I' for Inactive)
REMARK    1  A    between atoms: C1_2  and  C2_3 
ROOT
ATOM      1  C2  UNL d   1       0.129   0.134  -0.049  0.00  0.00    -0.076 A 
ATOM      2  C3  UNL d   1      -0.142  -0.887  -0.976  0.00  0.00     0.004 A 
ATOM      3  C4  UNL d   1       0.595  -1.000  -2.154  0.00  0.00    -0.003 A 
ATOM      4  C5  UNL d   1       1.615  -0.094  -2.423  0.00  0.00     0.000 A 
ATOM      5  C6  UNL d   1       1.908   0.915  -1.506  0.00  0.00     0.000 A 
ATOM      6  C7  UNL d   1       1.186   1.033  -0.306  0.00  0.00    -0.073 A 
ATOM      7  C8  UNL d   1       1.541   2.143   0.644  0.00  0.00     0.078 C 
ENDROOT
BRANCH   1   8
ATOM      8  C1  UNL d   1      -0.722   0.224   1.199  0.00  0.00     0.053 C 
ATOM      9  C   UNL d   1      -2.146   0.666   0.902  0.00  0.00     0.018 C 
ENDBRANCH   1   8
TORSDOF 1
ENDMDL
