MODEL 1
REMARK minimizedAffinity -2.8036387
REMARK minimizedRMSD -1
REMARK  1 active torsions:
REMARK  status: ('A' for Active; 'I' for Inactive)
REMARK    1  A    between atoms: C1_2  and  C2_3 
ROOT
ATOM      1  C2  UNL d   1      -2.478   0.194   1.048  0.00  0.00    -0.076 A 
ATOM      2  C3  UNL d   1      -1.569  -0.821   0.702  0.00  0.00     0.004 A 
ATOM      3  C4  UNL d   1      -0.237  -0.525   0.419  0.00  0.00    -0.003 A 
ATOM      4  C5  UNL d   1       0.208   0.790   0.478  0.00  0.00     0.000 A 
ATOM      5  C6  UNL d   1      -0.675   1.808   0.836  0.00  0.00     0.000 A 
ATOM      6  C7  UNL d   1      -2.018   1.525   1.141  0.00  0.00    -0.073 A 
ATOM      7  C8  UNL d   1      -2.928   2.662   1.516  0.00  0.00     0.078 C 
ENDROOT
BRANCH   1   8
ATOM      8  C1  UNL d   1      -3.917  -0.183   1.318  0.00  0.00     0.053 C 
ATOM      9  C   UNL d   1      -4.048  -1.548   1.976  0.00  0.00     0.018 C 
ENDBRANCH   1   8
TORSDOF 1
ENDMDL
