MODEL 1
REMARK minimizedAffinity -1.27167737
REMARK minimizedRMSD -1
REMARK  1 active torsions:
REMARK  status: ('A' for Active; 'I' for Inactive)
REMARK    1  A    between atoms: C1_2  and  C2_3 
ROOT
ATOM      1  C2  UNL d   1      -3.880   3.147  -5.530  0.00  0.00    -0.076 A 
ATOM      2  C3  UNL d   1      -3.255   1.890  -5.447  0.00  0.00     0.004 A 
ATOM      3  C4  UNL d   1      -3.982   0.715  -5.626  0.00  0.00    -0.003 A 
ATOM      4  C5  UNL d   1      -5.346   0.777  -5.892  0.00  0.00     0.000 A 
ATOM      5  C6  UNL d   1      -5.978   2.015  -5.996  0.00  0.00     0.000 A 
ATOM      6  C7  UNL d   1      -5.257   3.210  -5.834  0.00  0.00    -0.073 A 
ATOM      7  C8  UNL d   1      -5.990   4.518  -5.951  0.00  0.00     0.078 C 
ENDROOT
BRANCH   1   8
ATOM      8  C1  UNL d   1      -3.046   4.387  -5.300  0.00  0.00     0.053 C 
ATOM      9  C   UNL d   1      -3.619   5.612  -5.995  0.00  0.00     0.018 C 
ENDBRANCH   1   8
TORSDOF 1
ENDMDL
