MODEL 1
REMARK minimizedAffinity -3.60812783
REMARK minimizedRMSD -1
REMARK  1 active torsions:
REMARK  status: ('A' for Active; 'I' for Inactive)
REMARK    1  A    between atoms: C1_2  and  C2_3 
ROOT
ATOM      1  C2  UNL d   1       2.021   0.870  -0.623  0.00  0.00    -0.076 A 
ATOM      2  C3  UNL d   1       1.708   1.045   0.736  0.00  0.00     0.004 A 
ATOM      3  C4  UNL d   1       0.586   0.438   1.298  0.00  0.00    -0.003 A 
ATOM      4  C5  UNL d   1      -0.241  -0.355   0.509  0.00  0.00     0.000 A 
ATOM      5  C6  UNL d   1       0.064  -0.553  -0.837  0.00  0.00     0.000 A 
ATOM      6  C7  UNL d   1       1.200   0.039  -1.415  0.00  0.00    -0.073 A 
ATOM      7  C8  UNL d   1       1.478  -0.204  -2.873  0.00  0.00     0.078 C 
ENDROOT
BRANCH   1   8
ATOM      8  C1  UNL d   1       3.235   1.576  -1.183  0.00  0.00     0.053 C 
ATOM      9  C   UNL d   1       4.511   0.767  -1.010  0.00  0.00     0.018 C 
ENDBRANCH   1   8
TORSDOF 1
ENDMDL
