MODEL 1
REMARK minimizedAffinity -1.878353
REMARK minimizedRMSD -1
REMARK  1 active torsions:
REMARK  status: ('A' for Active; 'I' for Inactive)
REMARK    1  A    between atoms: C1_2  and  C2_3 
ROOT
ATOM      1  C2  UNL d   1       0.004  -1.048  -0.753  0.00  0.00    -0.076 A 
ATOM      2  C3  UNL d   1      -0.043  -0.971   0.649  0.00  0.00     0.004 A 
ATOM      3  C4  UNL d   1       0.470   0.135   1.325  0.00  0.00    -0.003 A 
ATOM      4  C5  UNL d   1       1.037   1.183   0.608  0.00  0.00     0.000 A 
ATOM      5  C6  UNL d   1       1.075   1.132  -0.785  0.00  0.00     0.000 A 
ATOM      6  C7  UNL d   1       0.548   0.032  -1.482  0.00  0.00    -0.073 A 
ATOM      7  C8  UNL d   1       0.622   0.026  -2.984  0.00  0.00     0.078 C 
ENDROOT
BRANCH   1   8
ATOM      8  C1  UNL d   1      -0.543  -2.284  -1.430  0.00  0.00     0.053 C 
ATOM      9  C   UNL d   1       0.076  -3.565  -0.892  0.00  0.00     0.018 C 
ENDBRANCH   1   8
TORSDOF 1
ENDMDL
