MODEL 1
REMARK minimizedAffinity -3.43292069
REMARK minimizedRMSD -1
REMARK  1 active torsions:
REMARK  status: ('A' for Active; 'I' for Inactive)
REMARK    1  A    between atoms: C1_2  and  C2_3 
ROOT
ATOM      1  C2  UNL d   1       0.399  -0.558  -0.356  0.00  0.00    -0.076 A 
ATOM      2  C3  UNL d   1       0.518   0.832  -0.534  0.00  0.00     0.004 A 
ATOM      3  C4  UNL d   1       1.528   1.369  -1.330  0.00  0.00    -0.003 A 
ATOM      4  C5  UNL d   1       2.435   0.525  -1.962  0.00  0.00     0.000 A 
ATOM      5  C6  UNL d   1       2.321  -0.856  -1.811  0.00  0.00     0.000 A 
ATOM      6  C7  UNL d   1       1.299  -1.415  -1.025  0.00  0.00    -0.073 A 
ATOM      7  C8  UNL d   1       1.226  -2.911  -0.892  0.00  0.00     0.078 C 
ENDROOT
BRANCH   1   8
ATOM      8  C1  UNL d   1      -0.700  -1.081   0.541  0.00  0.00     0.053 C 
ATOM      9  C   UNL d   1      -0.800  -0.313   1.850  0.00  0.00     0.018 C 
ENDBRANCH   1   8
TORSDOF 1
ENDMDL
