MODEL 1
REMARK minimizedAffinity -5.17569828
REMARK minimizedRMSD -1
REMARK  1 active torsions:
REMARK  status: ('A' for Active; 'I' for Inactive)
REMARK    1  A    between atoms: C1_2  and  C2_3 
ROOT
ATOM      1  C2  UNL d   1       0.568  -0.294  -0.391  0.00  0.00    -0.076 A 
ATOM      2  C3  UNL d   1       0.789   1.045  -0.757  0.00  0.00     0.004 A 
ATOM      3  C4  UNL d   1       1.530   1.366  -1.892  0.00  0.00    -0.003 A 
ATOM      4  C5  UNL d   1       2.062   0.352  -2.682  0.00  0.00     0.000 A 
ATOM      5  C6  UNL d   1       1.837  -0.982  -2.344  0.00  0.00     0.000 A 
ATOM      6  C7  UNL d   1       1.078  -1.323  -1.211  0.00  0.00    -0.073 A 
ATOM      7  C8  UNL d   1       0.872  -2.778  -0.891  0.00  0.00     0.078 C 
ENDROOT
BRANCH   1   8
ATOM      8  C1  UNL d   1      -0.221  -0.581   0.867  0.00  0.00     0.053 C 
ATOM      9  C   UNL d   1      -0.949   0.648   1.390  0.00  0.00     0.018 C 
ENDBRANCH   1   8
TORSDOF 1
ENDMDL
