MODEL 1
REMARK minimizedAffinity -3.90676498
REMARK minimizedRMSD -1
REMARK  1 active torsions:
REMARK  status: ('A' for Active; 'I' for Inactive)
REMARK    1  A    between atoms: C1_2  and  C2_3 
ROOT
ATOM      1  C2  UNL d   1       0.429   0.341  -0.167  0.00  0.00    -0.076 A 
ATOM      2  C3  UNL d   1       0.262  -0.829  -0.927  0.00  0.00     0.004 A 
ATOM      3  C4  UNL d   1       1.037  -1.065  -2.061  0.00  0.00    -0.003 A 
ATOM      4  C5  UNL d   1       1.993  -0.135  -2.453  0.00  0.00     0.000 A 
ATOM      5  C6  UNL d   1       2.185   1.024  -1.701  0.00  0.00     0.000 A 
ATOM      6  C7  UNL d   1       1.423   1.269  -0.546  0.00  0.00    -0.073 A 
ATOM      7  C8  UNL d   1       1.668   2.538   0.224  0.00  0.00     0.078 C 
ENDROOT
BRANCH   1   8
ATOM      8  C1  UNL d   1      -0.459   0.556   1.038  0.00  0.00     0.053 C 
ATOM      9  C   UNL d   1      -1.868   0.026   0.824  0.00  0.00     0.018 C 
ENDBRANCH   1   8
TORSDOF 1
ENDMDL
