MODEL 1
REMARK minimizedAffinity -5.11952639
REMARK minimizedRMSD -1
REMARK  1 active torsions:
REMARK  status: ('A' for Active; 'I' for Inactive)
REMARK    1  A    between atoms: C1_2  and  C2_3 
ROOT
ATOM      1  C2  UNL d   1       0.805  -0.493  -0.882  0.00  0.00    -0.076 A 
ATOM      2  C3  UNL d   1       1.511   0.272  -1.827  0.00  0.00     0.004 A 
ATOM      3  C4  UNL d   1       2.308  -0.340  -2.793  0.00  0.00    -0.003 A 
ATOM      4  C5  UNL d   1       2.412  -1.726  -2.830  0.00  0.00     0.000 A 
ATOM      5  C6  UNL d   1       1.704  -2.500  -1.911  0.00  0.00     0.000 A 
ATOM      6  C7  UNL d   1       0.883  -1.900  -0.941  0.00  0.00    -0.073 A 
ATOM      7  C8  UNL d   1       0.148  -2.784   0.029  0.00  0.00     0.078 C 
ENDROOT
BRANCH   1   8
ATOM      8  C1  UNL d   1      -0.022   0.227   0.160  0.00  0.00     0.053 C 
ATOM      9  C   UNL d   1       0.508   1.620   0.464  0.00  0.00     0.018 C 
ENDBRANCH   1   8
TORSDOF 1
ENDMDL
