MODEL 1
REMARK minimizedAffinity -2.7414887
REMARK minimizedRMSD -1
REMARK  1 active torsions:
REMARK  status: ('A' for Active; 'I' for Inactive)
REMARK    1  A    between atoms: C1_2  and  C2_3 
ROOT
ATOM      1  C2  UNL d   1       0.166  -0.341   0.264  0.00  0.00    -0.076 A 
ATOM      2  C3  UNL d   1       0.446   1.036   0.310  0.00  0.00     0.004 A 
ATOM      3  C4  UNL d   1       1.389   1.605  -0.545  0.00  0.00    -0.003 A 
ATOM      4  C5  UNL d   1       2.067   0.806  -1.459  0.00  0.00     0.000 A 
ATOM      5  C6  UNL d   1       1.788  -0.558  -1.531  0.00  0.00     0.000 A 
ATOM      6  C7  UNL d   1       0.829  -1.145  -0.688  0.00  0.00    -0.073 A 
ATOM      7  C8  UNL d   1       0.573  -2.623  -0.803  0.00  0.00     0.078 C 
ENDROOT
BRANCH   1   8
ATOM      8  C1  UNL d   1      -0.847  -0.906   1.234  0.00  0.00     0.053 C 
ATOM      9  C   UNL d   1      -2.034   0.022   1.444  0.00  0.00     0.018 C 
ENDBRANCH   1   8
TORSDOF 1
ENDMDL
