MODEL 1
REMARK minimizedAffinity -1.99708498
REMARK minimizedRMSD -1
REMARK  1 active torsions:
REMARK  status: ('A' for Active; 'I' for Inactive)
REMARK    1  A    between atoms: C1_2  and  C2_3 
ROOT
ATOM      1  C2  UNL d   1       2.330  -0.953  -1.413  0.00  0.00    -0.076 A 
ATOM      2  C3  UNL d   1       2.795   0.361  -1.597  0.00  0.00     0.004 A 
ATOM      3  C4  UNL d   1       2.092   1.449  -1.083  0.00  0.00    -0.003 A 
ATOM      4  C5  UNL d   1       0.913   1.241  -0.376  0.00  0.00     0.000 A 
ATOM      5  C6  UNL d   1       0.446  -0.056  -0.169  0.00  0.00     0.000 A 
ATOM      6  C7  UNL d   1       1.151  -1.165  -0.667  0.00  0.00    -0.073 A 
ATOM      7  C8  UNL d   1       0.599  -2.543  -0.419  0.00  0.00     0.078 C 
ENDROOT
BRANCH   1   8
ATOM      8  C1  UNL d   1       3.120  -2.092  -2.017  0.00  0.00     0.053 C 
ATOM      9  C   UNL d   1       4.053  -2.751  -1.013  0.00  0.00     0.018 C 
ENDBRANCH   1   8
TORSDOF 1
ENDMDL
