MODEL 1
REMARK minimizedAffinity -1.39378786
REMARK minimizedRMSD -1
REMARK  1 active torsions:
REMARK  status: ('A' for Active; 'I' for Inactive)
REMARK    1  A    between atoms: C1_2  and  C2_3 
ROOT
ATOM      1  C2  UNL d   1       0.487  -0.685  -0.650  0.00  0.00    -0.076 A 
ATOM      2  C3  UNL d   1       0.677   0.661  -1.009  0.00  0.00     0.004 A 
ATOM      3  C4  UNL d   1       1.499   1.008  -2.079  0.00  0.00    -0.003 A 
ATOM      4  C5  UNL d   1       2.145   0.016  -2.808  0.00  0.00     0.000 A 
ATOM      5  C6  UNL d   1       1.954  -1.325  -2.476  0.00  0.00     0.000 A 
ATOM      6  C7  UNL d   1       1.116  -1.694  -1.411  0.00  0.00    -0.073 A 
ATOM      7  C8  UNL d   1       0.951  -3.155  -1.093  0.00  0.00     0.078 C 
ENDROOT
BRANCH   1   8
ATOM      8  C1  UNL d   1      -0.395  -1.000   0.537  0.00  0.00     0.053 C 
ATOM      9  C   UNL d   1      -1.611  -0.090   0.618  0.00  0.00     0.018 C 
ENDBRANCH   1   8
TORSDOF 1
ENDMDL
