MODEL 1
REMARK minimizedAffinity -4.84324455
REMARK minimizedRMSD -1
REMARK  1 active torsions:
REMARK  status: ('A' for Active; 'I' for Inactive)
REMARK    1  A    between atoms: C1_2  and  C2_3 
ROOT
ATOM      1  C2  UNL d   1       0.384  -0.484  -0.596  0.00  0.00    -0.076 A 
ATOM      2  C3  UNL d   1       0.351  -1.869  -0.359  0.00  0.00     0.004 A 
ATOM      3  C4  UNL d   1       1.114  -2.747  -1.127  0.00  0.00    -0.003 A 
ATOM      4  C5  UNL d   1       1.924  -2.253  -2.144  0.00  0.00     0.000 A 
ATOM      5  C6  UNL d   1       1.982  -0.880  -2.382  0.00  0.00     0.000 A 
ATOM      6  C7  UNL d   1       1.232   0.019  -1.606  0.00  0.00    -0.073 A 
ATOM      7  C8  UNL d   1       1.328   1.489  -1.909  0.00  0.00     0.078 C 
ENDROOT
BRANCH   1   8
ATOM      8  C1  UNL d   1      -0.486   0.416   0.252  0.00  0.00     0.053 C 
ATOM      9  C   UNL d   1      -1.094  -0.312   1.441  0.00  0.00     0.018 C 
ENDBRANCH   1   8
TORSDOF 1
ENDMDL
