MODEL 1
REMARK minimizedAffinity 8.71929264
REMARK minimizedRMSD -1
REMARK  1 active torsions:
REMARK  status: ('A' for Active; 'I' for Inactive)
REMARK    1  A    between atoms: C1_2  and  C2_3 
ROOT
ATOM      1  C2  UNL d   1      -0.343  -4.831  -3.013  0.00  0.00    -0.073 A 
ATOM      2  C3  UNL d   1      -0.787  -4.127  -1.888  0.00  0.00    -0.002 A 
ATOM      3  C4  UNL d   1       0.016  -4.037  -0.750  0.00  0.00     0.004 A 
ATOM      4  C5  UNL d   1       1.273  -4.642  -0.728  0.00  0.00    -0.004 A 
ATOM      5  C6  UNL d   1       1.739  -5.340  -1.847  0.00  0.00    -0.075 A 
ATOM      6  C7  UNL d   1       3.087  -5.999  -1.839  0.00  0.00     0.076 C 
ATOM      7  C8  UNL d   1       0.926  -5.429  -2.985  0.00  0.00     0.001 A 
ENDROOT
BRANCH   1   8
ATOM      8  C1  UNL d   1      -1.204  -4.926  -4.246  0.00  0.00     0.053 C 
ATOM      9  C   UNL d   1      -2.272  -5.999  -4.114  0.00  0.00     0.018 C 
ENDBRANCH   1   8
TORSDOF 1
ENDMDL
