MODEL 1
REMARK minimizedAffinity 7.40539503
REMARK minimizedRMSD -1
REMARK  1 active torsions:
REMARK  status: ('A' for Active; 'I' for Inactive)
REMARK    1  A    between atoms: C1_2  and  C2_3 
ROOT
ATOM      1  C2  UNL d   1       0.711   3.831   0.871  0.00  0.00    -0.073 A 
ATOM      2  C3  UNL d   1       1.901   4.216   1.499  0.00  0.00    -0.002 A 
ATOM      3  C4  UNL d   1       2.302   3.601   2.686  0.00  0.00     0.004 A 
ATOM      4  C5  UNL d   1       1.523   2.593   3.252  0.00  0.00    -0.004 A 
ATOM      5  C6  UNL d   1       0.336   2.186   2.634  0.00  0.00    -0.075 A 
ATOM      6  C7  UNL d   1      -0.514   1.104   3.232  0.00  0.00     0.076 C 
ATOM      7  C8  UNL d   1      -0.061   2.810   1.443  0.00  0.00     0.001 A 
ENDROOT
BRANCH   1   8
ATOM      8  C1  UNL d   1       0.277   4.487  -0.414  0.00  0.00     0.053 C 
ATOM      9  C   UNL d   1       0.439   5.998  -0.366  0.00  0.00     0.018 C 
ENDBRANCH   1   8
TORSDOF 1
ENDMDL
