MODEL 1
REMARK minimizedAffinity 1.3827436
REMARK minimizedRMSD -1
REMARK  1 active torsions:
REMARK  status: ('A' for Active; 'I' for Inactive)
REMARK    1  A    between atoms: C1_2  and  C2_3 
ROOT
ATOM      1  C2  UNL d   1      -0.477   3.725  -0.184  0.00  0.00    -0.073 A 
ATOM      2  C3  UNL d   1      -1.074   4.315   0.936  0.00  0.00    -0.002 A 
ATOM      3  C4  UNL d   1      -1.875   5.448   0.792  0.00  0.00     0.004 A 
ATOM      4  C5  UNL d   1      -2.092   5.999  -0.471  0.00  0.00    -0.004 A 
ATOM      5  C6  UNL d   1      -1.513   5.417  -1.603  0.00  0.00    -0.075 A 
ATOM      6  C7  UNL d   1      -1.735   5.999  -2.968  0.00  0.00     0.076 C 
ATOM      7  C8  UNL d   1      -0.708   4.281  -1.450  0.00  0.00     0.001 A 
ENDROOT
BRANCH   1   8
ATOM      8  C1  UNL d   1       0.384   2.497  -0.035  0.00  0.00     0.053 C 
ATOM      9  C   UNL d   1       1.355   2.620   1.129  0.00  0.00     0.018 C 
ENDBRANCH   1   8
TORSDOF 1
ENDMDL
