MODEL 1
REMARK minimizedAffinity 9.95680714
REMARK minimizedRMSD -1
REMARK  1 active torsions:
REMARK  status: ('A' for Active; 'I' for Inactive)
REMARK    1  A    between atoms: C1_2  and  C2_3 
ROOT
ATOM      1  C2  UNL d   1      -5.930   5.175  -3.807  0.00  0.00    -0.073 A 
ATOM      2  C3  UNL d   1      -5.786   6.000  -2.686  0.00  0.00    -0.002 A 
ATOM      3  C4  UNL d   1      -5.720   5.446  -1.407  0.00  0.00     0.004 A 
ATOM      4  C5  UNL d   1      -5.789   4.063  -1.237  0.00  0.00    -0.004 A 
ATOM      5  C6  UNL d   1      -5.921   3.221  -2.346  0.00  0.00    -0.075 A 
ATOM      6  C7  UNL d   1      -5.999   1.732  -2.180  0.00  0.00     0.076 C 
ATOM      7  C8  UNL d   1      -5.990   3.786  -3.627  0.00  0.00     0.001 A 
ENDROOT
BRANCH   1   8
ATOM      8  C1  UNL d   1      -5.996   5.769  -5.191  0.00  0.00     0.053 C 
ATOM      9  C   UNL d   1      -4.727   5.505  -5.985  0.00  0.00     0.018 C 
ENDBRANCH   1   8
TORSDOF 1
ENDMDL
