MODEL 1
REMARK minimizedAffinity -0.158936992
REMARK minimizedRMSD -1
REMARK  1 active torsions:
REMARK  status: ('A' for Active; 'I' for Inactive)
REMARK    1  A    between atoms: C1_2  and  C2_3 
ROOT
ATOM      1  C2  UNL d   1       0.384   3.730   0.024  0.00  0.00    -0.073 A 
ATOM      2  C3  UNL d   1       1.670   4.270   0.136  0.00  0.00    -0.002 A 
ATOM      3  C4  UNL d   1       2.368   4.187   1.341  0.00  0.00     0.004 A 
ATOM      4  C5  UNL d   1       1.791   3.558   2.444  0.00  0.00    -0.004 A 
ATOM      5  C6  UNL d   1       0.511   3.001   2.349  0.00  0.00    -0.075 A 
ATOM      6  C7  UNL d   1      -0.124   2.323   3.527  0.00  0.00     0.076 C 
ATOM      7  C8  UNL d   1      -0.184   3.091   1.136  0.00  0.00     0.001 A 
ENDROOT
BRANCH   1   8
ATOM      8  C1  UNL d   1      -0.371   3.811  -1.278  0.00  0.00     0.053 C 
ATOM      9  C   UNL d   1      -1.480   4.850  -1.229  0.00  0.00     0.018 C 
ENDBRANCH   1   8
TORSDOF 1
ENDMDL
