MODEL 1
REMARK minimizedAffinity 9.99181747
REMARK minimizedRMSD -1
REMARK  1 active torsions:
REMARK  status: ('A' for Active; 'I' for Inactive)
REMARK    1  A    between atoms: C1_2  and  C2_3 
ROOT
ATOM      1  C2  UNL d   1       1.812  -2.433   0.021  0.00  0.00    -0.073 A 
ATOM      2  C3  UNL d   1       0.756  -1.665  -0.484  0.00  0.00    -0.002 A 
ATOM      3  C4  UNL d   1      -0.281  -2.272  -1.193  0.00  0.00     0.004 A 
ATOM      4  C5  UNL d   1      -0.278  -3.652  -1.397  0.00  0.00    -0.004 A 
ATOM      5  C6  UNL d   1       0.762  -4.438  -0.890  0.00  0.00    -0.075 A 
ATOM      6  C7  UNL d   1       0.781  -5.923  -1.103  0.00  0.00     0.076 C 
ATOM      7  C8  UNL d   1       1.801  -3.820  -0.182  0.00  0.00     0.001 A 
ENDROOT
BRANCH   1   8
ATOM      8  C1  UNL d   1       2.931  -1.782   0.792  0.00  0.00     0.053 C 
ATOM      9  C   UNL d   1       4.277  -1.968   0.109  0.00  0.00     0.018 C 
ENDBRANCH   1   8
TORSDOF 1
ENDMDL
