MODEL 1
REMARK minimizedAffinity 9.43041039
REMARK minimizedRMSD -1
REMARK  1 active torsions:
REMARK  status: ('A' for Active; 'I' for Inactive)
REMARK    1  A    between atoms: C1_2  and  C2_3 
ROOT
ATOM      1  C2  UNL d   1      -2.200   4.630  -2.296  0.00  0.00    -0.073 A 
ATOM      2  C3  UNL d   1      -1.531   5.858  -2.231  0.00  0.00    -0.002 A 
ATOM      3  C4  UNL d   1      -0.386   5.997  -1.447  0.00  0.00     0.004 A 
ATOM      4  C5  UNL d   1       0.107   4.910  -0.725  0.00  0.00    -0.004 A 
ATOM      5  C6  UNL d   1      -0.540   3.671  -0.786  0.00  0.00    -0.075 A 
ATOM      6  C7  UNL d   1      -0.024   2.493  -0.014  0.00  0.00     0.076 C 
ATOM      7  C8  UNL d   1      -1.692   3.541  -1.574  0.00  0.00     0.001 A 
ENDROOT
BRANCH   1   8
ATOM      8  C1  UNL d   1      -3.433   4.474  -3.146  0.00  0.00     0.053 C 
ATOM      9  C   UNL d   1      -4.704   4.461  -2.311  0.00  0.00     0.018 C 
ENDBRANCH   1   8
TORSDOF 1
ENDMDL
