MODEL 1
REMARK minimizedAffinity -3.71019769
REMARK minimizedRMSD -1
REMARK  3 active torsions:
REMARK  status: ('A' for Active; 'I' for Inactive)
REMARK    1  A    between atoms: C3'_2  and  C2'_3 
REMARK    2  A    between atoms: C2'_3  and  C1'_4 
REMARK    3  A    between atoms: C1'_4  and  C1_5 
ROOT
ATOM      1  C1  N4B d   1      -0.691  -0.254   0.021  0.00  0.00    -0.075 A 
ATOM      2  C2  N4B d   1       0.233  -0.167  -1.044  0.00  0.00     0.002 A 
ATOM      3  C3  N4B d   1       1.092  -1.209  -1.293  0.00  0.00     0.002 A 
ATOM      4  C4  N4B d   1       1.059  -2.335  -0.484  0.00  0.00    -0.004 A 
ATOM      5  C5  N4B d   1       0.146  -2.421   0.526  0.00  0.00     0.002 A 
ATOM      6  C6  N4B d   1      -0.727  -1.383   0.786  0.00  0.00     0.002 A 
ENDROOT
BRANCH   1   7
ATOM      7  C1' N4B d   1      -1.591   0.895   0.385  0.00  0.00     0.057 C 
BRANCH   7   8
ATOM      8  C2' N4B d   1      -2.327   0.562   1.680  0.00  0.00     0.009 C 
BRANCH   8   9
ATOM      9  C3' N4B d   1      -1.881   1.448   2.831  0.00  0.00     0.004 C 
ATOM     10  C4' N4B d   1      -1.752   0.699   4.124  0.00  0.00     0.003 C 
ENDBRANCH   8   9
ENDBRANCH   7   8
ENDBRANCH   1   7
TORSDOF 3
ENDMDL
