MODEL 1
REMARK minimizedAffinity -1.69518912
REMARK minimizedRMSD -1
REMARK  3 active torsions:
REMARK  status: ('A' for Active; 'I' for Inactive)
REMARK    1  A    between atoms: C3'_2  and  C2'_3 
REMARK    2  A    between atoms: C2'_3  and  C1'_4 
REMARK    3  A    between atoms: C1'_4  and  C1_5 
ROOT
ATOM      1  C1  N4B d   1      -2.139   0.450   1.618  0.00  0.00    -0.075 A 
ATOM      2  C2  N4B d   1      -2.665  -0.693   2.259  0.00  0.00     0.002 A 
ATOM      3  C3  N4B d   1      -2.931  -0.662   3.606  0.00  0.00     0.002 A 
ATOM      4  C4  N4B d   1      -2.664   0.489   4.332  0.00  0.00    -0.004 A 
ATOM      5  C5  N4B d   1      -2.180   1.596   3.700  0.00  0.00     0.002 A 
ATOM      6  C6  N4B d   1      -1.911   1.581   2.346  0.00  0.00     0.002 A 
ENDROOT
BRANCH   1   7
ATOM      7  C1' N4B d   1      -1.751   0.437   0.164  0.00  0.00     0.057 C 
BRANCH   7   8
ATOM      8  C2' N4B d   1      -0.239   0.273   0.051  0.00  0.00     0.009 C 
BRANCH   8   9
ATOM      9  C3' N4B d   1       0.153  -1.151  -0.307  0.00  0.00     0.004 C 
ATOM     10  C4' N4B d   1       1.604  -1.282  -0.663  0.00  0.00     0.003 C 
ENDBRANCH   8   9
ENDBRANCH   7   8
ENDBRANCH   1   7
TORSDOF 3
ENDMDL
