MODEL 1
REMARK minimizedAffinity -4.50216341
REMARK minimizedRMSD -1
REMARK  3 active torsions:
REMARK  status: ('A' for Active; 'I' for Inactive)
REMARK    1  A    between atoms: C3'_2  and  C2'_3 
REMARK    2  A    between atoms: C2'_3  and  C1'_4 
REMARK    3  A    between atoms: C1'_4  and  C1_5 
ROOT
ATOM      1  C1  N4B d   1      -0.156  -0.569   0.400  0.00  0.00    -0.075 A 
ATOM      2  C2  N4B d   1       0.022   0.493  -0.515  0.00  0.00     0.002 A 
ATOM      3  C3  N4B d   1       1.027   0.434  -1.448  0.00  0.00     0.002 A 
ATOM      4  C4  N4B d   1       1.875  -0.663  -1.475  0.00  0.00    -0.004 A 
ATOM      5  C5  N4B d   1       1.682  -1.695  -0.604  0.00  0.00     0.002 A 
ATOM      6  C6  N4B d   1       0.673  -1.651   0.337  0.00  0.00     0.002 A 
ENDROOT
BRANCH   1   7
ATOM      7  C1' N4B d   1      -1.186  -0.510   1.494  0.00  0.00     0.057 C 
BRANCH   7   8
ATOM      8  C2' N4B d   1      -1.870   0.853   1.466  0.00  0.00     0.009 C 
BRANCH   8   9
ATOM      9  C3' N4B d   1      -1.983   1.461   2.853  0.00  0.00     0.004 C 
ATOM     10  C4' N4B d   1      -1.574   0.511   3.939  0.00  0.00     0.003 C 
ENDBRANCH   8   9
ENDBRANCH   7   8
ENDBRANCH   1   7
TORSDOF 3
ENDMDL
