MODEL 1
REMARK minimizedAffinity -4.72455931
REMARK minimizedRMSD -1
REMARK  3 active torsions:
REMARK  status: ('A' for Active; 'I' for Inactive)
REMARK    1  A    between atoms: C3'_2  and  C2'_3 
REMARK    2  A    between atoms: C2'_3  and  C1'_4 
REMARK    3  A    between atoms: C1'_4  and  C1_5 
ROOT
ATOM      1  C1  N4B d   1      -0.395  -0.059  -0.179  0.00  0.00    -0.075 A 
ATOM      2  C2  N4B d   1       0.708   0.644  -0.712  0.00  0.00     0.002 A 
ATOM      3  C3  N4B d   1       1.865  -0.027  -1.022  0.00  0.00     0.002 A 
ATOM      4  C4  N4B d   1       1.950  -1.391  -0.791  0.00  0.00    -0.004 A 
ATOM      5  C5  N4B d   1       0.872  -2.068  -0.300  0.00  0.00     0.002 A 
ATOM      6  C6  N4B d   1      -0.299  -1.407   0.012  0.00  0.00     0.002 A 
ENDROOT
BRANCH   1   7
ATOM      7  C1' N4B d   1      -1.651   0.645   0.256  0.00  0.00     0.057 C 
BRANCH   7   8
ATOM      8  C2' N4B d   1      -2.033   0.170   1.654  0.00  0.00     0.009 C 
BRANCH   8   9
ATOM      9  C3' N4B d   1      -2.013   1.304   2.665  0.00  0.00     0.004 C 
ATOM     10  C4' N4B d   1      -1.272   0.950   3.920  0.00  0.00     0.003 C 
ENDBRANCH   8   9
ENDBRANCH   7   8
ENDBRANCH   1   7
TORSDOF 3
ENDMDL
