MODEL 1
REMARK minimizedAffinity -6.28308487
REMARK minimizedRMSD -1
REMARK  3 active torsions:
REMARK  status: ('A' for Active; 'I' for Inactive)
REMARK    1  A    between atoms: C3'_2  and  C2'_3 
REMARK    2  A    between atoms: C2'_3  and  C1'_4 
REMARK    3  A    between atoms: C1'_4  and  C1_5 
ROOT
ATOM      1  C1  N4B d   1      -0.187  -0.189  -0.086  0.00  0.00    -0.075 A 
ATOM      2  C2  N4B d   1       1.053   0.278  -0.573  0.00  0.00     0.002 A 
ATOM      3  C3  N4B d   1       2.093  -0.600  -0.759  0.00  0.00     0.002 A 
ATOM      4  C4  N4B d   1       1.921  -1.941  -0.448  0.00  0.00    -0.004 A 
ATOM      5  C5  N4B d   1       0.712  -2.388  -0.002  0.00  0.00     0.002 A 
ATOM      6  C6  N4B d   1      -0.342  -1.517   0.186  0.00  0.00     0.002 A 
ENDROOT
BRANCH   1   7
ATOM      7  C1' N4B d   1      -1.326   0.748   0.215  0.00  0.00     0.057 C 
BRANCH   7   8
ATOM      8  C2' N4B d   1      -1.966   0.348   1.541  0.00  0.00     0.009 C 
BRANCH   8   9
ATOM      9  C3' N4B d   1      -1.693   1.366   2.634  0.00  0.00     0.004 C 
ATOM     10  C4' N4B d   1      -1.655   0.754   4.002  0.00  0.00     0.003 C 
ENDBRANCH   8   9
ENDBRANCH   7   8
ENDBRANCH   1   7
TORSDOF 3
ENDMDL
