MODEL 1
REMARK minimizedAffinity -4.79660273
REMARK minimizedRMSD -1
REMARK  3 active torsions:
REMARK  status: ('A' for Active; 'I' for Inactive)
REMARK    1  A    between atoms: C3'_2  and  C2'_3 
REMARK    2  A    between atoms: C2'_3  and  C1'_4 
REMARK    3  A    between atoms: C1'_4  and  C1_5 
ROOT
ATOM      1  C1  N4B d   1      -0.654   0.359  -0.200  0.00  0.00    -0.075 A 
ATOM      2  C2  N4B d   1       0.437   1.103  -0.699  0.00  0.00     0.002 A 
ATOM      3  C3  N4B d   1       1.582   0.459  -1.100  0.00  0.00     0.002 A 
ATOM      4  C4  N4B d   1       1.665  -0.922  -0.993  0.00  0.00    -0.004 A 
ATOM      5  C5  N4B d   1       0.597  -1.635  -0.534  0.00  0.00     0.002 A 
ATOM      6  C6  N4B d   1      -0.561  -1.001  -0.131  0.00  0.00     0.002 A 
ENDROOT
BRANCH   1   7
ATOM      7  C1' N4B d   1      -1.894   1.026   0.330  0.00  0.00     0.057 C 
BRANCH   7   8
ATOM      8  C2' N4B d   1      -2.256   0.410   1.678  0.00  0.00     0.009 C 
BRANCH   8   9
ATOM      9  C3' N4B d   1      -2.281   1.447   2.788  0.00  0.00     0.004 C 
ATOM     10  C4' N4B d   1      -2.361   0.833   4.154  0.00  0.00     0.003 C 
ENDBRANCH   8   9
ENDBRANCH   7   8
ENDBRANCH   1   7
TORSDOF 3
ENDMDL
