MODEL 1
REMARK minimizedAffinity -6.01848078
REMARK minimizedRMSD -1
REMARK  3 active torsions:
REMARK  status: ('A' for Active; 'I' for Inactive)
REMARK    1  A    between atoms: C3'_2  and  C2'_3 
REMARK    2  A    between atoms: C2'_3  and  C1'_4 
REMARK    3  A    between atoms: C1'_4  and  C1_5 
ROOT
ATOM      1  C1  N4B d   1      -0.112   0.355   0.083  0.00  0.00    -0.075 A 
ATOM      2  C2  N4B d   1       0.985   0.931  -0.595  0.00  0.00     0.002 A 
ATOM      3  C3  N4B d   1       1.838   0.137  -1.321  0.00  0.00     0.002 A 
ATOM      4  C4  N4B d   1       1.626  -1.233  -1.368  0.00  0.00    -0.004 A 
ATOM      5  C5  N4B d   1       0.549  -1.779  -0.732  0.00  0.00     0.002 A 
ATOM      6  C6  N4B d   1      -0.318  -0.991  -0.002  0.00  0.00     0.002 A 
ENDROOT
BRANCH   1   7
ATOM      7  C1' N4B d   1      -1.022   1.172   0.959  0.00  0.00     0.057 C 
BRANCH   7   8
ATOM      8  C2' N4B d   1      -1.975   0.238   1.699  0.00  0.00     0.009 C 
BRANCH   8   9
ATOM      9  C3' N4B d   1      -2.441   0.830   3.018  0.00  0.00     0.004 C 
ATOM     10  C4' N4B d   1      -2.381  -0.152   4.149  0.00  0.00     0.003 C 
ENDBRANCH   8   9
ENDBRANCH   7   8
ENDBRANCH   1   7
TORSDOF 3
ENDMDL
