MODEL 1
REMARK minimizedAffinity -5.58391714
REMARK minimizedRMSD -1
REMARK  3 active torsions:
REMARK  status: ('A' for Active; 'I' for Inactive)
REMARK    1  A    between atoms: C3'_2  and  C2'_3 
REMARK    2  A    between atoms: C2'_3  and  C1'_4 
REMARK    3  A    between atoms: C1'_4  and  C1_5 
ROOT
ATOM      1  C1  N4B d   1      -0.805   0.555   1.197  0.00  0.00    -0.075 A 
ATOM      2  C2  N4B d   1      -0.620   1.614   2.113  0.00  0.00     0.002 A 
ATOM      3  C3  N4B d   1      -1.574   1.870   3.067  0.00  0.00     0.002 A 
ATOM      4  C4  N4B d   1      -2.724   1.097   3.113  0.00  0.00    -0.004 A 
ATOM      5  C5  N4B d   1      -2.883   0.060   2.241  0.00  0.00     0.002 A 
ATOM      6  C6  N4B d   1      -1.931  -0.212   1.279  0.00  0.00     0.002 A 
ENDROOT
BRANCH   1   7
ATOM      7  C1' N4B d   1       0.169   0.291   0.082  0.00  0.00     0.057 C 
BRANCH   7   8
ATOM      8  C2' N4B d   1       0.475  -1.203   0.028  0.00  0.00     0.009 C 
BRANCH   8   9
ATOM      9  C3' N4B d   1       1.556  -1.525  -0.990  0.00  0.00     0.004 C 
ATOM     10  C4' N4B d   1       2.849  -0.821  -0.706  0.00  0.00     0.003 C 
ENDBRANCH   8   9
ENDBRANCH   7   8
ENDBRANCH   1   7
TORSDOF 3
ENDMDL
