MODEL 1
REMARK minimizedAffinity -2.30045748
REMARK minimizedRMSD -1
REMARK  3 active torsions:
REMARK  status: ('A' for Active; 'I' for Inactive)
REMARK    1  A    between atoms: C3'_2  and  C2'_3 
REMARK    2  A    between atoms: C2'_3  and  C1'_4 
REMARK    3  A    between atoms: C1'_4  and  C1_5 
ROOT
ATOM      1  C1  N4B d   1       0.310  -0.129   0.031  0.00  0.00    -0.075 A 
ATOM      2  C2  N4B d   1      -0.178  -1.453  -0.003  0.00  0.00     0.002 A 
ATOM      3  C3  N4B d   1       0.485  -2.410  -0.732  0.00  0.00     0.002 A 
ATOM      4  C4  N4B d   1       1.622  -2.063  -1.446  0.00  0.00    -0.004 A 
ATOM      5  C5  N4B d   1       2.101  -0.787  -1.387  0.00  0.00     0.002 A 
ATOM      6  C6  N4B d   1       1.447   0.184  -0.656  0.00  0.00     0.002 A 
ENDROOT
BRANCH   1   7
ATOM      7  C1' N4B d   1      -0.428   0.971   0.743  0.00  0.00     0.057 C 
BRANCH   7   8
ATOM      8  C2' N4B d   1      -1.589   0.368   1.529  0.00  0.00     0.009 C 
BRANCH   8   9
ATOM      9  C3' N4B d   1      -1.867   1.134   2.811  0.00  0.00     0.004 C 
ATOM     10  C4' N4B d   1      -2.994   0.546   3.606  0.00  0.00     0.003 C 
ENDBRANCH   8   9
ENDBRANCH   7   8
ENDBRANCH   1   7
TORSDOF 3
ENDMDL
