MODEL 1
REMARK minimizedAffinity -4.76770449
REMARK minimizedRMSD -1
REMARK  3 active torsions:
REMARK  status: ('A' for Active; 'I' for Inactive)
REMARK    1  A    between atoms: C3'_2  and  C2'_3 
REMARK    2  A    between atoms: C2'_3  and  C1'_4 
REMARK    3  A    between atoms: C1'_4  and  C1_5 
ROOT
ATOM      1  C1  N4B d   1      -1.792   0.552   1.552  0.00  0.00    -0.075 A 
ATOM      2  C2  N4B d   1      -1.018   1.448   2.322  0.00  0.00     0.002 A 
ATOM      3  C3  N4B d   1      -1.365   1.709   3.626  0.00  0.00     0.002 A 
ATOM      4  C4  N4B d   1      -2.486   1.102   4.172  0.00  0.00    -0.004 A 
ATOM      5  C5  N4B d   1      -3.213   0.219   3.429  0.00  0.00     0.002 A 
ATOM      6  C6  N4B d   1      -2.874  -0.056   2.119  0.00  0.00     0.002 A 
ENDROOT
BRANCH   1   7
ATOM      7  C1' N4B d   1      -1.503   0.302   0.097  0.00  0.00     0.057 C 
BRANCH   7   8
ATOM      8  C2' N4B d   1      -0.017   0.001  -0.074  0.00  0.00     0.009 C 
BRANCH   8   9
ATOM      9  C3' N4B d   1       0.269  -1.491  -0.037  0.00  0.00     0.004 C 
ATOM     10  C4' N4B d   1       1.668  -1.825  -0.460  0.00  0.00     0.003 C 
ENDBRANCH   8   9
ENDBRANCH   7   8
ENDBRANCH   1   7
TORSDOF 3
ENDMDL
