MODEL 1
REMARK minimizedAffinity -5.38086796
REMARK minimizedRMSD -1
REMARK  3 active torsions:
REMARK  status: ('A' for Active; 'I' for Inactive)
REMARK    1  A    between atoms: C3'_2  and  C2'_3 
REMARK    2  A    between atoms: C2'_3  and  C1'_4 
REMARK    3  A    between atoms: C1'_4  and  C1_5 
ROOT
ATOM      1  C1  N4B d   1      -0.681   0.524  -0.305  0.00  0.00    -0.075 A 
ATOM      2  C2  N4B d   1       0.392   1.359  -0.687  0.00  0.00     0.002 A 
ATOM      3  C3  N4B d   1       1.622   0.814  -0.960  0.00  0.00     0.002 A 
ATOM      4  C4  N4B d   1       1.808  -0.555  -0.840  0.00  0.00    -0.004 A 
ATOM      5  C5  N4B d   1       0.760  -1.358  -0.495  0.00  0.00     0.002 A 
ATOM      6  C6  N4B d   1      -0.483  -0.824  -0.222  0.00  0.00     0.002 A 
ENDROOT
BRANCH   1   7
ATOM      7  C1' N4B d   1      -2.022   1.082   0.087  0.00  0.00     0.057 C 
BRANCH   7   8
ATOM      8  C2' N4B d   1      -2.357   0.631   1.505  0.00  0.00     0.009 C 
BRANCH   8   9
ATOM      9  C3' N4B d   1      -2.229   1.765   2.507  0.00  0.00     0.004 C 
ATOM     10  C4' N4B d   1      -1.615   1.328   3.804  0.00  0.00     0.003 C 
ENDBRANCH   8   9
ENDBRANCH   7   8
ENDBRANCH   1   7
TORSDOF 3
ENDMDL
