MODEL 1
REMARK minimizedAffinity 9.22274685
REMARK minimizedRMSD -1
REMARK  3 active torsions:
REMARK  status: ('A' for Active; 'I' for Inactive)
REMARK    1  A    between atoms: C3'_2  and  C2'_3 
REMARK    2  A    between atoms: C2'_3  and  C1'_4 
REMARK    3  A    between atoms: C1'_4  and  C1_5 
ROOT
ATOM      1  C1  N4B d   1       0.304   3.244   0.200  0.00  0.00    -0.075 A 
ATOM      2  C2  N4B d   1       0.975   4.419  -0.203  0.00  0.00     0.002 A 
ATOM      3  C3  N4B d   1       0.717   4.969  -1.435  0.00  0.00     0.002 A 
ATOM      4  C4  N4B d   1      -0.190   4.353  -2.284  0.00  0.00    -0.004 A 
ATOM      5  C5  N4B d   1      -0.853   3.232  -1.877  0.00  0.00     0.002 A 
ATOM      6  C6  N4B d   1      -0.606   2.671  -0.640  0.00  0.00     0.002 A 
ENDROOT
BRANCH   1   7
ATOM      7  C1' N4B d   1       0.617   2.558   1.502  0.00  0.00     0.057 C 
BRANCH   7   8
ATOM      8  C2' N4B d   1      -0.642   2.519   2.363  0.00  0.00     0.009 C 
BRANCH   8   9
ATOM      9  C3' N4B d   1      -0.575   1.431   3.420  0.00  0.00     0.004 C 
ATOM     10  C4' N4B d   1       0.673   0.605   3.324  0.00  0.00     0.003 C 
ENDBRANCH   8   9
ENDBRANCH   7   8
ENDBRANCH   1   7
TORSDOF 3
ENDMDL
