MODEL 1
REMARK minimizedAffinity 3.39308619
REMARK minimizedRMSD -1
REMARK  3 active torsions:
REMARK  status: ('A' for Active; 'I' for Inactive)
REMARK    1  A    between atoms: C3'_2  and  C2'_3 
REMARK    2  A    between atoms: C2'_3  and  C1'_4 
REMARK    3  A    between atoms: C1'_4  and  C1_5 
ROOT
ATOM      1  C1  N4B d   1       2.182  -2.477  -0.298  0.00  0.00    -0.075 A 
ATOM      2  C2  N4B d   1       1.273  -3.484  -0.690  0.00  0.00     0.002 A 
ATOM      3  C3  N4B d   1      -0.022  -3.155  -1.008  0.00  0.00     0.002 A 
ATOM      4  C4  N4B d   1      -0.434  -1.834  -0.923  0.00  0.00    -0.004 A 
ATOM      5  C5  N4B d   1       0.457  -0.863  -0.568  0.00  0.00     0.002 A 
ATOM      6  C6  N4B d   1       1.762  -1.179  -0.250  0.00  0.00     0.002 A 
ENDROOT
BRANCH   1   7
ATOM      7  C1' N4B d   1       3.584  -2.799   0.141  0.00  0.00     0.057 C 
BRANCH   7   8
ATOM      8  C2' N4B d   1       4.519  -2.708  -1.061  0.00  0.00     0.009 C 
BRANCH   8   9
ATOM      9  C3' N4B d   1       5.567  -3.808  -1.050  0.00  0.00     0.004 C 
ATOM     10  C4' N4B d   1       4.967  -5.181  -1.003  0.00  0.00     0.003 C 
ENDBRANCH   8   9
ENDBRANCH   7   8
ENDBRANCH   1   7
TORSDOF 3
ENDMDL
