MODEL 1
REMARK minimizedAffinity 22.7869015
REMARK minimizedRMSD -1
REMARK  3 active torsions:
REMARK  status: ('A' for Active; 'I' for Inactive)
REMARK    1  A    between atoms: C3'_2  and  C2'_3 
REMARK    2  A    between atoms: C2'_3  and  C1'_4 
REMARK    3  A    between atoms: C1'_4  and  C1_5 
ROOT
ATOM      1  C1  N4B d   1      -0.071   4.271  -0.706  0.00  0.00    -0.075 A 
ATOM      2  C2  N4B d   1      -0.152   3.725  -2.006  0.00  0.00     0.002 A 
ATOM      3  C3  N4B d   1      -0.937   4.330  -2.957  0.00  0.00     0.002 A 
ATOM      4  C4  N4B d   1      -1.663   5.465  -2.626  0.00  0.00    -0.004 A 
ATOM      5  C5  N4B d   1      -1.560   5.999  -1.376  0.00  0.00     0.002 A 
ATOM      6  C6  N4B d   1      -0.771   5.405  -0.412  0.00  0.00     0.002 A 
ENDROOT
BRANCH   1   7
ATOM      7  C1' N4B d   1       0.707   3.597   0.391  0.00  0.00     0.057 C 
BRANCH   7   8
ATOM      8  C2' N4B d   1      -0.030   2.333   0.824  0.00  0.00     0.009 C 
BRANCH   8   9
ATOM      9  C3' N4B d   1       0.054   2.112   2.324  0.00  0.00     0.004 C 
ATOM     10  C4' N4B d   1       1.131   1.142   2.709  0.00  0.00     0.003 C 
ENDBRANCH   8   9
ENDBRANCH   7   8
ENDBRANCH   1   7
TORSDOF 3
ENDMDL
