MODEL 1
REMARK minimizedAffinity 11.492815
REMARK minimizedRMSD -1
REMARK  3 active torsions:
REMARK  status: ('A' for Active; 'I' for Inactive)
REMARK    1  A    between atoms: C3'_2  and  C2'_3 
REMARK    2  A    between atoms: C2'_3  and  C1'_4 
REMARK    3  A    between atoms: C1'_4  and  C1_5 
ROOT
ATOM      1  C1  N4B d   1      -2.089  -3.676  -5.234  0.00  0.00    -0.075 A 
ATOM      2  C2  N4B d   1      -3.499  -3.746  -5.219  0.00  0.00     0.002 A 
ATOM      3  C3  N4B d   1      -4.133  -4.906  -5.591  0.00  0.00     0.002 A 
ATOM      4  C4  N4B d   1      -3.381  -5.998  -5.998  0.00  0.00    -0.004 A 
ATOM      5  C5  N4B d   1      -2.018  -5.930  -5.986  0.00  0.00     0.002 A 
ATOM      6  C6  N4B d   1      -1.368  -4.772  -5.610  0.00  0.00     0.002 A 
ENDROOT
BRANCH   1   7
ATOM      7  C1' N4B d   1      -1.354  -2.402  -4.918  0.00  0.00     0.057 C 
BRANCH   7   8
ATOM      8  C2' N4B d   1      -1.018  -2.373  -3.430  0.00  0.00     0.009 C 
BRANCH   8   9
ATOM      9  C3' N4B d   1      -1.022  -3.764  -2.819  0.00  0.00     0.004 C 
ATOM     10  C4' N4B d   1      -0.406  -3.801  -1.453  0.00  0.00     0.003 C 
ENDBRANCH   8   9
ENDBRANCH   7   8
ENDBRANCH   1   7
TORSDOF 3
ENDMDL
