MODEL 1
REMARK minimizedAffinity 6.21099997
REMARK minimizedRMSD -1
REMARK  3 active torsions:
REMARK  status: ('A' for Active; 'I' for Inactive)
REMARK    1  A    between atoms: C3'_2  and  C2'_3 
REMARK    2  A    between atoms: C2'_3  and  C1'_4 
REMARK    3  A    between atoms: C1'_4  and  C1_5 
ROOT
ATOM      1  C1  N4B d   1       2.252  -0.560   2.319  0.00  0.00    -0.075 A 
ATOM      2  C2  N4B d   1       1.964  -1.505   3.328  0.00  0.00     0.002 A 
ATOM      3  C3  N4B d   1       0.971  -1.252   4.242  0.00  0.00     0.002 A 
ATOM      4  C4  N4B d   1       0.269  -0.058   4.179  0.00  0.00    -0.004 A 
ATOM      5  C5  N4B d   1       0.536   0.839   3.186  0.00  0.00     0.002 A 
ATOM      6  C6  N4B d   1       1.529   0.595   2.258  0.00  0.00     0.002 A 
ENDROOT
BRANCH   1   7
ATOM      7  C1' N4B d   1       3.386  -0.755   1.350  0.00  0.00     0.057 C 
BRANCH   7   8
ATOM      8  C2' N4B d   1       3.024  -1.869   0.372  0.00  0.00     0.009 C 
BRANCH   8   9
ATOM      9  C3' N4B d   1       3.893  -1.837  -0.873  0.00  0.00     0.004 C 
ATOM     10  C4' N4B d   1       5.264  -2.398  -0.640  0.00  0.00     0.003 C 
ENDBRANCH   8   9
ENDBRANCH   7   8
ENDBRANCH   1   7
TORSDOF 3
ENDMDL
