MODEL 1
REMARK minimizedAffinity 4.60797644
REMARK minimizedRMSD -1
REMARK  3 active torsions:
REMARK  status: ('A' for Active; 'I' for Inactive)
REMARK    1  A    between atoms: C3'_2  and  C2'_3 
REMARK    2  A    between atoms: C2'_3  and  C1'_4 
REMARK    3  A    between atoms: C1'_4  and  C1_5 
ROOT
ATOM      1  C1  N4B d   1      -4.760   2.112  -3.810  0.00  0.00    -0.075 A 
ATOM      2  C2  N4B d   1      -5.910   1.293  -3.836  0.00  0.00     0.002 A 
ATOM      3  C3  N4B d   1      -5.998   0.261  -4.738  0.00  0.00     0.002 A 
ATOM      4  C4  N4B d   1      -4.961   0.042  -5.632  0.00  0.00    -0.004 A 
ATOM      5  C5  N4B d   1      -3.842   0.821  -5.583  0.00  0.00     0.002 A 
ATOM      6  C6  N4B d   1      -3.739   1.859  -4.679  0.00  0.00     0.002 A 
ENDROOT
BRANCH   1   7
ATOM      7  C1' N4B d   1      -4.655   3.305  -2.899  0.00  0.00     0.057 C 
BRANCH   7   8
ATOM      8  C2' N4B d   1      -5.982   3.498  -2.173  0.00  0.00     0.009 C 
BRANCH   8   9
ATOM      9  C3' N4B d   1      -5.987   2.828  -0.810  0.00  0.00     0.004 C 
ATOM     10  C4' N4B d   1      -5.831   1.338  -0.895  0.00  0.00     0.003 C 
ENDBRANCH   8   9
ENDBRANCH   7   8
ENDBRANCH   1   7
TORSDOF 3
ENDMDL
