MODEL 1
REMARK minimizedAffinity 4.89183235
REMARK minimizedRMSD -1
REMARK  3 active torsions:
REMARK  status: ('A' for Active; 'I' for Inactive)
REMARK    1  A    between atoms: C3'_2  and  C2'_3 
REMARK    2  A    between atoms: C2'_3  and  C1'_4 
REMARK    3  A    between atoms: C1'_4  and  C1_5 
ROOT
ATOM      1  C1  N4B d   1       0.767   3.557   1.239  0.00  0.00    -0.075 A 
ATOM      2  C2  N4B d   1       1.872   3.741   2.099  0.00  0.00     0.002 A 
ATOM      3  C3  N4B d   1       1.915   3.094   3.310  0.00  0.00     0.002 A 
ATOM      4  C4  N4B d   1       0.861   2.276   3.688  0.00  0.00    -0.004 A 
ATOM      5  C5  N4B d   1      -0.190   2.083   2.841  0.00  0.00     0.002 A 
ATOM      6  C6  N4B d   1      -0.245   2.724   1.619  0.00  0.00     0.002 A 
ENDROOT
BRANCH   1   7
ATOM      7  C1' N4B d   1       0.635   4.309  -0.057  0.00  0.00     0.057 C 
BRANCH   7   8
ATOM      8  C2' N4B d   1      -0.271   3.526  -1.001  0.00  0.00     0.009 C 
BRANCH   8   9
ATOM      9  C3' N4B d   1      -0.445   4.229  -2.336  0.00  0.00     0.004 C 
ATOM     10  C4' N4B d   1      -1.796   4.861  -2.488  0.00  0.00     0.003 C 
ENDBRANCH   8   9
ENDBRANCH   7   8
ENDBRANCH   1   7
TORSDOF 3
ENDMDL
