MODEL 1
REMARK minimizedAffinity 11.7342749
REMARK minimizedRMSD -1
REMARK  3 active torsions:
REMARK  status: ('A' for Active; 'I' for Inactive)
REMARK    1  A    between atoms: C3'_2  and  C2'_3 
REMARK    2  A    between atoms: C2'_3  and  C1'_4 
REMARK    3  A    between atoms: C1'_4  and  C1_5 
ROOT
ATOM      1  C1  N4B d   1      -1.670   5.356  -3.521  0.00  0.00    -0.075 A 
ATOM      2  C2  N4B d   1      -2.453   5.258  -4.692  0.00  0.00     0.002 A 
ATOM      3  C3  N4B d   1      -1.893   5.528  -5.917  0.00  0.00     0.002 A 
ATOM      4  C4  N4B d   1      -0.563   5.914  -5.993  0.00  0.00    -0.004 A 
ATOM      5  C5  N4B d   1       0.193   5.981  -4.859  0.00  0.00     0.002 A 
ATOM      6  C6  N4B d   1      -0.356   5.709  -3.622  0.00  0.00     0.002 A 
ENDROOT
BRANCH   1   7
ATOM      7  C1' N4B d   1      -2.260   5.154  -2.152  0.00  0.00     0.057 C 
BRANCH   7   8
ATOM      8  C2' N4B d   1      -1.134   4.907  -1.152  0.00  0.00     0.009 C 
BRANCH   8   9
ATOM      9  C3' N4B d   1      -0.397   3.610  -1.436  0.00  0.00     0.004 C 
ATOM     10  C4' N4B d   1       0.199   2.999  -0.203  0.00  0.00     0.003 C 
ENDBRANCH   8   9
ENDBRANCH   7   8
ENDBRANCH   1   7
TORSDOF 3
ENDMDL
