MODEL 1
REMARK minimizedAffinity 10.8274546
REMARK minimizedRMSD -1
REMARK  0 active torsions:
REMARK  status: ('A' for Active; 'I' for Inactive)
ROOT
ATOM      1  C   UNL d   1      -1.356   3.044  -3.135  0.00  0.00     0.077 C 
ATOM      2  C1  UNL d   1      -0.500   2.400  -2.085  0.00  0.00    -0.074 A 
ATOM      3  C2  UNL d   1       0.659   1.700  -2.434  0.00  0.00    -0.005 A 
ATOM      4  C3  UNL d   1       1.451   1.114  -1.446  0.00  0.00     0.006 A 
ATOM      5  C4  UNL d   1       1.093   1.224  -0.102  0.00  0.00    -0.005 A 
ATOM      6  C5  UNL d   1      -0.062   1.921   0.266  0.00  0.00    -0.074 A 
ATOM      7  C6  UNL d   1      -0.457   2.057   1.707  0.00  0.00     0.077 C 
ATOM      8  C7  UNL d   1      -0.849   2.513  -0.732  0.00  0.00    -0.001 A 
ENDROOT
TORSDOF 0
ENDMDL
