MODEL 1
REMARK minimizedAffinity -0.377748698
REMARK minimizedRMSD -1
REMARK  0 active torsions:
REMARK  status: ('A' for Active; 'I' for Inactive)
ROOT
ATOM      1  C   UNL d   1      -1.802   5.176  -4.016  0.00  0.00     0.077 C 
ATOM      2  C1  UNL d   1      -3.119   4.954  -4.699  0.00  0.00    -0.074 A 
ATOM      3  C2  UNL d   1      -3.771   5.999  -5.361  0.00  0.00    -0.005 A 
ATOM      4  C3  UNL d   1      -4.990   5.775  -6.000  0.00  0.00     0.006 A 
ATOM      5  C4  UNL d   1      -5.569   4.506  -5.983  0.00  0.00    -0.005 A 
ATOM      6  C5  UNL d   1      -4.932   3.448  -5.327  0.00  0.00    -0.074 A 
ATOM      7  C6  UNL d   1      -5.536   2.075  -5.308  0.00  0.00     0.077 C 
ATOM      8  C7  UNL d   1      -3.703   3.680  -4.693  0.00  0.00    -0.001 A 
ENDROOT
TORSDOF 0
ENDMDL
