MODEL 1
REMARK minimizedAffinity 2.9167943
REMARK minimizedRMSD -1
REMARK  0 active torsions:
REMARK  status: ('A' for Active; 'I' for Inactive)
ROOT
ATOM      1  C   UNL d   1      -6.000   1.455  -5.990  0.00  0.00     0.077 C 
ATOM      2  C1  UNL d   1      -4.814   2.309  -5.652  0.00  0.00    -0.074 A 
ATOM      3  C2  UNL d   1      -3.629   1.739  -5.178  0.00  0.00    -0.005 A 
ATOM      4  C3  UNL d   1      -2.531   2.545  -4.877  0.00  0.00     0.006 A 
ATOM      5  C4  UNL d   1      -2.608   3.928  -5.046  0.00  0.00    -0.005 A 
ATOM      6  C5  UNL d   1      -3.785   4.516  -5.520  0.00  0.00    -0.074 A 
ATOM      7  C6  UNL d   1      -3.881   6.000  -5.718  0.00  0.00     0.077 C 
ATOM      8  C7  UNL d   1      -4.881   3.698  -5.827  0.00  0.00    -0.001 A 
ENDROOT
TORSDOF 0
ENDMDL
