MODEL 1
REMARK minimizedAffinity 18.5888386
REMARK minimizedRMSD -1
REMARK  0 active torsions:
REMARK  status: ('A' for Active; 'I' for Inactive)
ROOT
ATOM      1  C   UNL d   1      -0.326  -4.282   6.000  0.00  0.00     0.077 C 
ATOM      2  C1  UNL d   1      -1.021  -3.011   5.610  0.00  0.00    -0.074 A 
ATOM      3  C2  UNL d   1      -2.342  -2.765   6.000  0.00  0.00    -0.005 A 
ATOM      4  C3  UNL d   1      -2.971  -1.574   5.638  0.00  0.00     0.006 A 
ATOM      5  C4  UNL d   1      -2.288  -0.618   4.884  0.00  0.00    -0.005 A 
ATOM      6  C5  UNL d   1      -0.967  -0.846   4.487  0.00  0.00    -0.074 A 
ATOM      7  C6  UNL d   1      -0.215   0.174   3.685  0.00  0.00     0.077 C 
ATOM      8  C7  UNL d   1      -0.338  -2.043   4.860  0.00  0.00    -0.001 A 
ENDROOT
TORSDOF 0
ENDMDL
