MODEL 1
REMARK minimizedAffinity 2.02339268
REMARK minimizedRMSD -1
REMARK  0 active torsions:
REMARK  status: ('A' for Active; 'I' for Inactive)
ROOT
ATOM      1  C   UNL d   1      -0.525   3.003  -5.248  0.00  0.00     0.077 C 
ATOM      2  C1  UNL d   1      -1.817   3.724  -5.494  0.00  0.00    -0.074 A 
ATOM      3  C2  UNL d   1      -1.851   5.118  -5.611  0.00  0.00    -0.005 A 
ATOM      4  C3  UNL d   1      -3.059   5.774  -5.849  0.00  0.00     0.006 A 
ATOM      5  C4  UNL d   1      -4.242   5.044  -5.972  0.00  0.00    -0.005 A 
ATOM      6  C5  UNL d   1      -4.227   3.651  -5.859  0.00  0.00    -0.074 A 
ATOM      7  C6  UNL d   1      -5.488   2.851  -5.999  0.00  0.00     0.077 C 
ATOM      8  C7  UNL d   1      -3.009   2.998  -5.627  0.00  0.00    -0.001 A 
ENDROOT
TORSDOF 0
ENDMDL
