MODEL 1
REMARK minimizedAffinity 4.90072775
REMARK minimizedRMSD -1
REMARK  0 active torsions:
REMARK  status: ('A' for Active; 'I' for Inactive)
ROOT
ATOM      1  C   UNL d   1      -4.211   1.035  -5.276  0.00  0.00     0.077 C 
ATOM      2  C1  UNL d   1      -3.543   2.378  -5.245  0.00  0.00    -0.074 A 
ATOM      3  C2  UNL d   1      -2.202   2.505  -4.868  0.00  0.00    -0.005 A 
ATOM      4  C3  UNL d   1      -1.592   3.759  -4.853  0.00  0.00     0.006 A 
ATOM      5  C4  UNL d   1      -2.314   4.896  -5.215  0.00  0.00    -0.005 A 
ATOM      6  C5  UNL d   1      -3.655   4.788  -5.597  0.00  0.00    -0.074 A 
ATOM      7  C6  UNL d   1      -4.443   6.000  -5.998  0.00  0.00     0.077 C 
ATOM      8  C7  UNL d   1      -4.260   3.524  -5.616  0.00  0.00    -0.001 A 
ENDROOT
TORSDOF 0
ENDMDL
