MODEL 1
REMARK minimizedAffinity 14.8414412
REMARK minimizedRMSD -1
REMARK  0 active torsions:
REMARK  status: ('A' for Active; 'I' for Inactive)
ROOT
ATOM      1  C   UNL d   1      -2.425   3.687   0.228  0.00  0.00     0.077 C 
ATOM      2  C1  UNL d   1      -3.667   4.499   0.444  0.00  0.00    -0.074 A 
ATOM      3  C2  UNL d   1      -4.470   4.886  -0.634  0.00  0.00    -0.005 A 
ATOM      4  C3  UNL d   1      -5.627   5.632  -0.417  0.00  0.00     0.006 A 
ATOM      5  C4  UNL d   1      -5.994   6.000   0.878  0.00  0.00    -0.005 A 
ATOM      6  C5  UNL d   1      -5.204   5.622   1.969  0.00  0.00    -0.074 A 
ATOM      7  C6  UNL d   1      -5.589   6.000   3.368  0.00  0.00     0.077 C 
ATOM      8  C7  UNL d   1      -4.046   4.865   1.743  0.00  0.00    -0.001 A 
ENDROOT
TORSDOF 0
ENDMDL
