MODEL 1
REMARK minimizedAffinity 3.10208726
REMARK minimizedRMSD -1
REMARK  0 active torsions:
REMARK  status: ('A' for Active; 'I' for Inactive)
ROOT
ATOM      1  C   UNL d   1      -0.711   5.932  -3.495  0.00  0.00     0.077 C 
ATOM      2  C1  UNL d   1      -1.776   5.268  -4.316  0.00  0.00    -0.074 A 
ATOM      3  C2  UNL d   1      -2.535   5.999  -5.236  0.00  0.00    -0.005 A 
ATOM      4  C3  UNL d   1      -3.515   5.366  -6.000  0.00  0.00     0.006 A 
ATOM      5  C4  UNL d   1      -3.747   3.998  -5.852  0.00  0.00    -0.005 A 
ATOM      6  C5  UNL d   1      -2.997   3.251  -4.938  0.00  0.00    -0.074 A 
ATOM      7  C6  UNL d   1      -3.226   1.778  -4.774  0.00  0.00     0.077 C 
ATOM      8  C7  UNL d   1      -2.009   3.893  -4.179  0.00  0.00    -0.001 A 
ENDROOT
TORSDOF 0
ENDMDL
