MODEL 1
REMARK minimizedAffinity 17.8168659
REMARK minimizedRMSD -1
REMARK  0 active torsions:
REMARK  status: ('A' for Active; 'I' for Inactive)
ROOT
ATOM      1  C   UNL d   1      -5.683   5.988   3.903  0.00  0.00     0.077 C 
ATOM      2  C1  UNL d   1      -5.412   5.433   2.536  0.00  0.00    -0.074 A 
ATOM      3  C2  UNL d   1      -6.000   6.000   1.401  0.00  0.00    -0.005 A 
ATOM      4  C3  UNL d   1      -5.731   5.479   0.135  0.00  0.00     0.006 A 
ATOM      5  C4  UNL d   1      -4.872   4.389  -0.008  0.00  0.00    -0.005 A 
ATOM      6  C5  UNL d   1      -4.274   3.809   1.116  0.00  0.00    -0.074 A 
ATOM      7  C6  UNL d   1      -3.341   2.643   0.979  0.00  0.00     0.077 C 
ATOM      8  C7  UNL d   1      -4.544   4.343   2.384  0.00  0.00    -0.001 A 
ENDROOT
TORSDOF 0
ENDMDL
