MODEL 1
REMARK minimizedAffinity 7.36011791
REMARK minimizedRMSD -1
REMARK  0 active torsions:
REMARK  status: ('A' for Active; 'I' for Inactive)
ROOT
ATOM      1  C   UNL d   1      -0.415  -3.750   4.270  0.00  0.00     0.077 C 
ATOM      2  C1  UNL d   1      -1.609  -3.079   4.881  0.00  0.00    -0.074 A 
ATOM      3  C2  UNL d   1      -1.508  -1.800   5.437  0.00  0.00    -0.005 A 
ATOM      4  C3  UNL d   1      -2.629  -1.184   5.994  0.00  0.00     0.006 A 
ATOM      5  C4  UNL d   1      -3.860  -1.840   6.000  0.00  0.00    -0.005 A 
ATOM      6  C5  UNL d   1      -3.981  -3.120   5.448  0.00  0.00    -0.074 A 
ATOM      7  C6  UNL d   1      -5.299  -3.835   5.438  0.00  0.00     0.077 C 
ATOM      8  C7  UNL d   1      -2.851  -3.729   4.884  0.00  0.00    -0.001 A 
ENDROOT
TORSDOF 0
ENDMDL
