MODEL 1
REMARK minimizedAffinity 11.6496658
REMARK minimizedRMSD -1
REMARK  0 active torsions:
REMARK  status: ('A' for Active; 'I' for Inactive)
ROOT
ATOM      1  C   UNL d   1       0.740  -4.239   6.000  0.00  0.00     0.077 C 
ATOM      2  C1  UNL d   1      -0.547  -3.583   5.595  0.00  0.00    -0.074 A 
ATOM      3  C2  UNL d   1      -1.514  -4.284   4.868  0.00  0.00    -0.005 A 
ATOM      4  C3  UNL d   1      -2.710  -3.664   4.507  0.00  0.00     0.006 A 
ATOM      5  C4  UNL d   1      -2.950  -2.337   4.868  0.00  0.00    -0.005 A 
ATOM      6  C5  UNL d   1      -1.995  -1.620   5.595  0.00  0.00    -0.074 A 
ATOM      7  C6  UNL d   1      -2.242  -0.197   6.000  0.00  0.00     0.077 C 
ATOM      8  C7  UNL d   1      -0.799  -2.253   5.961  0.00  0.00    -0.001 A 
ENDROOT
TORSDOF 0
ENDMDL
