MODEL 1
REMARK minimizedAffinity 10.1652908
REMARK minimizedRMSD -1
REMARK  0 active torsions:
REMARK  status: ('A' for Active; 'I' for Inactive)
ROOT
ATOM      1  C   UNL d   1      -4.199  -3.360   3.739  0.00  0.00     0.077 C 
ATOM      2  C1  UNL d   1      -2.967  -3.015   4.521  0.00  0.00    -0.074 A 
ATOM      3  C2  UNL d   1      -2.711  -1.697   4.915  0.00  0.00    -0.005 A 
ATOM      4  C3  UNL d   1      -1.566  -1.393   5.651  0.00  0.00     0.006 A 
ATOM      5  C4  UNL d   1      -0.666  -2.401   6.000  0.00  0.00    -0.005 A 
ATOM      6  C5  UNL d   1      -0.906  -3.724   5.616  0.00  0.00    -0.074 A 
ATOM      7  C6  UNL d   1       0.045  -4.822   5.991  0.00  0.00     0.077 C 
ATOM      8  C7  UNL d   1      -2.063  -4.023   4.882  0.00  0.00    -0.001 A 
ENDROOT
TORSDOF 0
ENDMDL
