MODEL 1
REMARK minimizedAffinity 16.1225224
REMARK minimizedRMSD -1
REMARK  0 active torsions:
REMARK  status: ('A' for Active; 'I' for Inactive)
ROOT
ATOM      1  C   UNL d   1      -2.603   3.376   0.243  0.00  0.00     0.077 C 
ATOM      2  C1  UNL d   1      -3.776   4.296   0.407  0.00  0.00    -0.074 A 
ATOM      3  C2  UNL d   1      -4.503   4.738  -0.703  0.00  0.00    -0.005 A 
ATOM      4  C3  UNL d   1      -5.598   5.586  -0.534  0.00  0.00     0.006 A 
ATOM      5  C4  UNL d   1      -5.976   5.999   0.744  0.00  0.00    -0.005 A 
ATOM      6  C5  UNL d   1      -5.261   5.567   1.866  0.00  0.00    -0.074 A 
ATOM      7  C6  UNL d   1      -5.660   5.993   3.247  0.00  0.00     0.077 C 
ATOM      8  C7  UNL d   1      -4.167   4.709   1.689  0.00  0.00    -0.001 A 
ENDROOT
TORSDOF 0
ENDMDL
