MODEL 1
REMARK minimizedAffinity 10.4027662
REMARK minimizedRMSD -1
REMARK  0 active torsions:
REMARK  status: ('A' for Active; 'I' for Inactive)
ROOT
ATOM      1  C   UNL d   1      -3.135   5.997  -5.999  0.00  0.00     0.077 C 
ATOM      2  C1  UNL d   1      -3.057   4.580  -5.512  0.00  0.00    -0.074 A 
ATOM      3  C2  UNL d   1      -1.925   4.115  -4.834  0.00  0.00    -0.005 A 
ATOM      4  C3  UNL d   1      -1.871   2.798  -4.379  0.00  0.00     0.006 A 
ATOM      5  C4  UNL d   1      -2.944   1.934  -4.597  0.00  0.00    -0.005 A 
ATOM      6  C5  UNL d   1      -4.084   2.381  -5.273  0.00  0.00    -0.074 A 
ATOM      7  C6  UNL d   1      -5.251   1.469  -5.507  0.00  0.00     0.077 C 
ATOM      8  C7  UNL d   1      -4.135   3.709  -5.721  0.00  0.00    -0.001 A 
ENDROOT
TORSDOF 0
ENDMDL
