MODEL 1
REMARK minimizedAffinity 11.8870344
REMARK minimizedRMSD -1
REMARK  0 active torsions:
REMARK  status: ('A' for Active; 'I' for Inactive)
ROOT
ATOM      1  C   UNL d   1      -1.395  -2.967   5.345  0.00  0.00     0.077 C 
ATOM      2  C1  UNL d   1      -0.578  -2.644   4.130  0.00  0.00    -0.074 A 
ATOM      3  C2  UNL d   1      -0.317  -3.617   3.160  0.00  0.00    -0.005 A 
ATOM      4  C3  UNL d   1       0.436  -3.299   2.030  0.00  0.00     0.006 A 
ATOM      5  C4  UNL d   1       0.936  -2.007   1.859  0.00  0.00    -0.005 A 
ATOM      6  C5  UNL d   1       0.685  -1.021   2.818  0.00  0.00    -0.074 A 
ATOM      7  C6  UNL d   1       1.206   0.374   2.645  0.00  0.00     0.077 C 
ATOM      8  C7  UNL d   1      -0.079  -1.347   3.947  0.00  0.00    -0.001 A 
ENDROOT
TORSDOF 0
ENDMDL
