MODEL 1
REMARK minimizedAffinity 7.578897
REMARK minimizedRMSD -1
REMARK  0 active torsions:
REMARK  status: ('A' for Active; 'I' for Inactive)
ROOT
ATOM      1  C   UNL d   1      -4.884   2.446  -5.233  0.00  0.00     0.077 C 
ATOM      2  C1  UNL d   1      -4.042   3.687  -5.251  0.00  0.00    -0.074 A 
ATOM      3  C2  UNL d   1      -4.424   4.805  -6.000  0.00  0.00    -0.005 A 
ATOM      4  C3  UNL d   1      -3.635   5.955  -5.999  0.00  0.00     0.006 A 
ATOM      5  C4  UNL d   1      -2.459   6.000  -5.250  0.00  0.00    -0.005 A 
ATOM      6  C5  UNL d   1      -2.061   4.893  -4.494  0.00  0.00    -0.074 A 
ATOM      7  C6  UNL d   1      -0.804   4.927  -3.677  0.00  0.00     0.077 C 
ATOM      8  C7  UNL d   1      -2.862   3.743  -4.495  0.00  0.00    -0.001 A 
ENDROOT
TORSDOF 0
ENDMDL
