MODEL 1
REMARK minimizedAffinity 3.39984989
REMARK minimizedRMSD -1
REMARK  0 active torsions:
REMARK  status: ('A' for Active; 'I' for Inactive)
ROOT
ATOM      1  C   UNL d   1      -2.766   6.000  -4.823  0.00  0.00     0.077 C 
ATOM      2  C1  UNL d   1      -2.843   4.502  -4.823  0.00  0.00    -0.074 A 
ATOM      3  C2  UNL d   1      -1.682   3.722  -4.791  0.00  0.00    -0.005 A 
ATOM      4  C3  UNL d   1      -1.769   2.330  -4.782  0.00  0.00     0.006 A 
ATOM      5  C4  UNL d   1      -3.016   1.705  -4.804  0.00  0.00    -0.005 A 
ATOM      6  C5  UNL d   1      -4.188   2.467  -4.835  0.00  0.00    -0.074 A 
ATOM      7  C6  UNL d   1      -5.537   1.811  -4.850  0.00  0.00     0.077 C 
ATOM      8  C7  UNL d   1      -4.092   3.866  -4.837  0.00  0.00    -0.001 A 
ENDROOT
TORSDOF 0
ENDMDL
