MODEL 1
REMARK minimizedAffinity 9.56458855
REMARK minimizedRMSD -1
REMARK  0 active torsions:
REMARK  status: ('A' for Active; 'I' for Inactive)
ROOT
ATOM      1  C   UNL d   1      -1.780  -2.954   4.829  0.00  0.00     0.077 C 
ATOM      2  C1  UNL d   1      -3.224  -3.306   5.030  0.00  0.00    -0.074 A 
ATOM      3  C2  UNL d   1      -4.053  -2.512   5.830  0.00  0.00    -0.005 A 
ATOM      4  C3  UNL d   1      -5.396  -2.846   6.000  0.00  0.00     0.006 A 
ATOM      5  C4  UNL d   1      -5.924  -3.976   5.374  0.00  0.00    -0.005 A 
ATOM      6  C5  UNL d   1      -5.111  -4.781   4.570  0.00  0.00    -0.074 A 
ATOM      7  C6  UNL d   1      -5.665  -5.993   3.882  0.00  0.00     0.077 C 
ATOM      8  C7  UNL d   1      -3.764  -4.435   4.398  0.00  0.00    -0.001 A 
ENDROOT
TORSDOF 0
ENDMDL
