MODEL 1
REMARK minimizedAffinity 11.2391863
REMARK minimizedRMSD -1
REMARK  0 active torsions:
REMARK  status: ('A' for Active; 'I' for Inactive)
ROOT
ATOM      1  C   UNL d   1      -0.008   6.000  -3.892  0.00  0.00     0.077 C 
ATOM      2  C1  UNL d   1      -1.233   5.248  -4.320  0.00  0.00    -0.074 A 
ATOM      3  C2  UNL d   1      -1.345   3.871  -4.099  0.00  0.00    -0.005 A 
ATOM      4  C3  UNL d   1      -2.495   3.187  -4.495  0.00  0.00     0.006 A 
ATOM      5  C4  UNL d   1      -3.541   3.871  -5.114  0.00  0.00    -0.005 A 
ATOM      6  C5  UNL d   1      -3.447   5.248  -5.343  0.00  0.00    -0.074 A 
ATOM      7  C6  UNL d   1      -4.567   6.000  -5.999  0.00  0.00     0.077 C 
ATOM      8  C7  UNL d   1      -2.292   5.929  -4.937  0.00  0.00    -0.001 A 
ENDROOT
TORSDOF 0
ENDMDL
