MODEL 1
REMARK minimizedAffinity -4.64821863
REMARK minimizedRMSD -1
REMARK  1 active torsions:
REMARK  status: ('A' for Active; 'I' for Inactive)
REMARK    1  A    between atoms: C1_2  and  C2_3 
ROOT
ATOM      1  C2  UNL d   1      -0.282   1.080  -0.682  0.00  0.00    -0.081 A 
ATOM      2  C3  UNL d   1       1.027   0.664  -0.955  0.00  0.00     0.006 A 
ATOM      3  C4  UNL d   1       1.563  -0.455  -0.313  0.00  0.00     0.002 A 
ATOM      4  C5  UNL d   1       0.797  -1.180   0.606  0.00  0.00    -0.080 A 
ATOM      5  C6  UNL d   1       1.349  -2.401   1.280  0.00  0.00     0.076 C 
ATOM      6  C7  UNL d   1      -0.505  -0.754   0.892  0.00  0.00     0.002 A 
ATOM      7  C8  UNL d   1      -1.040   0.365   0.251  0.00  0.00     0.006 A 
ENDROOT
BRANCH   1   8
ATOM      8  C1  UNL d   1      -0.884   2.248  -1.421  0.00  0.00     0.054 C 
ATOM      9  C   UNL d   1      -1.855   1.781  -2.496  0.00  0.00     0.018 C 
ENDBRANCH   1   8
TORSDOF 1
ENDMDL
