MODEL 1
REMARK minimizedAffinity -3.51154923
REMARK minimizedRMSD -1
REMARK  1 active torsions:
REMARK  status: ('A' for Active; 'I' for Inactive)
REMARK    1  A    between atoms: C1_2  and  C2_3 
ROOT
ATOM      1  C2  UNL d   1       0.125   3.452  -3.962  0.00  0.00    -0.081 A 
ATOM      2  C3  UNL d   1      -0.846   2.926  -4.824  0.00  0.00     0.006 A 
ATOM      3  C4  UNL d   1      -1.854   2.095  -4.332  0.00  0.00     0.002 A 
ATOM      4  C5  UNL d   1      -1.914   1.782  -2.969  0.00  0.00    -0.080 A 
ATOM      5  C6  UNL d   1      -3.010   0.915  -2.423  0.00  0.00     0.076 C 
ATOM      6  C7  UNL d   1      -0.935   2.293  -2.111  0.00  0.00     0.002 A 
ATOM      7  C8  UNL d   1       0.074   3.124  -2.603  0.00  0.00     0.006 A 
ENDROOT
BRANCH   1   8
ATOM      8  C1  UNL d   1       1.176   4.401  -4.479  0.00  0.00     0.054 C 
ATOM      9  C   UNL d   1       0.985   5.800  -3.911  0.00  0.00     0.018 C 
ENDBRANCH   1   8
TORSDOF 1
ENDMDL
