MODEL 1
REMARK minimizedAffinity -1.78353095
REMARK minimizedRMSD -1
REMARK  1 active torsions:
REMARK  status: ('A' for Active; 'I' for Inactive)
REMARK    1  A    between atoms: C1_2  and  C2_3 
ROOT
ATOM      1  C2  UNL d   1      -0.383   3.638  -3.519  0.00  0.00    -0.081 A 
ATOM      2  C3  UNL d   1      -1.579   3.464  -4.224  0.00  0.00     0.006 A 
ATOM      3  C4  UNL d   1      -2.593   2.652  -3.711  0.00  0.00     0.002 A 
ATOM      4  C5  UNL d   1      -2.430   2.006  -2.481  0.00  0.00    -0.080 A 
ATOM      5  C6  UNL d   1      -3.522   1.155  -1.904  0.00  0.00     0.076 C 
ATOM      6  C7  UNL d   1      -1.227   2.165  -1.784  0.00  0.00     0.002 A 
ATOM      7  C8  UNL d   1      -0.214   2.977  -2.297  0.00  0.00     0.006 A 
ENDROOT
BRANCH   1   8
ATOM      8  C1  UNL d   1       0.686   4.565  -4.038  0.00  0.00     0.054 C 
ATOM      9  C   UNL d   1       0.184   6.000  -4.116  0.00  0.00     0.018 C 
ENDBRANCH   1   8
TORSDOF 1
ENDMDL
