MODEL 1
REMARK minimizedAffinity -5.16937208
REMARK minimizedRMSD -1
REMARK  1 active torsions:
REMARK  status: ('A' for Active; 'I' for Inactive)
REMARK    1  A    between atoms: C1_2  and  C2_3 
ROOT
ATOM      1  C2  UNL d   1      -0.364   3.479  -3.932  0.00  0.00    -0.081 A 
ATOM      2  C3  UNL d   1      -1.411   2.930  -4.682  0.00  0.00     0.006 A 
ATOM      3  C4  UNL d   1      -2.379   2.132  -4.067  0.00  0.00     0.002 A 
ATOM      4  C5  UNL d   1      -2.320   1.876  -2.693  0.00  0.00    -0.080 A 
ATOM      5  C6  UNL d   1      -3.370   1.046  -2.016  0.00  0.00     0.076 C 
ATOM      6  C7  UNL d   1      -1.264   2.410  -1.948  0.00  0.00     0.002 A 
ATOM      7  C8  UNL d   1      -0.295   3.208  -2.561  0.00  0.00     0.006 A 
ENDROOT
BRANCH   1   8
ATOM      8  C1  UNL d   1       0.645   4.394  -4.579  0.00  0.00     0.054 C 
ATOM      9  C   UNL d   1       0.294   5.856  -4.349  0.00  0.00     0.018 C 
ENDBRANCH   1   8
TORSDOF 1
ENDMDL
