MODEL 1
REMARK minimizedAffinity -4.07577515
REMARK minimizedRMSD -1
REMARK  1 active torsions:
REMARK  status: ('A' for Active; 'I' for Inactive)
REMARK    1  A    between atoms: C1_2  and  C2_3 
ROOT
ATOM      1  C2  UNL d   1      -1.120   1.436  -1.801  0.00  0.00    -0.081 A 
ATOM      2  C3  UNL d   1      -1.848   1.322  -2.991  0.00  0.00     0.006 A 
ATOM      3  C4  UNL d   1      -1.546   2.135  -4.087  0.00  0.00     0.002 A 
ATOM      4  C5  UNL d   1      -0.507   3.069  -4.012  0.00  0.00    -0.080 A 
ATOM      5  C6  UNL d   1      -0.152   3.926  -5.191  0.00  0.00     0.076 C 
ATOM      6  C7  UNL d   1       0.209   3.195  -2.817  0.00  0.00     0.002 A 
ATOM      7  C8  UNL d   1      -0.093   2.383  -1.721  0.00  0.00     0.006 A 
ENDROOT
BRANCH   1   8
ATOM      8  C1  UNL d   1      -1.401   0.517  -0.640  0.00  0.00     0.054 C 
ATOM      9  C   UNL d   1      -0.365   0.684   0.462  0.00  0.00     0.018 C 
ENDBRANCH   1   8
TORSDOF 1
ENDMDL
