MODEL 1
REMARK minimizedAffinity -4.07656717
REMARK minimizedRMSD -1
REMARK  1 active torsions:
REMARK  status: ('A' for Active; 'I' for Inactive)
REMARK    1  A    between atoms: C1_2  and  C2_3 
ROOT
ATOM      1  C2  UNL d   1      -0.457   3.687  -4.245  0.00  0.00    -0.081 A 
ATOM      2  C3  UNL d   1      -1.211   2.637  -4.782  0.00  0.00     0.006 A 
ATOM      3  C4  UNL d   1      -1.805   1.690  -3.944  0.00  0.00     0.002 A 
ATOM      4  C5  UNL d   1      -1.660   1.782  -2.555  0.00  0.00    -0.080 A 
ATOM      5  C6  UNL d   1      -2.317   0.789  -1.642  0.00  0.00     0.076 C 
ATOM      6  C7  UNL d   1      -0.892   2.821  -2.019  0.00  0.00     0.002 A 
ATOM      7  C8  UNL d   1      -0.298   3.767  -2.857  0.00  0.00     0.006 A 
ENDROOT
BRANCH   1   8
ATOM      8  C1  UNL d   1       0.130   4.747  -5.142  0.00  0.00     0.054 C 
ATOM      9  C   UNL d   1       0.491   5.999  -4.357  0.00  0.00     0.018 C 
ENDBRANCH   1   8
TORSDOF 1
ENDMDL
