MODEL 1
REMARK minimizedAffinity -4.33745956
REMARK minimizedRMSD -1
REMARK  1 active torsions:
REMARK  status: ('A' for Active; 'I' for Inactive)
REMARK    1  A    between atoms: C1_2  and  C2_3 
ROOT
ATOM      1  C2  UNL d   1      -0.155   3.117  -3.997  0.00  0.00    -0.081 A 
ATOM      2  C3  UNL d   1      -1.290   2.513  -4.550  0.00  0.00     0.006 A 
ATOM      3  C4  UNL d   1      -2.183   1.807  -3.740  0.00  0.00     0.002 A 
ATOM      4  C5  UNL d   1      -1.959   1.699  -2.364  0.00  0.00    -0.080 A 
ATOM      5  C6  UNL d   1      -2.926   0.970  -1.478  0.00  0.00     0.076 C 
ATOM      6  C7  UNL d   1      -0.816   2.288  -1.813  0.00  0.00     0.002 A 
ATOM      7  C8  UNL d   1       0.078   2.993  -2.622  0.00  0.00     0.006 A 
ENDROOT
BRANCH   1   8
ATOM      8  C1  UNL d   1       0.775   3.934  -4.857  0.00  0.00     0.054 C 
ATOM      9  C   UNL d   1       0.770   5.398  -4.442  0.00  0.00     0.018 C 
ENDBRANCH   1   8
TORSDOF 1
ENDMDL
