MODEL 1
REMARK minimizedAffinity -5.0771842
REMARK minimizedRMSD -1
REMARK  1 active torsions:
REMARK  status: ('A' for Active; 'I' for Inactive)
REMARK    1  A    between atoms: C1_2  and  C2_3 
ROOT
ATOM      1  C2  UNL d   1       0.015   3.521  -3.704  0.00  0.00    -0.081 A 
ATOM      2  C3  UNL d   1      -0.863   2.964  -4.641  0.00  0.00     0.006 A 
ATOM      3  C4  UNL d   1      -1.972   2.225  -4.222  0.00  0.00     0.002 A 
ATOM      4  C5  UNL d   1      -2.226   2.038  -2.859  0.00  0.00    -0.080 A 
ATOM      5  C6  UNL d   1      -3.429   1.272  -2.395  0.00  0.00     0.076 C 
ATOM      6  C7  UNL d   1      -1.339   2.580  -1.922  0.00  0.00     0.002 A 
ATOM      7  C8  UNL d   1      -0.230   3.318  -2.341  0.00  0.00     0.006 A 
ENDROOT
BRANCH   1   8
ATOM      8  C1  UNL d   1       1.175   4.373  -4.151  0.00  0.00     0.054 C 
ATOM      9  C   UNL d   1       0.781   5.840  -4.244  0.00  0.00     0.018 C 
ENDBRANCH   1   8
TORSDOF 1
ENDMDL
