MODEL 1
REMARK minimizedAffinity -2.05085254
REMARK minimizedRMSD -1
REMARK  1 active torsions:
REMARK  status: ('A' for Active; 'I' for Inactive)
REMARK    1  A    between atoms: C1_2  and  C2_3 
ROOT
ATOM      1  C2  UNL d   1      -0.951   0.834  -0.950  0.00  0.00    -0.081 A 
ATOM      2  C3  UNL d   1      -2.239   0.383  -1.261  0.00  0.00     0.006 A 
ATOM      3  C4  UNL d   1      -2.866   0.788  -2.442  0.00  0.00     0.002 A 
ATOM      4  C5  UNL d   1      -2.212   1.643  -3.335  0.00  0.00    -0.080 A 
ATOM      5  C6  UNL d   1      -2.862   2.061  -4.621  0.00  0.00     0.076 C 
ATOM      6  C7  UNL d   1      -0.932   2.108  -3.017  0.00  0.00     0.002 A 
ATOM      7  C8  UNL d   1      -0.305   1.705  -1.835  0.00  0.00     0.006 A 
ENDROOT
BRANCH   1   8
ATOM      8  C1  UNL d   1      -0.247   0.349   0.291  0.00  0.00     0.054 C 
ATOM      9  C   UNL d   1       1.131  -0.208  -0.036  0.00  0.00     0.018 C 
ENDBRANCH   1   8
TORSDOF 1
ENDMDL
