MODEL 1
REMARK minimizedAffinity -1.23280954
REMARK minimizedRMSD -1
REMARK  1 active torsions:
REMARK  status: ('A' for Active; 'I' for Inactive)
REMARK    1  A    between atoms: C1_2  and  C2_3 
ROOT
ATOM      1  C2  UNL d   1      -0.221   1.248  -0.849  0.00  0.00    -0.081 A 
ATOM      2  C3  UNL d   1       1.076   0.873  -1.222  0.00  0.00     0.006 A 
ATOM      3  C4  UNL d   1       1.787  -0.063  -0.467  0.00  0.00     0.002 A 
ATOM      4  C5  UNL d   1       1.211  -0.645   0.668  0.00  0.00    -0.080 A 
ATOM      5  C6  UNL d   1       1.952  -1.673   1.470  0.00  0.00     0.076 C 
ATOM      6  C7  UNL d   1      -0.077  -0.256   1.051  0.00  0.00     0.002 A 
ATOM      7  C8  UNL d   1      -0.788   0.680   0.297  0.00  0.00     0.006 A 
ENDROOT
BRANCH   1   8
ATOM      8  C1  UNL d   1      -1.014   2.209  -1.697  0.00  0.00     0.054 C 
ATOM      9  C   UNL d   1      -0.110   2.999  -2.631  0.00  0.00     0.018 C 
ENDBRANCH   1   8
TORSDOF 1
ENDMDL
