MODEL 1
REMARK minimizedAffinity 3.61284804
REMARK minimizedRMSD -1
REMARK  0 active torsions:
REMARK  status: ('A' for Active; 'I' for Inactive)
ROOT
ATOM      1  C   UNL d   1      -4.504  -3.214  -6.000  0.00  0.00     0.023 A 
ATOM      2  C1  UNL d   1      -4.126  -4.556  -5.996  0.00  0.00     0.003 A 
ATOM      3  C2  UNL d   1      -3.189  -5.017  -5.069  0.00  0.00     0.048 A 
ATOM      4  C3  UNL d   1      -2.635  -4.129  -4.147  0.00  0.00     0.023 A 
ATOM      5  C4  UNL d   1      -3.011  -2.785  -4.146  0.00  0.00     0.048 A 
ATOM      6  C5  UNL d   1      -3.948  -2.329  -5.076  0.00  0.00     0.003 A 
ATOM      7  I   UNL d   1      -1.240  -4.811  -2.765  0.00  0.00    -0.146 I 
ENDROOT
TORSDOF 0
ENDMDL
