MODEL 1
REMARK minimizedAffinity 6.6031599
REMARK minimizedRMSD -1
REMARK  0 active torsions:
REMARK  status: ('A' for Active; 'I' for Inactive)
ROOT
ATOM      1  C   UNL d   1      -4.839  -3.529  -5.985  0.00  0.00     0.023 A 
ATOM      2  C1  UNL d   1      -4.482  -4.877  -6.000  0.00  0.00     0.003 A 
ATOM      3  C2  UNL d   1      -3.396  -5.321  -5.243  0.00  0.00     0.048 A 
ATOM      4  C3  UNL d   1      -2.672  -4.412  -4.472  0.00  0.00     0.023 A 
ATOM      5  C4  UNL d   1      -3.026  -3.062  -4.454  0.00  0.00     0.048 A 
ATOM      6  C5  UNL d   1      -4.112  -2.622  -5.213  0.00  0.00     0.003 A 
ATOM      7  I   UNL d   1      -1.055  -5.071  -3.345  0.00  0.00    -0.146 I 
ENDROOT
TORSDOF 0
ENDMDL
