MODEL 1
REMARK minimizedAffinity 11.4722519
REMARK minimizedRMSD -1
REMARK  0 active torsions:
REMARK  status: ('A' for Active; 'I' for Inactive)
ROOT
ATOM      1  C   UNL d   1       2.560  -2.720  -1.585  0.00  0.00     0.023 A 
ATOM      2  C1  UNL d   1       3.386  -2.842  -0.468  0.00  0.00     0.003 A 
ATOM      3  C2  UNL d   1       3.808  -1.701   0.218  0.00  0.00     0.048 A 
ATOM      4  C3  UNL d   1       3.399  -0.441  -0.218  0.00  0.00     0.023 A 
ATOM      5  C4  UNL d   1       2.571  -0.314  -1.334  0.00  0.00     0.048 A 
ATOM      6  C5  UNL d   1       2.153  -1.458  -2.018  0.00  0.00     0.003 A 
ATOM      7  I   UNL d   1       4.025   1.258   0.802  0.00  0.00    -0.146 I 
ENDROOT
TORSDOF 0
ENDMDL
