MODEL 1
REMARK minimizedAffinity 12.772481
REMARK minimizedRMSD -1
REMARK  0 active torsions:
REMARK  status: ('A' for Active; 'I' for Inactive)
ROOT
ATOM      1  C   UNL d   1       1.893  -1.507  -1.898  0.00  0.00     0.023 A 
ATOM      2  C1  UNL d   1       1.527  -2.600  -2.684  0.00  0.00     0.003 A 
ATOM      3  C2  UNL d   1       1.905  -3.890  -2.305  0.00  0.00     0.048 A 
ATOM      4  C3  UNL d   1       2.647  -4.080  -1.140  0.00  0.00     0.023 A 
ATOM      5  C4  UNL d   1       3.015  -2.989  -0.351  0.00  0.00     0.048 A 
ATOM      6  C5  UNL d   1       2.635  -1.701  -0.734  0.00  0.00     0.003 A 
ATOM      7  I   UNL d   1       3.211  -5.999  -0.575  0.00  0.00    -0.146 I 
ENDROOT
TORSDOF 0
ENDMDL
