MODEL 1
REMARK minimizedAffinity 14.8496237
REMARK minimizedRMSD -1
REMARK  0 active torsions:
REMARK  status: ('A' for Active; 'I' for Inactive)
ROOT
ATOM      1  C   UNL d   1       1.579  -4.375  -2.197  0.00  0.00     0.023 A 
ATOM      2  C1  UNL d   1       2.030  -4.353  -0.877  0.00  0.00     0.003 A 
ATOM      3  C2  UNL d   1       2.341  -3.138  -0.264  0.00  0.00     0.048 A 
ATOM      4  C3  UNL d   1       2.196  -1.947  -0.976  0.00  0.00     0.023 A 
ATOM      5  C4  UNL d   1       1.744  -1.964  -2.297  0.00  0.00     0.048 A 
ATOM      6  C5  UNL d   1       1.436  -3.182  -2.906  0.00  0.00     0.003 A 
ATOM      7  I   UNL d   1       2.658  -0.137  -0.066  0.00  0.00    -0.146 I 
ENDROOT
TORSDOF 0
ENDMDL
