MODEL 1
REMARK minimizedAffinity 1.10673106
REMARK minimizedRMSD -1
REMARK  0 active torsions:
REMARK  status: ('A' for Active; 'I' for Inactive)
ROOT
ATOM      1  C   UNL d   1       3.552  -5.097  -0.286  0.00  0.00     0.023 A 
ATOM      2  C1  UNL d   1       3.096  -5.993  -1.252  0.00  0.00     0.003 A 
ATOM      3  C2  UNL d   1       2.357  -5.530  -2.343  0.00  0.00     0.048 A 
ATOM      4  C3  UNL d   1       2.079  -4.168  -2.461  0.00  0.00     0.023 A 
ATOM      5  C4  UNL d   1       2.535  -3.268  -1.497  0.00  0.00     0.048 A 
ATOM      6  C5  UNL d   1       3.273  -3.736  -0.408  0.00  0.00     0.003 A 
ATOM      7  I   UNL d   1       0.980  -3.475  -4.083  0.00  0.00    -0.146 I 
ENDROOT
TORSDOF 0
ENDMDL
