MODEL 1
REMARK minimizedAffinity 15.2606421
REMARK minimizedRMSD -1
REMARK  0 active torsions:
REMARK  status: ('A' for Active; 'I' for Inactive)
ROOT
ATOM      1  C   UNL d   1       2.524  -0.682  -0.473  0.00  0.00     0.023 A 
ATOM      2  C1  UNL d   1       3.736  -1.298  -0.165  0.00  0.00     0.003 A 
ATOM      3  C2  UNL d   1       3.785  -2.676   0.057  0.00  0.00     0.048 A 
ATOM      4  C3  UNL d   1       2.616  -3.432  -0.033  0.00  0.00     0.023 A 
ATOM      5  C4  UNL d   1       1.401  -2.820  -0.343  0.00  0.00     0.048 A 
ATOM      6  C5  UNL d   1       1.357  -1.441  -0.562  0.00  0.00     0.003 A 
ATOM      7  I   UNL d   1       2.686  -5.483   0.295  0.00  0.00    -0.146 I 
ENDROOT
TORSDOF 0
ENDMDL
