MODEL 1
REMARK minimizedAffinity 5.59251165
REMARK minimizedRMSD -1
REMARK  0 active torsions:
REMARK  status: ('A' for Active; 'I' for Inactive)
ROOT
ATOM      1  C   UNL d   1      -1.455  -5.856  -4.151  0.00  0.00     0.023 A 
ATOM      2  C1  UNL d   1      -1.913  -5.972  -5.463  0.00  0.00     0.003 A 
ATOM      3  C2  UNL d   1      -2.768  -5.003  -5.993  0.00  0.00     0.048 A 
ATOM      4  C3  UNL d   1      -3.160  -3.921  -5.206  0.00  0.00     0.023 A 
ATOM      5  C4  UNL d   1      -2.703  -3.801  -3.892  0.00  0.00     0.048 A 
ATOM      6  C5  UNL d   1      -1.849  -4.772  -3.366  0.00  0.00     0.003 A 
ATOM      7  I   UNL d   1      -4.432  -2.478  -5.993  0.00  0.00    -0.146 I 
ENDROOT
TORSDOF 0
ENDMDL
