MODEL 1
REMARK minimizedAffinity 5.08057451
REMARK minimizedRMSD -1
REMARK  0 active torsions:
REMARK  status: ('A' for Active; 'I' for Inactive)
ROOT
ATOM      1  C   UNL d   1      -1.480   4.876  -4.137  0.00  0.00     0.023 A 
ATOM      2  C1  UNL d   1      -2.128   5.999  -4.651  0.00  0.00     0.003 A 
ATOM      3  C2  UNL d   1      -3.413   5.882  -5.186  0.00  0.00     0.048 A 
ATOM      4  C3  UNL d   1      -4.044   4.638  -5.202  0.00  0.00     0.023 A 
ATOM      5  C4  UNL d   1      -3.399   3.512  -4.688  0.00  0.00     0.048 A 
ATOM      6  C5  UNL d   1      -2.114   3.634  -4.155  0.00  0.00     0.003 A 
ATOM      7  I   UNL d   1      -5.956   4.460  -5.997  0.00  0.00    -0.146 I 
ENDROOT
TORSDOF 0
ENDMDL
