MODEL 1
REMARK minimizedAffinity 15.9113417
REMARK minimizedRMSD -1
REMARK  0 active torsions:
REMARK  status: ('A' for Active; 'I' for Inactive)
ROOT
ATOM      1  C   UNL d   1      -6.000   1.646   3.514  0.00  0.00     0.023 A 
ATOM      2  C1  UNL d   1      -5.501   0.483   2.926  0.00  0.00     0.003 A 
ATOM      3  C2  UNL d   1      -4.129   0.343   2.708  0.00  0.00     0.048 A 
ATOM      4  C3  UNL d   1      -3.261   1.369   3.082  0.00  0.00     0.023 A 
ATOM      5  C4  UNL d   1      -3.756   2.533   3.672  0.00  0.00     0.048 A 
ATOM      6  C5  UNL d   1      -5.128   2.669   3.887  0.00  0.00     0.003 A 
ATOM      7  I   UNL d   1      -1.218   1.163   2.758  0.00  0.00    -0.146 I 
ENDROOT
TORSDOF 0
ENDMDL
