MODEL 1
REMARK minimizedAffinity 9.00873852
REMARK minimizedRMSD -1
REMARK  0 active torsions:
REMARK  status: ('A' for Active; 'I' for Inactive)
ROOT
ATOM      1  C   UNL d   1       5.336  -0.978   0.207  0.00  0.00     0.023 A 
ATOM      2  C1  UNL d   1       4.590  -2.147   0.054  0.00  0.00     0.003 A 
ATOM      3  C2  UNL d   1       3.365  -2.112  -0.615  0.00  0.00     0.048 A 
ATOM      4  C3  UNL d   1       2.892  -0.905  -1.130  0.00  0.00     0.023 A 
ATOM      5  C4  UNL d   1       3.635   0.267  -0.979  0.00  0.00     0.048 A 
ATOM      6  C5  UNL d   1       4.859   0.227  -0.309  0.00  0.00     0.003 A 
ATOM      7  I   UNL d   1       1.069  -0.851  -2.126  0.00  0.00    -0.146 I 
ENDROOT
TORSDOF 0
ENDMDL
