MODEL 1
REMARK minimizedAffinity 12.4253693
REMARK minimizedRMSD -1
REMARK  0 active torsions:
REMARK  status: ('A' for Active; 'I' for Inactive)
ROOT
ATOM      1  C   UNL d   1       3.050  -3.100  -0.150  0.00  0.00     0.023 A 
ATOM      2  C1  UNL d   1       2.111  -2.146  -0.543  0.00  0.00     0.003 A 
ATOM      3  C2  UNL d   1       2.369  -0.788  -0.341  0.00  0.00     0.048 A 
ATOM      4  C3  UNL d   1       3.567  -0.392   0.252  0.00  0.00     0.023 A 
ATOM      5  C4  UNL d   1       4.509  -1.344   0.646  0.00  0.00     0.048 A 
ATOM      6  C5  UNL d   1       4.247  -2.700   0.444  0.00  0.00     0.003 A 
ATOM      7  I   UNL d   1       3.952   1.628   0.553  0.00  0.00    -0.146 I 
ENDROOT
TORSDOF 0
ENDMDL
