MODEL 1
REMARK minimizedAffinity 19.9567471
REMARK minimizedRMSD -1
REMARK  0 active torsions:
REMARK  status: ('A' for Active; 'I' for Inactive)
ROOT
ATOM      1  C   UNL d   1       2.720   0.896   0.169  0.00  0.00     0.023 A 
ATOM      2  C1  UNL d   1       4.017   1.104   0.638  0.00  0.00     0.003 A 
ATOM      3  C2  UNL d   1       4.928   0.046   0.668  0.00  0.00     0.048 A 
ATOM      4  C3  UNL d   1       4.536  -1.217   0.226  0.00  0.00     0.023 A 
ATOM      5  C4  UNL d   1       3.239  -1.430  -0.245  0.00  0.00     0.048 A 
ATOM      6  C5  UNL d   1       2.331  -0.369  -0.272  0.00  0.00     0.003 A 
ATOM      7  I   UNL d   1       5.890  -2.793   0.269  0.00  0.00    -0.146 I 
ENDROOT
TORSDOF 0
ENDMDL
