MODEL 1
REMARK minimizedAffinity 7.45775938
REMARK minimizedRMSD -1
REMARK  0 active torsions:
REMARK  status: ('A' for Active; 'I' for Inactive)
ROOT
ATOM      1  C   UNL d   1       4.784  -4.008   0.391  0.00  0.00     0.023 A 
ATOM      2  C1  UNL d   1       5.355  -2.894   1.007  0.00  0.00     0.003 A 
ATOM      3  C2  UNL d   1       4.586  -1.751   1.238  0.00  0.00     0.048 A 
ATOM      4  C3  UNL d   1       3.247  -1.730   0.850  0.00  0.00     0.023 A 
ATOM      5  C4  UNL d   1       2.671  -2.842   0.234  0.00  0.00     0.048 A 
ATOM      6  C5  UNL d   1       3.444  -3.982   0.005  0.00  0.00     0.003 A 
ATOM      7  I   UNL d   1       2.100  -0.030   1.192  0.00  0.00    -0.146 I 
ENDROOT
TORSDOF 0
ENDMDL
