MODEL 1
REMARK minimizedAffinity 16.3512344
REMARK minimizedRMSD -1
REMARK  0 active torsions:
REMARK  status: ('A' for Active; 'I' for Inactive)
ROOT
ATOM      1  C   UNL d   1       2.248  -1.174  -1.235  0.00  0.00     0.023 A 
ATOM      2  C1  UNL d   1       2.627  -1.728  -0.012  0.00  0.00     0.003 A 
ATOM      3  C2  UNL d   1       2.741  -3.113   0.123  0.00  0.00     0.048 A 
ATOM      4  C3  UNL d   1       2.477  -3.938  -0.970  0.00  0.00     0.023 A 
ATOM      5  C4  UNL d   1       2.098  -3.388  -2.195  0.00  0.00     0.048 A 
ATOM      6  C5  UNL d   1       1.984  -2.002  -2.325  0.00  0.00     0.003 A 
ATOM      7  I   UNL d   1       2.646  -6.000  -0.772  0.00  0.00    -0.146 I 
ENDROOT
TORSDOF 0
ENDMDL
