MODEL 1
REMARK minimizedAffinity 8.24208069
REMARK minimizedRMSD -1
REMARK  0 active torsions:
REMARK  status: ('A' for Active; 'I' for Inactive)
ROOT
ATOM      1  C   UNL d   1       2.398   1.804  -2.635  0.00  0.00     0.023 A 
ATOM      2  C1  UNL d   1       2.652   1.573  -1.283  0.00  0.00     0.003 A 
ATOM      3  C2  UNL d   1       2.382   0.321  -0.725  0.00  0.00     0.048 A 
ATOM      4  C3  UNL d   1       1.860  -0.694  -1.525  0.00  0.00     0.023 A 
ATOM      5  C4  UNL d   1       1.605  -0.468  -2.879  0.00  0.00     0.048 A 
ATOM      6  C5  UNL d   1       1.875   0.785  -3.432  0.00  0.00     0.003 A 
ATOM      7  I   UNL d   1       1.458  -2.558  -0.697  0.00  0.00    -0.146 I 
ENDROOT
TORSDOF 0
ENDMDL
