MODEL 1
REMARK minimizedAffinity 19.0398903
REMARK minimizedRMSD -1
REMARK  0 active torsions:
REMARK  status: ('A' for Active; 'I' for Inactive)
ROOT
ATOM      1  C   UNL d   1      -5.865  -4.302  -6.000  0.00  0.00     0.023 A 
ATOM      2  C1  UNL d   1      -5.455  -5.630  -5.886  0.00  0.00     0.003 A 
ATOM      3  C2  UNL d   1      -4.540  -5.998  -4.898  0.00  0.00     0.048 A 
ATOM      4  C3  UNL d   1      -4.039  -5.032  -4.026  0.00  0.00     0.023 A 
ATOM      5  C4  UNL d   1      -4.446  -3.702  -4.135  0.00  0.00     0.048 A 
ATOM      6  C5  UNL d   1      -5.361  -3.339  -5.125  0.00  0.00     0.003 A 
ATOM      7  I   UNL d   1      -2.676  -5.577  -2.554  0.00  0.00    -0.146 I 
ENDROOT
TORSDOF 0
ENDMDL
