MODEL 1
REMARK minimizedAffinity 13.9252396
REMARK minimizedRMSD -1
REMARK  0 active torsions:
REMARK  status: ('A' for Active; 'I' for Inactive)
ROOT
ATOM      1  C   UNL d   1      -3.182  -0.469   4.898  0.00  0.00     0.023 A 
ATOM      2  C1  UNL d   1      -3.799  -0.305   3.658  0.00  0.00     0.003 A 
ATOM      3  C2  UNL d   1      -4.579   0.826   3.408  0.00  0.00     0.048 A 
ATOM      4  C3  UNL d   1      -4.737   1.790   4.404  0.00  0.00     0.023 A 
ATOM      5  C4  UNL d   1      -4.120   1.631   5.646  0.00  0.00     0.048 A 
ATOM      6  C5  UNL d   1      -3.342   0.498   5.890  0.00  0.00     0.003 A 
ATOM      7  I   UNL d   1      -5.897   3.474   4.035  0.00  0.00    -0.146 I 
ENDROOT
TORSDOF 0
ENDMDL
