MODEL 1
REMARK minimizedAffinity 24.9478226
REMARK minimizedRMSD -1
REMARK  0 active torsions:
REMARK  status: ('A' for Active; 'I' for Inactive)
ROOT
ATOM      1  C   UNL d   1      -3.002   0.829   5.130  0.00  0.00     0.023 A 
ATOM      2  C1  UNL d   1      -3.190   0.679   3.756  0.00  0.00     0.003 A 
ATOM      3  C2  UNL d   1      -4.050   1.538   3.069  0.00  0.00     0.048 A 
ATOM      4  C3  UNL d   1      -4.719   2.546   3.763  0.00  0.00     0.023 A 
ATOM      5  C4  UNL d   1      -4.534   2.701   5.138  0.00  0.00     0.048 A 
ATOM      6  C5  UNL d   1      -3.674   1.839   5.820  0.00  0.00     0.003 A 
ATOM      7  I   UNL d   1      -6.000   3.827   2.743  0.00  0.00    -0.146 I 
ENDROOT
TORSDOF 0
ENDMDL
