MODEL 1
REMARK minimizedAffinity 7.38623571
REMARK minimizedRMSD -1
REMARK  0 active torsions:
REMARK  status: ('A' for Active; 'I' for Inactive)
ROOT
ATOM      1  C1  DEN d   1       0.337   2.743  -2.790  0.00  0.00     0.130 A 
ATOM      2  C2  DEN d   1       1.705   2.864  -2.295  0.00  0.00    -0.031 A 
ATOM      3  C3  DEN d   1       2.380   3.922  -3.074  0.00  0.00     0.027 A 
ATOM      4  C4  DEN d   1       1.441   5.380  -4.984  0.00  0.00     0.027 A 
ATOM      5  C5  DEN d   1       0.333   5.633  -5.762  0.00  0.00    -0.003 A 
ATOM      6  C6  DEN d   1      -0.831   4.924  -5.628  0.00  0.00     0.001 A 
ATOM      7  C7  DEN d   1      -0.929   3.956  -4.663  0.00  0.00     0.017 A 
ATOM      8  C8  DEN d   1       0.187   3.689  -3.880  0.00  0.00    -0.094 A 
ATOM      9  C9  DEN d   1       1.351   4.426  -4.023  0.00  0.00    -0.072 A 
ENDROOT
TORSDOF 0
ENDMDL
