MODEL 1
REMARK minimizedAffinity 8.03790188
REMARK minimizedRMSD -1
REMARK  0 active torsions:
REMARK  status: ('A' for Active; 'I' for Inactive)
ROOT
ATOM      1  C1  DEN d   1       0.634   2.556  -3.371  0.00  0.00     0.130 A 
ATOM      2  C2  DEN d   1       1.954   2.816  -2.803  0.00  0.00    -0.031 A 
ATOM      3  C3  DEN d   1       2.486   4.044  -3.427  0.00  0.00     0.027 A 
ATOM      4  C4  DEN d   1       1.398   5.564  -5.204  0.00  0.00     0.027 A 
ATOM      5  C5  DEN d   1       0.288   5.744  -6.000  0.00  0.00    -0.003 A 
ATOM      6  C6  DEN d   1      -0.761   4.863  -6.000  0.00  0.00     0.001 A 
ATOM      7  C7  DEN d   1      -0.742   3.785  -5.155  0.00  0.00     0.017 A 
ATOM      8  C8  DEN d   1       0.377   3.592  -4.355  0.00  0.00    -0.094 A 
ATOM      9  C9  DEN d   1       1.422   4.501  -4.361  0.00  0.00    -0.072 A 
ENDROOT
TORSDOF 0
ENDMDL
