MODEL 1
REMARK minimizedAffinity -0.15533857
REMARK minimizedRMSD -1
REMARK  0 active torsions:
REMARK  status: ('A' for Active; 'I' for Inactive)
ROOT
ATOM      1  C1  DEN d   1      -5.973  -0.548  -4.919  0.00  0.00     0.130 A 
ATOM      2  C2  DEN d   1      -5.995   0.438  -5.995  0.00  0.00    -0.031 A 
ATOM      3  C3  DEN d   1      -6.000   1.782  -5.383  0.00  0.00     0.027 A 
ATOM      4  C4  DEN d   1      -5.971   2.428  -2.886  0.00  0.00     0.027 A 
ATOM      5  C5  DEN d   1      -5.963   1.937  -1.600  0.00  0.00    -0.003 A 
ATOM      6  C6  DEN d   1      -5.991   0.594  -1.331  0.00  0.00     0.001 A 
ATOM      7  C7  DEN d   1      -5.984  -0.306  -2.364  0.00  0.00     0.017 A 
ATOM      8  C8  DEN d   1      -6.000   0.183  -3.664  0.00  0.00    -0.094 A 
ATOM      9  C9  DEN d   1      -5.959   1.544  -3.915  0.00  0.00    -0.072 A 
ENDROOT
TORSDOF 0
ENDMDL
