MODEL 1
REMARK minimizedAffinity 9.44578362
REMARK minimizedRMSD -1
REMARK  0 active torsions:
REMARK  status: ('A' for Active; 'I' for Inactive)
ROOT
ATOM      1  C1  DEN d   1       2.387   4.129  -4.553  0.00  0.00     0.130 A 
ATOM      2  C2  DEN d   1       2.446   3.680  -3.165  0.00  0.00    -0.031 A 
ATOM      3  C3  DEN d   1       1.089   3.787  -2.592  0.00  0.00     0.027 A 
ATOM      4  C4  DEN d   1      -1.087   4.596  -3.716  0.00  0.00     0.027 A 
ATOM      5  C5  DEN d   1      -1.633   5.089  -4.880  0.00  0.00    -0.003 A 
ATOM      6  C6  DEN d   1      -0.877   5.327  -5.997  0.00  0.00     0.001 A 
ATOM      7  C7  DEN d   1       0.460   5.029  -5.988  0.00  0.00     0.017 A 
ATOM      8  C8  DEN d   1       1.019   4.539  -4.816  0.00  0.00    -0.094 A 
ATOM      9  C9  DEN d   1       0.236   4.293  -3.701  0.00  0.00    -0.072 A 
ENDROOT
TORSDOF 0
ENDMDL
