MODEL 1
REMARK minimizedAffinity 4.93234825
REMARK minimizedRMSD -1
REMARK  0 active torsions:
REMARK  status: ('A' for Active; 'I' for Inactive)
ROOT
ATOM      1  C1  DEN d   1      -5.982   2.016  -2.037  0.00  0.00     0.130 A 
ATOM      2  C2  DEN d   1      -5.959   3.361  -2.607  0.00  0.00    -0.031 A 
ATOM      3  C3  DEN d   1      -5.955   3.232  -4.078  0.00  0.00     0.027 A 
ATOM      4  C4  DEN d   1      -5.987   1.095  -5.521  0.00  0.00     0.027 A 
ATOM      5  C5  DEN d   1      -5.998  -0.282  -5.487  0.00  0.00    -0.003 A 
ATOM      6  C6  DEN d   1      -5.970  -0.984  -4.311  0.00  0.00     0.001 A 
ATOM      7  C7  DEN d   1      -5.976  -0.310  -3.118  0.00  0.00     0.017 A 
ATOM      8  C8  DEN d   1      -5.957   1.078  -3.144  0.00  0.00    -0.094 A 
ATOM      9  C9  DEN d   1      -5.998   1.769  -4.343  0.00  0.00    -0.072 A 
ENDROOT
TORSDOF 0
ENDMDL
