MODEL 1
REMARK minimizedAffinity 3.79287839
REMARK minimizedRMSD -1
REMARK  0 active torsions:
REMARK  status: ('A' for Active; 'I' for Inactive)
ROOT
ATOM      1  C1  DEN d   1       0.131   3.074  -2.457  0.00  0.00     0.130 A 
ATOM      2  C2  DEN d   1       1.450   3.420  -1.935  0.00  0.00    -0.031 A 
ATOM      3  C3  DEN d   1       2.088   4.351  -2.887  0.00  0.00     0.027 A 
ATOM      4  C4  DEN d   1       1.165   5.290  -5.104  0.00  0.00     0.027 A 
ATOM      5  C5  DEN d   1       0.094   5.275  -5.970  0.00  0.00    -0.003 A 
ATOM      6  C6  DEN d   1      -1.017   4.506  -5.744  0.00  0.00     0.001 A 
ATOM      7  C7  DEN d   1      -1.101   3.754  -4.603  0.00  0.00     0.017 A 
ATOM      8  C8  DEN d   1      -0.022   3.758  -3.729  0.00  0.00    -0.094 A 
ATOM      9  C9  DEN d   1       1.087   4.551  -3.969  0.00  0.00    -0.072 A 
ENDROOT
TORSDOF 0
ENDMDL
