MODEL 1
REMARK minimizedAffinity 4.99990082
REMARK minimizedRMSD -1
REMARK  0 active torsions:
REMARK  status: ('A' for Active; 'I' for Inactive)
ROOT
ATOM      1  C1  DEN d   1       2.639   3.797  -4.074  0.00  0.00     0.130 A 
ATOM      2  C2  DEN d   1       2.162   3.023  -2.931  0.00  0.00    -0.031 A 
ATOM      3  C3  DEN d   1       0.714   3.270  -2.784  0.00  0.00     0.027 A 
ATOM      4  C4  DEN d   1      -0.830   4.764  -4.211  0.00  0.00     0.027 A 
ATOM      5  C5  DEN d   1      -0.879   5.628  -5.283  0.00  0.00    -0.003 A 
ATOM      6  C6  DEN d   1       0.238   5.966  -6.000  0.00  0.00     0.001 A 
ATOM      7  C7  DEN d   1       1.445   5.401  -5.682  0.00  0.00     0.017 A 
ATOM      8  C8  DEN d   1       1.504   4.535  -4.598  0.00  0.00    -0.094 A 
ATOM      9  C9  DEN d   1       0.361   4.197  -3.893  0.00  0.00    -0.072 A 
ENDROOT
TORSDOF 0
ENDMDL
