MODEL 1
REMARK minimizedAffinity 8.94694614
REMARK minimizedRMSD -1
REMARK  0 active torsions:
REMARK  status: ('A' for Active; 'I' for Inactive)
ROOT
ATOM      1  C1  DEN d   1       0.907   5.786  -6.000  0.00  0.00     0.130 A 
ATOM      2  C2  DEN d   1      -0.541   5.972  -5.977  0.00  0.00    -0.031 A 
ATOM      3  C3  DEN d   1      -1.072   5.272  -4.790  0.00  0.00     0.027 A 
ATOM      4  C4  DEN d   1       0.201   3.931  -2.992  0.00  0.00     0.027 A 
ATOM      5  C5  DEN d   1       1.441   3.486  -2.592  0.00  0.00    -0.003 A 
ATOM      6  C6  DEN d   1       2.577   3.746  -3.312  0.00  0.00     0.001 A 
ATOM      7  C7  DEN d   1       2.502   4.509  -4.448  0.00  0.00     0.017 A 
ATOM      8  C8  DEN d   1       1.253   4.955  -4.861  0.00  0.00    -0.094 A 
ATOM      9  C9  DEN d   1       0.118   4.692  -4.113  0.00  0.00    -0.072 A 
ENDROOT
TORSDOF 0
ENDMDL
