MODEL 1
REMARK minimizedAffinity 4.71392918
REMARK minimizedRMSD -1
REMARK  0 active torsions:
REMARK  status: ('A' for Active; 'I' for Inactive)
ROOT
ATOM      1  C1  DEN d   1       0.505   3.114  -3.054  0.00  0.00     0.130 A 
ATOM      2  C2  DEN d   1       1.759   3.547  -2.443  0.00  0.00    -0.031 A 
ATOM      3  C3  DEN d   1       2.219   4.757  -3.153  0.00  0.00     0.027 A 
ATOM      4  C4  DEN d   1       1.116   5.998  -5.127  0.00  0.00     0.027 A 
ATOM      5  C5  DEN d   1       0.047   6.000  -5.995  0.00  0.00    -0.003 A 
ATOM      6  C6  DEN d   1      -0.919   5.028  -5.966  0.00  0.00     0.001 A 
ATOM      7  C7  DEN d   1      -0.858   4.039  -5.021  0.00  0.00     0.017 A 
ATOM      8  C8  DEN d   1       0.221   4.027  -4.147  0.00  0.00    -0.094 A 
ATOM      9  C9  DEN d   1       1.180   5.024  -4.184  0.00  0.00    -0.072 A 
ENDROOT
TORSDOF 0
ENDMDL
