MODEL 1
REMARK minimizedAffinity 10.4753332
REMARK minimizedRMSD -1
REMARK  0 active torsions:
REMARK  status: ('A' for Active; 'I' for Inactive)
ROOT
ATOM      1  C1  DEN d   1      -5.867  -0.983  -4.019  0.00  0.00     0.130 A 
ATOM      2  C2  DEN d   1      -5.924  -1.009  -5.478  0.00  0.00    -0.031 A 
ATOM      3  C3  DEN d   1      -5.981   0.386  -5.958  0.00  0.00     0.027 A 
ATOM      4  C4  DEN d   1      -5.982   2.573  -4.591  0.00  0.00     0.027 A 
ATOM      5  C5  DEN d   1      -5.957   3.102  -3.320  0.00  0.00    -0.003 A 
ATOM      6  C6  DEN d   1      -5.935   2.313  -2.201  0.00  0.00     0.001 A 
ATOM      7  C7  DEN d   1      -5.892   0.950  -2.332  0.00  0.00     0.017 A 
ATOM      8  C8  DEN d   1      -5.924   0.409  -3.611  0.00  0.00    -0.094 A 
ATOM      9  C9  DEN d   1      -5.934   1.224  -4.730  0.00  0.00    -0.072 A 
ENDROOT
TORSDOF 0
ENDMDL
