MODEL 1
REMARK minimizedAffinity 5.60629225
REMARK minimizedRMSD -1
REMARK  0 active torsions:
REMARK  status: ('A' for Active; 'I' for Inactive)
ROOT
ATOM      1  C1  DEN d   1      -2.147  -5.927  -3.558  0.00  0.00     0.130 A 
ATOM      2  C2  DEN d   1      -1.332  -5.981  -4.769  0.00  0.00    -0.031 A 
ATOM      3  C3  DEN d   1      -2.243  -5.995  -5.931  0.00  0.00     0.027 A 
ATOM      4  C4  DEN d   1      -4.821  -5.934  -5.974  0.00  0.00     0.027 A 
ATOM      5  C5  DEN d   1      -5.956  -5.896  -5.194  0.00  0.00    -0.003 A 
ATOM      6  C6  DEN d   1      -5.902  -5.900  -3.825  0.00  0.00     0.001 A 
ATOM      7  C7  DEN d   1      -4.687  -5.898  -3.194  0.00  0.00     0.017 A 
ATOM      8  C8  DEN d   1      -3.538  -5.943  -3.973  0.00  0.00    -0.094 A 
ATOM      9  C9  DEN d   1      -3.613  -5.926  -5.355  0.00  0.00    -0.072 A 
ENDROOT
TORSDOF 0
ENDMDL
