MODEL 1
REMARK minimizedAffinity 6.3441534
REMARK minimizedRMSD -1
REMARK  0 active torsions:
REMARK  status: ('A' for Active; 'I' for Inactive)
ROOT
ATOM      1  C1  DEN d   1      -0.603   4.552  -5.268  0.00  0.00     0.130 A 
ATOM      2  C2  DEN d   1       0.014   5.666  -5.982  0.00  0.00    -0.031 A 
ATOM      3  C3  DEN d   1       1.287   5.992  -5.307  0.00  0.00     0.027 A 
ATOM      4  C4  DEN d   1       2.358   4.882  -3.240  0.00  0.00     0.027 A 
ATOM      5  C5  DEN d   1       2.201   3.904  -2.283  0.00  0.00    -0.003 A 
ATOM      6  C6  DEN d   1       1.091   3.102  -2.234  0.00  0.00     0.001 A 
ATOM      7  C7  DEN d   1       0.116   3.234  -3.187  0.00  0.00     0.017 A 
ATOM      8  C8  DEN d   1       0.263   4.223  -4.150  0.00  0.00    -0.094 A 
ATOM      9  C9  DEN d   1       1.398   5.016  -4.190  0.00  0.00    -0.072 A 
ENDROOT
TORSDOF 0
ENDMDL
