MODEL 1
REMARK minimizedAffinity 1.48679686
REMARK minimizedRMSD -1
REMARK  0 active torsions:
REMARK  status: ('A' for Active; 'I' for Inactive)
ROOT
ATOM      1  C1  BNZ d   1       0.547   2.448  -1.073  0.00  0.00     0.000 A 
ATOM      2  C2  BNZ d   1       0.826   1.402  -1.912  0.00  0.00     0.000 A 
ATOM      3  C3  BNZ d   1       1.388   0.251  -1.433  0.00  0.00     0.000 A 
ATOM      4  C4  BNZ d   1       1.707   0.163  -0.126  0.00  0.00     0.000 A 
ATOM      5  C5  BNZ d   1       1.441   1.213   0.731  0.00  0.00     0.000 A 
ATOM      6  C6  BNZ d   1       0.839   2.354   0.253  0.00  0.00     0.000 A 
ENDROOT
TORSDOF 0
ENDMDL
