MODEL 1
REMARK minimizedAffinity -2.91172481
REMARK minimizedRMSD -1
REMARK  0 active torsions:
REMARK  status: ('A' for Active; 'I' for Inactive)
ROOT
ATOM      1  C1  BNZ d   1       0.967   1.703   1.113  0.00  0.00     0.000 A 
ATOM      2  C2  BNZ d   1       0.304   1.587  -0.079  0.00  0.00     0.000 A 
ATOM      3  C3  BNZ d   1       0.620   0.593  -0.962  0.00  0.00     0.000 A 
ATOM      4  C4  BNZ d   1       1.625  -0.258  -0.670  0.00  0.00     0.000 A 
ATOM      5  C5  BNZ d   1       2.309  -0.148   0.524  0.00  0.00     0.000 A 
ATOM      6  C6  BNZ d   1       1.962   0.829   1.427  0.00  0.00     0.000 A 
ENDROOT
TORSDOF 0
ENDMDL
