MODEL 1
REMARK minimizedAffinity -4.93574333
REMARK minimizedRMSD -1
REMARK  0 active torsions:
REMARK  status: ('A' for Active; 'I' for Inactive)
ROOT
ATOM      1  C1  BNZ d   1       1.091   3.384  -1.818  0.00  0.00     0.000 A 
ATOM      2  C2  BNZ d   1       1.208   2.020  -1.778  0.00  0.00     0.000 A 
ATOM      3  C3  BNZ d   1       1.033   1.336  -0.608  0.00  0.00     0.000 A 
ATOM      4  C4  BNZ d   1       0.780   2.019   0.527  0.00  0.00     0.000 A 
ATOM      5  C5  BNZ d   1       0.668   3.395   0.505  0.00  0.00     0.000 A 
ATOM      6  C6  BNZ d   1       0.807   4.077  -0.682  0.00  0.00     0.000 A 
ENDROOT
TORSDOF 0
ENDMDL
