MODEL 1
REMARK minimizedAffinity -2.48115301
REMARK minimizedRMSD -1
REMARK  0 active torsions:
REMARK  status: ('A' for Active; 'I' for Inactive)
ROOT
ATOM      1  C1  BNZ d   1       0.536   0.457  -1.446  0.00  0.00     0.000 A 
ATOM      2  C2  BNZ d   1       0.493  -0.854  -1.839  0.00  0.00     0.000 A 
ATOM      3  C3  BNZ d   1       1.008  -1.840  -1.045  0.00  0.00     0.000 A 
ATOM      4  C4  BNZ d   1       1.601  -1.510   0.121  0.00  0.00     0.000 A 
ATOM      5  C5  BNZ d   1       1.660  -0.191   0.527  0.00  0.00     0.000 A 
ATOM      6  C6  BNZ d   1       1.106   0.794  -0.257  0.00  0.00     0.000 A 
ENDROOT
TORSDOF 0
ENDMDL
