MODEL 1
REMARK minimizedAffinity -2.28967381
REMARK minimizedRMSD -1
REMARK  0 active torsions:
REMARK  status: ('A' for Active; 'I' for Inactive)
ROOT
ATOM      1  C1  BNZ d   1       0.963   3.099   0.459  0.00  0.00     0.000 A 
ATOM      2  C2  BNZ d   1       1.095   1.745   0.618  0.00  0.00     0.000 A 
ATOM      3  C3  BNZ d   1       1.149   0.915  -0.466  0.00  0.00     0.000 A 
ATOM      4  C4  BNZ d   1       1.031   1.433  -1.705  0.00  0.00     0.000 A 
ATOM      5  C5  BNZ d   1       0.888   2.795  -1.882  0.00  0.00     0.000 A 
ATOM      6  C6  BNZ d   1       0.873   3.632  -0.790  0.00  0.00     0.000 A 
ENDROOT
TORSDOF 0
ENDMDL
