MODEL 1
REMARK minimizedAffinity -1.33835316
REMARK minimizedRMSD -1
REMARK  0 active torsions:
REMARK  status: ('A' for Active; 'I' for Inactive)
ROOT
ATOM      1  C1  BNZ d   1       1.108   2.992   0.419  0.00  0.00     0.000 A 
ATOM      2  C2  BNZ d   1       0.903   2.869  -0.929  0.00  0.00     0.000 A 
ATOM      3  C3  BNZ d   1       1.011   1.654  -1.545  0.00  0.00     0.000 A 
ATOM      4  C4  BNZ d   1       1.362   0.572  -0.821  0.00  0.00     0.000 A 
ATOM      5  C5  BNZ d   1       1.581   0.682   0.538  0.00  0.00     0.000 A 
ATOM      6  C6  BNZ d   1       1.434   1.899   1.162  0.00  0.00     0.000 A 
ENDROOT
TORSDOF 0
ENDMDL
