MODEL 1
REMARK minimizedAffinity 3.2761147
REMARK minimizedRMSD -1
REMARK  0 active torsions:
REMARK  status: ('A' for Active; 'I' for Inactive)
ROOT
ATOM      1  C1  BNZ d   1       1.323   0.286  -2.342  0.00  0.00     0.000 A 
ATOM      2  C2  BNZ d   1       0.946   1.587  -2.546  0.00  0.00     0.000 A 
ATOM      3  C3  BNZ d   1       1.109   2.525  -1.564  0.00  0.00     0.000 A 
ATOM      4  C4  BNZ d   1       1.610   2.153  -0.369  0.00  0.00     0.000 A 
ATOM      5  C5  BNZ d   1       1.986   0.844  -0.145  0.00  0.00     0.000 A 
ATOM      6  C6  BNZ d   1       1.857  -0.089  -1.148  0.00  0.00     0.000 A 
ENDROOT
TORSDOF 0
ENDMDL
