MODEL 1
REMARK minimizedAffinity -3.77816343
REMARK minimizedRMSD -1
REMARK  0 active torsions:
REMARK  status: ('A' for Active; 'I' for Inactive)
ROOT
ATOM      1  C1  BNZ d   1       1.410   1.713  -1.943  0.00  0.00     0.000 A 
ATOM      2  C2  BNZ d   1       1.342   0.414  -1.513  0.00  0.00     0.000 A 
ATOM      3  C3  BNZ d   1       0.988   0.121  -0.225  0.00  0.00     0.000 A 
ATOM      4  C4  BNZ d   1       0.742   1.126   0.640  0.00  0.00     0.000 A 
ATOM      5  C5  BNZ d   1       0.817   2.440   0.224  0.00  0.00     0.000 A 
ATOM      6  C6  BNZ d   1       1.135   2.731  -1.082  0.00  0.00     0.000 A 
ENDROOT
TORSDOF 0
ENDMDL
