MODEL 1
REMARK minimizedAffinity -0.0465422757
REMARK minimizedRMSD -1
REMARK  0 active torsions:
REMARK  status: ('A' for Active; 'I' for Inactive)
ROOT
ATOM      1  C1  BNZ d   1       1.144   2.311  -2.198  0.00  0.00     0.000 A 
ATOM      2  C2  BNZ d   1       1.502   0.991  -2.128  0.00  0.00     0.000 A 
ATOM      3  C3  BNZ d   1       1.203   0.241  -1.025  0.00  0.00     0.000 A 
ATOM      4  C4  BNZ d   1       0.582   0.821   0.022  0.00  0.00     0.000 A 
ATOM      5  C5  BNZ d   1       0.223   2.154  -0.029  0.00  0.00     0.000 A 
ATOM      6  C6  BNZ d   1       0.491   2.895  -1.157  0.00  0.00     0.000 A 
ENDROOT
TORSDOF 0
ENDMDL
