MODEL 1
REMARK minimizedAffinity -0.308613658
REMARK minimizedRMSD -1
REMARK  0 active torsions:
REMARK  status: ('A' for Active; 'I' for Inactive)
ROOT
ATOM      1  C1  BNZ d   1       0.895   2.010  -0.539  0.00  0.00     0.000 A 
ATOM      2  C2  BNZ d   1       0.748   1.005  -1.457  0.00  0.00     0.000 A 
ATOM      3  C3  BNZ d   1       0.835  -0.306  -1.080  0.00  0.00     0.000 A 
ATOM      4  C4  BNZ d   1       1.109  -0.609   0.206  0.00  0.00     0.000 A 
ATOM      5  C5  BNZ d   1       1.269   0.394   1.141  0.00  0.00     0.000 A 
ATOM      6  C6  BNZ d   1       1.143   1.711   0.765  0.00  0.00     0.000 A 
ENDROOT
TORSDOF 0
ENDMDL
