MODEL 1
REMARK minimizedAffinity -4.54868126
REMARK minimizedRMSD -1
REMARK  0 active torsions:
REMARK  status: ('A' for Active; 'I' for Inactive)
ROOT
ATOM      1  C1  BNZ d   1       1.116   2.439   0.566  0.00  0.00     0.000 A 
ATOM      2  C2  BNZ d   1       0.756   1.205   1.039  0.00  0.00     0.000 A 
ATOM      3  C3  BNZ d   1       0.520   0.168   0.180  0.00  0.00     0.000 A 
ATOM      4  C4  BNZ d   1       0.605   0.375  -1.149  0.00  0.00     0.000 A 
ATOM      5  C5  BNZ d   1       0.958   1.616  -1.642  0.00  0.00     0.000 A 
ATOM      6  C6  BNZ d   1       1.232   2.648  -0.774  0.00  0.00     0.000 A 
ENDROOT
TORSDOF 0
ENDMDL
