MODEL 1
REMARK minimizedAffinity 2.40154552
REMARK minimizedRMSD -1
REMARK  0 active torsions:
REMARK  status: ('A' for Active; 'I' for Inactive)
ROOT
ATOM      1  C1  BNZ d   1      -3.083   2.617   2.337  0.00  0.00     0.000 A 
ATOM      2  C2  BNZ d   1      -4.172   1.877   1.961  0.00  0.00     0.000 A 
ATOM      3  C3  BNZ d   1      -4.867   1.139   2.878  0.00  0.00     0.000 A 
ATOM      4  C4  BNZ d   1      -4.449   1.110   4.160  0.00  0.00     0.000 A 
ATOM      5  C5  BNZ d   1      -3.348   1.844   4.553  0.00  0.00     0.000 A 
ATOM      6  C6  BNZ d   1      -2.673   2.616   3.635  0.00  0.00     0.000 A 
ENDROOT
TORSDOF 0
ENDMDL
