MODEL 1
REMARK minimizedAffinity 14.7932673
REMARK minimizedRMSD -1
REMARK  1 active torsions:
REMARK  status: ('A' for Active; 'I' for Inactive)
REMARK    1  A    between atoms: N_2  and  C1_3 
ROOT
ATOM      1  C1  UNL d   1       1.520  -1.169  -4.112  0.00  0.00     0.143 A 
ATOM      2  C2  UNL d   1       0.418  -1.823  -3.551  0.00  0.00    -0.057 A 
ATOM      3  C3  UNL d   1       0.230  -1.868  -2.164  0.00  0.00     0.033 A 
ATOM      4  C4  UNL d   1       1.159  -1.282  -1.310  0.00  0.00    -0.042 A 
ATOM      5  C5  UNL d   1       2.275  -0.648  -1.845  0.00  0.00     0.033 A 
ATOM      6  C6  UNL d   1       2.454  -0.601  -3.231  0.00  0.00    -0.057 A 
ENDROOT
BRANCH   1   7
ATOM      7  N   UNL d   1       1.815  -1.175  -5.478  0.00  0.00    -0.732 N 
ATOM      8  C   UNL d   1       2.909  -0.383  -5.999  0.00  0.00     0.284 C 
ATOM      9  H3  UNL d   1       1.742  -2.103  -5.887  0.00  0.00     0.395 HD
ENDBRANCH   1   7
TORSDOF 1
ENDMDL
