MODEL 1
REMARK minimizedAffinity 8.55472946
REMARK minimizedRMSD -1
REMARK  1 active torsions:
REMARK  status: ('A' for Active; 'I' for Inactive)
REMARK    1  A    between atoms: N_2  and  C1_3 
ROOT
ATOM      1  C1  UNL d   1       1.720  -1.391  -3.383  0.00  0.00     0.143 A 
ATOM      2  C2  UNL d   1       1.656  -2.754  -3.078  0.00  0.00    -0.057 A 
ATOM      3  C3  UNL d   1       1.762  -3.209  -1.758  0.00  0.00     0.033 A 
ATOM      4  C4  UNL d   1       1.963  -2.306  -0.719  0.00  0.00    -0.042 A 
ATOM      5  C5  UNL d   1       2.055  -0.948  -1.001  0.00  0.00     0.033 A 
ATOM      6  C6  UNL d   1       1.942  -0.500  -2.321  0.00  0.00    -0.057 A 
ENDROOT
BRANCH   1   7
ATOM      7  N   UNL d   1       1.721  -0.884  -4.684  0.00  0.00    -0.732 N 
ATOM      8  C   UNL d   1       2.467  -1.546  -5.733  0.00  0.00     0.284 C 
ATOM      9  H3  UNL d   1       0.803  -0.553  -4.973  0.00  0.00     0.395 HD
ENDBRANCH   1   7
TORSDOF 1
ENDMDL
