MODEL 1
REMARK minimizedAffinity 11.4546375
REMARK minimizedRMSD -1
REMARK  1 active torsions:
REMARK  status: ('A' for Active; 'I' for Inactive)
REMARK    1  A    between atoms: N_2  and  C1_3 
ROOT
ATOM      1  C1  UNL d   1       2.156  -2.675  -0.553  0.00  0.00     0.143 A 
ATOM      2  C2  UNL d   1       2.242  -1.278  -0.566  0.00  0.00    -0.057 A 
ATOM      3  C3  UNL d   1       1.590  -0.520  -1.547  0.00  0.00     0.033 A 
ATOM      4  C4  UNL d   1       0.862  -1.149  -2.552  0.00  0.00    -0.042 A 
ATOM      5  C5  UNL d   1       0.784  -2.537  -2.573  0.00  0.00     0.033 A 
ATOM      6  C6  UNL d   1       1.431  -3.288  -1.587  0.00  0.00    -0.057 A 
ENDROOT
BRANCH   1   7
ATOM      7  N   UNL d   1       2.861  -3.489   0.336  0.00  0.00    -0.732 N 
ATOM      8  C   UNL d   1       4.165  -4.008  -0.015  0.00  0.00     0.284 C 
ATOM      9  H3  UNL d   1       2.787  -3.168   1.299  0.00  0.00     0.395 HD
ENDBRANCH   1   7
TORSDOF 1
ENDMDL
