MODEL 1
REMARK minimizedAffinity 12.1222734
REMARK minimizedRMSD -1
REMARK  1 active torsions:
REMARK  status: ('A' for Active; 'I' for Inactive)
REMARK    1  A    between atoms: N_2  and  C1_3 
ROOT
ATOM      1  C1  UNL d   1      -1.074  -4.338  -2.362  0.00  0.00     0.143 A 
ATOM      2  C2  UNL d   1      -1.033  -3.121  -3.051  0.00  0.00    -0.057 A 
ATOM      3  C3  UNL d   1      -2.168  -2.611  -3.691  0.00  0.00     0.033 A 
ATOM      4  C4  UNL d   1      -3.362  -3.326  -3.678  0.00  0.00    -0.042 A 
ATOM      5  C5  UNL d   1      -3.419  -4.549  -3.021  0.00  0.00     0.033 A 
ATOM      6  C6  UNL d   1      -2.283  -5.050  -2.377  0.00  0.00    -0.057 A 
ENDROOT
BRANCH   1   7
ATOM      7  N   UNL d   1       0.046  -4.945  -1.789  0.00  0.00    -0.732 N 
ATOM      8  C   UNL d   1       0.752  -5.999  -2.487  0.00  0.00     0.284 C 
ATOM      9  H3  UNL d   1       0.655  -4.277  -1.322  0.00  0.00     0.395 HD
ENDBRANCH   1   7
TORSDOF 1
ENDMDL
