MODEL 1
REMARK minimizedAffinity 14.0402842
REMARK minimizedRMSD -1
REMARK  1 active torsions:
REMARK  status: ('A' for Active; 'I' for Inactive)
REMARK    1  A    between atoms: N_2  and  C1_3 
ROOT
ATOM      1  C1  UNL d   1      -3.626   1.122   3.731  0.00  0.00     0.143 A 
ATOM      2  C2  UNL d   1      -2.963   1.036   4.960  0.00  0.00    -0.057 A 
ATOM      3  C3  UNL d   1      -3.244   1.931   6.000  0.00  0.00     0.033 A 
ATOM      4  C4  UNL d   1      -4.174   2.949   5.818  0.00  0.00    -0.042 A 
ATOM      5  C5  UNL d   1      -4.827   3.069   4.597  0.00  0.00     0.033 A 
ATOM      6  C6  UNL d   1      -4.547   2.168   3.564  0.00  0.00    -0.057 A 
ENDROOT
BRANCH   1   7
ATOM      7  N   UNL d   1      -3.321   0.325   2.625  0.00  0.00    -0.732 N 
ATOM      8  C   UNL d   1      -3.742  -1.059   2.576  0.00  0.00     0.284 C 
ATOM      9  H3  UNL d   1      -3.429   0.824   1.745  0.00  0.00     0.395 HD
ENDBRANCH   1   7
TORSDOF 1
ENDMDL
