MODEL 1
REMARK minimizedAffinity 1.17250943
REMARK minimizedRMSD -1
REMARK  1 active torsions:
REMARK  status: ('A' for Active; 'I' for Inactive)
REMARK    1  A    between atoms: N_2  and  C1_3 
ROOT
ATOM      1  C1  UNL d   1      -2.029  -1.611   0.056  0.00  0.00     0.143 A 
ATOM      2  C2  UNL d   1      -2.209  -2.842   0.695  0.00  0.00    -0.057 A 
ATOM      3  C3  UNL d   1      -1.178  -3.788   0.754  0.00  0.00     0.033 A 
ATOM      4  C4  UNL d   1       0.047  -3.529   0.148  0.00  0.00    -0.042 A 
ATOM      5  C5  UNL d   1       0.240  -2.322  -0.514  0.00  0.00     0.033 A 
ATOM      6  C6  UNL d   1      -0.791  -1.379  -0.564  0.00  0.00    -0.057 A 
ENDROOT
BRANCH   1   7
ATOM      7  N   UNL d   1      -3.046  -0.670  -0.122  0.00  0.00    -0.732 N 
ATOM      8  C   UNL d   1      -3.515   0.128   0.990  0.00  0.00     0.284 C 
ATOM      9  H3  UNL d   1      -2.949  -0.154  -0.993  0.00  0.00     0.395 HD
ENDBRANCH   1   7
TORSDOF 1
ENDMDL
