MODEL 1
REMARK minimizedAffinity 10.4207783
REMARK minimizedRMSD -1
REMARK  1 active torsions:
REMARK  status: ('A' for Active; 'I' for Inactive)
REMARK    1  A    between atoms: N_2  and  C1_3 
ROOT
ATOM      1  C1  UNL d   1      -3.624   3.596  -5.569  0.00  0.00     0.143 A 
ATOM      2  C2  UNL d   1      -3.152   4.912  -5.596  0.00  0.00    -0.057 A 
ATOM      3  C3  UNL d   1      -4.021   5.992  -5.790  0.00  0.00     0.033 A 
ATOM      4  C4  UNL d   1      -5.380   5.772  -5.989  0.00  0.00    -0.042 A 
ATOM      5  C5  UNL d   1      -5.869   4.470  -5.991  0.00  0.00     0.033 A 
ATOM      6  C6  UNL d   1      -4.996   3.396  -5.790  0.00  0.00    -0.057 A 
ENDROOT
BRANCH   1   7
ATOM      7  N   UNL d   1      -2.797   2.474  -5.479  0.00  0.00    -0.732 N 
ATOM      8  C   UNL d   1      -2.090   2.176  -4.252  0.00  0.00     0.284 C 
ATOM      9  H3  UNL d   1      -3.197   1.658  -5.936  0.00  0.00     0.395 HD
ENDBRANCH   1   7
TORSDOF 1
ENDMDL
