MODEL 1
REMARK minimizedAffinity 21.4169235
REMARK minimizedRMSD -1
REMARK  1 active torsions:
REMARK  status: ('A' for Active; 'I' for Inactive)
REMARK    1  A    between atoms: N_2  and  C1_3 
ROOT
ATOM      1  C1  UNL d   1       2.722   0.095  -0.499  0.00  0.00     0.143 A 
ATOM      2  C2  UNL d   1       2.046  -1.070  -0.121  0.00  0.00    -0.057 A 
ATOM      3  C3  UNL d   1       1.052  -1.629  -0.933  0.00  0.00     0.033 A 
ATOM      4  C4  UNL d   1       0.695  -1.014  -2.129  0.00  0.00    -0.042 A 
ATOM      5  C5  UNL d   1       1.336   0.158  -2.513  0.00  0.00     0.033 A 
ATOM      6  C6  UNL d   1       2.333   0.708  -1.701  0.00  0.00    -0.057 A 
ENDROOT
BRANCH   1   7
ATOM      7  N   UNL d   1       3.650   0.754   0.311  0.00  0.00    -0.732 N 
ATOM      8  C   UNL d   1       3.238   1.850   1.162  0.00  0.00     0.284 C 
ATOM      9  H3  UNL d   1       4.308   0.113   0.748  0.00  0.00     0.395 HD
ENDBRANCH   1   7
TORSDOF 1
ENDMDL
