MODEL 1
REMARK minimizedAffinity 14.3213587
REMARK minimizedRMSD -1
REMARK  1 active torsions:
REMARK  status: ('A' for Active; 'I' for Inactive)
REMARK    1  A    between atoms: N_2  and  C1_3 
ROOT
ATOM      1  C1  UNL d   1       1.924   1.028   0.539  0.00  0.00     0.143 A 
ATOM      2  C2  UNL d   1       0.635   0.760   1.012  0.00  0.00    -0.057 A 
ATOM      3  C3  UNL d   1       0.232   1.163   2.290  0.00  0.00     0.033 A 
ATOM      4  C4  UNL d   1       1.124   1.818   3.134  0.00  0.00    -0.042 A 
ATOM      5  C5  UNL d   1       2.418   2.072   2.695  0.00  0.00     0.033 A 
ATOM      6  C6  UNL d   1       2.813   1.673   1.414  0.00  0.00    -0.057 A 
ENDROOT
BRANCH   1   7
ATOM      7  N   UNL d   1       2.416   0.567  -0.684  0.00  0.00    -0.732 N 
ATOM      8  C   UNL d   1       1.635  -0.340  -1.498  0.00  0.00     0.284 C 
ATOM      9  H3  UNL d   1       2.890   1.296  -1.212  0.00  0.00     0.395 HD
ENDBRANCH   1   7
TORSDOF 1
ENDMDL
