MODEL 1
REMARK minimizedAffinity 13.7993231
REMARK minimizedRMSD -1
REMARK  1 active torsions:
REMARK  status: ('A' for Active; 'I' for Inactive)
REMARK    1  A    between atoms: N_2  and  C1_3 
ROOT
ATOM      1  C1  UNL d   1       1.317  -1.103  -3.398  0.00  0.00     0.143 A 
ATOM      2  C2  UNL d   1       0.617  -2.269  -3.069  0.00  0.00    -0.057 A 
ATOM      3  C3  UNL d   1       0.523  -2.710  -1.744  0.00  0.00     0.033 A 
ATOM      4  C4  UNL d   1       1.154  -2.005  -0.723  0.00  0.00    -0.042 A 
ATOM      5  C5  UNL d   1       1.876  -0.857  -1.030  0.00  0.00     0.033 A 
ATOM      6  C6  UNL d   1       1.960  -0.418  -2.355  0.00  0.00    -0.057 A 
ENDROOT
BRANCH   1   7
ATOM      7  N   UNL d   1       1.529  -0.667  -4.708  0.00  0.00    -0.732 N 
ATOM      8  C   UNL d   1       1.988  -1.587  -5.726  0.00  0.00     0.284 C 
ATOM      9  H3  UNL d   1       0.808  -0.022  -5.024  0.00  0.00     0.395 HD
ENDBRANCH   1   7
TORSDOF 1
ENDMDL
