MODEL 1
REMARK minimizedAffinity -2.21348214
REMARK minimizedRMSD -1
REMARK  1 active torsions:
REMARK  status: ('A' for Active; 'I' for Inactive)
REMARK    1  A    between atoms: N_2  and  C1_3 
ROOT
ATOM      1  C1  UNL d   1      -3.469  -4.091  -4.953  0.00  0.00     0.143 A 
ATOM      2  C2  UNL d   1      -2.974  -4.975  -5.918  0.00  0.00    -0.057 A 
ATOM      3  C3  UNL d   1      -2.000  -5.930  -5.597  0.00  0.00     0.033 A 
ATOM      4  C4  UNL d   1      -1.483  -5.997  -4.308  0.00  0.00    -0.042 A 
ATOM      5  C5  UNL d   1      -1.942  -5.112  -3.339  0.00  0.00     0.033 A 
ATOM      6  C6  UNL d   1      -2.919  -4.166  -3.664  0.00  0.00    -0.057 A 
ENDROOT
BRANCH   1   7
ATOM      7  N   UNL d   1      -4.364  -3.056  -5.233  0.00  0.00    -0.732 N 
ATOM      8  C   UNL d   1      -5.583  -3.315  -5.970  0.00  0.00     0.284 C 
ATOM      9  H3  UNL d   1      -4.480  -2.420  -4.448  0.00  0.00     0.395 HD
ENDBRANCH   1   7
TORSDOF 1
ENDMDL
