MODEL 1
REMARK minimizedAffinity 6.50768518
REMARK minimizedRMSD -1
REMARK  1 active torsions:
REMARK  status: ('A' for Active; 'I' for Inactive)
REMARK    1  A    between atoms: N_2  and  C1_3 
ROOT
ATOM      1  C1  UNL d   1      -2.267  -3.907  -3.941  0.00  0.00     0.143 A 
ATOM      2  C2  UNL d   1      -2.008  -4.716  -5.053  0.00  0.00    -0.057 A 
ATOM      3  C3  UNL d   1      -1.079  -5.761  -4.989  0.00  0.00     0.033 A 
ATOM      4  C4  UNL d   1      -0.370  -6.000  -3.817  0.00  0.00    -0.042 A 
ATOM      5  C5  UNL d   1      -0.593  -5.193  -2.707  0.00  0.00     0.033 A 
ATOM      6  C6  UNL d   1      -1.526  -4.154  -2.774  0.00  0.00    -0.057 A 
ENDROOT
BRANCH   1   7
ATOM      7  N   UNL d   1      -3.106  -2.790  -3.970  0.00  0.00    -0.732 N 
ATOM      8  C   UNL d   1      -3.823  -2.438  -5.176  0.00  0.00     0.284 C 
ATOM      9  H3  UNL d   1      -3.653  -2.693  -3.117  0.00  0.00     0.395 HD
ENDBRANCH   1   7
TORSDOF 1
ENDMDL
