MODEL 1
REMARK minimizedAffinity -2.17735171
REMARK minimizedRMSD -1
REMARK  1 active torsions:
REMARK  status: ('A' for Active; 'I' for Inactive)
REMARK    1  A    between atoms: N_2  and  C1_3 
ROOT
ATOM      1  C1  UNL d   1      -2.541  -4.695  -4.488  0.00  0.00     0.143 A 
ATOM      2  C2  UNL d   1      -3.081  -3.435  -4.768  0.00  0.00    -0.057 A 
ATOM      3  C3  UNL d   1      -4.280  -3.300  -5.477  0.00  0.00     0.033 A 
ATOM      4  C4  UNL d   1      -4.948  -4.427  -5.947  0.00  0.00    -0.042 A 
ATOM      5  C5  UNL d   1      -4.417  -5.688  -5.702  0.00  0.00     0.033 A 
ATOM      6  C6  UNL d   1      -3.222  -5.816  -4.988  0.00  0.00    -0.057 A 
ENDROOT
BRANCH   1   7
ATOM      7  N   UNL d   1      -1.302  -4.891  -3.874  0.00  0.00    -0.732 N 
ATOM      8  C   UNL d   1      -0.453  -5.998  -4.261  0.00  0.00     0.284 C 
ATOM      9  H3  UNL d   1      -0.802  -4.018  -3.720  0.00  0.00     0.395 HD
ENDBRANCH   1   7
TORSDOF 1
ENDMDL
