MODEL 1
REMARK minimizedAffinity 8.52176762
REMARK minimizedRMSD -1
REMARK  1 active torsions:
REMARK  status: ('A' for Active; 'I' for Inactive)
REMARK    1  A    between atoms: N_2  and  C1_3 
ROOT
ATOM      1  C1  UNL d   1       2.224  -0.590  -1.101  0.00  0.00     0.143 A 
ATOM      2  C2  UNL d   1       2.370  -1.730  -0.304  0.00  0.00    -0.057 A 
ATOM      3  C3  UNL d   1       1.635  -2.894  -0.561  0.00  0.00     0.033 A 
ATOM      4  C4  UNL d   1       0.717  -2.928  -1.605  0.00  0.00    -0.042 A 
ATOM      5  C5  UNL d   1       0.537  -1.798  -2.394  0.00  0.00     0.033 A 
ATOM      6  C6  UNL d   1       1.278  -0.641  -2.137  0.00  0.00    -0.057 A 
ENDROOT
BRANCH   1   7
ATOM      7  N   UNL d   1       2.852   0.630  -0.836  0.00  0.00    -0.732 N 
ATOM      8  C   UNL d   1       3.903   0.717   0.155  0.00  0.00     0.284 C 
ATOM      9  H3  UNL d   1       3.033   1.165  -1.682  0.00  0.00     0.395 HD
ENDBRANCH   1   7
TORSDOF 1
ENDMDL
