MODEL 1
REMARK minimizedAffinity 13.0849781
REMARK minimizedRMSD -1
REMARK  1 active torsions:
REMARK  status: ('A' for Active; 'I' for Inactive)
REMARK    1  A    between atoms: N_2  and  C1_3 
ROOT
ATOM      1  C1  UNL d   1      -4.079   1.600   3.948  0.00  0.00     0.143 A 
ATOM      2  C2  UNL d   1      -3.683   1.052   5.173  0.00  0.00    -0.057 A 
ATOM      3  C3  UNL d   1      -3.266  -0.281   5.271  0.00  0.00     0.033 A 
ATOM      4  C4  UNL d   1      -3.264  -1.100   4.147  0.00  0.00    -0.042 A 
ATOM      5  C5  UNL d   1      -3.677  -0.584   2.924  0.00  0.00     0.033 A 
ATOM      6  C6  UNL d   1      -4.087   0.750   2.831  0.00  0.00    -0.057 A 
ENDROOT
BRANCH   1   7
ATOM      7  N   UNL d   1      -4.598   2.889   3.804  0.00  0.00    -0.732 N 
ATOM      8  C   UNL d   1      -5.998   3.090   3.495  0.00  0.00     0.284 C 
ATOM      9  H3  UNL d   1      -4.228   3.536   4.496  0.00  0.00     0.395 HD
ENDBRANCH   1   7
TORSDOF 1
ENDMDL
