MODEL 1
REMARK minimizedAffinity -4.91755152
REMARK minimizedRMSD -1
REMARK  0 active torsions:
REMARK  status: ('A' for Active; 'I' for Inactive)
ROOT
ATOM      1  C   UNL d   1      -0.792   1.668   2.522  0.00  0.00     0.078 C 
ATOM      2  C1  UNL d   1      -0.323   0.792   1.399  0.00  0.00    -0.077 A 
ATOM      3  C2  UNL d   1       1.026   0.439   1.274  0.00  0.00    -0.001 A 
ATOM      4  C3  UNL d   1       1.450  -0.369   0.218  0.00  0.00     0.003 A 
ATOM      5  C4  UNL d   1       0.531  -0.831  -0.722  0.00  0.00    -0.005 A 
ATOM      6  C5  UNL d   1      -0.813  -0.483  -0.608  0.00  0.00     0.003 A 
ATOM      7  C6  UNL d   1      -1.239   0.325   0.447  0.00  0.00    -0.001 A 
ENDROOT
TORSDOF 0
ENDMDL
