MODEL 1
REMARK minimizedAffinity -5.05267048
REMARK minimizedRMSD -1
REMARK  0 active torsions:
REMARK  status: ('A' for Active; 'I' for Inactive)
ROOT
ATOM      1  C   UNL d   1       0.330   0.096  -1.409  0.00  0.00     0.078 C 
ATOM      2  C1  UNL d   1      -0.302   0.526  -0.119  0.00  0.00    -0.077 A 
ATOM      3  C2  UNL d   1       0.428   1.241   0.839  0.00  0.00    -0.001 A 
ATOM      4  C3  UNL d   1      -0.171   1.626   2.040  0.00  0.00     0.003 A 
ATOM      5  C4  UNL d   1      -1.501   1.299   2.294  0.00  0.00    -0.005 A 
ATOM      6  C5  UNL d   1      -2.235   0.586   1.348  0.00  0.00     0.003 A 
ATOM      7  C6  UNL d   1      -1.638   0.201   0.147  0.00  0.00    -0.001 A 
ENDROOT
TORSDOF 0
ENDMDL
