MODEL 1
REMARK minimizedAffinity -5.09896326
REMARK minimizedRMSD -1
REMARK  0 active torsions:
REMARK  status: ('A' for Active; 'I' for Inactive)
ROOT
ATOM      1  C   UNL d   1      -0.427   1.834   2.725  0.00  0.00     0.078 C 
ATOM      2  C1  UNL d   1      -0.058   0.891   1.619  0.00  0.00    -0.077 A 
ATOM      3  C2  UNL d   1      -0.967   0.582   0.601  0.00  0.00    -0.001 A 
ATOM      4  C3  UNL d   1      -0.613  -0.305  -0.417  0.00  0.00     0.003 A 
ATOM      5  C4  UNL d   1       0.651  -0.891  -0.426  0.00  0.00    -0.005 A 
ATOM      6  C5  UNL d   1       1.562  -0.591   0.585  0.00  0.00     0.003 A 
ATOM      7  C6  UNL d   1       1.210   0.295   1.603  0.00  0.00    -0.001 A 
ENDROOT
TORSDOF 0
ENDMDL
