MODEL 1
REMARK minimizedAffinity -5.34913778
REMARK minimizedRMSD -1
REMARK  0 active torsions:
REMARK  status: ('A' for Active; 'I' for Inactive)
ROOT
ATOM      1  C   UNL d   1       0.849  -0.531  -1.304  0.00  0.00     0.078 C 
ATOM      2  C1  UNL d   1       0.241   0.071  -0.072  0.00  0.00    -0.077 A 
ATOM      3  C2  UNL d   1       1.025   0.365   1.050  0.00  0.00    -0.001 A 
ATOM      4  C3  UNL d   1       0.444   0.917   2.193  0.00  0.00     0.003 A 
ATOM      5  C4  UNL d   1      -0.925   1.178   2.225  0.00  0.00    -0.005 A 
ATOM      6  C5  UNL d   1      -1.714   0.886   1.114  0.00  0.00     0.003 A 
ATOM      7  C6  UNL d   1      -1.134   0.335  -0.030  0.00  0.00    -0.001 A 
ENDROOT
TORSDOF 0
ENDMDL
