MODEL 1
REMARK minimizedAffinity -4.7794528
REMARK minimizedRMSD -1
REMARK  0 active torsions:
REMARK  status: ('A' for Active; 'I' for Inactive)
ROOT
ATOM      1  C   UNL d   1      -1.018   1.595   2.984  0.00  0.00     0.078 C 
ATOM      2  C1  UNL d   1      -0.754   0.887   1.688  0.00  0.00    -0.077 A 
ATOM      3  C2  UNL d   1      -1.789   0.640   0.778  0.00  0.00    -0.001 A 
ATOM      4  C3  UNL d   1      -1.531  -0.029  -0.420  0.00  0.00     0.003 A 
ATOM      5  C4  UNL d   1      -0.239  -0.457  -0.717  0.00  0.00    -0.005 A 
ATOM      6  C5  UNL d   1       0.797  -0.218   0.184  0.00  0.00     0.003 A 
ATOM      7  C6  UNL d   1       0.541   0.451   1.382  0.00  0.00    -0.001 A 
ENDROOT
TORSDOF 0
ENDMDL
