MODEL 1
REMARK minimizedAffinity -4.09732151
REMARK minimizedRMSD -1
REMARK  0 active torsions:
REMARK  status: ('A' for Active; 'I' for Inactive)
ROOT
ATOM      1  C   UNL d   1       0.723  -0.475  -1.303  0.00  0.00     0.078 C 
ATOM      2  C1  UNL d   1       0.095   0.128  -0.082  0.00  0.00    -0.077 A 
ATOM      3  C2  UNL d   1      -1.245  -0.122   0.238  0.00  0.00    -0.001 A 
ATOM      4  C3  UNL d   1      -1.820   0.453   1.372  0.00  0.00     0.003 A 
ATOM      5  C4  UNL d   1      -1.061   1.283   2.196  0.00  0.00    -0.005 A 
ATOM      6  C5  UNL d   1       0.273   1.538   1.885  0.00  0.00     0.003 A 
ATOM      7  C6  UNL d   1       0.849   0.964   0.751  0.00  0.00    -0.001 A 
ENDROOT
TORSDOF 0
ENDMDL
