MODEL 1
REMARK minimizedAffinity -4.53200579
REMARK minimizedRMSD -1
REMARK  0 active torsions:
REMARK  status: ('A' for Active; 'I' for Inactive)
ROOT
ATOM      1  C   UNL d   1       0.702  -0.428  -1.415  0.00  0.00     0.078 C 
ATOM      2  C1  UNL d   1      -0.000   0.065  -0.185  0.00  0.00    -0.077 A 
ATOM      3  C2  UNL d   1      -1.395   0.188  -0.152  0.00  0.00    -0.001 A 
ATOM      4  C3  UNL d   1      -2.034   0.657   0.996  0.00  0.00     0.003 A 
ATOM      5  C4  UNL d   1      -1.288   1.008   2.120  0.00  0.00    -0.005 A 
ATOM      6  C5  UNL d   1       0.100   0.891   2.095  0.00  0.00     0.003 A 
ATOM      7  C6  UNL d   1       0.742   0.422   0.947  0.00  0.00    -0.001 A 
ENDROOT
TORSDOF 0
ENDMDL
