MODEL 1
REMARK minimizedAffinity -5.3079772
REMARK minimizedRMSD -1
REMARK  0 active torsions:
REMARK  status: ('A' for Active; 'I' for Inactive)
ROOT
ATOM      1  C   UNL d   1       0.606  -0.663  -0.637  0.00  0.00     0.078 C 
ATOM      2  C1  UNL d   1      -0.082   0.108   0.450  0.00  0.00    -0.077 A 
ATOM      3  C2  UNL d   1       0.643   0.932   1.319  0.00  0.00    -0.001 A 
ATOM      4  C3  UNL d   1      -0.009   1.637   2.332  0.00  0.00     0.003 A 
ATOM      5  C4  UNL d   1      -1.389   1.523   2.486  0.00  0.00    -0.005 A 
ATOM      6  C5  UNL d   1      -2.119   0.703   1.628  0.00  0.00     0.003 A 
ATOM      7  C6  UNL d   1      -1.469  -0.002   0.614  0.00  0.00    -0.001 A 
ENDROOT
TORSDOF 0
ENDMDL
