MODEL 1
REMARK minimizedAffinity -4.868083
REMARK minimizedRMSD -1
REMARK  0 active torsions:
REMARK  status: ('A' for Active; 'I' for Inactive)
ROOT
ATOM      1  C   UNL d   1       1.414   1.173   2.366  0.00  0.00     0.078 C 
ATOM      2  C1  UNL d   1       0.269   0.604   1.582  0.00  0.00    -0.077 A 
ATOM      3  C2  UNL d   1       0.456   0.121   0.281  0.00  0.00    -0.001 A 
ATOM      4  C3  UNL d   1      -0.621  -0.396  -0.441  0.00  0.00     0.003 A 
ATOM      5  C4  UNL d   1      -1.892  -0.434   0.129  0.00  0.00    -0.005 A 
ATOM      6  C5  UNL d   1      -2.088   0.047   1.422  0.00  0.00     0.003 A 
ATOM      7  C6  UNL d   1      -1.012   0.565   2.145  0.00  0.00    -0.001 A 
ENDROOT
TORSDOF 0
ENDMDL
