MODEL 1
REMARK minimizedAffinity 5.79965973
REMARK minimizedRMSD -1
REMARK  0 active torsions:
REMARK  status: ('A' for Active; 'I' for Inactive)
ROOT
ATOM      1  C1  BNZ d   1      -5.995  -4.909  -3.663  0.00  0.00     0.000 A 
ATOM      2  C2  BNZ d   1      -5.913  -3.543  -3.678  0.00  0.00     0.000 A 
ATOM      3  C3  BNZ d   1      -5.726  -2.866  -4.851  0.00  0.00     0.000 A 
ATOM      4  C4  BNZ d   1      -5.581  -3.557  -6.000  0.00  0.00     0.000 A 
ATOM      5  C5  BNZ d   1      -5.653  -4.936  -6.000  0.00  0.00     0.000 A 
ATOM      6  C6  BNZ d   1      -5.880  -5.612  -4.823  0.00  0.00     0.000 A 
ENDROOT
TORSDOF 0
ENDMDL
