MODEL 1
REMARK minimizedAffinity 6.79585123
REMARK minimizedRMSD -1
REMARK  0 active torsions:
REMARK  status: ('A' for Active; 'I' for Inactive)
ROOT
ATOM      1  C1  BNZ d   1      -0.619  -5.111  -1.125  0.00  0.00     0.000 A 
ATOM      2  C2  BNZ d   1       0.303  -5.076  -2.137  0.00  0.00     0.000 A 
ATOM      3  C3  BNZ d   1       1.638  -4.965  -1.865  0.00  0.00     0.000 A 
ATOM      4  C4  BNZ d   1       2.046  -4.848  -0.585  0.00  0.00     0.000 A 
ATOM      5  C5  BNZ d   1       1.128  -4.872   0.447  0.00  0.00     0.000 A 
ATOM      6  C6  BNZ d   1      -0.212  -5.023   0.171  0.00  0.00     0.000 A 
ENDROOT
TORSDOF 0
ENDMDL
