MODEL 1
REMARK minimizedAffinity 6.54511023
REMARK minimizedRMSD -1
REMARK  0 active torsions:
REMARK  status: ('A' for Active; 'I' for Inactive)
ROOT
ATOM      1  C1  BNZ d   1       2.390  -3.245   2.941  0.00  0.00     0.000 A 
ATOM      2  C2  BNZ d   1       2.293  -2.605   1.734  0.00  0.00     0.000 A 
ATOM      3  C3  BNZ d   1       1.634  -1.412   1.626  0.00  0.00     0.000 A 
ATOM      4  C4  BNZ d   1       1.039  -0.882   2.714  0.00  0.00     0.000 A 
ATOM      5  C5  BNZ d   1       1.120  -1.520   3.935  0.00  0.00     0.000 A 
ATOM      6  C6  BNZ d   1       1.818  -2.701   4.049  0.00  0.00     0.000 A 
ENDROOT
TORSDOF 0
ENDMDL
