MODEL 1
REMARK minimizedAffinity 6.45234108
REMARK minimizedRMSD -1
REMARK  0 active torsions:
REMARK  status: ('A' for Active; 'I' for Inactive)
ROOT
ATOM      1  C1  BNZ d   1       2.220  -3.628   3.626  0.00  0.00     0.000 A 
ATOM      2  C2  BNZ d   1       2.532  -4.238   4.811  0.00  0.00     0.000 A 
ATOM      3  C3  BNZ d   1       2.064  -3.745   5.997  0.00  0.00     0.000 A 
ATOM      4  C4  BNZ d   1       1.319  -2.621   6.000  0.00  0.00     0.000 A 
ATOM      5  C5  BNZ d   1       1.004  -1.988   4.814  0.00  0.00     0.000 A 
ATOM      6  C6  BNZ d   1       1.444  -2.509   3.619  0.00  0.00     0.000 A 
ENDROOT
TORSDOF 0
ENDMDL
