MODEL 1
REMARK minimizedAffinity 4.45704222
REMARK minimizedRMSD -1
REMARK  0 active torsions:
REMARK  status: ('A' for Active; 'I' for Inactive)
ROOT
ATOM      1  C1  BNZ d   1       5.052  -2.034  -0.021  0.00  0.00     0.000 A 
ATOM      2  C2  BNZ d   1       4.201  -1.928  -1.089  0.00  0.00     0.000 A 
ATOM      3  C3  BNZ d   1       4.225  -2.850  -2.097  0.00  0.00     0.000 A 
ATOM      4  C4  BNZ d   1       5.125  -3.853  -2.057  0.00  0.00     0.000 A 
ATOM      5  C5  BNZ d   1       5.997  -3.968  -0.993  0.00  0.00     0.000 A 
ATOM      6  C6  BNZ d   1       5.944  -3.060   0.040  0.00  0.00     0.000 A 
ENDROOT
TORSDOF 0
ENDMDL
