MODEL 1
REMARK minimizedAffinity 6.20633554
REMARK minimizedRMSD -1
REMARK  0 active torsions:
REMARK  status: ('A' for Active; 'I' for Inactive)
ROOT
ATOM      1  C   UNL d   1       5.999  -2.281   1.849  0.00  0.00     0.078 C 
ATOM      2  C1  UNL d   1       4.538  -1.944   1.837  0.00  0.00    -0.077 A 
ATOM      3  C2  UNL d   1       3.629  -2.648   2.636  0.00  0.00    -0.001 A 
ATOM      4  C3  UNL d   1       2.270  -2.330   2.608  0.00  0.00     0.003 A 
ATOM      5  C4  UNL d   1       1.808  -1.307   1.782  0.00  0.00    -0.005 A 
ATOM      6  C5  UNL d   1       2.705  -0.602   0.982  0.00  0.00     0.003 A 
ATOM      7  C6  UNL d   1       4.064  -0.919   1.008  0.00  0.00    -0.001 A 
ENDROOT
TORSDOF 0
ENDMDL
