MODEL 1
REMARK minimizedAffinity 12.4610367
REMARK minimizedRMSD -1
REMARK  0 active torsions:
REMARK  status: ('A' for Active; 'I' for Inactive)
ROOT
ATOM      1  C   UNL d   1       5.290  -2.240   1.588  0.00  0.00     0.078 C 
ATOM      2  C1  UNL d   1       3.828  -1.903   1.576  0.00  0.00    -0.077 A 
ATOM      3  C2  UNL d   1       3.335  -0.863   0.778  0.00  0.00    -0.001 A 
ATOM      4  C3  UNL d   1       1.973  -0.555   0.784  0.00  0.00     0.003 A 
ATOM      5  C4  UNL d   1       1.095  -1.280   1.586  0.00  0.00    -0.005 A 
ATOM      6  C5  UNL d   1       1.577  -2.315   2.385  0.00  0.00     0.003 A 
ATOM      7  C6  UNL d   1       2.938  -2.626   2.380  0.00  0.00    -0.001 A 
ENDROOT
TORSDOF 0
ENDMDL
