MODEL 1
REMARK minimizedAffinity 5.61412811
REMARK minimizedRMSD -1
REMARK  0 active torsions:
REMARK  status: ('A' for Active; 'I' for Inactive)
ROOT
ATOM      1  C   UNL d   1      -1.869   2.918   1.191  0.00  0.00     0.078 C 
ATOM      2  C1  UNL d   1      -3.206   3.583   1.333  0.00  0.00    -0.077 A 
ATOM      3  C2  UNL d   1      -3.723   3.899   2.596  0.00  0.00    -0.001 A 
ATOM      4  C3  UNL d   1      -4.973   4.509   2.714  0.00  0.00     0.003 A 
ATOM      5  C4  UNL d   1      -5.716   4.808   1.573  0.00  0.00    -0.005 A 
ATOM      6  C5  UNL d   1      -5.210   4.496   0.313  0.00  0.00     0.003 A 
ATOM      7  C6  UNL d   1      -3.961   3.886   0.193  0.00  0.00    -0.001 A 
ENDROOT
TORSDOF 0
ENDMDL
