MODEL 1
REMARK minimizedAffinity 0.807143271
REMARK minimizedRMSD -1
REMARK  0 active torsions:
REMARK  status: ('A' for Active; 'I' for Inactive)
ROOT
ATOM      1  C   UNL d   1       0.855  -1.815   1.593  0.00  0.00     0.078 C 
ATOM      2  C1  UNL d   1       1.152  -3.272   1.790  0.00  0.00    -0.077 A 
ATOM      3  C2  UNL d   1       2.075  -3.696   2.753  0.00  0.00    -0.001 A 
ATOM      4  C3  UNL d   1       2.349  -5.054   2.919  0.00  0.00     0.003 A 
ATOM      5  C4  UNL d   1       1.705  -6.000   2.123  0.00  0.00    -0.005 A 
ATOM      6  C5  UNL d   1       0.786  -5.587   1.161  0.00  0.00     0.003 A 
ATOM      7  C6  UNL d   1       0.511  -4.229   0.994  0.00  0.00    -0.001 A 
ENDROOT
TORSDOF 0
ENDMDL
