MODEL 1
REMARK minimizedAffinity 4.97353745
REMARK minimizedRMSD -1
REMARK  0 active torsions:
REMARK  status: ('A' for Active; 'I' for Inactive)
ROOT
ATOM      1  C   UNL d   1       2.128  -3.666   2.384  0.00  0.00     0.078 C 
ATOM      2  C1  UNL d   1       1.902  -2.191   2.239  0.00  0.00    -0.077 A 
ATOM      3  C2  UNL d   1       0.722  -1.593   2.699  0.00  0.00    -0.001 A 
ATOM      4  C3  UNL d   1       0.521  -0.220   2.549  0.00  0.00     0.003 A 
ATOM      5  C4  UNL d   1       1.495   0.567   1.937  0.00  0.00    -0.005 A 
ATOM      6  C5  UNL d   1       2.671  -0.019   1.474  0.00  0.00     0.003 A 
ATOM      7  C6  UNL d   1       2.874  -1.392   1.623  0.00  0.00    -0.001 A 
ENDROOT
TORSDOF 0
ENDMDL
