MODEL 1
REMARK minimizedAffinity 9.31961918
REMARK minimizedRMSD -1
REMARK  0 active torsions:
REMARK  status: ('A' for Active; 'I' for Inactive)
ROOT
ATOM      1  C   UNL d   1       1.018  -1.561   3.032  0.00  0.00     0.078 C 
ATOM      2  C1  UNL d   1       2.174  -1.202   2.146  0.00  0.00    -0.077 A 
ATOM      3  C2  UNL d   1       2.137  -0.059   1.339  0.00  0.00    -0.001 A 
ATOM      4  C3  UNL d   1       3.216   0.257   0.512  0.00  0.00     0.003 A 
ATOM      5  C4  UNL d   1       4.340  -0.565   0.484  0.00  0.00    -0.005 A 
ATOM      6  C5  UNL d   1       4.386  -1.706   1.282  0.00  0.00     0.003 A 
ATOM      7  C6  UNL d   1       3.308  -2.024   2.110  0.00  0.00    -0.001 A 
ENDROOT
TORSDOF 0
ENDMDL
