MODEL 1
REMARK minimizedAffinity 6.59677696
REMARK minimizedRMSD -1
REMARK  0 active torsions:
REMARK  status: ('A' for Active; 'I' for Inactive)
ROOT
ATOM      1  C   UNL d   1       2.006   1.100   2.236  0.00  0.00     0.078 C 
ATOM      2  C1  UNL d   1       1.426  -0.094   2.934  0.00  0.00    -0.077 A 
ATOM      3  C2  UNL d   1       1.446  -0.193   4.331  0.00  0.00    -0.001 A 
ATOM      4  C3  UNL d   1       0.911  -1.314   4.966  0.00  0.00     0.003 A 
ATOM      5  C4  UNL d   1       0.354  -2.346   4.213  0.00  0.00    -0.005 A 
ATOM      6  C5  UNL d   1       0.332  -2.258   2.823  0.00  0.00     0.003 A 
ATOM      7  C6  UNL d   1       0.867  -1.137   2.186  0.00  0.00    -0.001 A 
ENDROOT
TORSDOF 0
ENDMDL
