MODEL 1
REMARK minimizedAffinity -2.14474368
REMARK minimizedRMSD -1
REMARK  0 active torsions:
REMARK  status: ('A' for Active; 'I' for Inactive)
ROOT
ATOM      1  C   UNL d   1       2.849   4.131  -2.242  0.00  0.00     0.078 C 
ATOM      2  C1  UNL d   1       3.905   4.784  -3.083  0.00  0.00    -0.077 A 
ATOM      3  C2  UNL d   1       3.818   4.780  -4.481  0.00  0.00    -0.001 A 
ATOM      4  C3  UNL d   1       4.814   5.383  -5.251  0.00  0.00     0.003 A 
ATOM      5  C4  UNL d   1       5.904   5.993  -4.634  0.00  0.00    -0.005 A 
ATOM      6  C5  UNL d   1       6.000   5.999  -3.244  0.00  0.00     0.003 A 
ATOM      7  C6  UNL d   1       5.006   5.397  -2.471  0.00  0.00    -0.001 A 
ENDROOT
TORSDOF 0
ENDMDL
