MODEL 1
REMARK minimizedAffinity -5.63481569
REMARK minimizedRMSD -1
REMARK  1 active torsions:
REMARK  status: ('A' for Active; 'I' for Inactive)
REMARK    1  A    between atoms: C3_4  and  O_7 
ROOT
ATOM      1  C   UNL d   1      -0.023  -1.352   1.414  0.00  0.00    -0.033 A 
ATOM      2  C1  UNL d   1      -0.057  -0.286   0.512  0.00  0.00     0.039 A 
ATOM      3  C2  UNL d   1      -1.224  -0.013  -0.204  0.00  0.00    -0.080 A 
ATOM      4  C3  UNL d   1      -2.348  -0.811  -0.010  0.00  0.00     0.150 A 
ATOM      5  C4  UNL d   1      -2.322  -1.872   0.890  0.00  0.00    -0.007 A 
ATOM      6  C5  UNL d   1      -1.156  -2.144   1.604  0.00  0.00     0.039 A 
ENDROOT
BRANCH   4   7
ATOM      7  O   UNL d   1      -3.508  -0.586  -0.689  0.00  0.00    -0.526 OA
ATOM      8  H5  UNL d   1      -3.369   0.161  -1.296  0.00  0.00     0.418 HD
ENDBRANCH   4   7
TORSDOF 1
ENDMDL
