MODEL 1
REMARK minimizedAffinity -2.02216578
REMARK minimizedRMSD -1
REMARK  1 active torsions:
REMARK  status: ('A' for Active; 'I' for Inactive)
REMARK    1  A    between atoms: C3_4  and  O_7 
ROOT
ATOM      1  C   UNL d   1       1.499   0.071   0.798  0.00  0.00    -0.033 A 
ATOM      2  C1  UNL d   1       0.929  -0.855   1.673  0.00  0.00     0.039 A 
ATOM      3  C2  UNL d   1      -0.428  -1.169   1.574  0.00  0.00    -0.080 A 
ATOM      4  C3  UNL d   1      -1.202  -0.550   0.596  0.00  0.00     0.150 A 
ATOM      5  C4  UNL d   1      -0.640   0.371  -0.282  0.00  0.00    -0.007 A 
ATOM      6  C5  UNL d   1       0.715   0.683  -0.181  0.00  0.00     0.039 A 
ENDROOT
BRANCH   4   7
ATOM      7  O   UNL d   1      -2.532  -0.820   0.463  0.00  0.00    -0.526 OA
ATOM      8  H5  UNL d   1      -2.788  -1.453   1.155  0.00  0.00     0.418 HD
ENDBRANCH   4   7
TORSDOF 1
ENDMDL
