MODEL 1
REMARK minimizedAffinity -4.26696396
REMARK minimizedRMSD -1
REMARK  1 active torsions:
REMARK  status: ('A' for Active; 'I' for Inactive)
REMARK    1  A    between atoms: C3_4  and  O_7 
ROOT
ATOM      1  C   UNL d   1      -1.087  -0.385   0.596  0.00  0.00    -0.033 A 
ATOM      2  C1  UNL d   1      -0.479   0.083  -0.571  0.00  0.00     0.039 A 
ATOM      3  C2  UNL d   1      -0.974  -0.297  -1.819  0.00  0.00    -0.080 A 
ATOM      4  C3  UNL d   1      -2.077  -1.143  -1.888  0.00  0.00     0.150 A 
ATOM      5  C4  UNL d   1      -2.691  -1.610  -0.730  0.00  0.00    -0.007 A 
ATOM      6  C5  UNL d   1      -2.194  -1.230   0.516  0.00  0.00     0.039 A 
ENDROOT
BRANCH   4   7
ATOM      7  O   UNL d   1      -2.593  -1.546  -3.084  0.00  0.00    -0.526 OA
ATOM      8  H5  UNL d   1      -2.050  -1.168  -3.796  0.00  0.00     0.418 HD
ENDBRANCH   4   7
TORSDOF 1
ENDMDL
