MODEL 1
REMARK minimizedAffinity -4.80315685
REMARK minimizedRMSD -1
REMARK  1 active torsions:
REMARK  status: ('A' for Active; 'I' for Inactive)
REMARK    1  A    between atoms: C3_4  and  O_7 
ROOT
ATOM      1  C   UNL d   1       0.193  -0.331  -1.129  0.00  0.00    -0.033 A 
ATOM      2  C1  UNL d   1      -0.605  -0.424  -2.270  0.00  0.00     0.039 A 
ATOM      3  C2  UNL d   1      -1.980  -0.635  -2.147  0.00  0.00    -0.080 A 
ATOM      4  C3  UNL d   1      -2.543  -0.748  -0.879  0.00  0.00     0.150 A 
ATOM      5  C4  UNL d   1      -1.754  -0.652   0.262  0.00  0.00    -0.007 A 
ATOM      6  C5  UNL d   1      -0.381  -0.443   0.137  0.00  0.00     0.039 A 
ENDROOT
BRANCH   4   7
ATOM      7  O   UNL d   1      -3.880  -0.958  -0.709  0.00  0.00    -0.526 OA
ATOM      8  H5  UNL d   1      -4.294  -1.032  -1.585  0.00  0.00     0.418 HD
ENDBRANCH   4   7
TORSDOF 1
ENDMDL
