MODEL 1
REMARK minimizedAffinity -2.03449249
REMARK minimizedRMSD -1
REMARK  1 active torsions:
REMARK  status: ('A' for Active; 'I' for Inactive)
REMARK    1  A    between atoms: C3_4  and  O_7 
ROOT
ATOM      1  C   UNL d   1       1.289  -0.063  -0.088  0.00  0.00    -0.033 A 
ATOM      2  C1  UNL d   1       1.301  -0.925   1.010  0.00  0.00     0.039 A 
ATOM      3  C2  UNL d   1       0.100  -1.314   1.607  0.00  0.00    -0.080 A 
ATOM      4  C3  UNL d   1      -1.104  -0.835   1.096  0.00  0.00     0.150 A 
ATOM      5  C4  UNL d   1      -1.122   0.021  -0.001  0.00  0.00    -0.007 A 
ATOM      6  C5  UNL d   1       0.078   0.409  -0.595  0.00  0.00     0.039 A 
ENDROOT
BRANCH   4   7
ATOM      7  O   UNL d   1      -2.301  -1.183   1.648  0.00  0.00    -0.526 OA
ATOM      8  H5  UNL d   1      -2.131  -1.755   2.414  0.00  0.00     0.418 HD
ENDBRANCH   4   7
TORSDOF 1
ENDMDL
