MODEL 1
REMARK minimizedAffinity -4.42262554
REMARK minimizedRMSD -1
REMARK  1 active torsions:
REMARK  status: ('A' for Active; 'I' for Inactive)
REMARK    1  A    between atoms: C3_4  and  O_7 
ROOT
ATOM      1  C   UNL d   1      -0.910  -0.157  -2.023  0.00  0.00    -0.033 A 
ATOM      2  C1  UNL d   1      -2.028  -0.980  -1.877  0.00  0.00     0.039 A 
ATOM      3  C2  UNL d   1      -2.422  -1.407  -0.607  0.00  0.00    -0.080 A 
ATOM      4  C3  UNL d   1      -1.691  -1.004   0.507  0.00  0.00     0.150 A 
ATOM      5  C4  UNL d   1      -0.578  -0.181   0.369  0.00  0.00    -0.007 A 
ATOM      6  C5  UNL d   1      -0.186   0.244  -0.899  0.00  0.00     0.039 A 
ENDROOT
BRANCH   4   7
ATOM      7  O   UNL d   1      -2.034  -1.399   1.765  0.00  0.00    -0.526 OA
ATOM      8  H5  UNL d   1      -2.805  -1.988   1.704  0.00  0.00     0.418 HD
ENDBRANCH   4   7
TORSDOF 1
ENDMDL
