MODEL 1
REMARK minimizedAffinity -5.01823187
REMARK minimizedRMSD -1
REMARK  1 active torsions:
REMARK  status: ('A' for Active; 'I' for Inactive)
REMARK    1  A    between atoms: C3_4  and  O_7 
ROOT
ATOM      1  C   UNL d   1      -2.805  -0.774  -0.340  0.00  0.00    -0.033 A 
ATOM      2  C1  UNL d   1      -2.301  -0.253  -1.533  0.00  0.00     0.039 A 
ATOM      3  C2  UNL d   1      -0.944   0.057  -1.643  0.00  0.00    -0.080 A 
ATOM      4  C3  UNL d   1      -0.103  -0.159  -0.554  0.00  0.00     0.150 A 
ATOM      5  C4  UNL d   1      -0.598  -0.681   0.636  0.00  0.00    -0.007 A 
ATOM      6  C5  UNL d   1      -1.954  -0.989   0.744  0.00  0.00     0.039 A 
ENDROOT
BRANCH   4   7
ATOM      7  O   UNL d   1       1.227   0.133  -0.612  0.00  0.00    -0.526 OA
ATOM      8  H5  UNL d   1       1.421   0.513  -1.485  0.00  0.00     0.418 HD
ENDBRANCH   4   7
TORSDOF 1
ENDMDL
