MODEL 1
REMARK minimizedAffinity -4.2575531
REMARK minimizedRMSD -1
REMARK  1 active torsions:
REMARK  status: ('A' for Active; 'I' for Inactive)
REMARK    1  A    between atoms: C3_4  and  O_7 
ROOT
ATOM      1  C   UNL d   1       0.953  -0.016   0.270  0.00  0.00    -0.033 A 
ATOM      2  C1  UNL d   1       0.686   0.558  -0.975  0.00  0.00     0.039 A 
ATOM      3  C2  UNL d   1      -0.574   0.410  -1.558  0.00  0.00    -0.080 A 
ATOM      4  C3  UNL d   1      -1.557  -0.312  -0.886  0.00  0.00     0.150 A 
ATOM      5  C4  UNL d   1      -1.298  -0.883   0.356  0.00  0.00    -0.007 A 
ATOM      6  C5  UNL d   1      -0.039  -0.735   0.935  0.00  0.00     0.039 A 
ENDROOT
BRANCH   4   7
ATOM      7  O   UNL d   1      -2.800  -0.488  -1.417  0.00  0.00    -0.526 OA
ATOM      8  H5  UNL d   1      -2.825  -0.063  -2.291  0.00  0.00     0.418 HD
ENDBRANCH   4   7
TORSDOF 1
ENDMDL
