MODEL 1
REMARK minimizedAffinity -0.532300889
REMARK minimizedRMSD -1
REMARK  1 active torsions:
REMARK  status: ('A' for Active; 'I' for Inactive)
REMARK    1  A    between atoms: C3_4  and  O_7 
ROOT
ATOM      1  C   UNL d   1       1.456  -0.386   0.785  0.00  0.00    -0.033 A 
ATOM      2  C1  UNL d   1       0.735  -1.239   1.623  0.00  0.00     0.039 A 
ATOM      3  C2  UNL d   1      -0.646  -1.372   1.466  0.00  0.00    -0.080 A 
ATOM      4  C3  UNL d   1      -1.293  -0.648   0.468  0.00  0.00     0.150 A 
ATOM      5  C4  UNL d   1      -0.581   0.200  -0.373  0.00  0.00    -0.007 A 
ATOM      6  C5  UNL d   1       0.798   0.332  -0.214  0.00  0.00     0.039 A 
ENDROOT
BRANCH   4   7
ATOM      7  O   UNL d   1      -2.640  -0.741   0.280  0.00  0.00    -0.526 OA
ATOM      8  H5  UNL d   1      -3.004  -1.342   0.952  0.00  0.00     0.418 HD
ENDBRANCH   4   7
TORSDOF 1
ENDMDL
