MODEL 1
REMARK minimizedAffinity -4.95309305
REMARK minimizedRMSD -1
REMARK  1 active torsions:
REMARK  status: ('A' for Active; 'I' for Inactive)
REMARK    1  A    between atoms: C3_4  and  O_7 
ROOT
ATOM      1  C   UNL d   1      -3.122  -0.800  -0.375  0.00  0.00    -0.033 A 
ATOM      2  C1  UNL d   1      -2.705   0.185  -1.271  0.00  0.00     0.039 A 
ATOM      3  C2  UNL d   1      -1.374   0.607  -1.277  0.00  0.00    -0.080 A 
ATOM      4  C3  UNL d   1      -0.472   0.036  -0.383  0.00  0.00     0.150 A 
ATOM      5  C4  UNL d   1      -0.880  -0.949   0.510  0.00  0.00    -0.007 A 
ATOM      6  C5  UNL d   1      -2.210  -1.368   0.515  0.00  0.00     0.039 A 
ENDROOT
BRANCH   4   7
ATOM      7  O   UNL d   1       0.836   0.419  -0.348  0.00  0.00    -0.526 OA
ATOM      8  H5  UNL d   1       0.967   1.127  -1.001  0.00  0.00     0.418 HD
ENDBRANCH   4   7
TORSDOF 1
ENDMDL
