MODEL 1
REMARK minimizedAffinity -4.63391685
REMARK minimizedRMSD -1
REMARK  1 active torsions:
REMARK  status: ('A' for Active; 'I' for Inactive)
REMARK    1  A    between atoms: C3_4  and  O_7 
ROOT
ATOM      1  C   UNL d   1       0.281   0.477  -0.566  0.00  0.00    -0.033 A 
ATOM      2  C1  UNL d   1      -0.598   0.425  -1.650  0.00  0.00     0.039 A 
ATOM      3  C2  UNL d   1      -1.901  -0.044  -1.472  0.00  0.00    -0.080 A 
ATOM      4  C3  UNL d   1      -2.311  -0.457  -0.207  0.00  0.00     0.150 A 
ATOM      5  C4  UNL d   1      -1.442  -0.405   0.877  0.00  0.00    -0.007 A 
ATOM      6  C5  UNL d   1      -0.141   0.064   0.697  0.00  0.00     0.039 A 
ENDROOT
BRANCH   4   7
ATOM      7  O   UNL d   1      -3.572  -0.928   0.015  0.00  0.00    -0.526 OA
ATOM      8  H5  UNL d   1      -4.051  -0.934  -0.831  0.00  0.00     0.418 HD
ENDBRANCH   4   7
TORSDOF 1
ENDMDL
