MODEL 1
REMARK minimizedAffinity -3.0579741
REMARK minimizedRMSD -1
REMARK  1 active torsions:
REMARK  status: ('A' for Active; 'I' for Inactive)
REMARK    1  A    between atoms: C3_4  and  O_7 
ROOT
ATOM      1  C   UNL d   1       0.782  -0.095  -0.431  0.00  0.00    -0.033 A 
ATOM      2  C1  UNL d   1       0.250  -0.604   0.755  0.00  0.00     0.039 A 
ATOM      3  C2  UNL d   1      -1.128  -0.798   0.877  0.00  0.00    -0.080 A 
ATOM      4  C3  UNL d   1      -1.960  -0.480  -0.192  0.00  0.00     0.150 A 
ATOM      5  C4  UNL d   1      -1.436   0.024  -1.378  0.00  0.00    -0.007 A 
ATOM      6  C5  UNL d   1      -0.061   0.217  -1.498  0.00  0.00     0.039 A 
ENDROOT
BRANCH   4   7
ATOM      7  O   UNL d   1      -3.311  -0.648  -0.118  0.00  0.00    -0.526 OA
ATOM      8  H5  UNL d   1      -3.532  -0.975   0.770  0.00  0.00     0.418 HD
ENDBRANCH   4   7
TORSDOF 1
ENDMDL
