MODEL 1
REMARK minimizedAffinity -4.1241293
REMARK minimizedRMSD -1
REMARK  1 active torsions:
REMARK  status: ('A' for Active; 'I' for Inactive)
REMARK    1  A    between atoms: C3_4  and  O_7 
ROOT
ATOM      1  C   UNL d   1       0.244   0.280  -1.020  0.00  0.00    -0.033 A 
ATOM      2  C1  UNL d   1      -0.610   0.278  -2.125  0.00  0.00     0.039 A 
ATOM      3  C2  UNL d   1      -1.965  -0.015  -1.961  0.00  0.00    -0.080 A 
ATOM      4  C3  UNL d   1      -2.453  -0.303  -0.689  0.00  0.00     0.150 A 
ATOM      5  C4  UNL d   1      -1.609  -0.299   0.416  0.00  0.00    -0.007 A 
ATOM      6  C5  UNL d   1      -0.255  -0.007   0.250  0.00  0.00     0.039 A 
ENDROOT
BRANCH   4   7
ATOM      7  O   UNL d   1      -3.767  -0.600  -0.481  0.00  0.00    -0.526 OA
ATOM      8  H5  UNL d   1      -4.224  -0.594  -1.338  0.00  0.00     0.418 HD
ENDBRANCH   4   7
TORSDOF 1
ENDMDL
