MODEL 1
REMARK minimizedAffinity -1.80433691
REMARK minimizedRMSD -1
REMARK  1 active torsions:
REMARK  status: ('A' for Active; 'I' for Inactive)
REMARK    1  A    between atoms: C3_4  and  O_7 
ROOT
ATOM      1  C   UNL d   1       2.717   3.443   1.509  0.00  0.00    -0.033 A 
ATOM      2  C1  UNL d   1       2.252   3.383   0.194  0.00  0.00     0.039 A 
ATOM      3  C2  UNL d   1       1.720   2.193  -0.306  0.00  0.00    -0.080 A 
ATOM      4  C3  UNL d   1       1.658   1.073   0.518  0.00  0.00     0.150 A 
ATOM      5  C4  UNL d   1       2.116   1.127   1.831  0.00  0.00    -0.007 A 
ATOM      6  C5  UNL d   1       2.648   2.316   2.328  0.00  0.00     0.039 A 
ENDROOT
BRANCH   4   7
ATOM      7  O   UNL d   1       1.151  -0.112   0.073  0.00  0.00    -0.526 OA
ATOM      8  H5  UNL d   1       0.900  -0.009  -0.860  0.00  0.00     0.418 HD
ENDBRANCH   4   7
TORSDOF 1
ENDMDL
