MODEL 1
REMARK minimizedAffinity -4.29457426
REMARK minimizedRMSD -1
REMARK  1 active torsions:
REMARK  status: ('A' for Active; 'I' for Inactive)
REMARK    1  A    between atoms: C3_4  and  O_7 
ROOT
ATOM      1  C   UNL d   1      -2.873  -0.240  -0.634  0.00  0.00    -0.033 A 
ATOM      2  C1  UNL d   1      -2.006   0.201  -1.636  0.00  0.00     0.039 A 
ATOM      3  C2  UNL d   1      -0.633   0.274  -1.392  0.00  0.00    -0.080 A 
ATOM      4  C3  UNL d   1      -0.141  -0.097  -0.144  0.00  0.00     0.150 A 
ATOM      5  C4  UNL d   1      -0.998  -0.541   0.858  0.00  0.00    -0.007 A 
ATOM      6  C5  UNL d   1      -2.369  -0.612   0.612  0.00  0.00     0.039 A 
ENDROOT
BRANCH   4   7
ATOM      7  O   UNL d   1       1.191  -0.038   0.143  0.00  0.00    -0.526 OA
ATOM      8  H5  UNL d   1       1.657   0.314  -0.633  0.00  0.00     0.418 HD
ENDBRANCH   4   7
TORSDOF 1
ENDMDL
