MODEL 1
REMARK minimizedAffinity -4.76268291
REMARK minimizedRMSD -1
REMARK  1 active torsions:
REMARK  status: ('A' for Active; 'I' for Inactive)
REMARK    1  A    between atoms: C3_4  and  O_7 
ROOT
ATOM      1  C   UNL d   1       1.266  -0.661   0.855  0.00  0.00    -0.033 A 
ATOM      2  C1  UNL d   1       0.453  -1.442   1.679  0.00  0.00     0.039 A 
ATOM      3  C2  UNL d   1      -0.936  -1.328   1.603  0.00  0.00    -0.080 A 
ATOM      4  C3  UNL d   1      -1.500  -0.430   0.701  0.00  0.00     0.150 A 
ATOM      5  C4  UNL d   1      -0.697   0.349  -0.126  0.00  0.00    -0.007 A 
ATOM      6  C5  UNL d   1       0.691   0.234  -0.048  0.00  0.00     0.039 A 
ENDROOT
BRANCH   4   7
ATOM      7  O   UNL d   1      -2.851  -0.280   0.595  0.00  0.00    -0.526 OA
ATOM      8  H5  UNL d   1      -3.277  -0.861   1.247  0.00  0.00     0.418 HD
ENDBRANCH   4   7
TORSDOF 1
ENDMDL
