MODEL 1
REMARK minimizedAffinity -0.674232364
REMARK minimizedRMSD -1
REMARK  0 active torsions:
REMARK  status: ('A' for Active; 'I' for Inactive)
ROOT
ATOM      1  C1  BNZ d   1       3.294  -0.920  -2.487  0.00  0.00     0.000 A 
ATOM      2  C2  BNZ d   1       3.686   0.036  -3.385  0.00  0.00     0.000 A 
ATOM      3  C3  BNZ d   1       2.764   0.720  -4.127  0.00  0.00     0.000 A 
ATOM      4  C4  BNZ d   1       1.455   0.419  -3.999  0.00  0.00     0.000 A 
ATOM      5  C5  BNZ d   1       1.045  -0.548  -3.104  0.00  0.00     0.000 A 
ATOM      6  C6  BNZ d   1       1.973  -1.207  -2.331  0.00  0.00     0.000 A 
ENDROOT
TORSDOF 0
ENDMDL
