MODEL 1
REMARK minimizedAffinity 4.38366652
REMARK minimizedRMSD -1
REMARK  0 active torsions:
REMARK  status: ('A' for Active; 'I' for Inactive)
ROOT
ATOM      1  C1  BNZ d   1       0.296  -0.597  -3.278  0.00  0.00     0.000 A 
ATOM      2  C2  BNZ d   1       0.933  -0.097  -2.174  0.00  0.00     0.000 A 
ATOM      3  C3  BNZ d   1       1.959   0.797  -2.303  0.00  0.00     0.000 A 
ATOM      4  C4  BNZ d   1       2.373   1.158  -3.534  0.00  0.00     0.000 A 
ATOM      5  C5  BNZ d   1       1.747   0.655  -4.658  0.00  0.00     0.000 A 
ATOM      6  C6  BNZ d   1       0.689  -0.214  -4.524  0.00  0.00     0.000 A 
ENDROOT
TORSDOF 0
ENDMDL
