MODEL 1
REMARK minimizedAffinity 0.455756366
REMARK minimizedRMSD -1
REMARK  0 active torsions:
REMARK  status: ('A' for Active; 'I' for Inactive)
ROOT
ATOM      1  C1  BNZ d   1       1.610   1.172  -2.418  0.00  0.00     0.000 A 
ATOM      2  C2  BNZ d   1       2.971   1.089  -2.297  0.00  0.00     0.000 A 
ATOM      3  C3  BNZ d   1       3.707   0.341  -3.174  0.00  0.00     0.000 A 
ATOM      4  C4  BNZ d   1       3.078  -0.352  -4.145  0.00  0.00     0.000 A 
ATOM      5  C5  BNZ d   1       1.705  -0.286  -4.274  0.00  0.00     0.000 A 
ATOM      6  C6  BNZ d   1       0.971   0.499  -3.413  0.00  0.00     0.000 A 
ENDROOT
TORSDOF 0
ENDMDL
