MODEL 1
REMARK minimizedAffinity 2.1551137
REMARK minimizedRMSD -1
REMARK  0 active torsions:
REMARK  status: ('A' for Active; 'I' for Inactive)
ROOT
ATOM      1  C1  BNZ d   1       2.681   1.207  -2.663  0.00  0.00     0.000 A 
ATOM      2  C2  BNZ d   1       1.387   1.090  -3.096  0.00  0.00     0.000 A 
ATOM      3  C3  BNZ d   1       1.078   0.308  -4.174  0.00  0.00     0.000 A 
ATOM      4  C4  BNZ d   1       2.066  -0.322  -4.841  0.00  0.00     0.000 A 
ATOM      5  C5  BNZ d   1       3.376  -0.206  -4.423  0.00  0.00     0.000 A 
ATOM      6  C6  BNZ d   1       3.679   0.550  -3.314  0.00  0.00     0.000 A 
ENDROOT
TORSDOF 0
ENDMDL
