MODEL 1
REMARK minimizedAffinity 1.98961878
REMARK minimizedRMSD -1
REMARK  0 active torsions:
REMARK  status: ('A' for Active; 'I' for Inactive)
ROOT
ATOM      1  C1  BNZ d   1      -2.165   1.545   1.677  0.00  0.00     0.000 A 
ATOM      2  C2  BNZ d   1      -1.110   2.078   2.368  0.00  0.00     0.000 A 
ATOM      3  C3  BNZ d   1      -0.388   1.315   3.242  0.00  0.00     0.000 A 
ATOM      4  C4  BNZ d   1      -0.747   0.032   3.455  0.00  0.00     0.000 A 
ATOM      5  C5  BNZ d   1      -1.814  -0.518   2.773  0.00  0.00     0.000 A 
ATOM      6  C6  BNZ d   1      -2.514   0.243   1.864  0.00  0.00     0.000 A 
ENDROOT
TORSDOF 0
ENDMDL
