MODEL 1
REMARK minimizedAffinity -0.378210962
REMARK minimizedRMSD -1
REMARK  0 active torsions:
REMARK  status: ('A' for Active; 'I' for Inactive)
ROOT
ATOM      1  C1  BNZ d   1       3.475   0.266  -3.161  0.00  0.00     0.000 A 
ATOM      2  C2  BNZ d   1       2.845   0.559  -4.342  0.00  0.00     0.000 A 
ATOM      3  C3  BNZ d   1       1.482   0.510  -4.439  0.00  0.00     0.000 A 
ATOM      4  C4  BNZ d   1       0.755   0.130  -3.369  0.00  0.00     0.000 A 
ATOM      5  C5  BNZ d   1       1.375  -0.178  -2.174  0.00  0.00     0.000 A 
ATOM      6  C6  BNZ d   1       2.745  -0.090  -2.069  0.00  0.00     0.000 A 
ENDROOT
TORSDOF 0
ENDMDL
