MODEL 1
REMARK minimizedAffinity 2.9026165
REMARK minimizedRMSD -1
REMARK  0 active torsions:
REMARK  status: ('A' for Active; 'I' for Inactive)
ROOT
ATOM      1  C1  BNZ d   1       4.212   0.733  -3.407  0.00  0.00     0.000 A 
ATOM      2  C2  BNZ d   1       3.482   1.880  -3.245  0.00  0.00     0.000 A 
ATOM      3  C3  BNZ d   1       2.119   1.862  -3.345  0.00  0.00     0.000 A 
ATOM      4  C4  BNZ d   1       1.491   0.706  -3.646  0.00  0.00     0.000 A 
ATOM      5  C5  BNZ d   1       2.215  -0.457  -3.821  0.00  0.00     0.000 A 
ATOM      6  C6  BNZ d   1       3.583  -0.442  -3.682  0.00  0.00     0.000 A 
ENDROOT
TORSDOF 0
ENDMDL
