MODEL 1
REMARK minimizedAffinity 11.3467741
REMARK minimizedRMSD -1
REMARK  0 active torsions:
REMARK  status: ('A' for Active; 'I' for Inactive)
ROOT
ATOM      1  C   UNL d   1       2.886  -4.279   4.802  0.00  0.00     0.124 A 
ATOM      2  C1  UNL d   1       1.642  -4.105   4.213  0.00  0.00     0.062 A 
ATOM      3  C2  UNL d   1       1.394  -2.991   3.417  0.00  0.00     0.162 A 
ATOM      4  C3  UNL d   1       2.394  -2.041   3.204  0.00  0.00    -0.034 A 
ATOM      5  C4  UNL d   1       3.643  -2.223   3.801  0.00  0.00     0.162 A 
ATOM      6  C5  UNL d   1       3.885  -3.339   4.596  0.00  0.00     0.062 A 
ATOM      7  F   UNL d   1       5.088  -3.505   5.165  0.00  0.00    -0.097 F 
ATOM      8  F1  UNL d   1       4.627  -1.330   3.618  0.00  0.00    -0.096 F 
ATOM      9  I   UNL d   1       2.028  -0.373   2.015  0.00  0.00    -0.060 I 
ATOM     10  F2  UNL d   1       0.183  -2.848   2.859  0.00  0.00    -0.096 F 
ATOM     11  F3  UNL d   1       0.675  -5.012   4.411  0.00  0.00    -0.097 F 
ATOM     12  F4  UNL d   1       3.122  -5.352   5.568  0.00  0.00    -0.092 F 
ENDROOT
TORSDOF 0
ENDMDL
