MODEL 1
REMARK minimizedAffinity 17.092947
REMARK minimizedRMSD -1
REMARK  0 active torsions:
REMARK  status: ('A' for Active; 'I' for Inactive)
ROOT
ATOM      1  C   UNL d   1      -2.509   0.912  -1.904  0.00  0.00     0.124 A 
ATOM      2  C1  UNL d   1      -3.439   1.504  -2.748  0.00  0.00     0.062 A 
ATOM      3  C2  UNL d   1      -4.350   2.428  -2.247  0.00  0.00     0.162 A 
ATOM      4  C3  UNL d   1      -4.336   2.768  -0.894  0.00  0.00    -0.034 A 
ATOM      5  C4  UNL d   1      -3.398   2.169  -0.051  0.00  0.00     0.162 A 
ATOM      6  C5  UNL d   1      -2.489   1.245  -0.557  0.00  0.00     0.062 A 
ATOM      7  F   UNL d   1      -1.591   0.675   0.259  0.00  0.00    -0.097 F 
ATOM      8  F1  UNL d   1      -3.356   2.473   1.254  0.00  0.00    -0.096 F 
ATOM      9  I   UNL d   1      -5.697   4.151  -0.140  0.00  0.00    -0.060 I 
ATOM     10  F2  UNL d   1      -5.238   2.984  -3.085  0.00  0.00    -0.096 F 
ATOM     11  F3  UNL d   1      -3.460   1.183  -4.050  0.00  0.00    -0.097 F 
ATOM     12  F4  UNL d   1      -1.633   0.022  -2.389  0.00  0.00    -0.092 F 
ENDROOT
TORSDOF 0
ENDMDL
