MODEL 1
REMARK minimizedAffinity 3.79937148
REMARK minimizedRMSD -1
REMARK  0 active torsions:
REMARK  status: ('A' for Active; 'I' for Inactive)
ROOT
ATOM      1  C   UNL d   1       1.870  -3.940   3.389  0.00  0.00     0.124 A 
ATOM      2  C1  UNL d   1       1.818  -2.946   4.355  0.00  0.00     0.062 A 
ATOM      3  C2  UNL d   1       1.840  -1.605   3.983  0.00  0.00     0.162 A 
ATOM      4  C3  UNL d   1       1.913  -1.250   2.635  0.00  0.00    -0.034 A 
ATOM      5  C4  UNL d   1       1.965  -2.256   1.669  0.00  0.00     0.162 A 
ATOM      6  C5  UNL d   1       1.944  -3.595   2.047  0.00  0.00     0.062 A 
ATOM      7  F   UNL d   1       1.994  -4.554   1.111  0.00  0.00    -0.097 F 
ATOM      8  F1  UNL d   1       2.036  -1.950   0.365  0.00  0.00    -0.096 F 
ATOM      9  I   UNL d   1       1.945   0.753   2.074  0.00  0.00    -0.060 I 
ATOM     10  F2  UNL d   1       1.788  -0.665   4.938  0.00  0.00    -0.096 F 
ATOM     11  F3  UNL d   1       1.748  -3.277   5.653  0.00  0.00    -0.097 F 
ATOM     12  F4  UNL d   1       1.850  -5.229   3.750  0.00  0.00    -0.092 F 
ENDROOT
TORSDOF 0
ENDMDL
