MODEL 1
REMARK minimizedAffinity 16.3244228
REMARK minimizedRMSD -1
REMARK  0 active torsions:
REMARK  status: ('A' for Active; 'I' for Inactive)
ROOT
ATOM      1  C   UNL d   1       1.247  -1.345   2.379  0.00  0.00     0.124 A 
ATOM      2  C1  UNL d   1       2.200  -0.553   1.755  0.00  0.00     0.062 A 
ATOM      3  C2  UNL d   1       3.531  -0.961   1.714  0.00  0.00     0.162 A 
ATOM      4  C3  UNL d   1       3.915  -2.168   2.298  0.00  0.00    -0.034 A 
ATOM      5  C4  UNL d   1       2.950  -2.958   2.925  0.00  0.00     0.162 A 
ATOM      6  C5  UNL d   1       1.622  -2.547   2.963  0.00  0.00     0.062 A 
ATOM      7  F   UNL d   1       0.702  -3.313   3.567  0.00  0.00    -0.097 F 
ATOM      8  F1  UNL d   1       3.286  -4.125   3.497  0.00  0.00    -0.096 F 
ATOM      9  I   UNL d   1       5.903  -2.781   2.239  0.00  0.00    -0.060 I 
ATOM     10  F2  UNL d   1       4.431  -0.176   1.104  0.00  0.00    -0.096 F 
ATOM     11  F3  UNL d   1       1.840   0.609   1.191  0.00  0.00    -0.097 F 
ATOM     12  F4  UNL d   1      -0.032  -0.950   2.418  0.00  0.00    -0.092 F 
ENDROOT
TORSDOF 0
ENDMDL
