MODEL 1
REMARK minimizedAffinity 1.68517268
REMARK minimizedRMSD -1
REMARK  0 active torsions:
REMARK  status: ('A' for Active; 'I' for Inactive)
ROOT
ATOM      1  C   UNL d   1       2.788  -2.129   3.654  0.00  0.00     0.124 A 
ATOM      2  C1  UNL d   1       1.444  -2.335   3.375  0.00  0.00     0.062 A 
ATOM      3  C2  UNL d   1       0.756  -3.382   3.979  0.00  0.00     0.162 A 
ATOM      4  C3  UNL d   1       1.411  -4.233   4.871  0.00  0.00    -0.034 A 
ATOM      5  C4  UNL d   1       2.763  -4.020   5.146  0.00  0.00     0.162 A 
ATOM      6  C5  UNL d   1       3.446  -2.971   4.539  0.00  0.00     0.062 A 
ATOM      7  F   UNL d   1       4.744  -2.774   4.810  0.00  0.00    -0.097 F 
ATOM      8  F1  UNL d   1       3.422  -4.818   5.998  0.00  0.00    -0.096 F 
ATOM      9  I   UNL d   1       0.385  -5.801   5.777  0.00  0.00    -0.060 I 
ATOM     10  F2  UNL d   1      -0.542  -3.558   3.691  0.00  0.00    -0.096 F 
ATOM     11  F3  UNL d   1       0.807  -1.523   2.519  0.00  0.00    -0.097 F 
ATOM     12  F4  UNL d   1       3.448  -1.120   3.070  0.00  0.00    -0.092 F 
ENDROOT
TORSDOF 0
ENDMDL
