MODEL 1
REMARK minimizedAffinity 14.1390963
REMARK minimizedRMSD -1
REMARK  0 active torsions:
REMARK  status: ('A' for Active; 'I' for Inactive)
ROOT
ATOM      1  C   UNL d   1       2.708  -5.827  -0.107  0.00  0.00     0.124 A 
ATOM      2  C1  UNL d   1       1.602  -5.899  -0.943  0.00  0.00     0.062 A 
ATOM      3  C2  UNL d   1       1.769  -5.921  -2.324  0.00  0.00     0.162 A 
ATOM      4  C3  UNL d   1       3.048  -5.871  -2.880  0.00  0.00    -0.034 A 
ATOM      5  C4  UNL d   1       4.155  -5.798  -2.033  0.00  0.00     0.162 A 
ATOM      6  C5  UNL d   1       3.983  -5.776  -0.653  0.00  0.00     0.062 A 
ATOM      7  F   UNL d   1       5.053  -5.706   0.153  0.00  0.00    -0.097 F 
ATOM      8  F1  UNL d   1       5.398  -5.748  -2.534  0.00  0.00    -0.096 F 
ATOM      9  I   UNL d   1       3.301  -5.904  -4.945  0.00  0.00    -0.060 I 
ATOM     10  F2  UNL d   1       0.682  -5.992  -3.108  0.00  0.00    -0.096 F 
ATOM     11  F3  UNL d   1       0.369  -5.948  -0.418  0.00  0.00    -0.097 F 
ATOM     12  F4  UNL d   1       2.545  -5.805   1.222  0.00  0.00    -0.092 F 
ENDROOT
TORSDOF 0
ENDMDL
