MODEL 1
REMARK minimizedAffinity 17.256155
REMARK minimizedRMSD -1
REMARK  0 active torsions:
REMARK  status: ('A' for Active; 'I' for Inactive)
ROOT
ATOM      1  C   UNL d   1      -2.443   2.593  -1.773  0.00  0.00     0.124 A 
ATOM      2  C1  UNL d   1      -2.960   2.207  -3.002  0.00  0.00     0.062 A 
ATOM      3  C2  UNL d   1      -3.271   0.871  -3.241  0.00  0.00     0.162 A 
ATOM      4  C3  UNL d   1      -3.066  -0.088  -2.250  0.00  0.00    -0.034 A 
ATOM      5  C4  UNL d   1      -2.545   0.308  -1.017  0.00  0.00     0.162 A 
ATOM      6  C5  UNL d   1      -2.236   1.644  -0.782  0.00  0.00     0.062 A 
ATOM      7  F   UNL d   1      -1.736   2.016   0.406  0.00  0.00    -0.097 F 
ATOM      8  F1  UNL d   1      -2.335  -0.588  -0.041  0.00  0.00    -0.096 F 
ATOM      9  I   UNL d   1      -3.530  -2.086  -2.604  0.00  0.00    -0.060 I 
ATOM     10  F2  UNL d   1      -3.770   0.526  -4.438  0.00  0.00    -0.096 F 
ATOM     11  F3  UNL d   1      -3.160   3.122  -3.961  0.00  0.00    -0.097 F 
ATOM     12  F4  UNL d   1      -2.144   3.879  -1.545  0.00  0.00    -0.092 F 
ENDROOT
TORSDOF 0
ENDMDL
