MODEL 1
REMARK minimizedAffinity 6.73651028
REMARK minimizedRMSD -1
REMARK  0 active torsions:
REMARK  status: ('A' for Active; 'I' for Inactive)
ROOT
ATOM      1  C   UNL d   1       2.395  -3.463   3.862  0.00  0.00     0.124 A 
ATOM      2  C1  UNL d   1       1.263  -2.766   3.462  0.00  0.00     0.062 A 
ATOM      3  C2  UNL d   1       1.387  -1.625   2.674  0.00  0.00     0.162 A 
ATOM      4  C3  UNL d   1       2.647  -1.175   2.279  0.00  0.00    -0.034 A 
ATOM      5  C4  UNL d   1       3.780  -1.881   2.687  0.00  0.00     0.162 A 
ATOM      6  C5  UNL d   1       3.652  -3.020   3.474  0.00  0.00     0.062 A 
ATOM      7  F   UNL d   1       4.746  -3.693   3.860  0.00  0.00    -0.097 F 
ATOM      8  F1  UNL d   1       5.007  -1.476   2.326  0.00  0.00    -0.096 F 
ATOM      9  I   UNL d   1       2.835   0.530   1.101  0.00  0.00    -0.060 I 
ATOM     10  F2  UNL d   1       0.276  -0.971   2.302  0.00  0.00    -0.096 F 
ATOM     11  F3  UNL d   1       0.048  -3.191   3.836  0.00  0.00    -0.097 F 
ATOM     12  F4  UNL d   1       2.273  -4.560   4.621  0.00  0.00    -0.092 F 
ENDROOT
TORSDOF 0
ENDMDL
