MODEL 1
REMARK minimizedAffinity 16.8428459
REMARK minimizedRMSD -1
REMARK  0 active torsions:
REMARK  status: ('A' for Active; 'I' for Inactive)
ROOT
ATOM      1  C   UNL d   1       4.506  -5.991  -3.384  0.00  0.00     0.124 A 
ATOM      2  C1  UNL d   1       3.983  -5.992  -2.099  0.00  0.00     0.062 A 
ATOM      3  C2  UNL d   1       2.605  -5.991  -1.904  0.00  0.00     0.162 A 
ATOM      4  C3  UNL d   1       1.739  -5.992  -2.998  0.00  0.00    -0.034 A 
ATOM      5  C4  UNL d   1       2.273  -5.990  -4.288  0.00  0.00     0.162 A 
ATOM      6  C5  UNL d   1       3.651  -5.990  -4.478  0.00  0.00     0.062 A 
ATOM      7  F   UNL d   1       4.155  -5.990  -5.720  0.00  0.00    -0.097 F 
ATOM      8  F1  UNL d   1       1.470  -5.991  -5.363  0.00  0.00    -0.096 F 
ATOM      9  I   UNL d   1      -0.322  -5.991  -2.712  0.00  0.00    -0.060 I 
ATOM     10  F2  UNL d   1       2.127  -5.992  -0.651  0.00  0.00    -0.096 F 
ATOM     11  F3  UNL d   1       4.807  -5.991  -1.041  0.00  0.00    -0.097 F 
ATOM     12  F4  UNL d   1       5.833  -5.990  -3.569  0.00  0.00    -0.092 F 
ENDROOT
TORSDOF 0
ENDMDL
