MODEL 1
REMARK minimizedAffinity 13.2139082
REMARK minimizedRMSD -1
REMARK  0 active torsions:
REMARK  status: ('A' for Active; 'I' for Inactive)
ROOT
ATOM      1  C   UNL d   1       4.149  -5.993  -3.185  0.00  0.00     0.124 A 
ATOM      2  C1  UNL d   1       3.257  -5.994  -4.248  0.00  0.00     0.062 A 
ATOM      3  C2  UNL d   1       1.885  -5.995  -4.011  0.00  0.00     0.162 A 
ATOM      4  C3  UNL d   1       1.397  -5.993  -2.704  0.00  0.00    -0.034 A 
ATOM      5  C4  UNL d   1       2.301  -5.993  -1.640  0.00  0.00     0.162 A 
ATOM      6  C5  UNL d   1       3.671  -5.993  -1.882  0.00  0.00     0.062 A 
ATOM      7  F   UNL d   1       4.531  -5.992  -0.854  0.00  0.00    -0.097 F 
ATOM      8  F1  UNL d   1       1.866  -5.992  -0.371  0.00  0.00    -0.096 F 
ATOM      9  I   UNL d   1      -0.653  -5.994  -2.345  0.00  0.00    -0.060 I 
ATOM     10  F2  UNL d   1       1.046  -5.995  -5.057  0.00  0.00    -0.096 F 
ATOM     11  F3  UNL d   1       3.717  -5.996  -5.508  0.00  0.00    -0.097 F 
ATOM     12  F4  UNL d   1       5.468  -5.994  -3.416  0.00  0.00    -0.092 F 
ENDROOT
TORSDOF 0
ENDMDL
