MODEL 1
REMARK minimizedAffinity 9.76577568
REMARK minimizedRMSD -1
REMARK  0 active torsions:
REMARK  status: ('A' for Active; 'I' for Inactive)
ROOT
ATOM      1  C   UNL d   1      -2.346   0.935  -1.642  0.00  0.00     0.124 A 
ATOM      2  C1  UNL d   1      -3.227   1.528  -2.536  0.00  0.00     0.062 A 
ATOM      3  C2  UNL d   1      -4.137   2.483  -2.094  0.00  0.00     0.162 A 
ATOM      4  C3  UNL d   1      -4.171   2.853  -0.749  0.00  0.00    -0.034 A 
ATOM      5  C4  UNL d   1      -3.283   2.252   0.145  0.00  0.00     0.162 A 
ATOM      6  C5  UNL d   1      -2.375   1.298  -0.303  0.00  0.00     0.062 A 
ATOM      7  F   UNL d   1      -1.525   0.726   0.563  0.00  0.00    -0.097 F 
ATOM      8  F1  UNL d   1      -3.289   2.584   1.444  0.00  0.00    -0.096 F 
ATOM      9  I   UNL d   1      -5.531   4.281  -0.083  0.00  0.00    -0.060 I 
ATOM     10  F2  UNL d   1      -4.977   3.039  -2.980  0.00  0.00    -0.096 F 
ATOM     11  F3  UNL d   1      -3.202   1.179  -3.831  0.00  0.00    -0.097 F 
ATOM     12  F4  UNL d   1      -1.472   0.016  -2.071  0.00  0.00    -0.092 F 
ENDROOT
TORSDOF 0
ENDMDL
