MODEL 1
REMARK minimizedAffinity -3.21728277
REMARK minimizedRMSD -1
REMARK  1 active torsions:
REMARK  status: ('A' for Active; 'I' for Inactive)
REMARK    1  A    between atoms: C3_4  and  O_7 
ROOT
ATOM      1  C   UNL d   1       0.105   0.794   1.299  0.00  0.00    -0.033 A 
ATOM      2  C1  UNL d   1       0.900   0.060   0.417  0.00  0.00     0.039 A 
ATOM      3  C2  UNL d   1       0.321  -0.903  -0.412  0.00  0.00    -0.080 A 
ATOM      4  C3  UNL d   1      -1.053  -1.120  -0.350  0.00  0.00     0.150 A 
ATOM      5  C4  UNL d   1      -1.852  -0.390   0.523  0.00  0.00    -0.007 A 
ATOM      6  C5  UNL d   1      -1.271   0.570   1.351  0.00  0.00     0.039 A 
ENDROOT
BRANCH   4   7
ATOM      7  O   UNL d   1      -1.663  -2.052  -1.137  0.00  0.00    -0.526 OA
ATOM      8  H5  UNL d   1      -0.983  -2.498  -1.668  0.00  0.00     0.418 HD
ENDBRANCH   4   7
TORSDOF 1
ENDMDL
