MODEL 1
REMARK minimizedAffinity -3.16491008
REMARK minimizedRMSD -1
REMARK  1 active torsions:
REMARK  status: ('A' for Active; 'I' for Inactive)
REMARK    1  A    between atoms: C3_4  and  O_7 
ROOT
ATOM      1  C   UNL d   1      -0.690  -0.415   0.434  0.00  0.00    -0.033 A 
ATOM      2  C1  UNL d   1       0.441  -0.120  -0.329  0.00  0.00     0.039 A 
ATOM      3  C2  UNL d   1       1.432   0.720   0.184  0.00  0.00    -0.080 A 
ATOM      4  C3  UNL d   1       1.280   1.256   1.460  0.00  0.00     0.150 A 
ATOM      5  C4  UNL d   1       0.157   0.963   2.227  0.00  0.00    -0.007 A 
ATOM      6  C5  UNL d   1      -0.832   0.125   1.713  0.00  0.00     0.039 A 
ENDROOT
BRANCH   4   7
ATOM      7  O   UNL d   1       2.217   2.085   2.001  0.00  0.00    -0.526 OA
ATOM      8  H5  UNL d   1       2.922   2.221   1.346  0.00  0.00     0.418 HD
ENDBRANCH   4   7
TORSDOF 1
ENDMDL
