MODEL 1
REMARK minimizedAffinity -2.29285979
REMARK minimizedRMSD -1
REMARK  1 active torsions:
REMARK  status: ('A' for Active; 'I' for Inactive)
REMARK    1  A    between atoms: C3_4  and  O_7 
ROOT
ATOM      1  C   UNL d   1      -2.431  -2.269  -3.362  0.00  0.00    -0.033 A 
ATOM      2  C1  UNL d   1      -2.909  -1.068  -2.835  0.00  0.00     0.039 A 
ATOM      3  C2  UNL d   1      -2.229  -0.443  -1.788  0.00  0.00    -0.080 A 
ATOM      4  C3  UNL d   1      -1.073  -1.028  -1.279  0.00  0.00     0.150 A 
ATOM      5  C4  UNL d   1      -0.588  -2.222  -1.802  0.00  0.00    -0.007 A 
ATOM      6  C5  UNL d   1      -1.269  -2.845  -2.847  0.00  0.00     0.039 A 
ENDROOT
BRANCH   4   7
ATOM      7  O   UNL d   1      -0.378  -0.458  -0.254  0.00  0.00    -0.526 OA
ATOM      8  H5  UNL d   1      -0.846   0.347   0.025  0.00  0.00     0.418 HD
ENDBRANCH   4   7
TORSDOF 1
ENDMDL
