MODEL 1
REMARK minimizedAffinity -4.09066057
REMARK minimizedRMSD -1
REMARK  1 active torsions:
REMARK  status: ('A' for Active; 'I' for Inactive)
REMARK    1  A    between atoms: C3_4  and  O_7 
ROOT
ATOM      1  C   UNL d   1       1.213   1.809   1.514  0.00  0.00    -0.033 A 
ATOM      2  C1  UNL d   1      -0.105   1.445   1.797  0.00  0.00     0.039 A 
ATOM      3  C2  UNL d   1      -0.702   0.387   1.108  0.00  0.00    -0.080 A 
ATOM      4  C3  UNL d   1       0.030  -0.297   0.141  0.00  0.00     0.150 A 
ATOM      5  C4  UNL d   1       1.344   0.058  -0.143  0.00  0.00    -0.007 A 
ATOM      6  C5  UNL d   1       1.938   1.115   0.545  0.00  0.00     0.039 A 
ENDROOT
BRANCH   4   7
ATOM      7  O   UNL d   1      -0.511  -1.333  -0.561  0.00  0.00    -0.526 OA
ATOM      8  H5  UNL d   1      -1.434  -1.447  -0.279  0.00  0.00     0.418 HD
ENDBRANCH   4   7
TORSDOF 1
ENDMDL
