MODEL 1
REMARK minimizedAffinity -2.88495827
REMARK minimizedRMSD -1
REMARK  1 active torsions:
REMARK  status: ('A' for Active; 'I' for Inactive)
REMARK    1  A    between atoms: C3_4  and  O_7 
ROOT
ATOM      1  C   UNL d   1      -0.599  -1.199  -0.096  0.00  0.00    -0.033 A 
ATOM      2  C1  UNL d   1       0.245  -0.396  -0.865  0.00  0.00     0.039 A 
ATOM      3  C2  UNL d   1       0.772   0.780  -0.328  0.00  0.00    -0.080 A 
ATOM      4  C3  UNL d   1       0.449   1.140   0.978  0.00  0.00     0.150 A 
ATOM      5  C4  UNL d   1      -0.388   0.342   1.751  0.00  0.00    -0.007 A 
ATOM      6  C5  UNL d   1      -0.914  -0.831   1.212  0.00  0.00     0.039 A 
ENDROOT
BRANCH   4   7
ATOM      7  O   UNL d   1       0.935   2.281   1.543  0.00  0.00    -0.526 OA
ATOM      8  H5  UNL d   1       1.475   2.746   0.883  0.00  0.00     0.418 HD
ENDBRANCH   4   7
TORSDOF 1
ENDMDL
