MODEL 1
REMARK minimizedAffinity -3.09423113
REMARK minimizedRMSD -1
REMARK  1 active torsions:
REMARK  status: ('A' for Active; 'I' for Inactive)
REMARK    1  A    between atoms: C3_4  and  O_7 
ROOT
ATOM      1  C   UNL d   1       0.674   1.612   1.828  0.00  0.00    -0.033 A 
ATOM      2  C1  UNL d   1      -0.599   1.094   2.075  0.00  0.00     0.039 A 
ATOM      3  C2  UNL d   1      -1.146   0.142   1.212  0.00  0.00    -0.080 A 
ATOM      4  C3  UNL d   1      -0.411  -0.284   0.109  0.00  0.00     0.150 A 
ATOM      5  C4  UNL d   1       0.860   0.226  -0.140  0.00  0.00    -0.007 A 
ATOM      6  C5  UNL d   1       1.404   1.177   0.722  0.00  0.00     0.039 A 
ENDROOT
BRANCH   4   7
ATOM      7  O   UNL d   1      -0.904  -1.207  -0.763  0.00  0.00    -0.526 OA
ATOM      8  H5  UNL d   1      -1.802  -1.448  -0.480  0.00  0.00     0.418 HD
ENDBRANCH   4   7
TORSDOF 1
ENDMDL
