MODEL 1
REMARK minimizedAffinity -3.64900708
REMARK minimizedRMSD -1
REMARK  1 active torsions:
REMARK  status: ('A' for Active; 'I' for Inactive)
REMARK    1  A    between atoms: C3_4  and  O_7 
ROOT
ATOM      1  C   UNL d   1      -1.410   0.601   1.331  0.00  0.00    -0.033 A 
ATOM      2  C1  UNL d   1      -0.909  -0.364   0.455  0.00  0.00     0.039 A 
ATOM      3  C2  UNL d   1       0.451  -0.383   0.140  0.00  0.00    -0.080 A 
ATOM      4  C3  UNL d   1       1.298   0.565   0.706  0.00  0.00     0.150 A 
ATOM      5  C4  UNL d   1       0.806   1.527   1.583  0.00  0.00    -0.007 A 
ATOM      6  C5  UNL d   1      -0.553   1.546   1.896  0.00  0.00     0.039 A 
ENDROOT
BRANCH   4   7
ATOM      7  O   UNL d   1       2.631   0.589   0.424  0.00  0.00    -0.526 OA
ATOM      8  H5  UNL d   1       2.823  -0.116  -0.217  0.00  0.00     0.418 HD
ENDBRANCH   4   7
TORSDOF 1
ENDMDL
