MODEL 1
REMARK minimizedAffinity -0.285019845
REMARK minimizedRMSD -1
REMARK  1 active torsions:
REMARK  status: ('A' for Active; 'I' for Inactive)
REMARK    1  A    between atoms: C3_4  and  O_7 
ROOT
ATOM      1  C   UNL d   1      -2.246  -1.884  -3.163  0.00  0.00    -0.033 A 
ATOM      2  C1  UNL d   1      -1.069  -1.138  -3.242  0.00  0.00     0.039 A 
ATOM      3  C2  UNL d   1      -0.423  -0.724  -2.075  0.00  0.00    -0.080 A 
ATOM      4  C3  UNL d   1      -0.964  -1.063  -0.838  0.00  0.00     0.150 A 
ATOM      5  C4  UNL d   1      -2.135  -1.809  -0.752  0.00  0.00    -0.007 A 
ATOM      6  C5  UNL d   1      -2.778  -2.221  -1.918  0.00  0.00     0.039 A 
ENDROOT
BRANCH   4   7
ATOM      7  O   UNL d   1      -0.372  -0.677   0.328  0.00  0.00    -0.526 OA
ATOM      8  H5  UNL d   1       0.412  -0.144   0.114  0.00  0.00     0.418 HD
ENDBRANCH   4   7
TORSDOF 1
ENDMDL
