MODEL 1
REMARK minimizedAffinity -2.68996
REMARK minimizedRMSD -1
REMARK  1 active torsions:
REMARK  status: ('A' for Active; 'I' for Inactive)
REMARK    1  A    between atoms: C3_4  and  O_7 
ROOT
ATOM      1  C   UNL d   1      -2.488  -1.595  -3.219  0.00  0.00    -0.033 A 
ATOM      2  C1  UNL d   1      -1.344  -1.004  -3.761  0.00  0.00     0.039 A 
ATOM      3  C2  UNL d   1      -0.286  -0.636  -2.928  0.00  0.00    -0.080 A 
ATOM      4  C3  UNL d   1      -0.383  -0.864  -1.558  0.00  0.00     0.150 A 
ATOM      5  C4  UNL d   1      -1.517  -1.455  -1.013  0.00  0.00    -0.007 A 
ATOM      6  C5  UNL d   1      -2.574  -1.822  -1.845  0.00  0.00     0.039 A 
ENDROOT
BRANCH   4   7
ATOM      7  O   UNL d   1       0.623  -0.517  -0.705  0.00  0.00    -0.526 OA
ATOM      8  H5  UNL d   1       1.330  -0.093  -1.219  0.00  0.00     0.418 HD
ENDBRANCH   4   7
TORSDOF 1
ENDMDL
