MODEL 1
REMARK minimizedAffinity -1.20754647
REMARK minimizedRMSD -1
REMARK  1 active torsions:
REMARK  status: ('A' for Active; 'I' for Inactive)
REMARK    1  A    between atoms: C3_4  and  O_7 
ROOT
ATOM      1  C   UNL d   1       0.577   1.540   1.887  0.00  0.00    -0.033 A 
ATOM      2  C1  UNL d   1      -0.746   1.854   1.570  0.00  0.00     0.039 A 
ATOM      3  C2  UNL d   1      -1.452   1.069   0.656  0.00  0.00    -0.080 A 
ATOM      4  C3  UNL d   1      -0.824  -0.027   0.069  0.00  0.00     0.150 A 
ATOM      5  C4  UNL d   1       0.492  -0.347   0.383  0.00  0.00    -0.007 A 
ATOM      6  C5  UNL d   1       1.196   0.438   1.295  0.00  0.00     0.039 A 
ENDROOT
BRANCH   4   7
ATOM      7  O   UNL d   1      -1.471  -0.819  -0.832  0.00  0.00    -0.526 OA
ATOM      8  H5  UNL d   1      -2.363  -0.461  -0.973  0.00  0.00     0.418 HD
ENDBRANCH   4   7
TORSDOF 1
ENDMDL
