MODEL 1
REMARK minimizedAffinity -2.19808125
REMARK minimizedRMSD -1
REMARK  1 active torsions:
REMARK  status: ('A' for Active; 'I' for Inactive)
REMARK    1  A    between atoms: C3_4  and  O_7 
ROOT
ATOM      1  C   UNL d   1      -0.429   0.436   1.145  0.00  0.00    -0.033 A 
ATOM      2  C1  UNL d   1      -0.663  -0.773   0.487  0.00  0.00     0.039 A 
ATOM      3  C2  UNL d   1       0.390  -1.450  -0.129  0.00  0.00    -0.080 A 
ATOM      4  C3  UNL d   1       1.672  -0.909  -0.080  0.00  0.00     0.150 A 
ATOM      5  C4  UNL d   1       1.914   0.293   0.576  0.00  0.00    -0.007 A 
ATOM      6  C5  UNL d   1       0.860   0.969   1.191  0.00  0.00     0.039 A 
ENDROOT
BRANCH   4   7
ATOM      7  O   UNL d   1       2.731  -1.532  -0.671  0.00  0.00    -0.526 OA
ATOM      8  H5  UNL d   1       2.409  -2.336  -1.111  0.00  0.00     0.418 HD
ENDBRANCH   4   7
TORSDOF 1
ENDMDL
