MODEL 1
REMARK minimizedAffinity -5.05634069
REMARK minimizedRMSD -1
REMARK  1 active torsions:
REMARK  status: ('A' for Active; 'I' for Inactive)
REMARK    1  A    between atoms: C3_4  and  O_7 
ROOT
ATOM      1  C   UNL d   1       0.810   1.528   1.790  0.00  0.00    -0.033 A 
ATOM      2  C1  UNL d   1       2.192   1.447   1.604  0.00  0.00     0.039 A 
ATOM      3  C2  UNL d   1       2.725   0.503   0.725  0.00  0.00    -0.080 A 
ATOM      4  C3  UNL d   1       1.868  -0.352   0.037  0.00  0.00     0.150 A 
ATOM      5  C4  UNL d   1       0.491  -0.274   0.215  0.00  0.00    -0.007 A 
ATOM      6  C5  UNL d   1      -0.040   0.668   1.094  0.00  0.00     0.039 A 
ENDROOT
BRANCH   4   7
ATOM      7  O   UNL d   1       2.343  -1.293  -0.828  0.00  0.00    -0.526 OA
ATOM      8  H5  UNL d   1       3.314  -1.249  -0.827  0.00  0.00     0.418 HD
ENDBRANCH   4   7
TORSDOF 1
ENDMDL
