MODEL 1
REMARK minimizedAffinity -2.05169368
REMARK minimizedRMSD -1
REMARK  1 active torsions:
REMARK  status: ('A' for Active; 'I' for Inactive)
REMARK    1  A    between atoms: C3_4  and  O_7 
ROOT
ATOM      1  C   UNL d   1      -0.764   0.226   0.718  0.00  0.00    -0.033 A 
ATOM      2  C1  UNL d   1      -0.601   1.102   1.793  0.00  0.00     0.039 A 
ATOM      3  C2  UNL d   1       0.653   1.654   2.062  0.00  0.00    -0.080 A 
ATOM      4  C3  UNL d   1       1.734   1.323   1.250  0.00  0.00     0.150 A 
ATOM      5  C4  UNL d   1       1.578   0.454   0.175  0.00  0.00    -0.007 A 
ATOM      6  C5  UNL d   1       0.325  -0.097  -0.092  0.00  0.00     0.039 A 
ENDROOT
BRANCH   4   7
ATOM      7  O   UNL d   1       2.977   1.833   1.477  0.00  0.00    -0.526 OA
ATOM      8  H5  UNL d   1       2.940   2.395   2.269  0.00  0.00     0.418 HD
ENDBRANCH   4   7
TORSDOF 1
ENDMDL
