MODEL 1
REMARK minimizedAffinity -4.17704535
REMARK minimizedRMSD -1
REMARK  1 active torsions:
REMARK  status: ('A' for Active; 'I' for Inactive)
REMARK    1  A    between atoms: C3_4  and  O_7 
ROOT
ATOM      1  C   UNL d   1       0.874   1.725   1.440  0.00  0.00    -0.033 A 
ATOM      2  C1  UNL d   1      -0.476   1.548   1.751  0.00  0.00     0.039 A 
ATOM      3  C2  UNL d   1      -1.188   0.482   1.197  0.00  0.00    -0.080 A 
ATOM      4  C3  UNL d   1      -0.540  -0.397   0.334  0.00  0.00     0.150 A 
ATOM      5  C4  UNL d   1       0.805  -0.228   0.022  0.00  0.00    -0.007 A 
ATOM      6  C5  UNL d   1       1.515   0.836   0.576  0.00  0.00     0.039 A 
ENDROOT
BRANCH   4   7
ATOM      7  O   UNL d   1      -1.194  -1.449  -0.235  0.00  0.00    -0.526 OA
ATOM      8  H5  UNL d   1      -2.123  -1.423   0.048  0.00  0.00     0.418 HD
ENDBRANCH   4   7
TORSDOF 1
ENDMDL
