MODEL 1
REMARK minimizedAffinity 12.0608063
REMARK minimizedRMSD -1
REMARK  2 active torsions:
REMARK  status: ('A' for Active; 'I' for Inactive)
REMARK    1  A    between atoms: C2'_3  and  C1'_4 
REMARK    2  A    between atoms: C1'_4  and  C1_5 
ROOT
ATOM      1  C1  I4B d   1      -0.280   2.770  -0.549  0.00  0.00    -0.075 A 
ATOM      2  C2  I4B d   1       0.658   2.076   0.174  0.00  0.00     0.003 A 
ATOM      3  C3  I4B d   1       0.390   1.697   1.512  0.00  0.00     0.002 A 
ATOM      4  C4  I4B d   1      -0.800   2.073   2.099  0.00  0.00    -0.004 A 
ATOM      5  C5  I4B d   1      -1.759   2.757   1.358  0.00  0.00     0.002 A 
ATOM      6  C6  I4B d   1      -1.503   3.097   0.022  0.00  0.00     0.003 A 
ENDROOT
BRANCH   1   7
ATOM      7  C1' I4B d   1       0.049   3.184  -1.948  0.00  0.00     0.060 C 
BRANCH   7   8
ATOM      8  C2' I4B d   1       0.551   4.613  -1.907  0.00  0.00    -0.013 C 
ATOM      9  C4' I4B d   1       1.784   4.733  -1.051  0.00  0.00     0.013 C 
ATOM     10  C3' I4B d   1       0.824   5.048  -3.315  0.00  0.00     0.013 C 
ENDBRANCH   7   8
ENDBRANCH   1   7
TORSDOF 2
ENDMDL
