MODEL 1
REMARK minimizedAffinity 19.4894104
REMARK minimizedRMSD -1
REMARK  2 active torsions:
REMARK  status: ('A' for Active; 'I' for Inactive)
REMARK    1  A    between atoms: C2'_3  and  C1'_4 
REMARK    2  A    between atoms: C1'_4  and  C1_5 
ROOT
ATOM      1  C1  I4B d   1      -1.456   3.411   0.668  0.00  0.00    -0.075 A 
ATOM      2  C2  I4B d   1      -1.106   4.082  -0.477  0.00  0.00     0.003 A 
ATOM      3  C3  I4B d   1       0.080   3.739  -1.170  0.00  0.00     0.002 A 
ATOM      4  C4  I4B d   1       0.907   2.760  -0.659  0.00  0.00    -0.004 A 
ATOM      5  C5  I4B d   1       0.539   2.064   0.490  0.00  0.00     0.002 A 
ATOM      6  C6  I4B d   1      -0.656   2.383   1.151  0.00  0.00     0.003 A 
ENDROOT
BRANCH   1   7
ATOM      7  C1' I4B d   1      -2.698   3.821   1.393  0.00  0.00     0.060 C 
BRANCH   7   8
ATOM      8  C2' I4B d   1      -2.893   5.308   1.181  0.00  0.00    -0.013 C 
ATOM      9  C4' I4B d   1      -4.268   5.607   0.645  0.00  0.00     0.013 C 
ATOM     10  C3' I4B d   1      -2.662   5.997   2.493  0.00  0.00     0.013 C 
ENDBRANCH   7   8
ENDBRANCH   1   7
TORSDOF 2
ENDMDL
