MODEL 1
REMARK minimizedAffinity 13.7612953
REMARK minimizedRMSD -1
REMARK  2 active torsions:
REMARK  status: ('A' for Active; 'I' for Inactive)
REMARK    1  A    between atoms: C2'_3  and  C1'_4 
REMARK    2  A    between atoms: C1'_4  and  C1_5 
ROOT
ATOM      1  C1  I4B d   1      -1.132  -5.524  -3.558  0.00  0.00    -0.075 A 
ATOM      2  C2  I4B d   1       0.184  -5.901  -3.471  0.00  0.00     0.003 A 
ATOM      3  C3  I4B d   1       0.988  -5.443  -2.399  0.00  0.00     0.002 A 
ATOM      4  C4  I4B d   1       0.451  -4.575  -1.470  0.00  0.00    -0.004 A 
ATOM      5  C5  I4B d   1      -0.891  -4.212  -1.547  0.00  0.00     0.002 A 
ATOM      6  C6  I4B d   1      -1.691  -4.699  -2.591  0.00  0.00     0.003 A 
ENDROOT
BRANCH   1   7
ATOM      7  C1' I4B d   1      -1.943  -5.999  -4.722  0.00  0.00     0.060 C 
BRANCH   7   8
ATOM      8  C2' I4B d   1      -3.125  -5.065  -4.880  0.00  0.00    -0.013 C 
ATOM      9  C4' I4B d   1      -2.897  -4.083  -5.999  0.00  0.00     0.013 C 
ATOM     10  C3' I4B d   1      -4.345  -5.900  -5.133  0.00  0.00     0.013 C 
ENDBRANCH   7   8
ENDBRANCH   1   7
TORSDOF 2
ENDMDL
