MODEL 1
REMARK minimizedAffinity 17.2779198
REMARK minimizedRMSD -1
REMARK  2 active torsions:
REMARK  status: ('A' for Active; 'I' for Inactive)
REMARK    1  A    between atoms: C2'_3  and  C1'_4 
REMARK    2  A    between atoms: C1'_4  and  C1_5 
ROOT
ATOM      1  C1  I4B d   1      -1.457   4.292  -1.294  0.00  0.00    -0.075 A 
ATOM      2  C2  I4B d   1      -1.601   4.571   0.042  0.00  0.00     0.003 A 
ATOM      3  C3  I4B d   1      -0.881   3.825   1.007  0.00  0.00     0.002 A 
ATOM      4  C4  I4B d   1      -0.073   2.784   0.598  0.00  0.00    -0.004 A 
ATOM      5  C5  I4B d   1       0.089   2.518  -0.759  0.00  0.00     0.002 A 
ATOM      6  C6  I4B d   1      -0.597   3.285  -1.712  0.00  0.00     0.003 A 
ENDROOT
BRANCH   1   7
ATOM      7  C1' I4B d   1      -2.257   5.077  -2.284  0.00  0.00     0.060 C 
BRANCH   7   8
ATOM      8  C2' I4B d   1      -3.638   4.459  -2.364  0.00  0.00    -0.013 C 
ATOM      9  C4' I4B d   1      -4.617   5.195  -1.487  0.00  0.00     0.013 C 
ATOM     10  C3' I4B d   1      -4.073   4.481  -3.799  0.00  0.00     0.013 C 
ENDBRANCH   7   8
ENDBRANCH   1   7
TORSDOF 2
ENDMDL
