MODEL 1
REMARK minimizedAffinity 7.03846359
REMARK minimizedRMSD -1
REMARK  2 active torsions:
REMARK  status: ('A' for Active; 'I' for Inactive)
REMARK    1  A    between atoms: C2'_3  and  C1'_4 
REMARK    2  A    between atoms: C1'_4  and  C1_5 
ROOT
ATOM      1  C1  I4B d   1       0.326   2.333   1.245  0.00  0.00    -0.075 A 
ATOM      2  C2  I4B d   1      -1.032   2.356   1.443  0.00  0.00     0.003 A 
ATOM      3  C3  I4B d   1      -1.595   1.753   2.593  0.00  0.00     0.002 A 
ATOM      4  C4  I4B d   1      -0.773   1.098   3.488  0.00  0.00    -0.004 A 
ATOM      5  C5  I4B d   1       0.605   1.095   3.298  0.00  0.00     0.002 A 
ATOM      6  C6  I4B d   1       1.160   1.727   2.175  0.00  0.00     0.003 A 
ENDROOT
BRANCH   1   7
ATOM      7  C1' I4B d   1       0.884   2.951   0.002  0.00  0.00     0.060 C 
BRANCH   7   8
ATOM      8  C2' I4B d   1       0.350   2.176  -1.185  0.00  0.00    -0.013 C 
ATOM      9  C4' I4B d   1       0.459   2.979  -2.455  0.00  0.00     0.013 C 
ATOM     10  C3' I4B d   1       1.122   0.895  -1.287  0.00  0.00     0.013 C 
ENDBRANCH   7   8
ENDBRANCH   1   7
TORSDOF 2
ENDMDL
