MODEL 1
REMARK minimizedAffinity 15.3860588
REMARK minimizedRMSD -1
REMARK  2 active torsions:
REMARK  status: ('A' for Active; 'I' for Inactive)
REMARK    1  A    between atoms: C2'_3  and  C1'_4 
REMARK    2  A    between atoms: C1'_4  and  C1_5 
ROOT
ATOM      1  C1  I4B d   1      -1.414   3.596   0.757  0.00  0.00    -0.075 A 
ATOM      2  C2  I4B d   1      -1.555   4.082  -0.519  0.00  0.00     0.003 A 
ATOM      3  C3  I4B d   1      -0.563   3.821  -1.495  0.00  0.00     0.002 A 
ATOM      4  C4  I4B d   1       0.570   3.118  -1.141  0.00  0.00    -0.004 A 
ATOM      5  C5  I4B d   1       0.701   2.606   0.146  0.00  0.00     0.002 A 
ATOM      6  C6  I4B d   1      -0.302   2.836   1.099  0.00  0.00     0.003 A 
ENDROOT
BRANCH   1   7
ATOM      7  C1' I4B d   1      -2.464   3.918   1.772  0.00  0.00     0.060 C 
BRANCH   7   8
ATOM      8  C2' I4B d   1      -2.772   5.398   1.671  0.00  0.00    -0.013 C 
ATOM      9  C4' I4B d   1      -4.162   5.631   1.139  0.00  0.00     0.013 C 
ATOM     10  C3' I4B d   1      -2.607   6.000   3.034  0.00  0.00     0.013 C 
ENDBRANCH   7   8
ENDBRANCH   1   7
TORSDOF 2
ENDMDL
