MODEL 1
REMARK minimizedAffinity 15.1748543
REMARK minimizedRMSD -1
REMARK  2 active torsions:
REMARK  status: ('A' for Active; 'I' for Inactive)
REMARK    1  A    between atoms: C2'_3  and  C1'_4 
REMARK    2  A    between atoms: C1'_4  and  C1_5 
ROOT
ATOM      1  C1  I4B d   1       0.638   2.729   0.665  0.00  0.00    -0.075 A 
ATOM      2  C2  I4B d   1      -0.701   2.789   0.370  0.00  0.00     0.003 A 
ATOM      3  C3  I4B d   1      -1.150   3.518  -0.757  0.00  0.00     0.002 A 
ATOM      4  C4  I4B d   1      -0.237   4.208  -1.528  0.00  0.00    -0.004 A 
ATOM      5  C5  I4B d   1       1.122   4.127  -1.241  0.00  0.00     0.002 A 
ATOM      6  C6  I4B d   1       1.565   3.373  -0.145  0.00  0.00     0.003 A 
ENDROOT
BRANCH   1   7
ATOM      7  C1' I4B d   1       1.075   1.977   1.883  0.00  0.00     0.060 C 
BRANCH   7   8
ATOM      8  C2' I4B d   1       2.569   2.175   2.043  0.00  0.00    -0.013 C 
ATOM      9  C4' I4B d   1       2.874   3.154   3.146  0.00  0.00     0.013 C 
ATOM     10  C3' I4B d   1       3.186   0.837   2.320  0.00  0.00     0.013 C 
ENDBRANCH   7   8
ENDBRANCH   1   7
TORSDOF 2
ENDMDL
