MODEL 1
REMARK minimizedAffinity 13.5310278
REMARK minimizedRMSD -1
REMARK  2 active torsions:
REMARK  status: ('A' for Active; 'I' for Inactive)
REMARK    1  A    between atoms: C2'_3  and  C1'_4 
REMARK    2  A    between atoms: C1'_4  and  C1_5 
ROOT
ATOM      1  C1  I4B d   1       1.137  -3.777  -1.343  0.00  0.00    -0.075 A 
ATOM      2  C2  I4B d   1       0.895  -4.849  -2.166  0.00  0.00     0.003 A 
ATOM      3  C3  I4B d   1      -0.057  -4.747  -3.209  0.00  0.00     0.002 A 
ATOM      4  C4  I4B d   1      -0.776  -3.579  -3.360  0.00  0.00    -0.004 A 
ATOM      5  C5  I4B d   1      -0.514  -2.486  -2.540  0.00  0.00     0.002 A 
ATOM      6  C6  I4B d   1       0.457  -2.581  -1.532  0.00  0.00     0.003 A 
ENDROOT
BRANCH   1   7
ATOM      7  C1' I4B d   1       2.125  -3.931  -0.231  0.00  0.00     0.060 C 
BRANCH   7   8
ATOM      8  C2' I4B d   1       3.280  -2.987  -0.499  0.00  0.00    -0.013 C 
ATOM      9  C4' I4B d   1       3.440  -1.990   0.618  0.00  0.00     0.013 C 
ATOM     10  C3' I4B d   1       4.521  -3.811  -0.671  0.00  0.00     0.013 C 
ENDBRANCH   7   8
ENDBRANCH   1   7
TORSDOF 2
ENDMDL
