MODEL 1
REMARK minimizedAffinity -0.537969172
REMARK minimizedRMSD -1
REMARK  0 active torsions:
REMARK  status: ('A' for Active; 'I' for Inactive)
ROOT
ATOM      1  C   UNL d   1      -0.717   1.431  -0.748  0.00  0.00     0.172 C 
ATOM      2  N   UNL d   1      -1.420   1.645  -1.991  0.00  0.00    -0.070 N 
ATOM      3  C1  UNL d   1      -2.747   1.391  -2.212  0.00  0.00    -0.004 A 
ATOM      4  C2  UNL d   1      -3.030   1.727  -3.518  0.00  0.00    -0.047 A 
ATOM      5  C3  UNL d   1      -1.830   2.197  -4.104  0.00  0.00    -0.047 A 
ATOM      6  C4  UNL d   1      -0.849   2.135  -3.136  0.00  0.00    -0.004 A 
ENDROOT
TORSDOF 0
ENDMDL
