MODEL 1
REMARK minimizedAffinity -1.62007117
REMARK minimizedRMSD -1
REMARK  0 active torsions:
REMARK  status: ('A' for Active; 'I' for Inactive)
ROOT
ATOM      1  C   UNL d   1      -0.988   0.806  -0.503  0.00  0.00     0.172 C 
ATOM      2  N   UNL d   1      -0.147  -0.253   0.003  0.00  0.00    -0.070 N 
ATOM      3  C1  UNL d   1      -0.586  -1.422   0.565  0.00  0.00    -0.004 A 
ATOM      4  C2  UNL d   1       0.521  -2.163   0.917  0.00  0.00    -0.047 A 
ATOM      5  C3  UNL d   1       1.665  -1.414   0.554  0.00  0.00    -0.047 A 
ATOM      6  C4  UNL d   1       1.223  -0.236  -0.010  0.00  0.00    -0.004 A 
ENDROOT
TORSDOF 0
ENDMDL
