MODEL 1
REMARK minimizedAffinity -2.73527241
REMARK minimizedRMSD -1
REMARK  0 active torsions:
REMARK  status: ('A' for Active; 'I' for Inactive)
ROOT
ATOM      1  C   UNL d   1      -0.377   4.249  -4.526  0.00  0.00     0.172 C 
ATOM      2  N   UNL d   1      -1.032   3.284  -3.674  0.00  0.00    -0.070 N 
ATOM      3  C1  UNL d   1      -0.850   3.158  -2.323  0.00  0.00    -0.004 A 
ATOM      4  C2  UNL d   1      -1.652   2.127  -1.883  0.00  0.00    -0.047 A 
ATOM      5  C3  UNL d   1      -2.339   1.615  -3.010  0.00  0.00    -0.047 A 
ATOM      6  C4  UNL d   1      -1.937   2.349  -4.105  0.00  0.00    -0.004 A 
ENDROOT
TORSDOF 0
ENDMDL
