MODEL 1
REMARK minimizedAffinity 1.87777746
REMARK minimizedRMSD -1
REMARK  0 active torsions:
REMARK  status: ('A' for Active; 'I' for Inactive)
ROOT
ATOM      1  C   UNL d   1       0.687   4.525   0.657  0.00  0.00     0.172 C 
ATOM      2  N   UNL d   1       1.852   3.719   0.374  0.00  0.00    -0.070 N 
ATOM      3  C1  UNL d   1       1.840   2.468  -0.182  0.00  0.00    -0.004 A 
ATOM      4  C2  UNL d   1       3.146   2.041  -0.288  0.00  0.00    -0.047 A 
ATOM      5  C3  UNL d   1       3.971   3.071   0.223  0.00  0.00    -0.047 A 
ATOM      6  C4  UNL d   1       3.144   4.098   0.626  0.00  0.00    -0.004 A 
ENDROOT
TORSDOF 0
ENDMDL
