MODEL 1
REMARK minimizedAffinity -3.03804302
REMARK minimizedRMSD -1
REMARK  0 active torsions:
REMARK  status: ('A' for Active; 'I' for Inactive)
ROOT
ATOM      1  C   UNL d   1      -1.532   1.577  -0.263  0.00  0.00     0.172 C 
ATOM      2  N   UNL d   1      -1.719   1.911  -1.655  0.00  0.00    -0.070 N 
ATOM      3  C1  UNL d   1      -0.895   2.710  -2.402  0.00  0.00    -0.004 A 
ATOM      4  C2  UNL d   1      -1.415   2.780  -3.676  0.00  0.00    -0.047 A 
ATOM      5  C3  UNL d   1      -2.594   1.997  -3.696  0.00  0.00    -0.047 A 
ATOM      6  C4  UNL d   1      -2.758   1.471  -2.432  0.00  0.00    -0.004 A 
ENDROOT
TORSDOF 0
ENDMDL
