MODEL 1
REMARK minimizedAffinity -3.05000854
REMARK minimizedRMSD -1
REMARK  0 active torsions:
REMARK  status: ('A' for Active; 'I' for Inactive)
ROOT
ATOM      1  C   UNL d   1      -0.213   3.948  -3.584  0.00  0.00     0.172 C 
ATOM      2  N   UNL d   1      -1.319   3.020  -3.622  0.00  0.00    -0.070 N 
ATOM      3  C1  UNL d   1      -1.432   1.882  -2.869  0.00  0.00    -0.004 A 
ATOM      4  C2  UNL d   1      -2.626   1.276  -3.196  0.00  0.00    -0.047 A 
ATOM      5  C3  UNL d   1      -3.252   2.078  -4.180  0.00  0.00    -0.047 A 
ATOM      6  C4  UNL d   1      -2.421   3.151  -4.425  0.00  0.00    -0.004 A 
ENDROOT
TORSDOF 0
ENDMDL
