MODEL 1
REMARK minimizedAffinity -3.28940415
REMARK minimizedRMSD -1
REMARK  0 active torsions:
REMARK  status: ('A' for Active; 'I' for Inactive)
ROOT
ATOM      1  C   UNL d   1       1.154   0.775  -0.331  0.00  0.00     0.172 C 
ATOM      2  N   UNL d   1       1.505   2.159  -0.118  0.00  0.00    -0.070 N 
ATOM      3  C1  UNL d   1       0.662   3.135   0.343  0.00  0.00    -0.004 A 
ATOM      4  C2  UNL d   1       1.374   4.313   0.406  0.00  0.00    -0.047 A 
ATOM      5  C3  UNL d   1       2.691   4.036  -0.032  0.00  0.00    -0.047 A 
ATOM      6  C4  UNL d   1       2.744   2.695  -0.351  0.00  0.00    -0.004 A 
ENDROOT
TORSDOF 0
ENDMDL
