MODEL 1
REMARK minimizedAffinity -2.46481586
REMARK minimizedRMSD -1
REMARK  0 active torsions:
REMARK  status: ('A' for Active; 'I' for Inactive)
ROOT
ATOM      1  C   UNL d   1       1.133  -2.356   0.854  0.00  0.00     0.172 C 
ATOM      2  N   UNL d   1       0.302  -1.186   0.693  0.00  0.00    -0.070 N 
ATOM      3  C1  UNL d   1      -0.724  -0.816   1.521  0.00  0.00    -0.004 A 
ATOM      4  C2  UNL d   1      -1.263   0.352   1.028  0.00  0.00    -0.047 A 
ATOM      5  C3  UNL d   1      -0.537   0.696  -0.137  0.00  0.00    -0.047 A 
ATOM      6  C4  UNL d   1       0.426  -0.274  -0.321  0.00  0.00    -0.004 A 
ENDROOT
TORSDOF 0
ENDMDL
