MODEL 1
REMARK minimizedAffinity -2.15325165
REMARK minimizedRMSD -1
REMARK  0 active torsions:
REMARK  status: ('A' for Active; 'I' for Inactive)
ROOT
ATOM      1  C   UNL d   1      -0.750   4.263  -4.926  0.00  0.00     0.172 C 
ATOM      2  N   UNL d   1      -1.286   3.311  -3.981  0.00  0.00    -0.070 N 
ATOM      3  C1  UNL d   1      -2.107   2.259  -4.287  0.00  0.00    -0.004 A 
ATOM      4  C2  UNL d   1      -2.395   1.594  -3.115  0.00  0.00    -0.047 A 
ATOM      5  C3  UNL d   1      -1.725   2.270  -2.068  0.00  0.00    -0.047 A 
ATOM      6  C4  UNL d   1      -1.046   3.329  -2.632  0.00  0.00    -0.004 A 
ENDROOT
TORSDOF 0
ENDMDL
