MODEL 1
REMARK minimizedAffinity -0.263917863
REMARK minimizedRMSD -1
REMARK  0 active torsions:
REMARK  status: ('A' for Active; 'I' for Inactive)
ROOT
ATOM      1  C   UNL d   1      -1.109   0.995  -0.723  0.00  0.00     0.172 C 
ATOM      2  N   UNL d   1      -0.324  -0.126  -0.263  0.00  0.00    -0.070 N 
ATOM      3  C1  UNL d   1      -0.811  -1.368   0.044  0.00  0.00    -0.004 A 
ATOM      4  C2  UNL d   1       0.252  -2.151   0.442  0.00  0.00    -0.047 A 
ATOM      5  C3  UNL d   1       1.417  -1.351   0.371  0.00  0.00    -0.047 A 
ATOM      6  C4  UNL d   1       1.032  -0.102  -0.068  0.00  0.00    -0.004 A 
ENDROOT
TORSDOF 0
ENDMDL
