MODEL 1
REMARK minimizedAffinity -0.359771281
REMARK minimizedRMSD -1
REMARK  0 active torsions:
REMARK  status: ('A' for Active; 'I' for Inactive)
ROOT
ATOM      1  C   UNL d   1      -0.647  -1.746   0.806  0.00  0.00     0.172 C 
ATOM      2  N   UNL d   1      -0.848  -0.401   0.318  0.00  0.00    -0.070 N 
ATOM      3  C1  UNL d   1      -0.058   0.242  -0.597  0.00  0.00    -0.004 A 
ATOM      4  C2  UNL d   1      -0.582   1.501  -0.796  0.00  0.00    -0.047 A 
ATOM      5  C3  UNL d   1      -1.726   1.619   0.029  0.00  0.00    -0.047 A 
ATOM      6  C4  UNL d   1      -1.868   0.427   0.707  0.00  0.00    -0.004 A 
ENDROOT
TORSDOF 0
ENDMDL
