MODEL 1
REMARK minimizedAffinity -3.08743119
REMARK minimizedRMSD -1
REMARK  0 active torsions:
REMARK  status: ('A' for Active; 'I' for Inactive)
ROOT
ATOM      1  C   UNL d   1      -0.274   0.664  -0.236  0.00  0.00     0.172 C 
ATOM      2  N   UNL d   1       0.335  -0.591   0.135  0.00  0.00    -0.070 N 
ATOM      3  C1  UNL d   1      -0.171  -1.488   1.038  0.00  0.00    -0.004 A 
ATOM      4  C2  UNL d   1       0.702  -2.552   1.111  0.00  0.00    -0.047 A 
ATOM      5  C3  UNL d   1       1.769  -2.286   0.221  0.00  0.00    -0.047 A 
ATOM      6  C4  UNL d   1       1.517  -1.065  -0.370  0.00  0.00    -0.004 A 
ENDROOT
TORSDOF 0
ENDMDL
