MODEL 1
REMARK minimizedAffinity -3.35689306
REMARK minimizedRMSD -1
REMARK  0 active torsions:
REMARK  status: ('A' for Active; 'I' for Inactive)
ROOT
ATOM      1  C   UNL d   1      -0.576   0.373  -1.045  0.00  0.00     0.172 C 
ATOM      2  N   UNL d   1       0.161  -0.590  -0.260  0.00  0.00    -0.070 N 
ATOM      3  C1  UNL d   1       1.348  -0.356   0.381  0.00  0.00    -0.004 A 
ATOM      4  C2  UNL d   1       1.721  -1.521   1.016  0.00  0.00    -0.047 A 
ATOM      5  C3  UNL d   1       0.724  -2.488   0.747  0.00  0.00    -0.047 A 
ATOM      6  C4  UNL d   1      -0.230  -1.885  -0.045  0.00  0.00    -0.004 A 
ENDROOT
TORSDOF 0
ENDMDL
