MODEL 1
REMARK minimizedAffinity -2.67671442
REMARK minimizedRMSD -1
REMARK  0 active torsions:
REMARK  status: ('A' for Active; 'I' for Inactive)
ROOT
ATOM      1  C   UNL d   1       1.849   0.423  -0.644  0.00  0.00     0.172 C 
ATOM      2  N   UNL d   1       1.443  -0.725   0.132  0.00  0.00    -0.070 N 
ATOM      3  C1  UNL d   1       2.279  -1.543   0.844  0.00  0.00    -0.004 A 
ATOM      4  C2  UNL d   1       1.509  -2.516   1.443  0.00  0.00    -0.047 A 
ATOM      5  C3  UNL d   1       0.163  -2.275   1.077  0.00  0.00    -0.047 A 
ATOM      6  C4  UNL d   1       0.151  -1.161   0.266  0.00  0.00    -0.004 A 
ENDROOT
TORSDOF 0
ENDMDL
