MODEL 1
REMARK minimizedAffinity -2.87654877
REMARK minimizedRMSD -1
REMARK  0 active torsions:
REMARK  status: ('A' for Active; 'I' for Inactive)
ROOT
ATOM      1  C   UNL d   1       1.559  -2.373   1.222  0.00  0.00     0.172 C 
ATOM      2  N   UNL d   1       0.593  -1.354   0.882  0.00  0.00    -0.070 N 
ATOM      3  C1  UNL d   1       0.620  -0.572  -0.241  0.00  0.00    -0.004 A 
ATOM      4  C2  UNL d   1      -0.470   0.270  -0.196  0.00  0.00    -0.047 A 
ATOM      5  C3  UNL d   1      -1.176  -0.016   0.997  0.00  0.00    -0.047 A 
ATOM      6  C4  UNL d   1      -0.496  -1.026   1.645  0.00  0.00    -0.004 A 
ENDROOT
TORSDOF 0
ENDMDL
