MODEL 1
REMARK minimizedAffinity -1.71320963
REMARK minimizedRMSD -1
REMARK  0 active torsions:
REMARK  status: ('A' for Active; 'I' for Inactive)
ROOT
ATOM      1  C   UNL d   1      -1.524   3.360  -4.312  0.00  0.00     0.172 C 
ATOM      2  N   UNL d   1      -2.173   2.300  -3.577  0.00  0.00    -0.070 N 
ATOM      3  C1  UNL d   1      -1.944   0.960  -3.739  0.00  0.00    -0.004 A 
ATOM      4  C2  UNL d   1      -2.757   0.283  -2.856  0.00  0.00    -0.047 A 
ATOM      5  C3  UNL d   1      -3.501   1.250  -2.139  0.00  0.00    -0.047 A 
ATOM      6  C4  UNL d   1      -3.120   2.490  -2.605  0.00  0.00    -0.004 A 
ENDROOT
TORSDOF 0
ENDMDL
