MODEL 1
REMARK minimizedAffinity -4.13297415
REMARK minimizedRMSD -1
REMARK  0 active torsions:
REMARK  status: ('A' for Active; 'I' for Inactive)
ROOT
ATOM      1  C   UNL d   1      -0.516   0.629   0.052  0.00  0.00     0.172 C 
ATOM      2  N   UNL d   1       0.322  -0.520   0.304  0.00  0.00    -0.070 N 
ATOM      3  C1  UNL d   1      -0.104  -1.729   0.784  0.00  0.00    -0.004 A 
ATOM      4  C2  UNL d   1       0.994  -2.555   0.884  0.00  0.00    -0.047 A 
ATOM      5  C3  UNL d   1       2.120  -1.816   0.449  0.00  0.00    -0.047 A 
ATOM      6  C4  UNL d   1       1.676  -0.560   0.096  0.00  0.00    -0.004 A 
ENDROOT
TORSDOF 0
ENDMDL
