MODEL 1
REMARK minimizedAffinity -2.73539329
REMARK minimizedRMSD -1
REMARK  0 active torsions:
REMARK  status: ('A' for Active; 'I' for Inactive)
ROOT
ATOM      1  C   UNL d   1       2.655   0.764  -0.238  0.00  0.00     0.172 C 
ATOM      2  N   UNL d   1       1.312   0.342   0.084  0.00  0.00    -0.070 N 
ATOM      3  C1  UNL d   1       0.895  -0.954   0.225  0.00  0.00    -0.004 A 
ATOM      4  C2  UNL d   1      -0.449  -0.934   0.533  0.00  0.00    -0.047 A 
ATOM      5  C3  UNL d   1      -0.852   0.422   0.577  0.00  0.00    -0.047 A 
ATOM      6  C4  UNL d   1       0.257   1.190   0.296  0.00  0.00    -0.004 A 
ENDROOT
TORSDOF 0
ENDMDL
