MODEL 1
REMARK minimizedAffinity -3.3802743
REMARK minimizedRMSD -1
REMARK  0 active torsions:
REMARK  status: ('A' for Active; 'I' for Inactive)
ROOT
ATOM      1  C   UNL d   1      -0.795   1.369  -0.185  0.00  0.00     0.172 C 
ATOM      2  N   UNL d   1       0.112   0.247  -0.109  0.00  0.00    -0.070 N 
ATOM      3  C1  UNL d   1       1.432   0.262  -0.473  0.00  0.00    -0.004 A 
ATOM      4  C2  UNL d   1       1.945  -0.997  -0.250  0.00  0.00    -0.047 A 
ATOM      5  C3  UNL d   1       0.897  -1.797   0.265  0.00  0.00    -0.047 A 
ATOM      6  C4  UNL d   1      -0.226  -1.001   0.342  0.00  0.00    -0.004 A 
ENDROOT
TORSDOF 0
ENDMDL
