MODEL 1
REMARK minimizedAffinity -1.88139689
REMARK minimizedRMSD -1
REMARK  0 active torsions:
REMARK  status: ('A' for Active; 'I' for Inactive)
ROOT
ATOM      1  C4' PXY d   1      -3.695   5.904  -6.000  0.00  0.00     0.077 C 
ATOM      2  C1' PXY d   1      -6.000   1.921  -2.501  0.00  0.00     0.077 C 
ATOM      3  C1  PXY d   1      -5.407   2.971  -3.420  0.00  0.00    -0.082 A 
ATOM      4  C2  PXY d   1      -4.316   2.692  -4.115  0.00  0.00     0.003 A 
ATOM      5  C3  PXY d   1      -3.748   3.641  -4.925  0.00  0.00     0.003 A 
ATOM      6  C4  PXY d   1      -4.333   4.871  -5.067  0.00  0.00    -0.082 A 
ATOM      7  C5  PXY d   1      -5.452   5.160  -4.370  0.00  0.00     0.003 A 
ATOM      8  C6  PXY d   1      -5.990   4.197  -3.520  0.00  0.00     0.003 A 
ENDROOT
TORSDOF 0
ENDMDL
