MODEL 1
REMARK minimizedAffinity 6.05130005
REMARK minimizedRMSD -1
REMARK  0 active torsions:
REMARK  status: ('A' for Active; 'I' for Inactive)
ROOT
ATOM      1  C4' PXY d   1       0.101  -0.721  -4.834  0.00  0.00     0.077 C 
ATOM      2  C1' PXY d   1      -2.223  -6.000  -5.215  0.00  0.00     0.077 C 
ATOM      3  C1  PXY d   1      -1.612  -4.617  -5.102  0.00  0.00    -0.082 A 
ATOM      4  C2  PXY d   1      -1.914  -3.693  -6.000  0.00  0.00     0.003 A 
ATOM      5  C3  PXY d   1      -1.345  -2.448  -5.931  0.00  0.00     0.003 A 
ATOM      6  C4  PXY d   1      -0.500  -2.128  -4.903  0.00  0.00    -0.082 A 
ATOM      7  C5  PXY d   1      -0.195  -3.061  -3.977  0.00  0.00     0.003 A 
ATOM      8  C6  PXY d   1      -0.751  -4.333  -4.088  0.00  0.00     0.003 A 
ENDROOT
TORSDOF 0
ENDMDL
