MODEL 1
REMARK minimizedAffinity 3.25045276
REMARK minimizedRMSD -1
REMARK  0 active torsions:
REMARK  status: ('A' for Active; 'I' for Inactive)
ROOT
ATOM      1  C4' PXY d   1      -2.342   2.418  -3.356  0.00  0.00     0.077 C 
ATOM      2  C1' PXY d   1       1.319  -1.091  -0.580  0.00  0.00     0.077 C 
ATOM      3  C1  PXY d   1       0.368  -0.169  -1.317  0.00  0.00    -0.082 A 
ATOM      4  C2  PXY d   1      -0.616   0.420  -0.657  0.00  0.00     0.003 A 
ATOM      5  C3  PXY d   1      -1.505   1.231  -1.314  0.00  0.00     0.003 A 
ATOM      6  C4  PXY d   1      -1.352   1.486  -2.651  0.00  0.00    -0.082 A 
ATOM      7  C5  PXY d   1      -0.344   0.898  -3.329  0.00  0.00     0.003 A 
ATOM      8  C6  PXY d   1       0.522   0.045  -2.652  0.00  0.00     0.003 A 
ENDROOT
TORSDOF 0
ENDMDL
