MODEL 1
REMARK minimizedAffinity 16.1821022
REMARK minimizedRMSD -1
REMARK  0 active torsions:
REMARK  status: ('A' for Active; 'I' for Inactive)
ROOT
ATOM      1  C4' PXY d   1       0.376   0.769   4.271  0.00  0.00     0.077 C 
ATOM      2  C1' PXY d   1      -0.502   2.880  -1.038  0.00  0.00     0.077 C 
ATOM      3  C1  PXY d   1      -0.260   2.321   0.350  0.00  0.00    -0.082 A 
ATOM      4  C2  PXY d   1      -1.289   2.087   1.149  0.00  0.00     0.003 A 
ATOM      5  C3  PXY d   1      -1.086   1.612   2.420  0.00  0.00     0.003 A 
ATOM      6  C4  PXY d   1       0.179   1.324   2.858  0.00  0.00    -0.082 A 
ATOM      7  C5  PXY d   1       1.232   1.550   2.045  0.00  0.00     0.003 A 
ATOM      8  C6  PXY d   1       1.008   2.071   0.774  0.00  0.00     0.003 A 
ENDROOT
TORSDOF 0
ENDMDL
