MODEL 1
REMARK minimizedAffinity 3.75798678
REMARK minimizedRMSD -1
REMARK  0 active torsions:
REMARK  status: ('A' for Active; 'I' for Inactive)
ROOT
ATOM      1  C4' PXY d   1       0.514  -4.341  -5.833  0.00  0.00     0.077 C 
ATOM      2  C1' PXY d   1      -5.199  -5.205  -5.995  0.00  0.00     0.077 C 
ATOM      3  C1  PXY d   1      -3.702  -4.967  -5.958  0.00  0.00    -0.082 A 
ATOM      4  C2  PXY d   1      -2.877  -5.999  -5.906  0.00  0.00     0.003 A 
ATOM      5  C3  PXY d   1      -1.522  -5.801  -5.840  0.00  0.00     0.003 A 
ATOM      6  C4  PXY d   1      -1.004  -4.535  -5.881  0.00  0.00    -0.082 A 
ATOM      7  C5  PXY d   1      -1.839  -3.476  -5.944  0.00  0.00     0.003 A 
ATOM      8  C6  PXY d   1      -3.213  -3.697  -5.969  0.00  0.00     0.003 A 
ENDROOT
TORSDOF 0
ENDMDL
