MODEL 1
REMARK minimizedAffinity 3.09483814
REMARK minimizedRMSD -1
REMARK  0 active torsions:
REMARK  status: ('A' for Active; 'I' for Inactive)
ROOT
ATOM      1  C4' PXY d   1       1.193  -3.463  -1.498  0.00  0.00     0.077 C 
ATOM      2  C1' PXY d   1       6.000  -2.251  -4.472  0.00  0.00     0.077 C 
ATOM      3  C1  PXY d   1       4.741  -2.558  -3.684  0.00  0.00    -0.082 A 
ATOM      4  C2  PXY d   1       4.256  -3.789  -3.681  0.00  0.00     0.003 A 
ATOM      5  C3  PXY d   1       3.101  -4.078  -3.000  0.00  0.00     0.003 A 
ATOM      6  C4  PXY d   1       2.466  -3.108  -2.271  0.00  0.00    -0.082 A 
ATOM      7  C5  PXY d   1       2.961  -1.853  -2.260  0.00  0.00     0.003 A 
ATOM      8  C6  PXY d   1       4.112  -1.571  -2.991  0.00  0.00     0.003 A 
ENDROOT
TORSDOF 0
ENDMDL
