MODEL 1
REMARK minimizedAffinity 10.6463041
REMARK minimizedRMSD -1
REMARK  0 active torsions:
REMARK  status: ('A' for Active; 'I' for Inactive)
ROOT
ATOM      1  C4' PXY d   1      -4.566   5.253  -3.484  0.00  0.00     0.077 C 
ATOM      2  C1' PXY d   1      -3.520   0.153  -5.997  0.00  0.00     0.077 C 
ATOM      3  C1  PXY d   1      -3.794   1.485  -5.326  0.00  0.00    -0.082 A 
ATOM      4  C2  PXY d   1      -4.410   2.442  -6.000  0.00  0.00     0.003 A 
ATOM      5  C3  PXY d   1      -4.637   3.664  -5.419  0.00  0.00     0.003 A 
ATOM      6  C4  PXY d   1      -4.277   3.890  -4.118  0.00  0.00    -0.082 A 
ATOM      7  C5  PXY d   1      -3.657   2.914  -3.420  0.00  0.00     0.003 A 
ATOM      8  C6  PXY d   1      -3.399   1.696  -4.041  0.00  0.00     0.003 A 
ENDROOT
TORSDOF 0
ENDMDL
