MODEL 1
REMARK minimizedAffinity 6.59141016
REMARK minimizedRMSD -1
REMARK  0 active torsions:
REMARK  status: ('A' for Active; 'I' for Inactive)
ROOT
ATOM      1  C4' PXY d   1       4.875  -4.496  -6.000  0.00  0.00     0.077 C 
ATOM      2  C1' PXY d   1       3.732  -1.070  -1.486  0.00  0.00     0.077 C 
ATOM      3  C1  PXY d   1       4.043  -1.963  -2.671  0.00  0.00    -0.082 A 
ATOM      4  C2  PXY d   1       3.052  -2.483  -3.376  0.00  0.00     0.003 A 
ATOM      5  C3  PXY d   1       3.315  -3.319  -4.431  0.00  0.00     0.003 A 
ATOM      6  C4  PXY d   1       4.607  -3.581  -4.801  0.00  0.00    -0.082 A 
ATOM      7  C5  PXY d   1       5.624  -3.045  -4.093  0.00  0.00     0.003 A 
ATOM      8  C6  PXY d   1       5.336  -2.233  -3.001  0.00  0.00     0.003 A 
ENDROOT
TORSDOF 0
ENDMDL
