MODEL 1
REMARK minimizedAffinity 6.51359272
REMARK minimizedRMSD -1
REMARK  0 active torsions:
REMARK  status: ('A' for Active; 'I' for Inactive)
ROOT
ATOM      1  C4' PXY d   1      -0.493   2.927  -1.282  0.00  0.00     0.077 C 
ATOM      2  C1' PXY d   1      -2.378   0.164  -5.997  0.00  0.00     0.077 C 
ATOM      3  C1  PXY d   1      -1.873   0.881  -4.760  0.00  0.00    -0.082 A 
ATOM      4  C2  PXY d   1      -2.732   1.500  -3.966  0.00  0.00     0.003 A 
ATOM      5  C3  PXY d   1      -2.289   2.180  -2.861  0.00  0.00     0.003 A 
ATOM      6  C4  PXY d   1      -0.959   2.182  -2.536  0.00  0.00    -0.082 A 
ATOM      7  C5  PXY d   1      -0.078   1.545  -3.335  0.00  0.00     0.003 A 
ATOM      8  C6  PXY d   1      -0.543   0.895  -4.475  0.00  0.00     0.003 A 
ENDROOT
TORSDOF 0
ENDMDL
