MODEL 1
REMARK minimizedAffinity 0.801968932
REMARK minimizedRMSD -1
REMARK  0 active torsions:
REMARK  status: ('A' for Active; 'I' for Inactive)
ROOT
ATOM      1  C4' PXY d   1      -1.515   6.000  -4.001  0.00  0.00     0.077 C 
ATOM      2  C1' PXY d   1       1.663   2.887  -0.310  0.00  0.00     0.077 C 
ATOM      3  C1  PXY d   1       0.820   3.694  -1.277  0.00  0.00    -0.082 A 
ATOM      4  C2  PXY d   1       1.404   4.568  -2.082  0.00  0.00     0.003 A 
ATOM      5  C3  PXY d   1       0.653   5.329  -2.940  0.00  0.00     0.003 A 
ATOM      6  C4  PXY d   1      -0.703   5.157  -3.015  0.00  0.00    -0.082 A 
ATOM      7  C5  PXY d   1      -1.305   4.260  -2.205  0.00  0.00     0.003 A 
ATOM      8  C6  PXY d   1      -0.530   3.526  -1.311  0.00  0.00     0.003 A 
ENDROOT
TORSDOF 0
ENDMDL
