MODEL 1
REMARK minimizedAffinity 12.0802126
REMARK minimizedRMSD -1
REMARK  0 active torsions:
REMARK  status: ('A' for Active; 'I' for Inactive)
ROOT
ATOM      1  C4' PXY d   1       1.673   3.449  -0.857  0.00  0.00     0.077 C 
ATOM      2  C1' PXY d   1      -2.946   5.977  -3.241  0.00  0.00     0.077 C 
ATOM      3  C1  PXY d   1      -1.743   5.306  -2.610  0.00  0.00    -0.082 A 
ATOM      4  C2  PXY d   1      -0.633   6.000  -2.415  0.00  0.00     0.003 A 
ATOM      5  C3  PXY d   1       0.475   5.400  -1.876  0.00  0.00     0.003 A 
ATOM      6  C4  PXY d   1       0.430   4.089  -1.482  0.00  0.00    -0.082 A 
ATOM      7  C5  PXY d   1      -0.701   3.377  -1.668  0.00  0.00     0.003 A 
ATOM      8  C6  PXY d   1      -1.802   3.993  -2.255  0.00  0.00     0.003 A 
ENDROOT
TORSDOF 0
ENDMDL
