MODEL 1
REMARK minimizedAffinity -6.55434227
REMARK minimizedRMSD -1
REMARK  0 active torsions:
REMARK  status: ('A' for Active; 'I' for Inactive)
ROOT
ATOM      1  C4' PXY d   1      -0.393   3.036   2.250  0.00  0.00     0.077 C 
ATOM      2  C1' PXY d   1       1.770  -1.300  -0.902  0.00  0.00     0.077 C 
ATOM      3  C1  PXY d   1       1.203  -0.170  -0.065  0.00  0.00    -0.082 A 
ATOM      4  C2  PXY d   1       0.525   0.802  -0.652  0.00  0.00     0.003 A 
ATOM      5  C3  PXY d   1       0.032   1.848   0.086  0.00  0.00     0.003 A 
ATOM      6  C4  PXY d   1       0.190   1.871   1.446  0.00  0.00    -0.082 A 
ATOM      7  C5  PXY d   1       0.871   0.877   2.054  0.00  0.00     0.003 A 
ATOM      8  C6  PXY d   1       1.398  -0.154   1.282  0.00  0.00     0.003 A 
ENDROOT
TORSDOF 0
ENDMDL
