MODEL 1
REMARK minimizedAffinity 2.84300518
REMARK minimizedRMSD -1
REMARK  1 active torsions:
REMARK  status: ('A' for Active; 'I' for Inactive)
REMARK    1  A    between atoms: C1_2  and  C2_3 
ROOT
ATOM      1  C2  UNL d   1       3.236  -5.948  -3.431  0.00  0.00    -0.077 A 
ATOM      2  C3  UNL d   1       4.553  -6.000  -3.909  0.00  0.00     0.002 A 
ATOM      3  C4  UNL d   1       5.628  -5.999  -3.019  0.00  0.00     0.002 A 
ATOM      4  C5  UNL d   1       5.397  -5.950  -1.645  0.00  0.00    -0.004 A 
ATOM      5  C6  UNL d   1       4.091  -5.896  -1.160  0.00  0.00     0.002 A 
ATOM      6  C7  UNL d   1       3.016  -5.896  -2.049  0.00  0.00     0.002 A 
ENDROOT
BRANCH   1   7
ATOM      7  C1  UNL d   1       2.074  -5.998  -4.388  0.00  0.00     0.055 C 
ATOM      8  C   UNL d   1       2.547  -5.982  -5.835  0.00  0.00     0.019 C 
ENDBRANCH   1   7
TORSDOF 1
ENDMDL
