MODEL 1
REMARK minimizedAffinity 3.95262861
REMARK minimizedRMSD -1
REMARK  1 active torsions:
REMARK  status: ('A' for Active; 'I' for Inactive)
REMARK    1  A    between atoms: C1_2  and  C2_3 
ROOT
ATOM      1  C2  UNL d   1       3.900  -3.402  -1.001  0.00  0.00    -0.077 A 
ATOM      2  C3  UNL d   1       3.464  -4.182   0.080  0.00  0.00     0.002 A 
ATOM      3  C4  UNL d   1       4.113  -5.377   0.395  0.00  0.00     0.002 A 
ATOM      4  C5  UNL d   1       5.202  -5.802  -0.363  0.00  0.00    -0.004 A 
ATOM      5  C6  UNL d   1       5.642  -5.034  -1.441  0.00  0.00     0.002 A 
ATOM      6  C7  UNL d   1       4.994  -3.839  -1.758  0.00  0.00     0.002 A 
ENDROOT
BRANCH   1   7
ATOM      7  C1  UNL d   1       3.233  -2.087  -1.312  0.00  0.00     0.055 C 
ATOM      8  C   UNL d   1       2.745  -1.401  -0.044  0.00  0.00     0.019 C 
ENDBRANCH   1   7
TORSDOF 1
ENDMDL
