MODEL 1
REMARK minimizedAffinity 6.99641752
REMARK minimizedRMSD -1
REMARK  1 active torsions:
REMARK  status: ('A' for Active; 'I' for Inactive)
REMARK    1  A    between atoms: C1_2  and  C2_3 
ROOT
ATOM      1  C2  UNL d   1       2.410   0.301   1.488  0.00  0.00    -0.077 A 
ATOM      2  C3  UNL d   1       1.817   1.556   1.682  0.00  0.00     0.002 A 
ATOM      3  C4  UNL d   1       2.047   2.594   0.776  0.00  0.00     0.002 A 
ATOM      4  C5  UNL d   1       2.867   2.385  -0.331  0.00  0.00    -0.004 A 
ATOM      5  C6  UNL d   1       3.464   1.140  -0.531  0.00  0.00     0.002 A 
ATOM      6  C7  UNL d   1       3.235   0.103   0.374  0.00  0.00     0.002 A 
ENDROOT
BRANCH   1   7
ATOM      7  C1  UNL d   1       2.123  -0.833   2.438  0.00  0.00     0.055 C 
ATOM      8  C   UNL d   1       1.195  -1.862   1.807  0.00  0.00     0.019 C 
ENDBRANCH   1   7
TORSDOF 1
ENDMDL
