MODEL 1
REMARK minimizedAffinity 4.58688116
REMARK minimizedRMSD -1
REMARK  1 active torsions:
REMARK  status: ('A' for Active; 'I' for Inactive)
REMARK    1  A    between atoms: C1_2  and  C2_3 
ROOT
ATOM      1  C2  UNL d   1      -4.863   1.768  -2.329  0.00  0.00    -0.077 A 
ATOM      2  C3  UNL d   1      -3.560   1.918  -1.835  0.00  0.00     0.002 A 
ATOM      3  C4  UNL d   1      -3.338   2.088  -0.467  0.00  0.00     0.002 A 
ATOM      4  C5  UNL d   1      -4.414   2.104   0.418  0.00  0.00    -0.004 A 
ATOM      5  C6  UNL d   1      -5.714   1.958  -0.064  0.00  0.00     0.002 A 
ATOM      6  C7  UNL d   1      -5.938   1.789  -1.431  0.00  0.00     0.002 A 
ENDROOT
BRANCH   1   7
ATOM      7  C1  UNL d   1      -5.100   1.535  -3.799  0.00  0.00     0.055 C 
ATOM      8  C   UNL d   1      -5.834   2.708  -4.433  0.00  0.00     0.019 C 
ENDBRANCH   1   7
TORSDOF 1
ENDMDL
