MODEL 1
REMARK minimizedAffinity 3.93595624
REMARK minimizedRMSD -1
REMARK  0 active torsions:
REMARK  status: ('A' for Active; 'I' for Inactive)
ROOT
ATOM      1  C   UNL d   1      -0.559   2.369   1.232  0.00  0.00    -0.002 A 
ATOM      2  C1  UNL d   1       0.673   2.075   1.799  0.00  0.00     0.010 A 
ATOM      3  C2  UNL d   1       1.519   1.133   1.210  0.00  0.00     0.041 A 
ATOM      4  C3  UNL d   1       1.102   0.486   0.030  0.00  0.00    -0.075 A 
ATOM      5  S   UNL d   1       1.972  -0.702  -0.867  0.00  0.00     0.015 SA
ATOM      6  C4  UNL d   1       0.729  -0.846  -2.024  0.00  0.00     0.022 A 
ATOM      7  C5  UNL d   1      -0.331  -0.015  -1.749  0.00  0.00     0.026 A 
ATOM      8  C6  UNL d   1      -0.134   0.767  -0.560  0.00  0.00    -0.082 A 
ATOM      9  C7  UNL d   1      -0.969   1.726   0.061  0.00  0.00     0.045 A 
ENDROOT
TORSDOF 0
ENDMDL
