MODEL 1
REMARK minimizedAffinity 5.604877
REMARK minimizedRMSD -1
REMARK  0 active torsions:
REMARK  status: ('A' for Active; 'I' for Inactive)
ROOT
ATOM      1  C   UNL d   1      -0.643   2.537   1.868  0.00  0.00    -0.002 A 
ATOM      2  C1  UNL d   1       0.123   1.397   2.062  0.00  0.00     0.010 A 
ATOM      3  C2  UNL d   1       0.532   0.622   0.974  0.00  0.00     0.041 A 
ATOM      4  C3  UNL d   1       0.154   1.018  -0.324  0.00  0.00    -0.075 A 
ATOM      5  S   UNL d   1       0.540   0.225  -1.806  0.00  0.00     0.015 SA
ATOM      6  C4  UNL d   1      -0.303   1.382  -2.731  0.00  0.00     0.022 A 
ATOM      7  C5  UNL d   1      -0.871   2.356  -1.944  0.00  0.00     0.026 A 
ATOM      8  C6  UNL d   1      -0.617   2.163  -0.545  0.00  0.00    -0.082 A 
ATOM      9  C7  UNL d   1      -1.016   2.926   0.579  0.00  0.00     0.045 A 
ENDROOT
TORSDOF 0
ENDMDL
