MODEL 1
REMARK minimizedAffinity 11.3257513
REMARK minimizedRMSD -1
REMARK  0 active torsions:
REMARK  status: ('A' for Active; 'I' for Inactive)
ROOT
ATOM      1  C   UNL d   1      -1.978   4.504   1.070  0.00  0.00    -0.002 A 
ATOM      2  C1  UNL d   1      -1.145   4.207   0.000  0.00  0.00     0.010 A 
ATOM      3  C2  UNL d   1      -0.325   3.077   0.031  0.00  0.00     0.041 A 
ATOM      4  C3  UNL d   1      -0.358   2.242   1.165  0.00  0.00    -0.075 A 
ATOM      5  S   UNL d   1       0.558   0.805   1.424  0.00  0.00     0.015 SA
ATOM      6  C4  UNL d   1      -0.135   0.550   2.960  0.00  0.00     0.022 A 
ATOM      7  C5  UNL d   1      -1.045   1.529   3.283  0.00  0.00     0.026 A 
ATOM      8  C6  UNL d   1      -1.189   2.520   2.254  0.00  0.00    -0.082 A 
ATOM      9  C7  UNL d   1      -2.008   3.673   2.193  0.00  0.00     0.045 A 
ENDROOT
TORSDOF 0
ENDMDL
