MODEL 1
REMARK minimizedAffinity 1.98149037
REMARK minimizedRMSD -1
REMARK  0 active torsions:
REMARK  status: ('A' for Active; 'I' for Inactive)
ROOT
ATOM      1  C   UNL d   1      -2.349   2.689   1.644  0.00  0.00    -0.002 A 
ATOM      2  C1  UNL d   1      -2.130   3.269   0.402  0.00  0.00     0.010 A 
ATOM      3  C2  UNL d   1      -0.886   3.820   0.085  0.00  0.00     0.041 A 
ATOM      4  C3  UNL d   1       0.143   3.776   1.045  0.00  0.00    -0.075 A 
ATOM      5  S   UNL d   1       1.747   4.387   0.878  0.00  0.00     0.015 SA
ATOM      6  C4  UNL d   1       2.179   3.893   2.450  0.00  0.00     0.022 A 
ATOM      7  C5  UNL d   1       1.138   3.275   3.102  0.00  0.00     0.026 A 
ATOM      8  C6  UNL d   1      -0.053   3.198   2.302  0.00  0.00    -0.082 A 
ATOM      9  C7  UNL d   1      -1.324   2.648   2.594  0.00  0.00     0.045 A 
ENDROOT
TORSDOF 0
ENDMDL
