MODEL 1
REMARK minimizedAffinity 8.54855728
REMARK minimizedRMSD -1
REMARK  0 active torsions:
REMARK  status: ('A' for Active; 'I' for Inactive)
ROOT
ATOM      1  C   UNL d   1      -1.196   3.762   1.705  0.00  0.00    -0.002 A 
ATOM      2  C1  UNL d   1      -0.612   2.581   2.138  0.00  0.00     0.010 A 
ATOM      3  C2  UNL d   1      -0.145   1.640   1.218  0.00  0.00     0.041 A 
ATOM      4  C3  UNL d   1      -0.276   1.910  -0.158  0.00  0.00    -0.075 A 
ATOM      5  S   UNL d   1       0.224   0.904  -1.467  0.00  0.00     0.015 SA
ATOM      6  C4  UNL d   1      -0.327   2.020  -2.632  0.00  0.00     0.022 A 
ATOM      7  C5  UNL d   1      -0.881   3.137  -2.054  0.00  0.00     0.026 A 
ATOM      8  C6  UNL d   1      -0.861   3.093  -0.619  0.00  0.00    -0.082 A 
ATOM      9  C7  UNL d   1      -1.325   4.026   0.338  0.00  0.00     0.045 A 
ENDROOT
TORSDOF 0
ENDMDL
