MODEL 1
REMARK minimizedAffinity 7.93037415
REMARK minimizedRMSD -1
REMARK  0 active torsions:
REMARK  status: ('A' for Active; 'I' for Inactive)
ROOT
ATOM      1  C   UNL d   1       4.174  -5.998   0.247  0.00  0.00    -0.002 A 
ATOM      2  C1  UNL d   1       3.168  -5.043   0.286  0.00  0.00     0.010 A 
ATOM      3  C2  UNL d   1       3.072  -4.071  -0.711  0.00  0.00     0.041 A 
ATOM      4  C3  UNL d   1       4.012  -4.075  -1.760  0.00  0.00    -0.075 A 
ATOM      5  S   UNL d   1       4.090  -2.982  -3.091  0.00  0.00     0.015 SA
ATOM      6  C4  UNL d   1       5.460  -3.757  -3.744  0.00  0.00     0.022 A 
ATOM      7  C5  UNL d   1       5.862  -4.825  -2.978  0.00  0.00     0.026 A 
ATOM      8  C6  UNL d   1       5.034  -5.027  -1.822  0.00  0.00    -0.082 A 
ATOM      9  C7  UNL d   1       5.105  -5.999  -0.795  0.00  0.00     0.045 A 
ENDROOT
TORSDOF 0
ENDMDL
