MODEL 1
REMARK minimizedAffinity 21.1342945
REMARK minimizedRMSD -1
REMARK  0 active torsions:
REMARK  status: ('A' for Active; 'I' for Inactive)
ROOT
ATOM      1  C   UNL d   1      -0.243  -1.025   3.602  0.00  0.00     0.124 A 
ATOM      2  C1  UNL d   1      -1.125  -0.085   4.116  0.00  0.00     0.062 A 
ATOM      3  C2  UNL d   1      -2.161   0.407   3.329  0.00  0.00     0.162 A 
ATOM      4  C3  UNL d   1      -2.323  -0.042   2.018  0.00  0.00    -0.034 A 
ATOM      5  C4  UNL d   1      -1.432  -0.987   1.507  0.00  0.00     0.162 A 
ATOM      6  C5  UNL d   1      -0.397  -1.476   2.299  0.00  0.00     0.062 A 
ATOM      7  F   UNL d   1       0.454  -2.384   1.800  0.00  0.00    -0.097 F 
ATOM      8  F1  UNL d   1      -1.558  -1.440   0.251  0.00  0.00    -0.096 F 
ATOM      9  I   UNL d   1      -3.872   0.691   0.837  0.00  0.00    -0.060 I 
ATOM     10  F2  UNL d   1      -2.999   1.315   3.852  0.00  0.00    -0.096 F 
ATOM     11  F3  UNL d   1      -0.977   0.352   5.375  0.00  0.00    -0.097 F 
ATOM     12  F4  UNL d   1       0.754  -1.496   4.362  0.00  0.00    -0.092 F 
ENDROOT
TORSDOF 0
ENDMDL
