MODEL 1
REMARK minimizedAffinity 19.658186
REMARK minimizedRMSD -1
REMARK  0 active torsions:
REMARK  status: ('A' for Active; 'I' for Inactive)
ROOT
ATOM      1  C   UNL d   1       4.895   3.947   0.928  0.00  0.00     0.124 A 
ATOM      2  C1  UNL d   1       4.174   2.870   0.432  0.00  0.00     0.062 A 
ATOM      3  C2  UNL d   1       3.859   2.802  -0.922  0.00  0.00     0.162 A 
ATOM      4  C3  UNL d   1       4.267   3.815  -1.791  0.00  0.00    -0.034 A 
ATOM      5  C4  UNL d   1       4.991   4.896  -1.284  0.00  0.00     0.162 A 
ATOM      6  C5  UNL d   1       5.303   4.958   0.070  0.00  0.00     0.062 A 
ATOM      7  F   UNL d   1       6.000   6.000   0.548  0.00  0.00    -0.097 F 
ATOM      8  F1  UNL d   1       5.399   5.886  -2.091  0.00  0.00    -0.096 F 
ATOM      9  I   UNL d   1       3.798   3.718  -3.816  0.00  0.00    -0.060 I 
ATOM     10  F2  UNL d   1       3.161   1.750  -1.374  0.00  0.00    -0.096 F 
ATOM     11  F3  UNL d   1       3.778   1.892   1.259  0.00  0.00    -0.097 F 
ATOM     12  F4  UNL d   1       5.195   4.010   2.232  0.00  0.00    -0.092 F 
ENDROOT
TORSDOF 0
ENDMDL
