MODEL 1
REMARK minimizedAffinity 23.9665222
REMARK minimizedRMSD -1
REMARK  0 active torsions:
REMARK  status: ('A' for Active; 'I' for Inactive)
ROOT
ATOM      1  C   UNL d   1      -3.187   0.523   2.719  0.00  0.00     0.124 A 
ATOM      2  C1  UNL d   1      -2.390   0.808   3.820  0.00  0.00     0.062 A 
ATOM      3  C2  UNL d   1      -1.250   0.050   4.073  0.00  0.00     0.162 A 
ATOM      4  C3  UNL d   1      -0.900  -0.999   3.223  0.00  0.00    -0.034 A 
ATOM      5  C4  UNL d   1      -1.707  -1.280   2.119  0.00  0.00     0.162 A 
ATOM      6  C5  UNL d   1      -2.845  -0.520   1.871  0.00  0.00     0.062 A 
ATOM      7  F   UNL d   1      -3.614  -0.796   0.807  0.00  0.00    -0.097 F 
ATOM      8  F1  UNL d   1      -1.399  -2.282   1.282  0.00  0.00    -0.096 F 
ATOM      9  I   UNL d   1       0.804  -2.134   3.598  0.00  0.00    -0.060 I 
ATOM     10  F2  UNL d   1      -0.498   0.347   5.143  0.00  0.00    -0.096 F 
ATOM     11  F3  UNL d   1      -2.719   1.814   4.642  0.00  0.00    -0.097 F 
ATOM     12  F4  UNL d   1      -4.284   1.253   2.479  0.00  0.00    -0.092 F 
ENDROOT
TORSDOF 0
ENDMDL
