MODEL 1
REMARK minimizedAffinity 37.005703
REMARK minimizedRMSD -1
REMARK  0 active torsions:
REMARK  status: ('A' for Active; 'I' for Inactive)
ROOT
ATOM      1  C   UNL d   1      -2.639  -0.778   1.452  0.00  0.00     0.124 A 
ATOM      2  C1  UNL d   1      -3.885  -0.168   1.399  0.00  0.00     0.062 A 
ATOM      3  C2  UNL d   1      -4.214   0.831   2.310  0.00  0.00     0.162 A 
ATOM      4  C3  UNL d   1      -3.296   1.228   3.282  0.00  0.00    -0.034 A 
ATOM      5  C4  UNL d   1      -2.046   0.610   3.330  0.00  0.00     0.162 A 
ATOM      6  C5  UNL d   1      -1.721  -0.388   2.417  0.00  0.00     0.062 A 
ATOM      7  F   UNL d   1      -0.517  -0.976   2.470  0.00  0.00    -0.097 F 
ATOM      8  F1  UNL d   1      -1.139   0.968   4.251  0.00  0.00    -0.096 F 
ATOM      9  I   UNL d   1      -3.786   2.722   4.645  0.00  0.00    -0.060 I 
ATOM     10  F2  UNL d   1      -5.426   1.403   2.235  0.00  0.00    -0.096 F 
ATOM     11  F3  UNL d   1      -4.774  -0.544   0.468  0.00  0.00    -0.097 F 
ATOM     12  F4  UNL d   1      -2.324  -1.740   0.575  0.00  0.00    -0.092 F 
ENDROOT
TORSDOF 0
ENDMDL
