MODEL 1
REMARK minimizedAffinity 24.1928711
REMARK minimizedRMSD -1
REMARK  0 active torsions:
REMARK  status: ('A' for Active; 'I' for Inactive)
ROOT
ATOM      1  C   UNL d   1      -2.948  -0.601   1.915  0.00  0.00     0.124 A 
ATOM      2  C1  UNL d   1      -2.020  -0.293   2.901  0.00  0.00     0.062 A 
ATOM      3  C2  UNL d   1      -2.341   0.617   3.904  0.00  0.00     0.162 A 
ATOM      4  C3  UNL d   1      -3.595   1.226   3.927  0.00  0.00    -0.034 A 
ATOM      5  C4  UNL d   1      -4.523   0.912   2.932  0.00  0.00     0.162 A 
ATOM      6  C5  UNL d   1      -4.198   0.001   1.932  0.00  0.00     0.062 A 
ATOM      7  F   UNL d   1      -5.096  -0.295   0.981  0.00  0.00    -0.097 F 
ATOM      8  F1  UNL d   1      -5.739   1.479   2.925  0.00  0.00    -0.096 F 
ATOM      9  I   UNL d   1      -4.078   2.587   5.426  0.00  0.00    -0.060 I 
ATOM     10  F2  UNL d   1      -1.425   0.895   4.843  0.00  0.00    -0.096 F 
ATOM     11  F3  UNL d   1      -0.812  -0.873   2.886  0.00  0.00    -0.097 F 
ATOM     12  F4  UNL d   1      -2.637  -1.476   0.951  0.00  0.00    -0.092 F 
ENDROOT
TORSDOF 0
ENDMDL
