MODEL 1
REMARK minimizedAffinity 18.336792
REMARK minimizedRMSD -1
REMARK  0 active torsions:
REMARK  status: ('A' for Active; 'I' for Inactive)
ROOT
ATOM      1  C   UNL d   1      -2.545  -0.326   1.823  0.00  0.00     0.124 A 
ATOM      2  C1  UNL d   1      -3.814   0.236   1.849  0.00  0.00     0.062 A 
ATOM      3  C2  UNL d   1      -4.174   1.104   2.877  0.00  0.00     0.162 A 
ATOM      4  C3  UNL d   1      -3.263   1.415   3.887  0.00  0.00    -0.034 A 
ATOM      5  C4  UNL d   1      -1.989   0.844   3.854  0.00  0.00     0.162 A 
ATOM      6  C5  UNL d   1      -1.634  -0.022   2.825  0.00  0.00     0.062 A 
ATOM      7  F   UNL d   1      -0.408  -0.564   2.801  0.00  0.00    -0.097 F 
ATOM      8  F1  UNL d   1      -1.089   1.122   4.809  0.00  0.00    -0.096 F 
ATOM      9  I   UNL d   1      -3.797   2.711   5.425  0.00  0.00    -0.060 I 
ATOM     10  F2  UNL d   1      -5.406   1.632   2.877  0.00  0.00    -0.096 F 
ATOM     11  F3  UNL d   1      -4.696  -0.057   0.883  0.00  0.00    -0.097 F 
ATOM     12  F4  UNL d   1      -2.202  -1.161   0.834  0.00  0.00    -0.092 F 
ENDROOT
TORSDOF 0
ENDMDL
