MODEL 1
REMARK minimizedAffinity 14.7939138
REMARK minimizedRMSD -1
REMARK  0 active torsions:
REMARK  status: ('A' for Active; 'I' for Inactive)
ROOT
ATOM      1  C   UNL d   1       0.498  -2.463   2.497  0.00  0.00     0.124 A 
ATOM      2  C1  UNL d   1       1.050  -1.613   3.446  0.00  0.00     0.062 A 
ATOM      3  C2  UNL d   1       0.320  -0.528   3.922  0.00  0.00     0.162 A 
ATOM      4  C3  UNL d   1      -0.970  -0.286   3.451  0.00  0.00    -0.034 A 
ATOM      5  C4  UNL d   1      -1.518  -1.144   2.496  0.00  0.00     0.162 A 
ATOM      6  C5  UNL d   1      -0.785  -2.228   2.023  0.00  0.00     0.062 A 
ATOM      7  F   UNL d   1      -1.320  -3.048   1.107  0.00  0.00    -0.097 F 
ATOM      8  F1  UNL d   1      -2.756  -0.941   2.022  0.00  0.00    -0.096 F 
ATOM      9  I   UNL d   1      -2.064   1.337   4.160  0.00  0.00    -0.060 I 
ATOM     10  F2  UNL d   1       0.879   0.277   4.838  0.00  0.00    -0.096 F 
ATOM     11  F3  UNL d   1       2.289  -1.838   3.905  0.00  0.00    -0.097 F 
ATOM     12  F4  UNL d   1       1.202  -3.506   2.040  0.00  0.00    -0.092 F 
ENDROOT
TORSDOF 0
ENDMDL
