MODEL 1
REMARK minimizedAffinity 15.682229
REMARK minimizedRMSD -1
REMARK  0 active torsions:
REMARK  status: ('A' for Active; 'I' for Inactive)
ROOT
ATOM      1  C   UNL d   1       3.352  -1.392  -0.004  0.00  0.00     0.124 A 
ATOM      2  C1  UNL d   1       4.465  -1.687  -0.780  0.00  0.00     0.062 A 
ATOM      3  C2  UNL d   1       4.905  -3.002  -0.901  0.00  0.00     0.162 A 
ATOM      4  C3  UNL d   1       4.231  -4.032  -0.245  0.00  0.00    -0.034 A 
ATOM      5  C4  UNL d   1       3.113  -3.728   0.533  0.00  0.00     0.162 A 
ATOM      6  C5  UNL d   1       2.678  -2.412   0.651  0.00  0.00     0.062 A 
ATOM      7  F   UNL d   1       1.602  -2.128   1.400  0.00  0.00    -0.097 F 
ATOM      8  F1  UNL d   1       2.442  -4.694   1.177  0.00  0.00    -0.096 F 
ATOM      9  I   UNL d   1       4.886  -6.000  -0.424  0.00  0.00    -0.060 I 
ATOM     10  F2  UNL d   1       5.983  -3.258  -1.656  0.00  0.00    -0.096 F 
ATOM     11  F3  UNL d   1       5.119  -0.703  -1.413  0.00  0.00    -0.097 F 
ATOM     12  F4  UNL d   1       2.932  -0.125   0.111  0.00  0.00    -0.092 F 
ENDROOT
TORSDOF 0
ENDMDL
