MODEL 1
REMARK minimizedAffinity 20.06357
REMARK minimizedRMSD -1
REMARK  0 active torsions:
REMARK  status: ('A' for Active; 'I' for Inactive)
ROOT
ATOM      1  C   UNL d   1      -0.459  -0.023   4.108  0.00  0.00     0.124 A 
ATOM      2  C1  UNL d   1       0.066  -1.218   3.637  0.00  0.00     0.062 A 
ATOM      3  C2  UNL d   1      -0.445  -1.799   2.479  0.00  0.00     0.162 A 
ATOM      4  C3  UNL d   1      -1.486  -1.185   1.784  0.00  0.00    -0.034 A 
ATOM      5  C4  UNL d   1      -2.010   0.017   2.265  0.00  0.00     0.162 A 
ATOM      6  C5  UNL d   1      -1.496   0.593   3.422  0.00  0.00     0.062 A 
ATOM      7  F   UNL d   1      -2.004   1.748   3.876  0.00  0.00    -0.097 F 
ATOM      8  F1  UNL d   1      -3.011   0.635   1.621  0.00  0.00    -0.096 F 
ATOM      9  I   UNL d   1      -2.252  -2.050   0.053  0.00  0.00    -0.060 I 
ATOM     10  F2  UNL d   1       0.082  -2.955   2.047  0.00  0.00    -0.096 F 
ATOM     11  F3  UNL d   1       1.067  -1.816   4.298  0.00  0.00    -0.097 F 
ATOM     12  F4  UNL d   1       0.033   0.533   5.222  0.00  0.00    -0.092 F 
ENDROOT
TORSDOF 0
ENDMDL
