MODEL 1
REMARK minimizedAffinity 11.3448496
REMARK minimizedRMSD -1
REMARK  0 active torsions:
REMARK  status: ('A' for Active; 'I' for Inactive)
ROOT
ATOM      1  C   UNL d   1      -2.723  -0.384   2.133  0.00  0.00     0.124 A 
ATOM      2  C1  UNL d   1      -1.909  -0.042   3.203  0.00  0.00     0.062 A 
ATOM      3  C2  UNL d   1      -2.406   0.745   4.238  0.00  0.00     0.162 A 
ATOM      4  C3  UNL d   1      -3.726   1.194   4.208  0.00  0.00    -0.034 A 
ATOM      5  C4  UNL d   1      -4.539   0.847   3.128  0.00  0.00     0.162 A 
ATOM      6  C5  UNL d   1      -4.038   0.060   2.096  0.00  0.00     0.062 A 
ATOM      7  F   UNL d   1      -4.826  -0.269   1.063  0.00  0.00    -0.097 F 
ATOM      8  F1  UNL d   1      -5.813   1.262   3.068  0.00  0.00    -0.096 F 
ATOM      9  I   UNL d   1      -4.473   2.371   5.754  0.00  0.00    -0.060 I 
ATOM     10  F2  UNL d   1      -1.596   1.060   5.259  0.00  0.00    -0.096 F 
ATOM     11  F3  UNL d   1      -0.638  -0.469   3.240  0.00  0.00    -0.097 F 
ATOM     12  F4  UNL d   1      -2.242  -1.140   1.138  0.00  0.00    -0.092 F 
ENDROOT
TORSDOF 0
ENDMDL
