MODEL 1
REMARK minimizedAffinity 18.7110634
REMARK minimizedRMSD -1
REMARK  0 active torsions:
REMARK  status: ('A' for Active; 'I' for Inactive)
ROOT
ATOM      1  C   UNL d   1      -3.020  -0.597   1.955  0.00  0.00     0.124 A 
ATOM      2  C1  UNL d   1      -2.125  -0.323   2.979  0.00  0.00     0.062 A 
ATOM      3  C2  UNL d   1      -2.531   0.422   4.083  0.00  0.00     0.162 A 
ATOM      4  C3  UNL d   1      -3.839   0.896   4.169  0.00  0.00    -0.034 A 
ATOM      5  C4  UNL d   1      -4.734   0.617   3.134  0.00  0.00     0.162 A 
ATOM      6  C5  UNL d   1      -4.323  -0.127   2.033  0.00  0.00     0.062 A 
ATOM      7  F   UNL d   1      -5.190  -0.392   1.045  0.00  0.00    -0.097 F 
ATOM      8  F1  UNL d   1      -6.000   1.058   3.185  0.00  0.00    -0.096 F 
ATOM      9  I   UNL d   1      -4.450   2.010   5.818  0.00  0.00    -0.060 I 
ATOM     10  F2  UNL d   1      -1.644   0.672   5.058  0.00  0.00    -0.096 F 
ATOM     11  F3  UNL d   1      -0.865  -0.775   2.905  0.00  0.00    -0.097 F 
ATOM     12  F4  UNL d   1      -2.627  -1.313   0.894  0.00  0.00    -0.092 F 
ENDROOT
TORSDOF 0
ENDMDL
