MODEL 1
REMARK minimizedAffinity 6.14446878
REMARK minimizedRMSD -1
REMARK  0 active torsions:
REMARK  status: ('A' for Active; 'I' for Inactive)
ROOT
ATOM      1  C   UNL d   1      -2.783  -0.371   2.476  0.00  0.00     0.124 A 
ATOM      2  C1  UNL d   1      -4.047   0.134   2.205  0.00  0.00     0.062 A 
ATOM      3  C2  UNL d   1      -4.781   0.758   3.210  0.00  0.00     0.162 A 
ATOM      4  C3  UNL d   1      -4.253   0.881   4.495  0.00  0.00    -0.034 A 
ATOM      5  C4  UNL d   1      -2.982   0.369   4.760  0.00  0.00     0.162 A 
ATOM      6  C5  UNL d   1      -2.252  -0.254   3.753  0.00  0.00     0.062 A 
ATOM      7  F   UNL d   1      -1.031  -0.742   4.017  0.00  0.00    -0.097 F 
ATOM      8  F1  UNL d   1      -2.444   0.470   5.985  0.00  0.00    -0.096 F 
ATOM      9  I   UNL d   1      -5.349   1.813   5.999  0.00  0.00    -0.060 I 
ATOM     10  F2  UNL d   1      -6.000   1.238   2.919  0.00  0.00    -0.096 F 
ATOM     11  F3  UNL d   1      -4.562   0.021   0.973  0.00  0.00    -0.097 F 
ATOM     12  F4  UNL d   1      -2.079  -0.972   1.509  0.00  0.00    -0.092 F 
ENDROOT
TORSDOF 0
ENDMDL
