MODEL 1
REMARK minimizedAffinity 17.8608265
REMARK minimizedRMSD -1
REMARK  0 active torsions:
REMARK  status: ('A' for Active; 'I' for Inactive)
ROOT
ATOM      1  C   UNL d   1       1.087   4.230  -2.405  0.00  0.00     0.124 A 
ATOM      2  C1  UNL d   1       0.759   4.371  -1.064  0.00  0.00     0.062 A 
ATOM      3  C2  UNL d   1       1.201   3.435  -0.133  0.00  0.00     0.162 A 
ATOM      4  C3  UNL d   1       1.977   2.350  -0.540  0.00  0.00    -0.034 A 
ATOM      5  C4  UNL d   1       2.303   2.215  -1.891  0.00  0.00     0.162 A 
ATOM      6  C5  UNL d   1       1.858   3.153  -2.817  0.00  0.00     0.062 A 
ATOM      7  F   UNL d   1       2.177   3.015  -4.113  0.00  0.00    -0.097 F 
ATOM      8  F1  UNL d   1       3.047   1.184  -2.317  0.00  0.00    -0.096 F 
ATOM      9  I   UNL d   1       2.640   0.949   0.848  0.00  0.00    -0.060 I 
ATOM     10  F2  UNL d   1       0.869   3.596   1.156  0.00  0.00    -0.096 F 
ATOM     11  F3  UNL d   1       0.013   5.411  -0.663  0.00  0.00    -0.097 F 
ATOM     12  F4  UNL d   1       0.660   5.132  -3.299  0.00  0.00    -0.092 F 
ENDROOT
TORSDOF 0
ENDMDL
