MODEL 1
REMARK minimizedAffinity 28.6176434
REMARK minimizedRMSD -1
REMARK  0 active torsions:
REMARK  status: ('A' for Active; 'I' for Inactive)
ROOT
ATOM      1  C   UNL d   1       2.347   3.480  -3.847  0.00  0.00     0.124 A 
ATOM      2  C1  UNL d   1       1.205   3.894  -3.174  0.00  0.00     0.062 A 
ATOM      3  C2  UNL d   1       0.812   3.252  -2.003  0.00  0.00     0.162 A 
ATOM      4  C3  UNL d   1       1.561   2.190  -1.497  0.00  0.00    -0.034 A 
ATOM      5  C4  UNL d   1       2.707   1.779  -2.180  0.00  0.00     0.162 A 
ATOM      6  C5  UNL d   1       3.096   2.424  -3.350  0.00  0.00     0.062 A 
ATOM      7  F   UNL d   1       4.199   2.023  -3.998  0.00  0.00    -0.097 F 
ATOM      8  F1  UNL d   1       3.451   0.762  -1.720  0.00  0.00    -0.096 F 
ATOM      9  I   UNL d   1       0.976   1.229   0.254  0.00  0.00    -0.060 I 
ATOM     10  F2  UNL d   1      -0.295   3.673  -1.374  0.00  0.00    -0.096 F 
ATOM     11  F3  UNL d   1       0.479   4.913  -3.654  0.00  0.00    -0.097 F 
ATOM     12  F4  UNL d   1       2.722   4.098  -4.974  0.00  0.00    -0.092 F 
ENDROOT
TORSDOF 0
ENDMDL
