MODEL 1
REMARK minimizedAffinity 23.0506516
REMARK minimizedRMSD -1
REMARK  0 active torsions:
REMARK  status: ('A' for Active; 'I' for Inactive)
ROOT
ATOM      1  C   UNL d   1      -3.418   0.737   2.671  0.00  0.00     0.124 A 
ATOM      2  C1  UNL d   1      -2.596   1.063   3.741  0.00  0.00     0.062 A 
ATOM      3  C2  UNL d   1      -1.392   0.392   3.929  0.00  0.00     0.162 A 
ATOM      4  C3  UNL d   1      -1.000  -0.612   3.043  0.00  0.00    -0.034 A 
ATOM      5  C4  UNL d   1      -1.832  -0.936   1.970  0.00  0.00     0.162 A 
ATOM      6  C5  UNL d   1      -3.035  -0.262   1.787  0.00  0.00     0.062 A 
ATOM      7  F   UNL d   1      -3.828  -0.579   0.752  0.00  0.00    -0.097 F 
ATOM      8  F1  UNL d   1      -1.486  -1.896   1.100  0.00  0.00    -0.096 F 
ATOM      9  I   UNL d   1       0.801  -1.618   3.321  0.00  0.00    -0.060 I 
ATOM     10  F2  UNL d   1      -0.617   0.728   4.971  0.00  0.00    -0.096 F 
ATOM     11  F3  UNL d   1      -2.964   2.027   4.597  0.00  0.00    -0.097 F 
ATOM     12  F4  UNL d   1      -4.577   1.383   2.493  0.00  0.00    -0.092 F 
ENDROOT
TORSDOF 0
ENDMDL
