MODEL 1
REMARK minimizedAffinity 19.7592201
REMARK minimizedRMSD -1
REMARK  0 active torsions:
REMARK  status: ('A' for Active; 'I' for Inactive)
ROOT
ATOM      1  C   UNL d   1       4.709   3.052   1.870  0.00  0.00     0.124 A 
ATOM      2  C1  UNL d   1       5.074   3.744   0.723  0.00  0.00     0.062 A 
ATOM      3  C2  UNL d   1       4.481   3.436  -0.498  0.00  0.00     0.162 A 
ATOM      4  C3  UNL d   1       3.516   2.432  -0.579  0.00  0.00    -0.034 A 
ATOM      5  C4  UNL d   1       3.156   1.740   0.578  0.00  0.00     0.162 A 
ATOM      6  C5  UNL d   1       3.751   2.051   1.796  0.00  0.00     0.062 A 
ATOM      7  F   UNL d   1       3.398   1.381   2.903  0.00  0.00    -0.097 F 
ATOM      8  F1  UNL d   1       2.232   0.768   0.536  0.00  0.00    -0.096 F 
ATOM      9  I   UNL d   1       2.628   1.970  -2.404  0.00  0.00    -0.060 I 
ATOM     10  F2  UNL d   1       4.852   4.122  -1.590  0.00  0.00    -0.096 F 
ATOM     11  F3  UNL d   1       6.000   4.711   0.792  0.00  0.00    -0.097 F 
ATOM     12  F4  UNL d   1       5.282   3.349   3.043  0.00  0.00    -0.092 F 
ENDROOT
TORSDOF 0
ENDMDL
