MODEL 1
REMARK minimizedAffinity 22.8652
REMARK minimizedRMSD -1
REMARK  0 active torsions:
REMARK  status: ('A' for Active; 'I' for Inactive)
ROOT
ATOM      1  C   UNL d   1      -5.747   0.152  -0.151  0.00  0.00     0.124 A 
ATOM      2  C1  UNL d   1      -5.840  -1.070  -0.804  0.00  0.00     0.062 A 
ATOM      3  C2  UNL d   1      -5.911  -1.117  -2.193  0.00  0.00     0.162 A 
ATOM      4  C3  UNL d   1      -5.889   0.061  -2.940  0.00  0.00    -0.034 A 
ATOM      5  C4  UNL d   1      -5.797   1.286  -2.276  0.00  0.00     0.162 A 
ATOM      6  C5  UNL d   1      -5.726   1.328  -0.888  0.00  0.00     0.062 A 
ATOM      7  F   UNL d   1      -5.637   2.509  -0.259  0.00  0.00    -0.097 F 
ATOM      8  F1  UNL d   1      -5.774   2.437  -2.963  0.00  0.00    -0.096 F 
ATOM      9  I   UNL d   1      -5.996  -0.006  -5.017  0.00  0.00    -0.060 I 
ATOM     10  F2  UNL d   1      -6.000  -2.311  -2.798  0.00  0.00    -0.096 F 
ATOM     11  F3  UNL d   1      -5.861  -2.207  -0.095  0.00  0.00    -0.097 F 
ATOM     12  F4  UNL d   1      -5.680   0.195   1.186  0.00  0.00    -0.092 F 
ENDROOT
TORSDOF 0
ENDMDL
