MODEL 1
REMARK minimizedAffinity -3.37252021
REMARK minimizedRMSD -1
REMARK  0 active torsions:
REMARK  status: ('A' for Active; 'I' for Inactive)
ROOT
ATOM      1  C   UNL d   1      -0.022   1.050  -1.354  0.00  0.00     0.172 C 
ATOM      2  N   UNL d   1      -0.043   0.377  -0.077  0.00  0.00    -0.070 N 
ATOM      3  C1  UNL d   1      -1.167  -0.006   0.605  0.00  0.00    -0.004 A 
ATOM      4  C2  UNL d   1      -0.764  -0.614   1.775  0.00  0.00    -0.047 A 
ATOM      5  C3  UNL d   1       0.651  -0.595   1.797  0.00  0.00    -0.047 A 
ATOM      6  C4  UNL d   1       1.071   0.024   0.638  0.00  0.00    -0.004 A 
ENDROOT
TORSDOF 0
ENDMDL
