MODEL 1
REMARK minimizedAffinity 4.7736516
REMARK minimizedRMSD -1
REMARK  0 active torsions:
REMARK  status: ('A' for Active; 'I' for Inactive)
ROOT
ATOM      1  C   UNL d   1       0.566  -1.329   3.392  0.00  0.00     0.172 C 
ATOM      2  N   UNL d   1       0.585  -1.030   1.980  0.00  0.00    -0.070 N 
ATOM      3  C1  UNL d   1       1.536  -1.451   1.088  0.00  0.00    -0.004 A 
ATOM      4  C2  UNL d   1       1.196  -0.958  -0.154  0.00  0.00    -0.047 A 
ATOM      5  C3  UNL d   1       0.001  -0.215  -0.003  0.00  0.00    -0.047 A 
ATOM      6  C4  UNL d   1      -0.355  -0.276   1.328  0.00  0.00    -0.004 A 
ENDROOT
TORSDOF 0
ENDMDL
