MODEL 1
REMARK minimizedAffinity 0.884098887
REMARK minimizedRMSD -1
REMARK  0 active torsions:
REMARK  status: ('A' for Active; 'I' for Inactive)
ROOT
ATOM      1  C   UNL d   1      -1.689  -0.606   2.106  0.00  0.00     0.172 C 
ATOM      2  N   UNL d   1      -0.401  -0.747   1.468  0.00  0.00    -0.070 N 
ATOM      3  C1  UNL d   1       0.814  -0.598   2.082  0.00  0.00    -0.004 A 
ATOM      4  C2  UNL d   1       1.793  -0.814   1.136  0.00  0.00    -0.047 A 
ATOM      5  C3  UNL d   1       1.144  -1.101  -0.088  0.00  0.00    -0.047 A 
ATOM      6  C4  UNL d   1      -0.214  -1.053   0.146  0.00  0.00    -0.004 A 
ENDROOT
TORSDOF 0
ENDMDL
