MODEL 1
REMARK minimizedAffinity -1.7533257
REMARK minimizedRMSD -1
REMARK  0 active torsions:
REMARK  status: ('A' for Active; 'I' for Inactive)
ROOT
ATOM      1  C   UNL d   1       2.251   5.987   5.206  0.00  0.00     0.172 C 
ATOM      2  N   UNL d   1       3.114   5.992   4.048  0.00  0.00    -0.070 N 
ATOM      3  C1  UNL d   1       4.483   5.996   4.072  0.00  0.00    -0.004 A 
ATOM      4  C2  UNL d   1       4.929   6.000   2.768  0.00  0.00    -0.047 A 
ATOM      5  C3  UNL d   1       3.788   5.999   1.931  0.00  0.00    -0.047 A 
ATOM      6  C4  UNL d   1       2.678   5.995   2.749  0.00  0.00    -0.004 A 
ENDROOT
TORSDOF 0
ENDMDL
