MODEL 1
REMARK minimizedAffinity -1.24292004
REMARK minimizedRMSD -1
REMARK  0 active torsions:
REMARK  status: ('A' for Active; 'I' for Inactive)
ROOT
ATOM      1  C   UNL d   1       3.361   5.283   2.582  0.00  0.00     0.172 C 
ATOM      2  N   UNL d   1       2.710   5.574   3.838  0.00  0.00    -0.070 N 
ATOM      3  C1  UNL d   1       1.363   5.736   4.020  0.00  0.00    -0.004 A 
ATOM      4  C2  UNL d   1       1.146   6.000   5.355  0.00  0.00    -0.047 A 
ATOM      5  C3  UNL d   1       2.407   5.997   5.998  0.00  0.00    -0.047 A 
ATOM      6  C4  UNL d   1       3.358   5.731   5.035  0.00  0.00    -0.004 A 
ENDROOT
TORSDOF 0
ENDMDL
