MODEL 1
REMARK minimizedAffinity 0.32480374
REMARK minimizedRMSD -1
REMARK  0 active torsions:
REMARK  status: ('A' for Active; 'I' for Inactive)
ROOT
ATOM      1  C   UNL d   1      -2.364  -0.286   0.078  0.00  0.00     0.172 C 
ATOM      2  N   UNL d   1      -1.001  -0.531   0.488  0.00  0.00    -0.070 N 
ATOM      3  C1  UNL d   1       0.040  -0.842  -0.346  0.00  0.00    -0.004 A 
ATOM      4  C2  UNL d   1       1.169  -0.997   0.428  0.00  0.00    -0.047 A 
ATOM      5  C3  UNL d   1       0.794  -0.772   1.774  0.00  0.00    -0.047 A 
ATOM      6  C4  UNL d   1      -0.554  -0.485   1.782  0.00  0.00    -0.004 A 
ENDROOT
TORSDOF 0
ENDMDL
