MODEL 1
REMARK minimizedAffinity -1.95188093
REMARK minimizedRMSD -1
REMARK  0 active torsions:
REMARK  status: ('A' for Active; 'I' for Inactive)
ROOT
ATOM      1  C   UNL d   1       3.362   5.980   2.589  0.00  0.00     0.172 C 
ATOM      2  N   UNL d   1       2.691   5.663   3.828  0.00  0.00    -0.070 N 
ATOM      3  C1  UNL d   1       1.505   4.988   3.943  0.00  0.00    -0.004 A 
ATOM      4  C2  UNL d   1       1.204   4.890   5.284  0.00  0.00    -0.047 A 
ATOM      5  C3  UNL d   1       2.244   5.529   6.000  0.00  0.00    -0.047 A 
ATOM      6  C4  UNL d   1       3.151   5.999   5.073  0.00  0.00    -0.004 A 
ENDROOT
TORSDOF 0
ENDMDL
