MODEL 1
REMARK minimizedAffinity -1.34189188
REMARK minimizedRMSD -1
REMARK  0 active torsions:
REMARK  status: ('A' for Active; 'I' for Inactive)
ROOT
ATOM      1  C   UNL d   1       3.006   4.875   2.414  0.00  0.00     0.172 C 
ATOM      2  N   UNL d   1       2.325   5.149   3.657  0.00  0.00    -0.070 N 
ATOM      3  C1  UNL d   1       1.129   4.608   4.048  0.00  0.00    -0.004 A 
ATOM      4  C2  UNL d   1       0.820   5.120   5.290  0.00  0.00    -0.047 A 
ATOM      5  C3  UNL d   1       1.866   6.000   5.657  0.00  0.00    -0.047 A 
ATOM      6  C4  UNL d   1       2.784   5.999   4.628  0.00  0.00    -0.004 A 
ENDROOT
TORSDOF 0
ENDMDL
