MODEL 1
REMARK minimizedAffinity -2.33317161
REMARK minimizedRMSD -1
REMARK  0 active torsions:
REMARK  status: ('A' for Active; 'I' for Inactive)
ROOT
ATOM      1  C   UNL d   1       1.845   5.979   5.944  0.00  0.00     0.172 C 
ATOM      2  N   UNL d   1       2.688   5.982   4.771  0.00  0.00    -0.070 N 
ATOM      3  C1  UNL d   1       4.057   5.999   4.772  0.00  0.00    -0.004 A 
ATOM      4  C2  UNL d   1       4.480   5.996   3.460  0.00  0.00    -0.047 A 
ATOM      5  C3  UNL d   1       3.324   5.978   2.643  0.00  0.00    -0.047 A 
ATOM      6  C4  UNL d   1       2.229   5.970   3.480  0.00  0.00    -0.004 A 
ENDROOT
TORSDOF 0
ENDMDL
