MODEL 1
REMARK minimizedAffinity -2.48682737
REMARK minimizedRMSD -1
REMARK  0 active torsions:
REMARK  status: ('A' for Active; 'I' for Inactive)
ROOT
ATOM      1  C   UNL d   1       2.062   5.989   5.925  0.00  0.00     0.172 C 
ATOM      2  N   UNL d   1       2.748   5.994   4.654  0.00  0.00    -0.070 N 
ATOM      3  C1  UNL d   1       2.148   5.995   3.424  0.00  0.00    -0.004 A 
ATOM      4  C2  UNL d   1       3.142   6.000   2.469  0.00  0.00    -0.047 A 
ATOM      5  C3  UNL d   1       4.382   6.000   3.150  0.00  0.00    -0.047 A 
ATOM      6  C4  UNL d   1       4.109   5.996   4.502  0.00  0.00    -0.004 A 
ENDROOT
TORSDOF 0
ENDMDL
