MODEL 1
REMARK minimizedAffinity -0.482975364
REMARK minimizedRMSD -1
REMARK  0 active torsions:
REMARK  status: ('A' for Active; 'I' for Inactive)
ROOT
ATOM      1  C   UNL d   1       0.877   0.068   1.740  0.00  0.00     0.077 C 
ATOM      2  C1  UNL d   1       1.986  -0.062   0.739  0.00  0.00    -0.074 A 
ATOM      3  C2  UNL d   1       2.820   1.021   0.445  0.00  0.00    -0.005 A 
ATOM      4  C3  UNL d   1       3.853   0.882  -0.482  0.00  0.00     0.006 A 
ATOM      5  C4  UNL d   1       4.062  -0.340  -1.123  0.00  0.00    -0.005 A 
ATOM      6  C5  UNL d   1       3.239  -1.434  -0.841  0.00  0.00    -0.074 A 
ATOM      7  C6  UNL d   1       3.456  -2.757  -1.514  0.00  0.00     0.077 C 
ATOM      8  C7  UNL d   1       2.207  -1.289   0.097  0.00  0.00    -0.001 A 
ENDROOT
TORSDOF 0
ENDMDL
