MODEL 1
REMARK minimizedAffinity 8.25900555
REMARK minimizedRMSD -1
REMARK  0 active torsions:
REMARK  status: ('A' for Active; 'I' for Inactive)
ROOT
ATOM      1  C   UNL d   1       2.648   0.947   0.028  0.00  0.00     0.077 C 
ATOM      2  C1  UNL d   1       1.257   0.955   0.588  0.00  0.00    -0.074 A 
ATOM      3  C2  UNL d   1       1.037   0.909   1.968  0.00  0.00    -0.005 A 
ATOM      4  C3  UNL d   1      -0.263   0.927   2.474  0.00  0.00     0.006 A 
ATOM      5  C4  UNL d   1      -1.354   0.990   1.606  0.00  0.00    -0.005 A 
ATOM      6  C5  UNL d   1      -1.153   1.038   0.223  0.00  0.00    -0.074 A 
ATOM      7  C6  UNL d   1      -2.314   1.116  -0.723  0.00  0.00     0.077 C 
ATOM      8  C7  UNL d   1       0.156   1.027  -0.277  0.00  0.00    -0.001 A 
ENDROOT
TORSDOF 0
ENDMDL
