MODEL 1
REMARK minimizedAffinity 4.19083786
REMARK minimizedRMSD -1
REMARK  0 active torsions:
REMARK  status: ('A' for Active; 'I' for Inactive)
ROOT
ATOM      1  C   UNL d   1       3.694  -3.029  -2.648  0.00  0.00     0.077 C 
ATOM      2  C1  UNL d   1       3.441  -2.107  -1.492  0.00  0.00    -0.074 A 
ATOM      3  C2  UNL d   1       2.485  -2.420  -0.519  0.00  0.00    -0.005 A 
ATOM      4  C3  UNL d   1       2.268  -1.558   0.555  0.00  0.00     0.006 A 
ATOM      5  C4  UNL d   1       3.002  -0.377   0.669  0.00  0.00    -0.005 A 
ATOM      6  C5  UNL d   1       3.963  -0.048  -0.293  0.00  0.00    -0.074 A 
ATOM      7  C6  UNL d   1       4.768   1.212  -0.181  0.00  0.00     0.077 C 
ATOM      8  C7  UNL d   1       4.181  -0.923  -1.366  0.00  0.00    -0.001 A 
ENDROOT
TORSDOF 0
ENDMDL
