MODEL 1
REMARK minimizedAffinity 2.50425839
REMARK minimizedRMSD -1
REMARK  0 active torsions:
REMARK  status: ('A' for Active; 'I' for Inactive)
ROOT
ATOM      1  C   UNL d   1       1.674  -2.687   3.773  0.00  0.00     0.077 C 
ATOM      2  C1  UNL d   1       0.930  -1.415   4.052  0.00  0.00    -0.074 A 
ATOM      3  C2  UNL d   1       1.033  -0.778   5.293  0.00  0.00    -0.005 A 
ATOM      4  C3  UNL d   1       0.342   0.409   5.534  0.00  0.00     0.006 A 
ATOM      5  C4  UNL d   1      -0.458   0.971   4.538  0.00  0.00    -0.005 A 
ATOM      6  C5  UNL d   1      -0.572   0.350   3.291  0.00  0.00    -0.074 A 
ATOM      7  C6  UNL d   1      -1.420   0.946   2.206  0.00  0.00     0.077 C 
ATOM      8  C7  UNL d   1       0.131  -0.839   3.054  0.00  0.00    -0.001 A 
ENDROOT
TORSDOF 0
ENDMDL
