MODEL 1
REMARK minimizedAffinity 6.96974897
REMARK minimizedRMSD -1
REMARK  0 active torsions:
REMARK  status: ('A' for Active; 'I' for Inactive)
ROOT
ATOM      1  C   UNL d   1      -1.476  -0.318  -2.037  0.00  0.00     0.077 C 
ATOM      2  C1  UNL d   1      -2.321   0.247  -3.140  0.00  0.00    -0.074 A 
ATOM      3  C2  UNL d   1      -1.841   1.275  -3.958  0.00  0.00    -0.005 A 
ATOM      4  C3  UNL d   1      -2.635   1.784  -4.986  0.00  0.00     0.006 A 
ATOM      5  C4  UNL d   1      -3.913   1.271  -5.206  0.00  0.00    -0.005 A 
ATOM      6  C5  UNL d   1      -4.409   0.243  -4.399  0.00  0.00    -0.074 A 
ATOM      7  C6  UNL d   1      -5.778  -0.327  -4.628  0.00  0.00     0.077 C 
ATOM      8  C7  UNL d   1      -3.603  -0.268  -3.372  0.00  0.00    -0.001 A 
ENDROOT
TORSDOF 0
ENDMDL
