MODEL 1
REMARK minimizedAffinity 0.0148051325
REMARK minimizedRMSD -1
REMARK  0 active torsions:
REMARK  status: ('A' for Active; 'I' for Inactive)
ROOT
ATOM      1  C   UNL d   1       2.714   1.123   0.341  0.00  0.00     0.077 C 
ATOM      2  C1  UNL d   1       1.338   1.208   0.930  0.00  0.00    -0.074 A 
ATOM      3  C2  UNL d   1       1.149   1.245   2.315  0.00  0.00    -0.005 A 
ATOM      4  C3  UNL d   1      -0.137   1.334   2.848  0.00  0.00     0.006 A 
ATOM      5  C4  UNL d   1      -1.245   1.387   2.002  0.00  0.00    -0.005 A 
ATOM      6  C5  UNL d   1      -1.077   1.353   0.614  0.00  0.00    -0.074 A 
ATOM      7  C6  UNL d   1      -2.257   1.419  -0.309  0.00  0.00     0.077 C 
ATOM      8  C7  UNL d   1       0.219   1.270   0.087  0.00  0.00    -0.001 A 
ENDROOT
TORSDOF 0
ENDMDL
