MODEL 1
REMARK minimizedAffinity 8.44609928
REMARK minimizedRMSD -1
REMARK  0 active torsions:
REMARK  status: ('A' for Active; 'I' for Inactive)
ROOT
ATOM      1  C   UNL d   1       1.964  -2.479  -0.340  0.00  0.00     0.077 C 
ATOM      2  C1  UNL d   1       2.236  -1.010  -0.210  0.00  0.00    -0.074 A 
ATOM      3  C2  UNL d   1       1.203  -0.109   0.071  0.00  0.00    -0.005 A 
ATOM      4  C3  UNL d   1       1.473   1.253   0.198  0.00  0.00     0.006 A 
ATOM      5  C4  UNL d   1       2.776   1.729   0.046  0.00  0.00    -0.005 A 
ATOM      6  C5  UNL d   1       3.822   0.843  -0.235  0.00  0.00    -0.074 A 
ATOM      7  C6  UNL d   1       5.229   1.337  -0.392  0.00  0.00     0.077 C 
ATOM      8  C7  UNL d   1       3.544  -0.525  -0.354  0.00  0.00    -0.001 A 
ENDROOT
TORSDOF 0
ENDMDL
