MODEL 1
REMARK minimizedAffinity 1.56066692
REMARK minimizedRMSD -1
REMARK  0 active torsions:
REMARK  status: ('A' for Active; 'I' for Inactive)
ROOT
ATOM      1  C   UNL d   1       2.903   0.383   0.101  0.00  0.00     0.077 C 
ATOM      2  C1  UNL d   1       1.540   0.455   0.723  0.00  0.00    -0.074 A 
ATOM      3  C2  UNL d   1       1.368   0.284   2.101  0.00  0.00    -0.005 A 
ATOM      4  C3  UNL d   1       0.096   0.363   2.666  0.00  0.00     0.006 A 
ATOM      5  C4  UNL d   1      -1.016   0.613   1.861  0.00  0.00    -0.005 A 
ATOM      6  C5  UNL d   1      -0.864   0.787   0.482  0.00  0.00    -0.074 A 
ATOM      7  C6  UNL d   1      -2.048   1.067  -0.396  0.00  0.00     0.077 C 
ATOM      8  C7  UNL d   1       0.419   0.713  -0.078  0.00  0.00    -0.001 A 
ENDROOT
TORSDOF 0
ENDMDL
