MODEL 1
REMARK minimizedAffinity -3.61195683
REMARK minimizedRMSD -1
REMARK  1 active torsions:
REMARK  status: ('A' for Active; 'I' for Inactive)
REMARK    1  A    between atoms: N_2  and  C1_3 
ROOT
ATOM      1  C1  UNL d   1      -0.319   0.829   1.315  0.00  0.00     0.143 A 
ATOM      2  C2  UNL d   1      -1.308   0.492   0.385  0.00  0.00    -0.057 A 
ATOM      3  C3  UNL d   1      -1.024  -0.328  -0.714  0.00  0.00     0.033 A 
ATOM      4  C4  UNL d   1       0.267  -0.804  -0.918  0.00  0.00    -0.042 A 
ATOM      5  C5  UNL d   1       1.272  -0.462  -0.020  0.00  0.00     0.033 A 
ATOM      6  C6  UNL d   1       0.980   0.352   1.079  0.00  0.00    -0.057 A 
ENDROOT
BRANCH   1   7
ATOM      7  N   UNL d   1      -0.516   1.720   2.372  0.00  0.00    -0.732 N 
ATOM      8  C   UNL d   1      -1.439   1.403   3.441  0.00  0.00     0.284 C 
ATOM      9  H3  UNL d   1       0.352   2.148   2.686  0.00  0.00     0.395 HD
ENDBRANCH   1   7
TORSDOF 1
ENDMDL
