MODEL 1
REMARK minimizedAffinity -2.86502504
REMARK minimizedRMSD -1
REMARK  1 active torsions:
REMARK  status: ('A' for Active; 'I' for Inactive)
REMARK    1  A    between atoms: N_2  and  C1_3 
ROOT
ATOM      1  C1  UNL d   1       0.304  -0.553  -0.566  0.00  0.00     0.143 A 
ATOM      2  C2  UNL d   1       1.157  -0.198   0.484  0.00  0.00    -0.057 A 
ATOM      3  C3  UNL d   1       0.667   0.423   1.639  0.00  0.00     0.033 A 
ATOM      4  C4  UNL d   1      -0.686   0.727   1.752  0.00  0.00    -0.042 A 
ATOM      5  C5  UNL d   1      -1.548   0.407   0.710  0.00  0.00     0.033 A 
ATOM      6  C6  UNL d   1      -1.054  -0.220  -0.438  0.00  0.00    -0.057 A 
ENDROOT
BRANCH   1   7
ATOM      7  N   UNL d   1       0.745  -1.084  -1.781  0.00  0.00    -0.732 N 
ATOM      8  C   UNL d   1       1.064  -0.213  -2.893  0.00  0.00     0.284 C 
ATOM      9  H3  UNL d   1       1.398  -1.853  -1.655  0.00  0.00     0.395 HD
ENDBRANCH   1   7
TORSDOF 1
ENDMDL
