MODEL 1
REMARK minimizedAffinity -3.44127393
REMARK minimizedRMSD -1
REMARK  1 active torsions:
REMARK  status: ('A' for Active; 'I' for Inactive)
REMARK    1  A    between atoms: N_2  and  C1_3 
ROOT
ATOM      1  C1  UNL d   1       0.172  -0.319  -0.491  0.00  0.00     0.143 A 
ATOM      2  C2  UNL d   1      -1.206  -0.182  -0.290  0.00  0.00    -0.057 A 
ATOM      3  C3  UNL d   1      -1.715   0.419   0.867  0.00  0.00     0.033 A 
ATOM      4  C4  UNL d   1      -0.852   0.869   1.861  0.00  0.00    -0.042 A 
ATOM      5  C5  UNL d   1       0.521   0.721   1.694  0.00  0.00     0.033 A 
ATOM      6  C6  UNL d   1       1.023   0.126   0.533  0.00  0.00    -0.057 A 
ENDROOT
BRANCH   1   7
ATOM      7  N   UNL d   1       0.736  -0.995  -1.576  0.00  0.00    -0.732 N 
ATOM      8  C   UNL d   1       1.257  -0.264  -2.711  0.00  0.00     0.284 C 
ATOM      9  H3  UNL d   1       1.315  -1.780  -1.285  0.00  0.00     0.395 HD
ENDBRANCH   1   7
TORSDOF 1
ENDMDL
