MODEL 1
REMARK minimizedAffinity -3.95763922
REMARK minimizedRMSD -1
REMARK  1 active torsions:
REMARK  status: ('A' for Active; 'I' for Inactive)
REMARK    1  A    between atoms: N_2  and  C1_3 
ROOT
ATOM      1  C1  UNL d   1      -0.209   0.286  -0.094  0.00  0.00     0.143 A 
ATOM      2  C2  UNL d   1      -1.489  -0.060   0.353  0.00  0.00    -0.057 A 
ATOM      3  C3  UNL d   1      -2.021   0.487   1.527  0.00  0.00     0.033 A 
ATOM      4  C4  UNL d   1      -1.268   1.370   2.293  0.00  0.00    -0.042 A 
ATOM      5  C5  UNL d   1       0.016   1.710   1.881  0.00  0.00     0.033 A 
ATOM      6  C6  UNL d   1       0.539   1.166   0.704  0.00  0.00    -0.057 A 
ENDROOT
BRANCH   1   7
ATOM      7  N   UNL d   1       0.413  -0.298  -1.200  0.00  0.00    -0.732 N 
ATOM      8  C   UNL d   1       0.854   0.515  -2.313  0.00  0.00     0.284 C 
ATOM      9  H3  UNL d   1       1.068  -1.030  -0.935  0.00  0.00     0.395 HD
ENDBRANCH   1   7
TORSDOF 1
ENDMDL
