MODEL 1
REMARK minimizedAffinity -5.03355455
REMARK minimizedRMSD -1
REMARK  1 active torsions:
REMARK  status: ('A' for Active; 'I' for Inactive)
REMARK    1  A    between atoms: N_2  and  C1_3 
ROOT
ATOM      1  C1  UNL d   1      -1.402   0.734   1.113  0.00  0.00     0.143 A 
ATOM      2  C2  UNL d   1      -2.185   0.529  -0.028  0.00  0.00    -0.057 A 
ATOM      3  C3  UNL d   1      -1.659  -0.090  -1.169  0.00  0.00     0.033 A 
ATOM      4  C4  UNL d   1      -0.326  -0.489  -1.199  0.00  0.00    -0.042 A 
ATOM      5  C5  UNL d   1       0.477  -0.273  -0.085  0.00  0.00     0.033 A 
ATOM      6  C6  UNL d   1      -0.056   0.339   1.053  0.00  0.00    -0.057 A 
ENDROOT
BRANCH   1   7
ATOM      7  N   UNL d   1      -1.839   1.431   2.241  0.00  0.00    -0.732 N 
ATOM      8  C   UNL d   1      -1.047   1.446   3.452  0.00  0.00     0.284 C 
ATOM      9  H3  UNL d   1      -2.256   2.329   2.006  0.00  0.00     0.395 HD
ENDBRANCH   1   7
TORSDOF 1
ENDMDL
