MODEL 1
REMARK minimizedAffinity -3.02704072
REMARK minimizedRMSD -1
REMARK  1 active torsions:
REMARK  status: ('A' for Active; 'I' for Inactive)
REMARK    1  A    between atoms: N_2  and  C1_3 
ROOT
ATOM      1  C1  UNL d   1       0.851   0.008  -1.705  0.00  0.00     0.143 A 
ATOM      2  C2  UNL d   1       1.629   1.159  -1.868  0.00  0.00    -0.057 A 
ATOM      3  C3  UNL d   1       1.930   1.659  -3.140  0.00  0.00     0.033 A 
ATOM      4  C4  UNL d   1       1.480   0.997  -4.278  0.00  0.00    -0.042 A 
ATOM      5  C5  UNL d   1       0.726  -0.164  -4.141  0.00  0.00     0.033 A 
ATOM      6  C6  UNL d   1       0.424  -0.654  -2.867  0.00  0.00    -0.057 A 
ENDROOT
BRANCH   1   7
ATOM      7  N   UNL d   1       0.600  -0.594  -0.469  0.00  0.00    -0.732 N 
ATOM      8  C   UNL d   1      -0.082   0.133   0.579  0.00  0.00     0.284 C 
ATOM      9  H3  UNL d   1       0.306  -1.563  -0.562  0.00  0.00     0.395 HD
ENDBRANCH   1   7
TORSDOF 1
ENDMDL
