MODEL 1
REMARK minimizedAffinity 10.9447174
REMARK minimizedRMSD -1
REMARK  3 active torsions:
REMARK  status: ('A' for Active; 'I' for Inactive)
REMARK    1  A    between atoms: C3'_2  and  C2'_3 
REMARK    2  A    between atoms: C2'_3  and  C1'_4 
REMARK    3  A    between atoms: C1'_4  and  C1_5 
ROOT
ATOM      1  C1  N4B d   1       0.841   2.091   0.803  0.00  0.00    -0.075 A 
ATOM      2  C2  N4B d   1      -0.242   2.595   1.557  0.00  0.00     0.002 A 
ATOM      3  C3  N4B d   1      -0.007   3.427   2.624  0.00  0.00     0.002 A 
ATOM      4  C4  N4B d   1       1.296   3.753   2.966  0.00  0.00    -0.004 A 
ATOM      5  C5  N4B d   1       2.335   3.283   2.217  0.00  0.00     0.002 A 
ATOM      6  C6  N4B d   1       2.114   2.449   1.140  0.00  0.00     0.002 A 
ENDROOT
BRANCH   1   7
ATOM      7  C1' N4B d   1       0.639   1.110  -0.318  0.00  0.00     0.057 C 
BRANCH   7   8
ATOM      8  C2' N4B d   1       1.946   0.366  -0.575  0.00  0.00     0.009 C 
BRANCH   8   9
ATOM      9  C3' N4B d   1       2.383   0.469  -2.026  0.00  0.00     0.004 C 
ATOM     10  C4' N4B d   1       2.785   1.860  -2.415  0.00  0.00     0.003 C 
ENDBRANCH   8   9
ENDBRANCH   7   8
ENDBRANCH   1   7
TORSDOF 3
ENDMDL
