MODEL 1
REMARK minimizedAffinity 4.02924395
REMARK minimizedRMSD -1
REMARK  3 active torsions:
REMARK  status: ('A' for Active; 'I' for Inactive)
REMARK    1  A    between atoms: C3'_2  and  C2'_3 
REMARK    2  A    between atoms: C2'_3  and  C1'_4 
REMARK    3  A    between atoms: C1'_4  and  C1_5 
ROOT
ATOM      1  C1  N4B d   1       0.526   1.977   0.976  0.00  0.00    -0.075 A 
ATOM      2  C2  N4B d   1       0.218   2.995   1.904  0.00  0.00     0.002 A 
ATOM      3  C3  N4B d   1       1.209   3.531   2.690  0.00  0.00     0.002 A 
ATOM      4  C4  N4B d   1       2.506   3.053   2.579  0.00  0.00    -0.004 A 
ATOM      5  C5  N4B d   1       2.800   2.087   1.662  0.00  0.00     0.002 A 
ATOM      6  C6  N4B d   1       1.815   1.542   0.863  0.00  0.00     0.002 A 
ENDROOT
BRANCH   1   7
ATOM      7  C1' N4B d   1      -0.539   1.301   0.156  0.00  0.00     0.057 C 
BRANCH   7   8
ATOM      8  C2' N4B d   1      -1.744   1.007   1.044  0.00  0.00     0.009 C 
BRANCH   8   9
ATOM      9  C3' N4B d   1      -2.136  -0.460   1.004  0.00  0.00     0.004 C 
ATOM     10  C4' N4B d   1      -0.989  -1.358   0.650  0.00  0.00     0.003 C 
ENDBRANCH   8   9
ENDBRANCH   7   8
ENDBRANCH   1   7
TORSDOF 3
ENDMDL
