MODEL 1
REMARK minimizedAffinity 3.55271244
REMARK minimizedRMSD -1
REMARK  3 active torsions:
REMARK  status: ('A' for Active; 'I' for Inactive)
REMARK    1  A    between atoms: C3'_2  and  C2'_3 
REMARK    2  A    between atoms: C2'_3  and  C1'_4 
REMARK    3  A    between atoms: C1'_4  and  C1_5 
ROOT
ATOM      1  C1  N4B d   1      -0.013   0.127   0.378  0.00  0.00    -0.075 A 
ATOM      2  C2  N4B d   1      -0.338  -1.183   0.795  0.00  0.00     0.002 A 
ATOM      3  C3  N4B d   1      -1.564  -1.441   1.356  0.00  0.00     0.002 A 
ATOM      4  C4  N4B d   1      -2.471  -0.406   1.528  0.00  0.00    -0.004 A 
ATOM      5  C5  N4B d   1      -2.160   0.851   1.100  0.00  0.00     0.002 A 
ATOM      6  C6  N4B d   1      -0.933   1.124   0.530  0.00  0.00     0.002 A 
ENDROOT
BRANCH   1   7
ATOM      7  C1' N4B d   1       1.347   0.474  -0.162  0.00  0.00     0.057 C 
BRANCH   7   8
ATOM      8  C2' N4B d   1       2.246  -0.756  -0.084  0.00  0.00     0.009 C 
BRANCH   8   9
ATOM      9  C3' N4B d   1       2.333  -1.482  -1.415  0.00  0.00     0.004 C 
ATOM     10  C4' N4B d   1       2.992  -0.660  -2.483  0.00  0.00     0.003 C 
ENDBRANCH   8   9
ENDBRANCH   7   8
ENDBRANCH   1   7
TORSDOF 3
ENDMDL
