MODEL 1
REMARK minimizedAffinity 5.97234678
REMARK minimizedRMSD -1
REMARK  3 active torsions:
REMARK  status: ('A' for Active; 'I' for Inactive)
REMARK    1  A    between atoms: C3'_2  and  C2'_3 
REMARK    2  A    between atoms: C2'_3  and  C1'_4 
REMARK    3  A    between atoms: C1'_4  and  C1_5 
ROOT
ATOM      1  C1  N4B d   1       0.354   0.430   0.710  0.00  0.00    -0.075 A 
ATOM      2  C2  N4B d   1       0.136   1.810   0.917  0.00  0.00     0.002 A 
ATOM      3  C3  N4B d   1      -1.144   2.307   0.937  0.00  0.00     0.002 A 
ATOM      4  C4  N4B d   1      -2.216   1.451   0.734  0.00  0.00    -0.004 A 
ATOM      5  C5  N4B d   1      -1.998   0.116   0.560  0.00  0.00     0.002 A 
ATOM      6  C6  N4B d   1      -0.717  -0.399   0.541  0.00  0.00     0.002 A 
ENDROOT
BRANCH   1   7
ATOM      7  C1' N4B d   1       1.739  -0.146   0.594  0.00  0.00     0.057 C 
BRANCH   7   8
ATOM      8  C2' N4B d   1       2.580   0.750  -0.309  0.00  0.00     0.009 C 
BRANCH   8   9
ATOM      9  C3' N4B d   1       2.204   0.596  -1.773  0.00  0.00     0.004 C 
ATOM     10  C4' N4B d   1       2.419  -0.797  -2.285  0.00  0.00     0.003 C 
ENDBRANCH   8   9
ENDBRANCH   7   8
ENDBRANCH   1   7
TORSDOF 3
ENDMDL
