MODEL 1
REMARK minimizedAffinity 4.8497262
REMARK minimizedRMSD -1
REMARK  3 active torsions:
REMARK  status: ('A' for Active; 'I' for Inactive)
REMARK    1  A    between atoms: C3'_2  and  C2'_3 
REMARK    2  A    between atoms: C2'_3  and  C1'_4 
REMARK    3  A    between atoms: C1'_4  and  C1_5 
ROOT
ATOM      1  C1  N4B d   1       0.245   0.494   0.146  0.00  0.00    -0.075 A 
ATOM      2  C2  N4B d   1      -0.358   1.756   0.339  0.00  0.00     0.002 A 
ATOM      3  C3  N4B d   1      -1.693   1.839   0.651  0.00  0.00     0.002 A 
ATOM      4  C4  N4B d   1      -2.446   0.679   0.754  0.00  0.00    -0.004 A 
ATOM      5  C5  N4B d   1      -1.851  -0.537   0.590  0.00  0.00     0.002 A 
ATOM      6  C6  N4B d   1      -0.509  -0.636   0.281  0.00  0.00     0.002 A 
ENDROOT
BRANCH   1   7
ATOM      7  C1' N4B d   1       1.681   0.356  -0.280  0.00  0.00     0.057 C 
BRANCH   7   8
ATOM      8  C2' N4B d   1       1.851   0.962  -1.670  0.00  0.00     0.009 C 
BRANCH   8   9
ATOM      9  C3' N4B d   1       3.052   0.384  -2.399  0.00  0.00     0.004 C 
ATOM     10  C4' N4B d   1       2.680  -0.716  -3.348  0.00  0.00     0.003 C 
ENDBRANCH   8   9
ENDBRANCH   7   8
ENDBRANCH   1   7
TORSDOF 3
ENDMDL
