MODEL 1
REMARK minimizedAffinity 0.864969373
REMARK minimizedRMSD -1
REMARK  0 active torsions:
REMARK  status: ('A' for Active; 'I' for Inactive)
ROOT
ATOM      1  C   UNL d   1       2.129  -1.543   0.656  0.00  0.00     0.124 A 
ATOM      2  C1  UNL d   1       1.708  -0.230   0.821  0.00  0.00     0.062 A 
ATOM      3  C2  UNL d   1       0.350   0.069   0.864  0.00  0.00     0.162 A 
ATOM      4  C3  UNL d   1      -0.599  -0.946   0.741  0.00  0.00    -0.034 A 
ATOM      5  C4  UNL d   1      -0.168  -2.264   0.574  0.00  0.00     0.162 A 
ATOM      6  C5  UNL d   1       1.191  -2.558   0.533  0.00  0.00     0.062 A 
ATOM      7  F   UNL d   1       1.596  -3.826   0.373  0.00  0.00    -0.097 F 
ATOM      8  F1  UNL d   1      -1.053  -3.264   0.453  0.00  0.00    -0.096 F 
ATOM      9  I   UNL d   1      -2.631  -0.503   0.804  0.00  0.00    -0.060 I 
ATOM     10  F2  UNL d   1      -0.028   1.346   1.024  0.00  0.00    -0.096 F 
ATOM     11  F3  UNL d   1       2.613   0.752   0.940  0.00  0.00    -0.097 F 
ATOM     12  F4  UNL d   1       3.437  -1.828   0.615  0.00  0.00    -0.092 F 
ENDROOT
TORSDOF 0
ENDMDL
