MODEL 1
REMARK minimizedAffinity 26.3423519
REMARK minimizedRMSD -1
REMARK  0 active torsions:
REMARK  status: ('A' for Active; 'I' for Inactive)
ROOT
ATOM      1  C   UNL d   1       1.568  -3.756  -0.631  0.00  0.00     0.124 A 
ATOM      2  C1  UNL d   1       0.388  -3.382  -0.003  0.00  0.00     0.062 A 
ATOM      3  C2  UNL d   1       0.376  -2.306   0.880  0.00  0.00     0.162 A 
ATOM      4  C3  UNL d   1       1.548  -1.596   1.140  0.00  0.00    -0.034 A 
ATOM      5  C4  UNL d   1       2.731  -1.979   0.506  0.00  0.00     0.162 A 
ATOM      6  C5  UNL d   1       2.738  -3.055  -0.376  0.00  0.00     0.062 A 
ATOM      7  F   UNL d   1       3.879  -3.416  -0.981  0.00  0.00    -0.097 F 
ATOM      8  F1  UNL d   1       3.876  -1.318   0.734  0.00  0.00    -0.096 F 
ATOM      9  I   UNL d   1       1.534   0.013   2.460  0.00  0.00    -0.060 I 
ATOM     10  F2  UNL d   1      -0.779  -1.966   1.472  0.00  0.00    -0.096 F 
ATOM     11  F3  UNL d   1      -0.744  -4.058  -0.247  0.00  0.00    -0.097 F 
ATOM     12  F4  UNL d   1       1.577  -4.792  -1.479  0.00  0.00    -0.092 F 
ENDROOT
TORSDOF 0
ENDMDL
