MODEL 1
REMARK minimizedAffinity 7.93884325
REMARK minimizedRMSD -1
REMARK  0 active torsions:
REMARK  status: ('A' for Active; 'I' for Inactive)
ROOT
ATOM      1  C   UNL d   1       2.173  -1.428   0.040  0.00  0.00     0.124 A 
ATOM      2  C1  UNL d   1       1.414  -0.455   0.676  0.00  0.00     0.062 A 
ATOM      3  C2  UNL d   1       0.069  -0.685   0.950  0.00  0.00     0.162 A 
ATOM      4  C3  UNL d   1      -0.526  -1.894   0.589  0.00  0.00    -0.034 A 
ATOM      5  C4  UNL d   1       0.243  -2.867  -0.051  0.00  0.00     0.162 A 
ATOM      6  C5  UNL d   1       1.587  -2.632  -0.323  0.00  0.00     0.062 A 
ATOM      7  F   UNL d   1       2.319  -3.573  -0.937  0.00  0.00    -0.097 F 
ATOM      8  F1  UNL d   1      -0.297  -4.041  -0.411  0.00  0.00    -0.096 F 
ATOM      9  I   UNL d   1      -2.537  -2.242   0.998  0.00  0.00    -0.060 I 
ATOM     10  F2  UNL d   1      -0.641   0.272   1.566  0.00  0.00    -0.096 F 
ATOM     11  F3  UNL d   1       1.977   0.710   1.027  0.00  0.00    -0.097 F 
ATOM     12  F4  UNL d   1       3.467  -1.203  -0.224  0.00  0.00    -0.092 F 
ENDROOT
TORSDOF 0
ENDMDL
