MODEL 1
REMARK minimizedAffinity -0.262346417
REMARK minimizedRMSD -1
REMARK  0 active torsions:
REMARK  status: ('A' for Active; 'I' for Inactive)
ROOT
ATOM      1  C   UNL d   1       0.683  -0.930   1.341  0.00  0.00     0.124 A 
ATOM      2  C1  UNL d   1       0.167  -2.056   0.715  0.00  0.00     0.062 A 
ATOM      3  C2  UNL d   1       1.022  -3.040   0.228  0.00  0.00     0.162 A 
ATOM      4  C3  UNL d   1       2.403  -2.904   0.366  0.00  0.00    -0.034 A 
ATOM      5  C4  UNL d   1       2.915  -1.768   0.996  0.00  0.00     0.162 A 
ATOM      6  C5  UNL d   1       2.056  -0.787   1.481  0.00  0.00     0.062 A 
ATOM      7  F   UNL d   1       2.557   0.300   2.086  0.00  0.00    -0.097 F 
ATOM      8  F1  UNL d   1       4.238  -1.605   1.145  0.00  0.00    -0.096 F 
ATOM      9  I   UNL d   1       3.685  -4.374  -0.361  0.00  0.00    -0.060 I 
ATOM     10  F2  UNL d   1       0.495  -4.118  -0.372  0.00  0.00    -0.096 F 
ATOM     11  F3  UNL d   1      -1.160  -2.196   0.578  0.00  0.00    -0.097 F 
ATOM     12  F4  UNL d   1      -0.142   0.016   1.808  0.00  0.00    -0.092 F 
ENDROOT
TORSDOF 0
ENDMDL
