MODEL 1
REMARK minimizedAffinity 5.79986477
REMARK minimizedRMSD -1
REMARK  0 active torsions:
REMARK  status: ('A' for Active; 'I' for Inactive)
ROOT
ATOM      1  C   UNL d   1       0.238  -0.702   0.856  0.00  0.00     0.124 A 
ATOM      2  C1  UNL d   1      -0.270  -1.936   0.475  0.00  0.00     0.062 A 
ATOM      3  C2  UNL d   1       0.588  -2.942   0.041  0.00  0.00     0.162 A 
ATOM      4  C3  UNL d   1       1.964  -2.719  -0.014  0.00  0.00    -0.034 A 
ATOM      5  C4  UNL d   1       2.467  -1.474   0.370  0.00  0.00     0.162 A 
ATOM      6  C5  UNL d   1       1.605  -0.472   0.803  0.00  0.00     0.062 A 
ATOM      7  F   UNL d   1       2.097   0.720   1.171  0.00  0.00    -0.097 F 
ATOM      8  F1  UNL d   1       3.784  -1.225   0.330  0.00  0.00    -0.096 F 
ATOM      9  I   UNL d   1       3.251  -4.220  -0.662  0.00  0.00    -0.060 I 
ATOM     10  F2  UNL d   1       0.070  -4.125  -0.322  0.00  0.00    -0.096 F 
ATOM     11  F3  UNL d   1      -1.591  -2.161   0.524  0.00  0.00    -0.097 F 
ATOM     12  F4  UNL d   1      -0.591   0.265   1.272  0.00  0.00    -0.092 F 
ENDROOT
TORSDOF 0
ENDMDL
