MODEL 1
REMARK minimizedAffinity 6.33712053
REMARK minimizedRMSD -1
REMARK  0 active torsions:
REMARK  status: ('A' for Active; 'I' for Inactive)
ROOT
ATOM      1  C   UNL d   1       3.654   0.388  -4.109  0.00  0.00     0.124 A 
ATOM      2  C1  UNL d   1       2.608   1.294  -4.211  0.00  0.00     0.062 A 
ATOM      3  C2  UNL d   1       2.698   2.539  -3.593  0.00  0.00     0.162 A 
ATOM      4  C3  UNL d   1       3.839   2.885  -2.869  0.00  0.00    -0.034 A 
ATOM      5  C4  UNL d   1       4.886   1.967  -2.771  0.00  0.00     0.162 A 
ATOM      6  C5  UNL d   1       4.792   0.725  -3.390  0.00  0.00     0.062 A 
ATOM      7  F   UNL d   1       5.804  -0.150  -3.290  0.00  0.00    -0.097 F 
ATOM      8  F1  UNL d   1       5.998   2.267  -2.083  0.00  0.00    -0.096 F 
ATOM      9  I   UNL d   1       3.977   4.744  -1.945  0.00  0.00    -0.060 I 
ATOM     10  F2  UNL d   1       1.672   3.395  -3.708  0.00  0.00    -0.096 F 
ATOM     11  F3  UNL d   1       1.507   0.971  -4.904  0.00  0.00    -0.097 F 
ATOM     12  F4  UNL d   1       3.565  -0.809  -4.703  0.00  0.00    -0.092 F 
ENDROOT
TORSDOF 0
ENDMDL
