MODEL 1
REMARK minimizedAffinity 5.58244133
REMARK minimizedRMSD -1
REMARK  0 active torsions:
REMARK  status: ('A' for Active; 'I' for Inactive)
ROOT
ATOM      1  C   UNL d   1       1.205  -2.354  -0.126  0.00  0.00     0.124 A 
ATOM      2  C1  UNL d   1       1.634  -1.083   0.229  0.00  0.00     0.062 A 
ATOM      3  C2  UNL d   1       0.803  -0.244   0.966  0.00  0.00     0.162 A 
ATOM      4  C3  UNL d   1      -0.465  -0.674   1.355  0.00  0.00    -0.034 A 
ATOM      5  C4  UNL d   1      -0.891  -1.954   0.993  0.00  0.00     0.162 A 
ATOM      6  C5  UNL d   1      -0.057  -2.788   0.257  0.00  0.00     0.062 A 
ATOM      7  F   UNL d   1      -0.473  -4.016  -0.085  0.00  0.00    -0.097 F 
ATOM      8  F1  UNL d   1      -2.104  -2.399   1.350  0.00  0.00    -0.096 F 
ATOM      9  I   UNL d   1      -1.711   0.578   2.457  0.00  0.00    -0.060 I 
ATOM     10  F2  UNL d   1       1.244   0.979   1.295  0.00  0.00    -0.096 F 
ATOM     11  F3  UNL d   1       2.852  -0.661  -0.139  0.00  0.00    -0.097 F 
ATOM     12  F4  UNL d   1       2.006  -3.159  -0.836  0.00  0.00    -0.092 F 
ENDROOT
TORSDOF 0
ENDMDL
