MODEL 1
REMARK minimizedAffinity 13.0218878
REMARK minimizedRMSD -1
REMARK  0 active torsions:
REMARK  status: ('A' for Active; 'I' for Inactive)
ROOT
ATOM      1  C   UNL d   1       1.017  -2.822  -0.205  0.00  0.00     0.124 A 
ATOM      2  C1  UNL d   1       1.730  -1.730   0.269  0.00  0.00     0.062 A 
ATOM      3  C2  UNL d   1       1.098  -0.768   1.052  0.00  0.00     0.162 A 
ATOM      4  C3  UNL d   1      -0.255  -0.894   1.367  0.00  0.00    -0.034 A 
ATOM      5  C4  UNL d   1      -0.965  -1.996   0.886  0.00  0.00     0.162 A 
ATOM      6  C5  UNL d   1      -0.330  -2.954   0.104  0.00  0.00     0.062 A 
ATOM      7  F   UNL d   1      -1.020  -4.009  -0.353  0.00  0.00    -0.097 F 
ATOM      8  F1  UNL d   1      -2.267  -2.148   1.170  0.00  0.00    -0.096 F 
ATOM      9  I   UNL d   1      -1.203   0.542   2.538  0.00  0.00    -0.060 I 
ATOM     10  F2  UNL d   1       1.812   0.277   1.496  0.00  0.00    -0.096 F 
ATOM     11  F3  UNL d   1       3.031  -1.600  -0.029  0.00  0.00    -0.097 F 
ATOM     12  F4  UNL d   1       1.627  -3.746  -0.959  0.00  0.00    -0.092 F 
ENDROOT
TORSDOF 0
ENDMDL
