MODEL 1
REMARK minimizedAffinity 11.8603802
REMARK minimizedRMSD -1
REMARK  0 active torsions:
REMARK  status: ('A' for Active; 'I' for Inactive)
ROOT
ATOM      1  C   UNL d   1       1.500  -2.682  -0.055  0.00  0.00     0.124 A 
ATOM      2  C1  UNL d   1       1.996  -1.536   0.550  0.00  0.00     0.062 A 
ATOM      3  C2  UNL d   1       1.130  -0.640   1.170  0.00  0.00     0.162 A 
ATOM      4  C3  UNL d   1      -0.243  -0.888   1.190  0.00  0.00    -0.034 A 
ATOM      5  C4  UNL d   1      -0.735  -2.043   0.578  0.00  0.00     0.162 A 
ATOM      6  C5  UNL d   1       0.135  -2.934  -0.041  0.00  0.00     0.062 A 
ATOM      7  F   UNL d   1      -0.346  -4.041  -0.625  0.00  0.00    -0.097 F 
ATOM      8  F1  UNL d   1      -2.049  -2.312   0.578  0.00  0.00    -0.096 F 
ATOM      9  I   UNL d   1      -1.542   0.448   2.116  0.00  0.00    -0.060 I 
ATOM     10  F2  UNL d   1       1.637   0.459   1.747  0.00  0.00    -0.096 F 
ATOM     11  F3  UNL d   1       3.314  -1.289   0.537  0.00  0.00    -0.097 F 
ATOM     12  F4  UNL d   1       2.336  -3.541  -0.653  0.00  0.00    -0.092 F 
ENDROOT
TORSDOF 0
ENDMDL
