MODEL 1
REMARK minimizedAffinity 3.91795754
REMARK minimizedRMSD -1
REMARK  0 active torsions:
REMARK  status: ('A' for Active; 'I' for Inactive)
ROOT
ATOM      1  C   UNL d   1       1.834  -2.669  -0.218  0.00  0.00     0.124 A 
ATOM      2  C1  UNL d   1       0.453  -2.809  -0.210  0.00  0.00     0.062 A 
ATOM      3  C2  UNL d   1      -0.349  -1.810   0.335  0.00  0.00     0.162 A 
ATOM      4  C3  UNL d   1       0.229  -0.661   0.876  0.00  0.00    -0.034 A 
ATOM      5  C4  UNL d   1       1.619  -0.528   0.866  0.00  0.00     0.162 A 
ATOM      6  C5  UNL d   1       2.415  -1.530   0.320  0.00  0.00     0.062 A 
ATOM      7  F   UNL d   1       3.749  -1.393   0.313  0.00  0.00    -0.097 F 
ATOM      8  F1  UNL d   1       2.207   0.563   1.377  0.00  0.00    -0.096 F 
ATOM      9  I   UNL d   1      -0.966   0.835   1.693  0.00  0.00    -0.060 I 
ATOM     10  F2  UNL d   1      -1.680  -1.971   0.330  0.00  0.00    -0.096 F 
ATOM     11  F3  UNL d   1      -0.111  -3.910  -0.727  0.00  0.00    -0.097 F 
ATOM     12  F4  UNL d   1       2.602  -3.633  -0.742  0.00  0.00    -0.092 F 
ENDROOT
TORSDOF 0
ENDMDL
