MODEL 1
REMARK minimizedAffinity 1.46290386
REMARK minimizedRMSD -1
REMARK  0 active torsions:
REMARK  status: ('A' for Active; 'I' for Inactive)
ROOT
ATOM      1  C   UNL d   1       1.449  -2.607  -0.189  0.00  0.00     0.124 A 
ATOM      2  C1  UNL d   1       1.908  -1.364   0.224  0.00  0.00     0.062 A 
ATOM      3  C2  UNL d   1       1.033  -0.454   0.811  0.00  0.00     0.162 A 
ATOM      4  C3  UNL d   1      -0.310  -0.785   0.990  0.00  0.00    -0.034 A 
ATOM      5  C4  UNL d   1      -0.765  -2.037   0.572  0.00  0.00     0.162 A 
ATOM      6  C5  UNL d   1       0.113  -2.942  -0.015  0.00  0.00     0.062 A 
ATOM      7  F   UNL d   1      -0.332  -4.143  -0.413  0.00  0.00    -0.097 F 
ATOM      8  F1  UNL d   1      -2.050  -2.387   0.729  0.00  0.00    -0.096 F 
ATOM      9  I   UNL d   1      -1.621   0.572   1.868  0.00  0.00    -0.060 I 
ATOM     10  F2  UNL d   1       1.504   0.740   1.201  0.00  0.00    -0.096 F 
ATOM     11  F3  UNL d   1       3.197  -1.037   0.056  0.00  0.00    -0.097 F 
ATOM     12  F4  UNL d   1       2.292  -3.480  -0.755  0.00  0.00    -0.092 F 
ENDROOT
TORSDOF 0
ENDMDL
