MODEL 1
REMARK minimizedAffinity 11.543704
REMARK minimizedRMSD -1
REMARK  0 active torsions:
REMARK  status: ('A' for Active; 'I' for Inactive)
ROOT
ATOM      1  C   UNL d   1      -0.983  -1.923   0.731  0.00  0.00     0.124 A 
ATOM      2  C1  UNL d   1      -0.342  -0.776   1.179  0.00  0.00     0.062 A 
ATOM      3  C2  UNL d   1       1.006  -0.573   0.900  0.00  0.00     0.162 A 
ATOM      4  C3  UNL d   1       1.723  -1.520   0.167  0.00  0.00    -0.034 A 
ATOM      5  C4  UNL d   1       1.072  -2.671  -0.279  0.00  0.00     0.162 A 
ATOM      6  C5  UNL d   1      -0.276  -2.869   0.003  0.00  0.00     0.062 A 
ATOM      7  F   UNL d   1      -0.893  -3.978  -0.430  0.00  0.00    -0.097 F 
ATOM      8  F1  UNL d   1       1.731  -3.601  -0.986  0.00  0.00    -0.096 F 
ATOM      9  I   UNL d   1       3.739  -1.220  -0.253  0.00  0.00    -0.060 I 
ATOM     10  F2  UNL d   1       1.600   0.544   1.345  0.00  0.00    -0.096 F 
ATOM     11  F3  UNL d   1      -1.023   0.139   1.884  0.00  0.00    -0.097 F 
ATOM     12  F4  UNL d   1      -2.280  -2.117   1.003  0.00  0.00    -0.092 F 
ENDROOT
TORSDOF 0
ENDMDL
