MODEL 1
REMARK minimizedAffinity 2.39562178
REMARK minimizedRMSD -1
REMARK  0 active torsions:
REMARK  status: ('A' for Active; 'I' for Inactive)
ROOT
ATOM      1  C   UNL d   1       0.170  -0.633   1.104  0.00  0.00     0.124 A 
ATOM      2  C1  UNL d   1       1.533  -0.440   0.932  0.00  0.00     0.062 A 
ATOM      3  C2  UNL d   1       2.309  -1.423   0.323  0.00  0.00     0.162 A 
ATOM      4  C3  UNL d   1       1.722  -2.608  -0.119  0.00  0.00    -0.034 A 
ATOM      5  C4  UNL d   1       0.350  -2.796   0.059  0.00  0.00     0.162 A 
ATOM      6  C5  UNL d   1      -0.421  -1.811   0.667  0.00  0.00     0.062 A 
ATOM      7  F   UNL d   1      -1.738  -2.000   0.833  0.00  0.00    -0.097 F 
ATOM      8  F1  UNL d   1      -0.247  -3.924  -0.355  0.00  0.00    -0.096 F 
ATOM      9  I   UNL d   1       2.877  -4.080  -1.029  0.00  0.00    -0.060 I 
ATOM     10  F2  UNL d   1       3.624  -1.209   0.170  0.00  0.00    -0.096 F 
ATOM     11  F3  UNL d   1       2.106   0.697   1.354  0.00  0.00    -0.097 F 
ATOM     12  F4  UNL d   1      -0.574   0.314   1.691  0.00  0.00    -0.092 F 
ENDROOT
TORSDOF 0
ENDMDL
