MODEL 1
REMARK minimizedAffinity 5.07566738
REMARK minimizedRMSD -1
REMARK  0 active torsions:
REMARK  status: ('A' for Active; 'I' for Inactive)
ROOT
ATOM      1  C   UNL d   1       0.135  -0.296   0.828  0.00  0.00     0.124 A 
ATOM      2  C1  UNL d   1       1.515  -0.157   0.766  0.00  0.00     0.062 A 
ATOM      3  C2  UNL d   1       2.309  -1.229   0.368  0.00  0.00     0.162 A 
ATOM      4  C3  UNL d   1       1.725  -2.449   0.026  0.00  0.00    -0.034 A 
ATOM      5  C4  UNL d   1       0.337  -2.581   0.092  0.00  0.00     0.162 A 
ATOM      6  C5  UNL d   1      -0.452  -1.507   0.491  0.00  0.00     0.062 A 
ATOM      7  F   UNL d   1      -1.785  -1.643   0.550  0.00  0.00    -0.097 F 
ATOM      8  F1  UNL d   1      -0.257  -3.740  -0.229  0.00  0.00    -0.096 F 
ATOM      9  I   UNL d   1       2.909  -4.053  -0.570  0.00  0.00    -0.060 I 
ATOM     10  F2  UNL d   1       3.639  -1.066   0.317  0.00  0.00    -0.096 F 
ATOM     11  F3  UNL d   1       2.085   1.011   1.092  0.00  0.00    -0.097 F 
ATOM     12  F4  UNL d   1      -0.626   0.736   1.213  0.00  0.00    -0.092 F 
ENDROOT
TORSDOF 0
ENDMDL
