MODEL 1
REMARK minimizedAffinity 9.45019913
REMARK minimizedRMSD -1
REMARK  0 active torsions:
REMARK  status: ('A' for Active; 'I' for Inactive)
ROOT
ATOM      1  C   UNL d   1      -0.264  -1.590   0.567  0.00  0.00     0.124 A 
ATOM      2  C1  UNL d   1       0.363  -0.520   1.191  0.00  0.00     0.062 A 
ATOM      3  C2  UNL d   1       1.752  -0.465   1.258  0.00  0.00     0.162 A 
ATOM      4  C3  UNL d   1       2.524  -1.483   0.699  0.00  0.00    -0.034 A 
ATOM      5  C4  UNL d   1       1.887  -2.556   0.075  0.00  0.00     0.162 A 
ATOM      6  C5  UNL d   1       0.498  -2.607   0.010  0.00  0.00     0.062 A 
ATOM      7  F   UNL d   1      -0.105  -3.642  -0.592  0.00  0.00    -0.097 F 
ATOM      8  F1  UNL d   1       2.600  -3.552  -0.473  0.00  0.00    -0.096 F 
ATOM      9  I   UNL d   1       4.602  -1.404   0.798  0.00  0.00    -0.060 I 
ATOM     10  F2  UNL d   1       2.330   0.581   1.866  0.00  0.00    -0.096 F 
ATOM     11  F3  UNL d   1      -0.372   0.463   1.730  0.00  0.00    -0.097 F 
ATOM     12  F4  UNL d   1      -1.601  -1.641   0.505  0.00  0.00    -0.092 F 
ENDROOT
TORSDOF 0
ENDMDL
