MODEL 1
REMARK minimizedAffinity 5.60425043
REMARK minimizedRMSD -1
REMARK  0 active torsions:
REMARK  status: ('A' for Active; 'I' for Inactive)
ROOT
ATOM      1  C   UNL d   1      -2.128   1.034   3.088  0.00  0.00     0.124 A 
ATOM      2  C1  UNL d   1      -1.087   0.373   3.725  0.00  0.00     0.062 A 
ATOM      3  C2  UNL d   1      -0.329  -0.569   3.035  0.00  0.00     0.162 A 
ATOM      4  C3  UNL d   1      -0.609  -0.855   1.699  0.00  0.00    -0.034 A 
ATOM      5  C4  UNL d   1      -1.658  -0.187   1.065  0.00  0.00     0.162 A 
ATOM      6  C5  UNL d   1      -2.413   0.753   1.759  0.00  0.00     0.062 A 
ATOM      7  F   UNL d   1      -3.419   1.391   1.142  0.00  0.00    -0.097 F 
ATOM      8  F1  UNL d   1      -1.955  -0.438  -0.219  0.00  0.00    -0.096 F 
ATOM      9  I   UNL d   1       0.522  -2.262   0.663  0.00  0.00    -0.060 I 
ATOM     10  F2  UNL d   1       0.672  -1.192   3.675  0.00  0.00    -0.096 F 
ATOM     11  F3  UNL d   1      -0.810   0.641   5.009  0.00  0.00    -0.097 F 
ATOM     12  F4  UNL d   1      -2.856   1.938   3.755  0.00  0.00    -0.092 F 
ENDROOT
TORSDOF 0
ENDMDL
