MODEL 1
REMARK minimizedAffinity 7.53447104
REMARK minimizedRMSD -1
REMARK  0 active torsions:
REMARK  status: ('A' for Active; 'I' for Inactive)
ROOT
ATOM      1  C   UNL d   1       1.099  -3.955  -0.390  0.00  0.00     0.124 A 
ATOM      2  C1  UNL d   1       2.467  -4.063  -0.598  0.00  0.00     0.062 A 
ATOM      3  C2  UNL d   1       3.328  -3.083  -0.113  0.00  0.00     0.162 A 
ATOM      4  C3  UNL d   1       2.824  -1.985   0.585  0.00  0.00    -0.034 A 
ATOM      5  C4  UNL d   1       1.447  -1.883   0.789  0.00  0.00     0.162 A 
ATOM      6  C5  UNL d   1       0.590  -2.865   0.303  0.00  0.00     0.062 A 
ATOM      7  F   UNL d   1      -0.731  -2.759   0.504  0.00  0.00    -0.097 F 
ATOM      8  F1  UNL d   1       0.928  -0.841   1.455  0.00  0.00    -0.096 F 
ATOM      9  I   UNL d   1       4.108  -0.517   1.310  0.00  0.00    -0.060 I 
ATOM     10  F2  UNL d   1       4.646  -3.213  -0.328  0.00  0.00    -0.096 F 
ATOM     11  F3  UNL d   1       2.961  -5.114  -1.267  0.00  0.00    -0.097 F 
ATOM     12  F4  UNL d   1       0.272  -4.899  -0.858  0.00  0.00    -0.092 F 
ENDROOT
TORSDOF 0
ENDMDL
