MODEL 1
REMARK minimizedAffinity 4.89261723
REMARK minimizedRMSD -1
REMARK  0 active torsions:
REMARK  status: ('A' for Active; 'I' for Inactive)
ROOT
ATOM      1  C   UNL d   1      -1.617  -3.158  -6.000  0.00  0.00     0.020 A 
ATOM      2  C1  UNL d   1      -0.770  -2.263  -5.346  0.00  0.00     0.020 A 
ATOM      3  C2  UNL d   1      -0.984  -1.956  -4.001  0.00  0.00     0.034 A 
ATOM      4  C3  UNL d   1      -2.046  -2.544  -3.305  0.00  0.00     0.017 A 
ATOM      5  C4  UNL d   1      -2.896  -3.442  -3.962  0.00  0.00     0.017 A 
ATOM      6  C5  UNL d   1      -2.677  -3.746  -5.309  0.00  0.00     0.034 A 
ATOM      7 Cl   UNL d   1      -4.228  -4.207  -3.169  0.00  0.00    -0.070 Cl
ATOM      8 Cl1  UNL d   1      -2.251  -2.118  -1.643  0.00  0.00    -0.070 Cl
ENDROOT
TORSDOF 0
ENDMDL
