MODEL 1
REMARK minimizedAffinity 13.0661879
REMARK minimizedRMSD -1
REMARK  0 active torsions:
REMARK  status: ('A' for Active; 'I' for Inactive)
ROOT
ATOM      1  C   UNL d   1      -2.480  -3.034  -6.000  0.00  0.00     0.020 A 
ATOM      2  C1  UNL d   1      -1.469  -2.223  -5.487  0.00  0.00     0.020 A 
ATOM      3  C2  UNL d   1      -1.381  -2.003  -4.111  0.00  0.00     0.034 A 
ATOM      4  C3  UNL d   1      -2.306  -2.595  -3.243  0.00  0.00     0.017 A 
ATOM      5  C4  UNL d   1      -3.320  -3.409  -3.759  0.00  0.00     0.017 A 
ATOM      6  C5  UNL d   1      -3.404  -3.626  -5.137  0.00  0.00     0.034 A 
ATOM      7 Cl   UNL d   1      -4.497  -4.174  -2.750  0.00  0.00    -0.070 Cl
ATOM      8 Cl1  UNL d   1      -2.137  -2.280  -1.552  0.00  0.00    -0.070 Cl
ENDROOT
TORSDOF 0
ENDMDL
