MODEL 1
REMARK minimizedAffinity 9.21133232
REMARK minimizedRMSD -1
REMARK  0 active torsions:
REMARK  status: ('A' for Active; 'I' for Inactive)
ROOT
ATOM      1  C   UNL d   1      -1.735  -1.827   2.062  0.00  0.00     0.020 A 
ATOM      2  C1  UNL d   1      -2.727  -1.345   1.209  0.00  0.00     0.020 A 
ATOM      3  C2  UNL d   1      -2.576  -1.462  -0.174  0.00  0.00     0.034 A 
ATOM      4  C3  UNL d   1      -1.431  -2.064  -0.709  0.00  0.00     0.017 A 
ATOM      5  C4  UNL d   1      -0.436  -2.548   0.148  0.00  0.00     0.017 A 
ATOM      6  C5  UNL d   1      -0.592  -2.427   1.532  0.00  0.00     0.034 A 
ATOM      7 Cl   UNL d   1       1.005  -3.302  -0.438  0.00  0.00    -0.070 Cl
ATOM      8 Cl1  UNL d   1      -1.311  -2.176  -2.429  0.00  0.00    -0.070 Cl
ENDROOT
TORSDOF 0
ENDMDL
