MODEL 1
REMARK minimizedAffinity 2.1501503
REMARK minimizedRMSD -1
REMARK  0 active torsions:
REMARK  status: ('A' for Active; 'I' for Inactive)
ROOT
ATOM      1  C   UNL d   1       3.680   1.863  -5.998  0.00  0.00     0.020 A 
ATOM      2  C1  UNL d   1       2.294   2.020  -5.998  0.00  0.00     0.020 A 
ATOM      3  C2  UNL d   1       1.737   3.300  -5.998  0.00  0.00     0.034 A 
ATOM      4  C3  UNL d   1       2.565   4.429  -5.998  0.00  0.00     0.017 A 
ATOM      5  C4  UNL d   1       3.956   4.270  -5.999  0.00  0.00     0.017 A 
ATOM      6  C5  UNL d   1       4.508   2.985  -5.999  0.00  0.00     0.034 A 
ATOM      7 Cl   UNL d   1       5.042   5.614  -6.000  0.00  0.00    -0.070 Cl
ATOM      8 Cl1  UNL d   1       1.807   5.981  -5.998  0.00  0.00    -0.070 Cl
ENDROOT
TORSDOF 0
ENDMDL
