MODEL 1
REMARK minimizedAffinity 5.76873684
REMARK minimizedRMSD -1
REMARK  0 active torsions:
REMARK  status: ('A' for Active; 'I' for Inactive)
ROOT
ATOM      1  C   UNL d   1      -1.565  -1.626  -1.897  0.00  0.00     0.020 A 
ATOM      2  C1  UNL d   1      -2.516  -1.338  -0.919  0.00  0.00     0.020 A 
ATOM      3  C2  UNL d   1      -2.280  -1.694   0.411  0.00  0.00     0.034 A 
ATOM      4  C3  UNL d   1      -1.090  -2.339   0.766  0.00  0.00     0.017 A 
ATOM      5  C4  UNL d   1      -0.136  -2.628  -0.216  0.00  0.00     0.017 A 
ATOM      6  C5  UNL d   1      -0.377  -2.270  -1.546  0.00  0.00     0.034 A 
ATOM      7 Cl   UNL d   1       1.356  -3.422   0.146  0.00  0.00    -0.070 Cl
ATOM      8 Cl1  UNL d   1      -0.865  -2.750   2.429  0.00  0.00    -0.070 Cl
ENDROOT
TORSDOF 0
ENDMDL
