MODEL 1
REMARK minimizedAffinity 4.31437397
REMARK minimizedRMSD -1
REMARK  0 active torsions:
REMARK  status: ('A' for Active; 'I' for Inactive)
ROOT
ATOM      1  C   UNL d   1       3.904   5.419  -5.287  0.00  0.00     0.020 A 
ATOM      2  C1  UNL d   1       2.636   5.999  -5.287  0.00  0.00     0.020 A 
ATOM      3  C2  UNL d   1       1.506   5.208  -5.510  0.00  0.00     0.034 A 
ATOM      4  C3  UNL d   1       1.643   3.833  -5.732  0.00  0.00     0.017 A 
ATOM      5  C4  UNL d   1       2.916   3.252  -5.732  0.00  0.00     0.017 A 
ATOM      6  C5  UNL d   1       4.043   4.048  -5.508  0.00  0.00     0.034 A 
ATOM      7 Cl   UNL d   1       3.164   1.562  -5.999  0.00  0.00    -0.070 Cl
ATOM      8 Cl1  UNL d   1       0.203   2.915  -6.000  0.00  0.00    -0.070 Cl
ENDROOT
TORSDOF 0
ENDMDL
