MODEL 1
REMARK minimizedAffinity 10.347064
REMARK minimizedRMSD -1
REMARK  0 active torsions:
REMARK  status: ('A' for Active; 'I' for Inactive)
ROOT
ATOM      1  C   UNL d   1       6.000   0.273  -4.117  0.00  0.00     0.020 A 
ATOM      2  C1  UNL d   1       5.652   0.101  -5.456  0.00  0.00     0.020 A 
ATOM      3  C2  UNL d   1       4.589   0.825  -6.000  0.00  0.00     0.034 A 
ATOM      4  C3  UNL d   1       3.871   1.725  -5.204  0.00  0.00     0.017 A 
ATOM      5  C4  UNL d   1       4.221   1.898  -3.861  0.00  0.00     0.017 A 
ATOM      6  C5  UNL d   1       5.286   1.170  -3.321  0.00  0.00     0.034 A 
ATOM      7 Cl   UNL d   1       3.382   2.991  -2.817  0.00  0.00    -0.070 Cl
ATOM      8 Cl1  UNL d   1       2.568   2.588  -5.943  0.00  0.00    -0.070 Cl
ENDROOT
TORSDOF 0
ENDMDL
