MODEL 1
REMARK minimizedAffinity 4.30495596
REMARK minimizedRMSD -1
REMARK  0 active torsions:
REMARK  status: ('A' for Active; 'I' for Inactive)
ROOT
ATOM      1  C   UNL d   1       1.903   5.288  -5.993  0.00  0.00     0.020 A 
ATOM      2  C1  UNL d   1       1.879   6.000  -4.794  0.00  0.00     0.020 A 
ATOM      3  C2  UNL d   1       2.239   5.370  -3.601  0.00  0.00     0.034 A 
ATOM      4  C3  UNL d   1       2.626   4.025  -3.604  0.00  0.00     0.017 A 
ATOM      5  C4  UNL d   1       2.650   3.311  -4.807  0.00  0.00     0.017 A 
ATOM      6  C5  UNL d   1       2.288   3.946  -5.999  0.00  0.00     0.034 A 
ATOM      7 Cl   UNL d   1       3.116   1.649  -4.890  0.00  0.00    -0.070 Cl
ATOM      8 Cl1  UNL d   1       3.060   3.310  -2.091  0.00  0.00    -0.070 Cl
ENDROOT
TORSDOF 0
ENDMDL
