MODEL 1
REMARK minimizedAffinity 9.94109058
REMARK minimizedRMSD -1
REMARK  0 active torsions:
REMARK  status: ('A' for Active; 'I' for Inactive)
ROOT
ATOM      1  C   UNL d   1      -2.107  -3.229  -5.999  0.00  0.00     0.020 A 
ATOM      2  C1  UNL d   1      -1.078  -2.399  -5.555  0.00  0.00     0.020 A 
ATOM      3  C2  UNL d   1      -0.982  -2.068  -4.202  0.00  0.00     0.034 A 
ATOM      4  C3  UNL d   1      -1.918  -2.567  -3.288  0.00  0.00     0.017 A 
ATOM      5  C4  UNL d   1      -2.950  -3.399  -3.734  0.00  0.00     0.017 A 
ATOM      6  C5  UNL d   1      -3.041  -3.728  -5.090  0.00  0.00     0.034 A 
ATOM      7 Cl   UNL d   1      -4.141  -4.053  -2.666  0.00  0.00    -0.070 Cl
ATOM      8 Cl1  UNL d   1      -1.739  -2.117  -1.629  0.00  0.00    -0.070 Cl
ENDROOT
TORSDOF 0
ENDMDL
