MODEL 1
REMARK minimizedAffinity 9.72323227
REMARK minimizedRMSD -1
REMARK  0 active torsions:
REMARK  status: ('A' for Active; 'I' for Inactive)
ROOT
ATOM      1  C   UNL d   1      -1.580  -2.007   2.921  0.00  0.00     0.020 A 
ATOM      2  C1  UNL d   1      -0.928  -1.901   1.693  0.00  0.00     0.020 A 
ATOM      3  C2  UNL d   1       0.076  -0.947   1.515  0.00  0.00     0.034 A 
ATOM      4  C3  UNL d   1       0.431  -0.095   2.567  0.00  0.00     0.017 A 
ATOM      5  C4  UNL d   1      -0.223  -0.201   3.799  0.00  0.00     0.017 A 
ATOM      6  C5  UNL d   1      -1.228  -1.159   3.972  0.00  0.00     0.034 A 
ATOM      7 Cl   UNL d   1       0.160   0.815   5.144  0.00  0.00    -0.070 Cl
ATOM      8 Cl1  UNL d   1       1.682   1.062   2.277  0.00  0.00    -0.070 Cl
ENDROOT
TORSDOF 0
ENDMDL
