MODEL 1
REMARK minimizedAffinity -2.15334463
REMARK minimizedRMSD -1
REMARK  0 active torsions:
REMARK  status: ('A' for Active; 'I' for Inactive)
ROOT
ATOM      1  C   UNL d   1       3.906   5.999  -5.647  0.00  0.00     0.020 A 
ATOM      2  C1  UNL d   1       4.944   5.068  -5.647  0.00  0.00     0.020 A 
ATOM      3  C2  UNL d   1       4.659   3.705  -5.756  0.00  0.00     0.034 A 
ATOM      4  C3  UNL d   1       3.333   3.270  -5.864  0.00  0.00     0.017 A 
ATOM      5  C4  UNL d   1       2.292   4.206  -5.864  0.00  0.00     0.017 A 
ATOM      6  C5  UNL d   1       2.583   5.569  -5.755  0.00  0.00     0.034 A 
ATOM      7 Cl   UNL d   1       0.631   3.745  -5.995  0.00  0.00    -0.070 Cl
ATOM      8 Cl1  UNL d   1       3.054   1.570  -5.996  0.00  0.00    -0.070 Cl
ENDROOT
TORSDOF 0
ENDMDL
