MODEL 1
REMARK minimizedAffinity -0.714164972
REMARK minimizedRMSD -1
REMARK  0 active torsions:
REMARK  status: ('A' for Active; 'I' for Inactive)
ROOT
ATOM      1  C   UNL d   1       1.161   4.646  -5.988  0.00  0.00     0.020 A 
ATOM      2  C1  UNL d   1       1.997   5.762  -5.996  0.00  0.00     0.020 A 
ATOM      3  C2  UNL d   1       3.384   5.595  -6.000  0.00  0.00     0.034 A 
ATOM      4  C3  UNL d   1       3.938   4.310  -5.995  0.00  0.00     0.017 A 
ATOM      5  C4  UNL d   1       3.097   3.191  -5.986  0.00  0.00     0.017 A 
ATOM      6  C5  UNL d   1       1.710   3.364  -5.983  0.00  0.00     0.034 A 
ATOM      7 Cl   UNL d   1       3.707   1.573  -5.980  0.00  0.00    -0.070 Cl
ATOM      8 Cl1  UNL d   1       5.661   4.177  -6.000  0.00  0.00    -0.070 Cl
ENDROOT
TORSDOF 0
ENDMDL
