MODEL 1
REMARK minimizedAffinity -1.26218653
REMARK minimizedRMSD -1
REMARK  0 active torsions:
REMARK  status: ('A' for Active; 'I' for Inactive)
ROOT
ATOM      1  C   UNL d   1       5.999   1.827  -4.964  0.00  0.00     0.020 A 
ATOM      2  C1  UNL d   1       5.612   3.167  -4.965  0.00  0.00     0.020 A 
ATOM      3  C2  UNL d   1       4.299   3.514  -5.288  0.00  0.00     0.034 A 
ATOM      4  C3  UNL d   1       3.367   2.520  -5.611  0.00  0.00     0.017 A 
ATOM      5  C4  UNL d   1       3.757   1.176  -5.610  0.00  0.00     0.017 A 
ATOM      6  C5  UNL d   1       5.074   0.834  -5.286  0.00  0.00     0.034 A 
ATOM      7 Cl   UNL d   1       2.664  -0.106  -5.998  0.00  0.00    -0.070 Cl
ATOM      8 Cl1  UNL d   1       1.760   3.021  -6.000  0.00  0.00    -0.070 Cl
ENDROOT
TORSDOF 0
ENDMDL
