MODEL 1
REMARK minimizedAffinity -3.1221633
REMARK minimizedRMSD -1
REMARK  0 active torsions:
REMARK  status: ('A' for Active; 'I' for Inactive)
ROOT
ATOM      1  C   UNL d   1       3.748   1.570  -5.946  0.00  0.00     0.020 A 
ATOM      2  C1  UNL d   1       5.096   1.521  -5.596  0.00  0.00     0.020 A 
ATOM      3  C2  UNL d   1       5.773   2.696  -5.260  0.00  0.00     0.034 A 
ATOM      4  C3  UNL d   1       5.101   3.924  -5.273  0.00  0.00     0.017 A 
ATOM      5  C4  UNL d   1       3.747   3.971  -5.626  0.00  0.00     0.017 A 
ATOM      6  C5  UNL d   1       3.075   2.792  -5.961  0.00  0.00     0.034 A 
ATOM      7 Cl   UNL d   1       2.851   5.448  -5.665  0.00  0.00    -0.070 Cl
ATOM      8 Cl1  UNL d   1       5.999   5.336  -4.846  0.00  0.00    -0.070 Cl
ENDROOT
TORSDOF 0
ENDMDL
