MODEL 1
REMARK minimizedAffinity 1.0972929
REMARK minimizedRMSD -1
REMARK  0 active torsions:
REMARK  status: ('A' for Active; 'I' for Inactive)
ROOT
ATOM      1  C   UNL d   1       5.984   3.591  -6.000  0.00  0.00     0.020 A 
ATOM      2  C1  UNL d   1       5.989   4.288  -4.793  0.00  0.00     0.020 A 
ATOM      3  C2  UNL d   1       5.992   3.590  -3.583  0.00  0.00     0.034 A 
ATOM      4  C3  UNL d   1       5.992   2.191  -3.578  0.00  0.00     0.017 A 
ATOM      5  C4  UNL d   1       5.988   1.491  -4.790  0.00  0.00     0.017 A 
ATOM      6  C5  UNL d   1       5.984   2.195  -5.999  0.00  0.00     0.034 A 
ATOM      7 Cl   UNL d   1       5.987  -0.235  -4.864  0.00  0.00    -0.070 Cl
ATOM      8 Cl1  UNL d   1       5.997   1.393  -2.045  0.00  0.00    -0.070 Cl
ENDROOT
TORSDOF 0
ENDMDL
