MODEL 1
REMARK minimizedAffinity -0.849638939
REMARK minimizedRMSD -1
REMARK  0 active torsions:
REMARK  status: ('A' for Active; 'I' for Inactive)
ROOT
ATOM      1  C   UNL d   1       2.030   2.332   1.317  0.00  0.00     0.020 A 
ATOM      2  C1  UNL d   1       1.850   1.079   1.902  0.00  0.00     0.020 A 
ATOM      3  C2  UNL d   1       2.958   0.299   2.238  0.00  0.00     0.034 A 
ATOM      4  C3  UNL d   1       4.252   0.771   1.989  0.00  0.00     0.017 A 
ATOM      5  C4  UNL d   1       4.432   2.028   1.402  0.00  0.00     0.017 A 
ATOM      6  C5  UNL d   1       3.319   2.805   1.068  0.00  0.00     0.034 A 
ATOM      7 Cl   UNL d   1       5.998   2.678   1.065  0.00  0.00    -0.070 Cl
ATOM      8 Cl1  UNL d   1       5.577  -0.247   2.431  0.00  0.00    -0.070 Cl
ENDROOT
TORSDOF 0
ENDMDL
