MODEL 1
REMARK minimizedAffinity -2.47646761
REMARK minimizedRMSD -1
REMARK  0 active torsions:
REMARK  status: ('A' for Active; 'I' for Inactive)
ROOT
ATOM      1  C   UNL d   1       1.674   4.230   0.263  0.00  0.00     0.124 A 
ATOM      2  C1  UNL d   1       2.736   3.344   0.387  0.00  0.00     0.062 A 
ATOM      3  C2  UNL d   1       2.502   1.972   0.426  0.00  0.00     0.162 A 
ATOM      4  C3  UNL d   1       1.201   1.477   0.340  0.00  0.00    -0.034 A 
ATOM      5  C4  UNL d   1       0.138   2.374   0.216  0.00  0.00     0.162 A 
ATOM      6  C5  UNL d   1       0.377   3.744   0.178  0.00  0.00     0.062 A 
ATOM      7  F   UNL d   1      -0.650   4.599   0.058  0.00  0.00    -0.097 F 
ATOM      8  F1  UNL d   1      -1.125   1.933   0.131  0.00  0.00    -0.096 F 
ATOM      9  I   UNL d   1       0.847  -0.573   0.398  0.00  0.00    -0.060 I 
ATOM     10  F2  UNL d   1       3.547   1.140   0.546  0.00  0.00    -0.096 F 
ATOM     11  F3  UNL d   1       3.990   3.810   0.470  0.00  0.00    -0.097 F 
ATOM     12  F4  UNL d   1       1.902   5.549   0.226  0.00  0.00    -0.092 F 
ENDROOT
TORSDOF 0
ENDMDL
