MODEL 1
REMARK minimizedAffinity 6.71519518
REMARK minimizedRMSD -1
REMARK  0 active torsions:
REMARK  status: ('A' for Active; 'I' for Inactive)
ROOT
ATOM      1  C   UNL d   1       0.793   1.644   0.974  0.00  0.00     0.124 A 
ATOM      2  C1  UNL d   1       1.792   0.778   0.550  0.00  0.00     0.062 A 
ATOM      3  C2  UNL d   1       3.026   1.277   0.144  0.00  0.00     0.162 A 
ATOM      4  C3  UNL d   1       3.270   2.651   0.162  0.00  0.00    -0.034 A 
ATOM      5  C4  UNL d   1       2.261   3.515   0.589  0.00  0.00     0.162 A 
ATOM      6  C5  UNL d   1       1.029   3.011   0.994  0.00  0.00     0.062 A 
ATOM      7  F   UNL d   1       0.066   3.850   1.403  0.00  0.00    -0.097 F 
ATOM      8  F1  UNL d   1       2.461   4.841   0.619  0.00  0.00    -0.096 F 
ATOM      9  I   UNL d   1       5.114   3.401  -0.444  0.00  0.00    -0.060 I 
ATOM     10  F2  UNL d   1       3.972   0.417  -0.261  0.00  0.00    -0.096 F 
ATOM     11  F3  UNL d   1       1.567  -0.544   0.529  0.00  0.00    -0.097 F 
ATOM     12  F4  UNL d   1      -0.393   1.161   1.363  0.00  0.00    -0.092 F 
ENDROOT
TORSDOF 0
ENDMDL
