MODEL 1
REMARK minimizedAffinity 13.078598
REMARK minimizedRMSD -1
REMARK  0 active torsions:
REMARK  status: ('A' for Active; 'I' for Inactive)
ROOT
ATOM      1  C   UNL d   1      -0.471   2.845   0.399  0.00  0.00     0.124 A 
ATOM      2  C1  UNL d   1       0.799   2.933  -0.154  0.00  0.00     0.062 A 
ATOM      3  C2  UNL d   1       1.613   1.806  -0.222  0.00  0.00     0.162 A 
ATOM      4  C3  UNL d   1       1.157   0.579   0.262  0.00  0.00    -0.034 A 
ATOM      5  C4  UNL d   1      -0.121   0.499   0.817  0.00  0.00     0.162 A 
ATOM      6  C5  UNL d   1      -0.930   1.628   0.883  0.00  0.00     0.062 A 
ATOM      7  F   UNL d   1      -2.157   1.541   1.417  0.00  0.00    -0.097 F 
ATOM      8  F1  UNL d   1      -0.590  -0.665   1.291  0.00  0.00    -0.096 F 
ATOM      9  I   UNL d   1       2.370  -1.109   0.161  0.00  0.00    -0.060 I 
ATOM     10  F2  UNL d   1       2.836   1.920  -0.761  0.00  0.00    -0.096 F 
ATOM     11  F3  UNL d   1       1.245   4.108  -0.622  0.00  0.00    -0.097 F 
ATOM     12  F4  UNL d   1      -1.251   3.932   0.465  0.00  0.00    -0.092 F 
ENDROOT
TORSDOF 0
ENDMDL
