MODEL 1
REMARK minimizedAffinity 19.2054195
REMARK minimizedRMSD -1
REMARK  0 active torsions:
REMARK  status: ('A' for Active; 'I' for Inactive)
ROOT
ATOM      1  C   UNL d   1      -2.276   2.293   1.313  0.00  0.00     0.124 A 
ATOM      2  C1  UNL d   1      -1.230   1.498   1.759  0.00  0.00     0.062 A 
ATOM      3  C2  UNL d   1      -1.321   0.111   1.679  0.00  0.00     0.162 A 
ATOM      4  C3  UNL d   1      -2.463  -0.490   1.150  0.00  0.00    -0.034 A 
ATOM      5  C4  UNL d   1      -3.512   0.317   0.705  0.00  0.00     0.162 A 
ATOM      6  C5  UNL d   1      -3.416   1.702   0.787  0.00  0.00     0.062 A 
ATOM      7  F   UNL d   1      -4.429   2.469   0.356  0.00  0.00    -0.097 F 
ATOM      8  F1  UNL d   1      -4.625  -0.228   0.191  0.00  0.00    -0.096 F 
ATOM      9  I   UNL d   1      -2.604  -2.563   1.029  0.00  0.00    -0.060 I 
ATOM     10  F2  UNL d   1      -0.294  -0.633   2.117  0.00  0.00    -0.096 F 
ATOM     11  F3  UNL d   1      -0.128   2.066   2.269  0.00  0.00    -0.097 F 
ATOM     12  F4  UNL d   1      -2.186   3.627   1.393  0.00  0.00    -0.092 F 
ENDROOT
TORSDOF 0
ENDMDL
