MODEL 1
REMARK minimizedAffinity 9.4060688
REMARK minimizedRMSD -1
REMARK  0 active torsions:
REMARK  status: ('A' for Active; 'I' for Inactive)
ROOT
ATOM      1  C   UNL d   1      -1.268   1.652   0.753  0.00  0.00     0.124 A 
ATOM      2  C1  UNL d   1      -0.673   2.905   0.716  0.00  0.00     0.062 A 
ATOM      3  C2  UNL d   1       0.712   3.026   0.785  0.00  0.00     0.162 A 
ATOM      4  C3  UNL d   1       1.512   1.888   0.891  0.00  0.00    -0.034 A 
ATOM      5  C4  UNL d   1       0.907   0.631   0.928  0.00  0.00     0.162 A 
ATOM      6  C5  UNL d   1      -0.477   0.516   0.859  0.00  0.00     0.062 A 
ATOM      7  F   UNL d   1      -1.050  -0.696   0.895  0.00  0.00    -0.097 F 
ATOM      8  F1  UNL d   1       1.647  -0.483   1.029  0.00  0.00    -0.096 F 
ATOM      9  I   UNL d   1       3.584   2.064   0.994  0.00  0.00    -0.060 I 
ATOM     10  F2  UNL d   1       1.259   4.250   0.748  0.00  0.00    -0.096 F 
ATOM     11  F3  UNL d   1      -1.435   4.004   0.615  0.00  0.00    -0.097 F 
ATOM     12  F4  UNL d   1      -2.601   1.539   0.688  0.00  0.00    -0.092 F 
ENDROOT
TORSDOF 0
ENDMDL
