MODEL 1
REMARK minimizedAffinity 18.9809303
REMARK minimizedRMSD -1
REMARK  0 active torsions:
REMARK  status: ('A' for Active; 'I' for Inactive)
ROOT
ATOM      1  C   UNL d   1       3.776   0.829   0.690  0.00  0.00     0.124 A 
ATOM      2  C1  UNL d   1       3.674   2.209   0.793  0.00  0.00     0.062 A 
ATOM      3  C2  UNL d   1       2.423   2.820   0.797  0.00  0.00     0.162 A 
ATOM      4  C3  UNL d   1       1.264   2.051   0.698  0.00  0.00    -0.034 A 
ATOM      5  C4  UNL d   1       1.375   0.663   0.593  0.00  0.00     0.162 A 
ATOM      6  C5  UNL d   1       2.627   0.057   0.590  0.00  0.00     0.062 A 
ATOM      7  F   UNL d   1       2.724  -1.276   0.491  0.00  0.00    -0.097 F 
ATOM      8  F1  UNL d   1       0.281  -0.106   0.497  0.00  0.00    -0.096 F 
ATOM      9  I   UNL d   1      -0.608   2.961   0.703  0.00  0.00    -0.060 I 
ATOM     10  F2  UNL d   1       2.355   4.156   0.898  0.00  0.00    -0.096 F 
ATOM     11  F3  UNL d   1       4.783   2.957   0.889  0.00  0.00    -0.097 F 
ATOM     12  F4  UNL d   1       4.981   0.244   0.686  0.00  0.00    -0.092 F 
ENDROOT
TORSDOF 0
ENDMDL
