MODEL 1
REMARK minimizedAffinity 7.10010338
REMARK minimizedRMSD -1
REMARK  0 active torsions:
REMARK  status: ('A' for Active; 'I' for Inactive)
ROOT
ATOM      1  C   UNL d   1      -0.491   1.413   0.683  0.00  0.00     0.124 A 
ATOM      2  C1  UNL d   1       0.311   0.286   0.789  0.00  0.00     0.062 A 
ATOM      3  C2  UNL d   1       1.697   0.412   0.801  0.00  0.00     0.162 A 
ATOM      4  C3  UNL d   1       2.290   1.671   0.707  0.00  0.00    -0.034 A 
ATOM      5  C4  UNL d   1       1.476   2.800   0.599  0.00  0.00     0.162 A 
ATOM      6  C5  UNL d   1       0.092   2.669   0.588  0.00  0.00     0.062 A 
ATOM      7  F   UNL d   1      -0.682   3.759   0.486  0.00  0.00    -0.097 F 
ATOM      8  F1  UNL d   1       2.013   4.026   0.507  0.00  0.00    -0.096 F 
ATOM      9  I   UNL d   1       4.362   1.864   0.724  0.00  0.00    -0.060 I 
ATOM     10  F2  UNL d   1       2.448  -0.695   0.904  0.00  0.00    -0.096 F 
ATOM     11  F3  UNL d   1      -0.250  -0.929   0.880  0.00  0.00    -0.097 F 
ATOM     12  F4  UNL d   1      -1.825   1.289   0.671  0.00  0.00    -0.092 F 
ENDROOT
TORSDOF 0
ENDMDL
