MODEL 1
REMARK minimizedAffinity 6.15299273
REMARK minimizedRMSD -1
REMARK  0 active torsions:
REMARK  status: ('A' for Active; 'I' for Inactive)
ROOT
ATOM      1  C   UNL d   1       2.740   1.626  -0.304  0.00  0.00     0.124 A 
ATOM      2  C1  UNL d   1       2.030   0.658   0.393  0.00  0.00     0.062 A 
ATOM      3  C2  UNL d   1       0.718   0.900   0.788  0.00  0.00     0.162 A 
ATOM      4  C3  UNL d   1       0.105   2.116   0.485  0.00  0.00    -0.034 A 
ATOM      5  C4  UNL d   1       0.825   3.085  -0.217  0.00  0.00     0.162 A 
ATOM      6  C5  UNL d   1       2.137   2.838  -0.609  0.00  0.00     0.062 A 
ATOM      7  F   UNL d   1       2.820   3.774  -1.283  0.00  0.00    -0.097 F 
ATOM      8  F1  UNL d   1       0.267   4.265  -0.525  0.00  0.00    -0.096 F 
ATOM      9  I   UNL d   1      -1.858   2.483   1.073  0.00  0.00    -0.060 I 
ATOM     10  F2  UNL d   1       0.056  -0.053   1.461  0.00  0.00    -0.096 F 
ATOM     11  F3  UNL d   1       2.611  -0.514   0.689  0.00  0.00    -0.097 F 
ATOM     12  F4  UNL d   1       4.003   1.390  -0.682  0.00  0.00    -0.092 F 
ENDROOT
TORSDOF 0
ENDMDL
