MODEL 1
REMARK minimizedAffinity 15.866106
REMARK minimizedRMSD -1
REMARK  0 active torsions:
REMARK  status: ('A' for Active; 'I' for Inactive)
ROOT
ATOM      1  C   UNL d   1       1.690  -0.769  -2.438  0.00  0.00     0.124 A 
ATOM      2  C1  UNL d   1       2.404   0.416  -2.542  0.00  0.00     0.062 A 
ATOM      3  C2  UNL d   1       2.830   1.080  -1.395  0.00  0.00     0.162 A 
ATOM      4  C3  UNL d   1       2.545   0.558  -0.133  0.00  0.00    -0.034 A 
ATOM      5  C4  UNL d   1       1.826  -0.634  -0.036  0.00  0.00     0.162 A 
ATOM      6  C5  UNL d   1       1.402  -1.293  -1.186  0.00  0.00     0.062 A 
ATOM      7  F   UNL d   1       0.712  -2.439  -1.083  0.00  0.00    -0.097 F 
ATOM      8  F1  UNL d   1       1.534  -1.163   1.161  0.00  0.00    -0.096 F 
ATOM      9  I   UNL d   1       3.181   1.547   1.584  0.00  0.00    -0.060 I 
ATOM     10  F2  UNL d   1       3.518   2.224  -1.526  0.00  0.00    -0.096 F 
ATOM     11  F3  UNL d   1       2.683   0.925  -3.751  0.00  0.00    -0.097 F 
ATOM     12  F4  UNL d   1       1.280  -1.405  -3.543  0.00  0.00    -0.092 F 
ENDROOT
TORSDOF 0
ENDMDL
