MODEL 1
REMARK minimizedAffinity 16.8825817
REMARK minimizedRMSD -1
REMARK  0 active torsions:
REMARK  status: ('A' for Active; 'I' for Inactive)
ROOT
ATOM      1  C   UNL d   1       2.254  -0.743  -1.515  0.00  0.00     0.124 A 
ATOM      2  C1  UNL d   1       2.286  -0.232  -0.225  0.00  0.00     0.062 A 
ATOM      3  C2  UNL d   1       1.504   0.869   0.112  0.00  0.00     0.162 A 
ATOM      4  C3  UNL d   1       0.683   1.467  -0.844  0.00  0.00    -0.034 A 
ATOM      5  C4  UNL d   1       0.657   0.948  -2.140  0.00  0.00     0.162 A 
ATOM      6  C5  UNL d   1       1.440  -0.153  -2.471  0.00  0.00     0.062 A 
ATOM      7  F   UNL d   1       1.408  -0.645  -3.718  0.00  0.00    -0.097 F 
ATOM      8  F1  UNL d   1      -0.122   1.499  -3.083  0.00  0.00    -0.096 F 
ATOM      9  I   UNL d   1      -0.488   3.114  -0.346  0.00  0.00    -0.060 I 
ATOM     10  F2  UNL d   1       1.555   1.342   1.366  0.00  0.00    -0.096 F 
ATOM     11  F3  UNL d   1       3.072  -0.800   0.701  0.00  0.00    -0.097 F 
ATOM     12  F4  UNL d   1       3.008  -1.803  -1.835  0.00  0.00    -0.092 F 
ENDROOT
TORSDOF 0
ENDMDL
