MODEL 1
REMARK minimizedAffinity 12.3995562
REMARK minimizedRMSD -1
REMARK  0 active torsions:
REMARK  status: ('A' for Active; 'I' for Inactive)
ROOT
ATOM      1  C   UNL d   1      -1.100   2.939   0.892  0.00  0.00     0.124 A 
ATOM      2  C1  UNL d   1       0.168   3.217   0.400  0.00  0.00     0.062 A 
ATOM      3  C2  UNL d   1       1.081   2.187   0.197  0.00  0.00     0.162 A 
ATOM      4  C3  UNL d   1       0.730   0.868   0.485  0.00  0.00    -0.034 A 
ATOM      5  C4  UNL d   1      -0.546   0.596   0.980  0.00  0.00     0.162 A 
ATOM      6  C5  UNL d   1      -1.456   1.630   1.181  0.00  0.00     0.062 A 
ATOM      7  F   UNL d   1      -2.680   1.359   1.656  0.00  0.00    -0.097 F 
ATOM      8  F1  UNL d   1      -0.917  -0.660   1.267  0.00  0.00    -0.096 F 
ATOM      9  I   UNL d   1       2.094  -0.675   0.183  0.00  0.00    -0.060 I 
ATOM     10  F2  UNL d   1       2.300   2.485  -0.279  0.00  0.00    -0.096 F 
ATOM     11  F3  UNL d   1       0.514   4.482   0.120  0.00  0.00    -0.097 F 
ATOM     12  F4  UNL d   1      -1.977   3.933   1.087  0.00  0.00    -0.092 F 
ENDROOT
TORSDOF 0
ENDMDL
