MODEL 1
REMARK minimizedAffinity 12.6473598
REMARK minimizedRMSD -1
REMARK  0 active torsions:
REMARK  status: ('A' for Active; 'I' for Inactive)
ROOT
ATOM      1  C   UNL d   1       2.783  -0.222   0.563  0.00  0.00     0.124 A 
ATOM      2  C1  UNL d   1       1.486  -0.716   0.585  0.00  0.00     0.062 A 
ATOM      3  C2  UNL d   1       0.408   0.154   0.723  0.00  0.00     0.162 A 
ATOM      4  C3  UNL d   1       0.623   1.527   0.838  0.00  0.00    -0.034 A 
ATOM      5  C4  UNL d   1       1.930   2.016   0.816  0.00  0.00     0.162 A 
ATOM      6  C5  UNL d   1       3.004   1.143   0.678  0.00  0.00     0.062 A 
ATOM      7  F   UNL d   1       4.256   1.622   0.656  0.00  0.00    -0.097 F 
ATOM      8  F1  UNL d   1       2.172   3.331   0.924  0.00  0.00    -0.096 F 
ATOM      9  I   UNL d   1      -0.986   2.831   1.045  0.00  0.00    -0.060 I 
ATOM     10  F2  UNL d   1      -0.834  -0.351   0.742  0.00  0.00    -0.096 F 
ATOM     11  F3  UNL d   1       1.270  -2.035   0.475  0.00  0.00    -0.097 F 
ATOM     12  F4  UNL d   1       3.818  -1.062   0.431  0.00  0.00    -0.092 F 
ENDROOT
TORSDOF 0
ENDMDL
