MODEL 1
REMARK minimizedAffinity 10.7180691
REMARK minimizedRMSD -1
REMARK  0 active torsions:
REMARK  status: ('A' for Active; 'I' for Inactive)
ROOT
ATOM      1  C   UNL d   1       2.648   3.037   0.070  0.00  0.00     0.124 A 
ATOM      2  C1  UNL d   1       1.756   4.073  -0.174  0.00  0.00     0.062 A 
ATOM      3  C2  UNL d   1       0.388   3.868  -0.023  0.00  0.00     0.162 A 
ATOM      4  C3  UNL d   1      -0.098   2.623   0.375  0.00  0.00    -0.034 A 
ATOM      5  C4  UNL d   1       0.805   1.586   0.618  0.00  0.00     0.162 A 
ATOM      6  C5  UNL d   1       2.172   1.796   0.466  0.00  0.00     0.062 A 
ATOM      7  F   UNL d   1       3.032   0.794   0.703  0.00  0.00    -0.097 F 
ATOM      8  F1  UNL d   1       0.372   0.376   1.003  0.00  0.00    -0.096 F 
ATOM      9  I   UNL d   1      -2.143   2.313   0.602  0.00  0.00    -0.060 I 
ATOM     10  F2  UNL d   1      -0.451   4.886  -0.266  0.00  0.00    -0.096 F 
ATOM     11  F3  UNL d   1       2.214   5.273  -0.558  0.00  0.00    -0.097 F 
ATOM     12  F4  UNL d   1       3.964   3.237  -0.077  0.00  0.00    -0.092 F 
ENDROOT
TORSDOF 0
ENDMDL
