MODEL 1
REMARK minimizedAffinity 21.244236
REMARK minimizedRMSD -1
REMARK  0 active torsions:
REMARK  status: ('A' for Active; 'I' for Inactive)
ROOT
ATOM      1  C   UNL d   1      -0.592   1.395   1.884  0.00  0.00     0.124 A 
ATOM      2  C1  UNL d   1      -0.024   2.638   1.643  0.00  0.00     0.062 A 
ATOM      3  C2  UNL d   1       1.220   2.731   1.026  0.00  0.00     0.162 A 
ATOM      4  C3  UNL d   1       1.904   1.577   0.644  0.00  0.00    -0.034 A 
ATOM      5  C4  UNL d   1       1.327   0.330   0.891  0.00  0.00     0.162 A 
ATOM      6  C5  UNL d   1       0.084   0.242   1.508  0.00  0.00     0.062 A 
ATOM      7  F   UNL d   1      -0.464  -0.960   1.741  0.00  0.00    -0.097 F 
ATOM      8  F1  UNL d   1       1.958  -0.799   0.537  0.00  0.00    -0.096 F 
ATOM      9  I   UNL d   1       3.765   1.712  -0.279  0.00  0.00    -0.060 I 
ATOM     10  F2  UNL d   1       1.745   3.946   0.805  0.00  0.00    -0.096 F 
ATOM     11  F3  UNL d   1      -0.675   3.753   2.006  0.00  0.00    -0.097 F 
ATOM     12  F4  UNL d   1      -1.789   1.308   2.479  0.00  0.00    -0.092 F 
ENDROOT
TORSDOF 0
ENDMDL
