MODEL 1
REMARK minimizedAffinity 18.4984207
REMARK minimizedRMSD -1
REMARK  0 active torsions:
REMARK  status: ('A' for Active; 'I' for Inactive)
ROOT
ATOM      1  C   UNL d   1       3.004   2.429  -0.037  0.00  0.00     0.124 A 
ATOM      2  C1  UNL d   1       2.356   3.576  -0.474  0.00  0.00     0.062 A 
ATOM      3  C2  UNL d   1       0.978   3.703  -0.320  0.00  0.00     0.162 A 
ATOM      4  C3  UNL d   1       0.239   2.679   0.274  0.00  0.00    -0.034 A 
ATOM      5  C4  UNL d   1       0.898   1.529   0.710  0.00  0.00     0.162 A 
ATOM      6  C5  UNL d   1       2.275   1.407   0.554  0.00  0.00     0.062 A 
ATOM      7  F   UNL d   1       2.900   0.298   0.977  0.00  0.00    -0.097 F 
ATOM      8  F1  UNL d   1       0.219   0.526   1.286  0.00  0.00    -0.096 F 
ATOM      9  I   UNL d   1      -1.821   2.865   0.506  0.00  0.00    -0.060 I 
ATOM     10  F2  UNL d   1       0.378   4.822  -0.751  0.00  0.00    -0.096 F 
ATOM     11  F3  UNL d   1       3.057   4.565  -1.046  0.00  0.00    -0.097 F 
ATOM     12  F4  UNL d   1       4.330   2.309  -0.187  0.00  0.00    -0.092 F 
ENDROOT
TORSDOF 0
ENDMDL
