MODEL 1
REMARK minimizedAffinity 13.5742474
REMARK minimizedRMSD -1
REMARK  0 active torsions:
REMARK  status: ('A' for Active; 'I' for Inactive)
ROOT
ATOM      1  C   UNL d   1      -0.341   2.107   1.586  0.00  0.00     0.124 A 
ATOM      2  C1  UNL d   1      -0.717   0.838   2.003  0.00  0.00     0.062 A 
ATOM      3  C2  UNL d   1      -0.108  -0.288   1.455  0.00  0.00     0.162 A 
ATOM      4  C3  UNL d   1       0.884  -0.149   0.485  0.00  0.00    -0.034 A 
ATOM      5  C4  UNL d   1       1.257   1.130   0.070  0.00  0.00     0.162 A 
ATOM      6  C5  UNL d   1       0.645   2.252   0.621  0.00  0.00     0.062 A 
ATOM      7  F   UNL d   1       1.010   3.478   0.217  0.00  0.00    -0.097 F 
ATOM      8  F1  UNL d   1       2.208   1.300  -0.860  0.00  0.00    -0.096 F 
ATOM      9  I   UNL d   1       1.797  -1.830  -0.335  0.00  0.00    -0.060 I 
ATOM     10  F2  UNL d   1      -0.492  -1.502   1.877  0.00  0.00    -0.096 F 
ATOM     11  F3  UNL d   1      -1.671   0.695   2.934  0.00  0.00    -0.097 F 
ATOM     12  F4  UNL d   1      -0.929   3.188   2.113  0.00  0.00    -0.092 F 
ENDROOT
TORSDOF 0
ENDMDL
