MODEL 1
REMARK minimizedAffinity 13.4203758
REMARK minimizedRMSD -1
REMARK  0 active torsions:
REMARK  status: ('A' for Active; 'I' for Inactive)
ROOT
ATOM      1  C   UNL d   1      -1.130  -4.374  -1.595  0.00  0.00     0.023 A 
ATOM      2  C1  UNL d   1      -0.692  -5.513  -2.269  0.00  0.00     0.003 A 
ATOM      3  C2  UNL d   1      -1.391  -5.978  -3.385  0.00  0.00     0.048 A 
ATOM      4  C3  UNL d   1      -2.526  -5.297  -3.822  0.00  0.00     0.023 A 
ATOM      5  C4  UNL d   1      -2.968  -4.156  -3.151  0.00  0.00     0.048 A 
ATOM      6  C5  UNL d   1      -2.267  -3.696  -2.035  0.00  0.00     0.003 A 
ATOM      7  I   UNL d   1      -3.568  -5.986  -5.483  0.00  0.00    -0.146 I 
ENDROOT
TORSDOF 0
ENDMDL
