MODEL 1
REMARK minimizedAffinity 2.17429924
REMARK minimizedRMSD -1
REMARK  0 active torsions:
REMARK  status: ('A' for Active; 'I' for Inactive)
ROOT
ATOM      1  C   UNL d   1       6.000   0.033  -0.717  0.00  0.00     0.023 A 
ATOM      2  C1  UNL d   1       5.498   1.333  -0.789  0.00  0.00     0.003 A 
ATOM      3  C2  UNL d   1       4.132   1.566  -0.616  0.00  0.00     0.048 A 
ATOM      4  C3  UNL d   1       3.274   0.495  -0.368  0.00  0.00     0.023 A 
ATOM      5  C4  UNL d   1       3.772  -0.807  -0.294  0.00  0.00     0.048 A 
ATOM      6  C5  UNL d   1       5.138  -1.035  -0.469  0.00  0.00     0.003 A 
ATOM      7  I   UNL d   1       1.241   0.839  -0.109  0.00  0.00    -0.146 I 
ENDROOT
TORSDOF 0
ENDMDL
