MODEL 1
REMARK minimizedAffinity 3.79195356
REMARK minimizedRMSD -1
REMARK  0 active torsions:
REMARK  status: ('A' for Active; 'I' for Inactive)
ROOT
ATOM      1  C   UNL d   1       1.055  -3.382  -1.484  0.00  0.00     0.023 A 
ATOM      2  C1  UNL d   1       2.438  -3.486  -1.337  0.00  0.00     0.003 A 
ATOM      3  C2  UNL d   1       3.196  -2.355  -1.027  0.00  0.00     0.048 A 
ATOM      4  C3  UNL d   1       2.563  -1.123  -0.864  0.00  0.00     0.023 A 
ATOM      5  C4  UNL d   1       1.179  -1.014  -1.009  0.00  0.00     0.048 A 
ATOM      6  C5  UNL d   1       0.426  -2.148  -1.320  0.00  0.00     0.003 A 
ATOM      7  I   UNL d   1       3.689   0.562  -0.402  0.00  0.00    -0.146 I 
ENDROOT
TORSDOF 0
ENDMDL
