MODEL 1
REMARK minimizedAffinity 15.3092184
REMARK minimizedRMSD -1
REMARK  0 active torsions:
REMARK  status: ('A' for Active; 'I' for Inactive)
ROOT
ATOM      1  C   UNL d   1      -1.470  -4.121  -1.497  0.00  0.00     0.023 A 
ATOM      2  C1  UNL d   1      -0.831  -5.253  -2.000  0.00  0.00     0.003 A 
ATOM      3  C2  UNL d   1      -1.228  -5.794  -3.225  0.00  0.00     0.048 A 
ATOM      4  C3  UNL d   1      -2.264  -5.197  -3.941  0.00  0.00     0.023 A 
ATOM      5  C4  UNL d   1      -2.907  -4.063  -3.441  0.00  0.00     0.048 A 
ATOM      6  C5  UNL d   1      -2.507  -3.526  -2.216  0.00  0.00     0.003 A 
ATOM      7  I   UNL d   1      -2.857  -6.000  -5.764  0.00  0.00    -0.146 I 
ENDROOT
TORSDOF 0
ENDMDL
