MODEL 1
REMARK minimizedAffinity 8.24293709
REMARK minimizedRMSD -1
REMARK  0 active torsions:
REMARK  status: ('A' for Active; 'I' for Inactive)
ROOT
ATOM      1  C   UNL d   1       5.669   1.451  -0.750  0.00  0.00     0.023 A 
ATOM      2  C1  UNL d   1       6.000   0.354   0.045  0.00  0.00     0.003 A 
ATOM      3  C2  UNL d   1       5.149  -0.752   0.102  0.00  0.00     0.048 A 
ATOM      4  C3  UNL d   1       3.968  -0.754  -0.640  0.00  0.00     0.023 A 
ATOM      5  C4  UNL d   1       3.633   0.341  -1.438  0.00  0.00     0.048 A 
ATOM      6  C5  UNL d   1       4.486   1.445  -1.490  0.00  0.00     0.003 A 
ATOM      7  I   UNL d   1       2.699  -2.398  -0.557  0.00  0.00    -0.146 I 
ENDROOT
TORSDOF 0
ENDMDL
