MODEL 1
REMARK minimizedAffinity 7.43347359
REMARK minimizedRMSD -1
REMARK  0 active torsions:
REMARK  status: ('A' for Active; 'I' for Inactive)
ROOT
ATOM      1  C   UNL d   1       1.537  -3.604  -1.078  0.00  0.00     0.023 A 
ATOM      2  C1  UNL d   1       1.801  -2.989   0.146  0.00  0.00     0.003 A 
ATOM      3  C2  UNL d   1       2.647  -1.880   0.203  0.00  0.00     0.048 A 
ATOM      4  C3  UNL d   1       3.225  -1.390  -0.967  0.00  0.00     0.023 A 
ATOM      5  C4  UNL d   1       2.964  -2.001  -2.194  0.00  0.00     0.048 A 
ATOM      6  C5  UNL d   1       2.118  -3.111  -2.247  0.00  0.00     0.003 A 
ATOM      7  I   UNL d   1       4.485   0.261  -0.884  0.00  0.00    -0.146 I 
ENDROOT
TORSDOF 0
ENDMDL
