MODEL 1
REMARK minimizedAffinity 12.6077709
REMARK minimizedRMSD -1
REMARK  0 active torsions:
REMARK  status: ('A' for Active; 'I' for Inactive)
ROOT
ATOM      1  C   UNL d   1       0.570  -2.415   3.016  0.00  0.00     0.023 A 
ATOM      2  C1  UNL d   1      -0.340  -3.406   3.384  0.00  0.00     0.003 A 
ATOM      3  C2  UNL d   1       0.055  -4.436   4.240  0.00  0.00     0.048 A 
ATOM      4  C3  UNL d   1       1.362  -4.468   4.725  0.00  0.00     0.023 A 
ATOM      5  C4  UNL d   1       2.276  -3.478   4.361  0.00  0.00     0.048 A 
ATOM      6  C5  UNL d   1       1.876  -2.451   3.504  0.00  0.00     0.003 A 
ATOM      7  I   UNL d   1       1.953  -6.000   6.000  0.00  0.00    -0.146 I 
ENDROOT
TORSDOF 0
ENDMDL
