MODEL 1
REMARK minimizedAffinity -2.92305541
REMARK minimizedRMSD -1
REMARK  0 active torsions:
REMARK  status: ('A' for Active; 'I' for Inactive)
ROOT
ATOM      1  C4' PXY d   1      -2.111   0.272  -1.776  0.00  0.00     0.077 C 
ATOM      2  C1' PXY d   1       2.317   0.562   1.928  0.00  0.00     0.077 C 
ATOM      3  C1  PXY d   1       1.156   0.473   0.958  0.00  0.00    -0.082 A 
ATOM      4  C2  PXY d   1       0.920   1.475   0.126  0.00  0.00     0.003 A 
ATOM      5  C3  PXY d   1      -0.145   1.425  -0.736  0.00  0.00     0.003 A 
ATOM      6  C4  PXY d   1      -0.945   0.314  -0.785  0.00  0.00    -0.082 A 
ATOM      7  C5  PXY d   1      -0.704  -0.717   0.053  0.00  0.00     0.003 A 
ATOM      8  C6  PXY d   1       0.357  -0.628   0.949  0.00  0.00     0.003 A 
ENDROOT
TORSDOF 0
ENDMDL
