MODEL 1
REMARK minimizedAffinity -1.6511513
REMARK minimizedRMSD -1
REMARK  0 active torsions:
REMARK  status: ('A' for Active; 'I' for Inactive)
ROOT
ATOM      1  C4' PXY d   1      -2.617   0.011  -1.568  0.00  0.00     0.077 C 
ATOM      2  C1' PXY d   1       2.290   0.612   1.428  0.00  0.00     0.077 C 
ATOM      3  C1  PXY d   1       1.002   0.442   0.646  0.00  0.00    -0.082 A 
ATOM      4  C2  PXY d   1       0.754   1.232  -0.385  0.00  0.00     0.003 A 
ATOM      5  C3  PXY d   1      -0.420   1.114  -1.084  0.00  0.00     0.003 A 
ATOM      6  C4  PXY d   1      -1.326   0.140  -0.756  0.00  0.00    -0.082 A 
ATOM      7  C5  PXY d   1      -1.075  -0.677   0.288  0.00  0.00     0.003 A 
ATOM      8  C6  PXY d   1       0.104  -0.513   1.010  0.00  0.00     0.003 A 
ENDROOT
TORSDOF 0
ENDMDL
