MODEL 1
REMARK minimizedAffinity -4.70755339
REMARK minimizedRMSD -1
REMARK  0 active torsions:
REMARK  status: ('A' for Active; 'I' for Inactive)
ROOT
ATOM      1  C4' PXY d   1      -2.588  -0.579  -3.000  0.00  0.00     0.077 C 
ATOM      2  C1' PXY d   1       1.522   1.162   0.672  0.00  0.00     0.077 C 
ATOM      3  C1  PXY d   1       0.451   0.711  -0.301  0.00  0.00    -0.082 A 
ATOM      4  C2  PXY d   1      -0.785   0.521   0.130  0.00  0.00     0.003 A 
ATOM      5  C3  PXY d   1      -1.759   0.082  -0.730  0.00  0.00     0.003 A 
ATOM      6  C4  PXY d   1      -1.477  -0.114  -2.055  0.00  0.00    -0.082 A 
ATOM      7  C5  PXY d   1      -0.220   0.088  -2.504  0.00  0.00     0.003 A 
ATOM      8  C6  PXY d   1       0.764   0.494  -1.607  0.00  0.00     0.003 A 
ENDROOT
TORSDOF 0
ENDMDL
