MODEL 1
REMARK minimizedAffinity -4.41698742
REMARK minimizedRMSD -1
REMARK  0 active torsions:
REMARK  status: ('A' for Active; 'I' for Inactive)
ROOT
ATOM      1  C4' PXY d   1       1.356   0.717   0.618  0.00  0.00     0.077 C 
ATOM      2  C1' PXY d   1      -2.788  -0.199  -3.307  0.00  0.00     0.077 C 
ATOM      3  C1  PXY d   1      -1.693   0.036  -2.285  0.00  0.00    -0.082 A 
ATOM      4  C2  PXY d   1      -2.008   0.175  -1.008  0.00  0.00     0.003 A 
ATOM      5  C3  PXY d   1      -1.033   0.419  -0.075  0.00  0.00     0.003 A 
ATOM      6  C4  PXY d   1       0.284   0.469  -0.447  0.00  0.00    -0.082 A 
ATOM      7  C5  PXY d   1       0.615   0.318  -1.747  0.00  0.00     0.003 A 
ATOM      8  C6  PXY d   1      -0.394   0.112  -2.683  0.00  0.00     0.003 A 
ENDROOT
TORSDOF 0
ENDMDL
