MODEL 1
REMARK minimizedAffinity -0.415553153
REMARK minimizedRMSD -1
REMARK  0 active torsions:
REMARK  status: ('A' for Active; 'I' for Inactive)
ROOT
ATOM      1  C4' PXY d   1      -2.442   0.061  -1.537  0.00  0.00     0.077 C 
ATOM      2  C1' PXY d   1       2.553   1.095   1.181  0.00  0.00     0.077 C 
ATOM      3  C1  PXY d   1       1.246   0.811   0.469  0.00  0.00    -0.082 A 
ATOM      4  C2  PXY d   1       0.680   1.759  -0.262  0.00  0.00     0.003 A 
ATOM      5  C3  PXY d   1      -0.519   1.529  -0.887  0.00  0.00     0.003 A 
ATOM      6  C4  PXY d   1      -1.118   0.300  -0.807  0.00  0.00    -0.082 A 
ATOM      7  C5  PXY d   1      -0.541  -0.675  -0.073  0.00  0.00     0.003 A 
ATOM      8  C6  PXY d   1       0.655  -0.408   0.588  0.00  0.00     0.003 A 
ENDROOT
TORSDOF 0
ENDMDL
