MODEL 1
REMARK minimizedAffinity -1.79645681
REMARK minimizedRMSD -1
REMARK  0 active torsions:
REMARK  status: ('A' for Active; 'I' for Inactive)
ROOT
ATOM      1  C4' PXY d   1       2.746  -0.187   1.260  0.00  0.00     0.077 C 
ATOM      2  C1' PXY d   1      -2.398   0.848  -1.164  0.00  0.00     0.077 C 
ATOM      3  C1  PXY d   1      -1.053   0.565  -0.524  0.00  0.00    -0.082 A 
ATOM      4  C2  PXY d   1      -0.279   1.573  -0.155  0.00  0.00     0.003 A 
ATOM      5  C3  PXY d   1       0.954   1.335   0.395  0.00  0.00     0.003 A 
ATOM      6  C4  PXY d   1       1.377   0.052   0.619  0.00  0.00    -0.082 A 
ATOM      7  C5  PXY d   1       0.588  -0.982   0.256  0.00  0.00     0.003 A 
ATOM      8  C6  PXY d   1      -0.642  -0.719  -0.340  0.00  0.00     0.003 A 
ENDROOT
TORSDOF 0
ENDMDL
