MODEL 1
REMARK minimizedAffinity -2.41614175
REMARK minimizedRMSD -1
REMARK  0 active torsions:
REMARK  status: ('A' for Active; 'I' for Inactive)
ROOT
ATOM      1  C4' PXY d   1       2.460   2.344   3.091  0.00  0.00     0.077 C 
ATOM      2  C1' PXY d   1      -0.932  -0.068  -0.921  0.00  0.00     0.077 C 
ATOM      3  C1  PXY d   1      -0.036   0.553   0.133  0.00  0.00    -0.082 A 
ATOM      4  C2  PXY d   1      -0.434   1.643   0.769  0.00  0.00     0.003 A 
ATOM      5  C3  PXY d   1       0.377   2.236   1.702  0.00  0.00     0.003 A 
ATOM      6  C4  PXY d   1       1.584   1.678   2.026  0.00  0.00    -0.082 A 
ATOM      7  C5  PXY d   1       1.992   0.560   1.389  0.00  0.00     0.003 A 
ATOM      8  C6  PXY d   1       1.172  -0.004   0.415  0.00  0.00     0.003 A 
ENDROOT
TORSDOF 0
ENDMDL
