MODEL 1
REMARK minimizedAffinity -3.88505912
REMARK minimizedRMSD -1
REMARK  0 active torsions:
REMARK  status: ('A' for Active; 'I' for Inactive)
ROOT
ATOM      1  C4' PXY d   1      -2.173   0.247  -1.642  0.00  0.00     0.077 C 
ATOM      2  C1' PXY d   1       2.679   0.411   1.496  0.00  0.00     0.077 C 
ATOM      3  C1  PXY d   1       1.406   0.355   0.675  0.00  0.00    -0.082 A 
ATOM      4  C2  PXY d   1       1.164   1.297  -0.223  0.00  0.00     0.003 A 
ATOM      5  C3  PXY d   1       0.003   1.279  -0.951  0.00  0.00     0.003 A 
ATOM      6  C4  PXY d   1      -0.896   0.258  -0.797  0.00  0.00    -0.082 A 
ATOM      7  C5  PXY d   1      -0.652  -0.712   0.109  0.00  0.00     0.003 A 
ATOM      8  C6  PXY d   1       0.513  -0.653   0.868  0.00  0.00     0.003 A 
ENDROOT
TORSDOF 0
ENDMDL
