MODEL 1
REMARK minimizedAffinity -1.24147367
REMARK minimizedRMSD -1
REMARK  0 active torsions:
REMARK  status: ('A' for Active; 'I' for Inactive)
ROOT
ATOM      1  C4' PXY d   1      -2.811   0.749  -1.601  0.00  0.00     0.077 C 
ATOM      2  C1' PXY d   1       2.025   0.313   1.535  0.00  0.00     0.077 C 
ATOM      3  C1  PXY d   1       0.757   0.415   0.710  0.00  0.00    -0.082 A 
ATOM      4  C2  PXY d   1       0.428   1.570   0.157  0.00  0.00     0.003 A 
ATOM      5  C3  PXY d   1      -0.732   1.688  -0.566  0.00  0.00     0.003 A 
ATOM      6  C4  PXY d   1      -1.535   0.598  -0.768  0.00  0.00    -0.082 A 
ATOM      7  C5  PXY d   1      -1.201  -0.587  -0.216  0.00  0.00     0.003 A 
ATOM      8  C6  PXY d   1      -0.041  -0.676   0.548  0.00  0.00     0.003 A 
ENDROOT
TORSDOF 0
ENDMDL
