MODEL 1
REMARK minimizedAffinity -4.42607355
REMARK minimizedRMSD -1
REMARK  0 active torsions:
REMARK  status: ('A' for Active; 'I' for Inactive)
ROOT
ATOM      1  C4' PXY d   1       2.297  -0.104   1.357  0.00  0.00     0.077 C 
ATOM      2  C1' PXY d   1      -2.832   0.874  -1.123  0.00  0.00     0.077 C 
ATOM      3  C1  PXY d   1      -1.481   0.620  -0.484  0.00  0.00    -0.082 A 
ATOM      4  C2  PXY d   1      -1.392  -0.190   0.558  0.00  0.00     0.003 A 
ATOM      5  C3  PXY d   1      -0.183  -0.405   1.168  0.00  0.00     0.003 A 
ATOM      6  C4  PXY d   1       0.955   0.173   0.674  0.00  0.00    -0.082 A 
ATOM      7  C5  PXY d   1       0.874   0.993  -0.395  0.00  0.00     0.003 A 
ATOM      8  C6  PXY d   1      -0.369   1.231  -0.975  0.00  0.00     0.003 A 
ENDROOT
TORSDOF 0
ENDMDL
