MODEL 1
REMARK minimizedAffinity -1.7039597
REMARK minimizedRMSD -1
REMARK  0 active torsions:
REMARK  status: ('A' for Active; 'I' for Inactive)
ROOT
ATOM      1  C4' PXY d   1      -2.441   0.790  -0.905  0.00  0.00     0.077 C 
ATOM      2  C1' PXY d   1       2.678   0.139   1.700  0.00  0.00     0.077 C 
ATOM      3  C1  PXY d   1       1.335   0.297   1.014  0.00  0.00    -0.082 A 
ATOM      4  C2  PXY d   1       0.983   1.477   0.529  0.00  0.00     0.003 A 
ATOM      5  C3  PXY d   1      -0.241   1.645  -0.066  0.00  0.00     0.003 A 
ATOM      6  C4  PXY d   1      -1.091   0.582  -0.213  0.00  0.00    -0.082 A 
ATOM      7  C5  PXY d   1      -0.735  -0.627   0.269  0.00  0.00     0.003 A 
ATOM      8  C6  PXY d   1       0.495  -0.768   0.907  0.00  0.00     0.003 A 
ENDROOT
TORSDOF 0
ENDMDL
