MODEL 1
REMARK minimizedAffinity -3.74663877
REMARK minimizedRMSD -1
REMARK  0 active torsions:
REMARK  status: ('A' for Active; 'I' for Inactive)
ROOT
ATOM      1  C4' PXY d   1      -2.804   0.419  -1.180  0.00  0.00     0.077 C 
ATOM      2  C1' PXY d   1       2.295   0.576   1.539  0.00  0.00     0.077 C 
ATOM      3  C1  PXY d   1       0.957   0.522   0.829  0.00  0.00    -0.082 A 
ATOM      4  C2  PXY d   1       0.687   1.398  -0.125  0.00  0.00     0.003 A 
ATOM      5  C3  PXY d   1      -0.531   1.384  -0.756  0.00  0.00     0.003 A 
ATOM      6  C4  PXY d   1      -1.462   0.430  -0.443  0.00  0.00    -0.082 A 
ATOM      7  C5  PXY d   1      -1.190  -0.474   0.522  0.00  0.00     0.003 A 
ATOM      8  C6  PXY d   1       0.036  -0.417   1.179  0.00  0.00     0.003 A 
ENDROOT
TORSDOF 0
ENDMDL
