MODEL 1
REMARK minimizedAffinity -3.54467177
REMARK minimizedRMSD -1
REMARK  0 active torsions:
REMARK  status: ('A' for Active; 'I' for Inactive)
ROOT
ATOM      1  C4' PXY d   1       1.488  -1.871   2.005  0.00  0.00     0.077 C 
ATOM      2  C1' PXY d   1       1.844   2.647  -1.583  0.00  0.00     0.077 C 
ATOM      3  C1  PXY d   1       1.741   1.468  -0.635  0.00  0.00    -0.082 A 
ATOM      4  C2  PXY d   1       2.794   0.691  -0.441  0.00  0.00     0.003 A 
ATOM      5  C3  PXY d   1       2.709  -0.398   0.388  0.00  0.00     0.003 A 
ATOM      6  C4  PXY d   1       1.549  -0.664   1.065  0.00  0.00    -0.082 A 
ATOM      7  C5  PXY d   1       0.473   0.130   0.880  0.00  0.00     0.003 A 
ATOM      8  C6  PXY d   1       0.568   1.207   0.003  0.00  0.00     0.003 A 
ENDROOT
TORSDOF 0
ENDMDL
