MODEL 1
REMARK minimizedAffinity -0.563359857
REMARK minimizedRMSD -1
REMARK  0 active torsions:
REMARK  status: ('A' for Active; 'I' for Inactive)
ROOT
ATOM      1  C   UNL d   1      -0.772  -1.793  -1.664  0.00  0.00     0.023 A 
ATOM      2  C1  UNL d   1      -1.192  -1.073  -0.546  0.00  0.00     0.003 A 
ATOM      3  C2  UNL d   1      -0.507  -1.199   0.665  0.00  0.00     0.048 A 
ATOM      4  C3  UNL d   1       0.598  -2.045   0.749  0.00  0.00     0.023 A 
ATOM      5  C4  UNL d   1       1.022  -2.767  -0.367  0.00  0.00     0.048 A 
ATOM      6  C5  UNL d   1       0.334  -2.639  -1.575  0.00  0.00     0.003 A 
ATOM      7  I   UNL d   1       1.619  -2.234   2.550  0.00  0.00    -0.146 I 
ENDROOT
TORSDOF 0
ENDMDL
