MODEL 1
REMARK minimizedAffinity 5.86220932
REMARK minimizedRMSD -1
REMARK  0 active torsions:
REMARK  status: ('A' for Active; 'I' for Inactive)
ROOT
ATOM      1  C   UNL d   1       2.124  -2.457   2.600  0.00  0.00     0.023 A 
ATOM      2  C1  UNL d   1       2.453  -1.472   1.669  0.00  0.00     0.003 A 
ATOM      3  C2  UNL d   1       2.436  -0.126   2.040  0.00  0.00     0.048 A 
ATOM      4  C3  UNL d   1       2.091   0.228   3.344  0.00  0.00     0.023 A 
ATOM      5  C4  UNL d   1       1.763  -0.755   4.279  0.00  0.00     0.048 A 
ATOM      6  C5  UNL d   1       1.780  -2.099   3.904  0.00  0.00     0.003 A 
ATOM      7  I   UNL d   1       2.066   2.231   3.899  0.00  0.00    -0.146 I 
ENDROOT
TORSDOF 0
ENDMDL
