MODEL 1
REMARK minimizedAffinity 5.34829426
REMARK minimizedRMSD -1
REMARK  0 active torsions:
REMARK  status: ('A' for Active; 'I' for Inactive)
ROOT
ATOM      1  C   UNL d   1       2.972  -4.265   5.540  0.00  0.00     0.023 A 
ATOM      2  C1  UNL d   1       2.627  -2.994   6.000  0.00  0.00     0.003 A 
ATOM      3  C2  UNL d   1       2.307  -1.984   5.090  0.00  0.00     0.048 A 
ATOM      4  C3  UNL d   1       2.332  -2.252   3.722  0.00  0.00     0.023 A 
ATOM      5  C4  UNL d   1       2.675  -3.523   3.257  0.00  0.00     0.048 A 
ATOM      6  C5  UNL d   1       2.996  -4.529   4.171  0.00  0.00     0.003 A 
ATOM      7  I   UNL d   1       1.855  -0.751   2.366  0.00  0.00    -0.146 I 
ENDROOT
TORSDOF 0
ENDMDL
