MODEL 1
REMARK minimizedAffinity 7.9934392
REMARK minimizedRMSD -1
REMARK  0 active torsions:
REMARK  status: ('A' for Active; 'I' for Inactive)
ROOT
ATOM      1  C   UNL d   1      -5.272   2.665  -3.255  0.00  0.00     0.023 A 
ATOM      2  C1  UNL d   1      -6.000   2.992  -2.111  0.00  0.00     0.003 A 
ATOM      3  C2  UNL d   1      -5.458   2.755  -0.846  0.00  0.00     0.048 A 
ATOM      4  C3  UNL d   1      -4.187   2.191  -0.733  0.00  0.00     0.023 A 
ATOM      5  C4  UNL d   1      -3.455   1.863  -1.875  0.00  0.00     0.048 A 
ATOM      6  C5  UNL d   1      -4.002   2.101  -3.137  0.00  0.00     0.003 A 
ATOM      7  I   UNL d   1      -3.379   1.837   1.149  0.00  0.00    -0.146 I 
ENDROOT
TORSDOF 0
ENDMDL
