MODEL 1
REMARK minimizedAffinity 2.27607918
REMARK minimizedRMSD -1
REMARK  0 active torsions:
REMARK  status: ('A' for Active; 'I' for Inactive)
ROOT
ATOM      1  C   UNL d   1       1.131   3.771   0.001  0.00  0.00     0.023 A 
ATOM      2  C1  UNL d   1       0.020   3.187   0.608  0.00  0.00     0.003 A 
ATOM      3  C2  UNL d   1       0.137   1.944   1.233  0.00  0.00     0.048 A 
ATOM      4  C3  UNL d   1       1.369   1.291   1.250  0.00  0.00     0.023 A 
ATOM      5  C4  UNL d   1       2.484   1.873   0.645  0.00  0.00     0.048 A 
ATOM      6  C5  UNL d   1       2.362   3.115   0.020  0.00  0.00     0.003 A 
ATOM      7  I   UNL d   1       1.546  -0.559   2.180  0.00  0.00    -0.146 I 
ENDROOT
TORSDOF 0
ENDMDL
