MODEL 1
REMARK minimizedAffinity 3.58126307
REMARK minimizedRMSD -1
REMARK  0 active torsions:
REMARK  status: ('A' for Active; 'I' for Inactive)
ROOT
ATOM      1  C   UNL d   1       2.921   2.297   2.765  0.00  0.00     0.023 A 
ATOM      2  C1  UNL d   1       2.604   1.848   4.048  0.00  0.00     0.003 A 
ATOM      3  C2  UNL d   1       2.348   0.493   4.271  0.00  0.00     0.048 A 
ATOM      4  C3  UNL d   1       2.412  -0.407   3.208  0.00  0.00     0.023 A 
ATOM      5  C4  UNL d   1       2.729   0.038   1.924  0.00  0.00     0.048 A 
ATOM      6  C5  UNL d   1       2.983   1.393   1.705  0.00  0.00     0.003 A 
ATOM      7  I   UNL d   1       2.032  -2.423   3.538  0.00  0.00    -0.146 I 
ENDROOT
TORSDOF 0
ENDMDL
