MODEL 1
REMARK minimizedAffinity 8.60723305
REMARK minimizedRMSD -1
REMARK  0 active torsions:
REMARK  status: ('A' for Active; 'I' for Inactive)
ROOT
ATOM      1  C   UNL d   1      -5.447   2.418  -4.615  0.00  0.00     0.023 A 
ATOM      2  C1  UNL d   1      -5.999   3.377  -3.766  0.00  0.00     0.003 A 
ATOM      3  C2  UNL d   1      -5.593   3.445  -2.431  0.00  0.00     0.048 A 
ATOM      4  C3  UNL d   1      -4.635   2.552  -1.953  0.00  0.00     0.023 A 
ATOM      5  C4  UNL d   1      -4.080   1.591  -2.800  0.00  0.00     0.048 A 
ATOM      6  C5  UNL d   1      -4.489   1.526  -4.133  0.00  0.00     0.003 A 
ATOM      7  I   UNL d   1      -4.030   2.652   0.033  0.00  0.00    -0.146 I 
ENDROOT
TORSDOF 0
ENDMDL
