MODEL 1
REMARK minimizedAffinity 6.43616104
REMARK minimizedRMSD -1
REMARK  0 active torsions:
REMARK  status: ('A' for Active; 'I' for Inactive)
ROOT
ATOM      1  C   UNL d   1       2.233   0.838   2.030  0.00  0.00     0.023 A 
ATOM      2  C1  UNL d   1       2.322  -0.382   1.362  0.00  0.00     0.003 A 
ATOM      3  C2  UNL d   1       2.288  -1.579   2.081  0.00  0.00     0.048 A 
ATOM      4  C3  UNL d   1       2.164  -1.547   3.470  0.00  0.00     0.023 A 
ATOM      5  C4  UNL d   1       2.072  -0.328   4.143  0.00  0.00     0.048 A 
ATOM      6  C5  UNL d   1       2.108   0.866   3.420  0.00  0.00     0.003 A 
ATOM      7  I   UNL d   1       2.113  -3.326   4.543  0.00  0.00    -0.146 I 
ENDROOT
TORSDOF 0
ENDMDL
