MODEL 1
REMARK minimizedAffinity 2.84624052
REMARK minimizedRMSD -1
REMARK  0 active torsions:
REMARK  status: ('A' for Active; 'I' for Inactive)
ROOT
ATOM      1  C   UNL d   1       2.325   2.080   0.305  0.00  0.00     0.023 A 
ATOM      2  C1  UNL d   1       2.645   0.786  -0.109  0.00  0.00     0.003 A 
ATOM      3  C2  UNL d   1       2.689  -0.255   0.821  0.00  0.00     0.048 A 
ATOM      4  C3  UNL d   1       2.411   0.005   2.163  0.00  0.00     0.023 A 
ATOM      5  C4  UNL d   1       2.089   1.297   2.581  0.00  0.00     0.048 A 
ATOM      6  C5  UNL d   1       2.048   2.335   1.648  0.00  0.00     0.003 A 
ATOM      7  I   UNL d   1       2.475  -1.543   3.549  0.00  0.00    -0.146 I 
ENDROOT
TORSDOF 0
ENDMDL
