MODEL 1
REMARK minimizedAffinity 7.54490328
REMARK minimizedRMSD -1
REMARK  0 active torsions:
REMARK  status: ('A' for Active; 'I' for Inactive)
ROOT
ATOM      1  C   UNL d   1       2.906   1.638   0.857  0.00  0.00     0.023 A 
ATOM      2  C1  UNL d   1       2.005   1.657   1.922  0.00  0.00     0.003 A 
ATOM      3  C2  UNL d   1       1.815   0.512   2.698  0.00  0.00     0.048 A 
ATOM      4  C3  UNL d   1       2.531  -0.649   2.405  0.00  0.00     0.023 A 
ATOM      5  C4  UNL d   1       3.434  -0.672   1.341  0.00  0.00     0.048 A 
ATOM      6  C5  UNL d   1       3.620   0.476   0.567  0.00  0.00     0.003 A 
ATOM      7  I   UNL d   1       2.251  -2.354   3.559  0.00  0.00    -0.146 I 
ENDROOT
TORSDOF 0
ENDMDL
