MODEL 1
REMARK minimizedAffinity 8.6290741
REMARK minimizedRMSD -1
REMARK  0 active torsions:
REMARK  status: ('A' for Active; 'I' for Inactive)
ROOT
ATOM      1  C   UNL d   1      -0.180  -2.664  -1.202  0.00  0.00     0.023 A 
ATOM      2  C1  UNL d   1      -0.921  -3.371  -0.254  0.00  0.00     0.003 A 
ATOM      3  C2  UNL d   1      -2.290  -3.569  -0.442  0.00  0.00     0.048 A 
ATOM      4  C3  UNL d   1      -2.913  -3.059  -1.581  0.00  0.00     0.023 A 
ATOM      5  C4  UNL d   1      -2.176  -2.352  -2.533  0.00  0.00     0.048 A 
ATOM      6  C5  UNL d   1      -0.807  -2.155  -2.340  0.00  0.00     0.003 A 
ATOM      7  I   UNL d   1      -4.951  -3.354  -1.863  0.00  0.00    -0.146 I 
ENDROOT
TORSDOF 0
ENDMDL
