MODEL 1
REMARK minimizedAffinity 19.5686188
REMARK minimizedRMSD -1
REMARK  0 active torsions:
REMARK  status: ('A' for Active; 'I' for Inactive)
ROOT
ATOM      1  C   UNL d   1       2.040   4.503   2.618  0.00  0.00     0.124 A 
ATOM      2  C1  UNL d   1       2.227   3.277   3.242  0.00  0.00     0.062 A 
ATOM      3  C2  UNL d   1       1.678   2.122   2.694  0.00  0.00     0.162 A 
ATOM      4  C3  UNL d   1       0.937   2.186   1.514  0.00  0.00    -0.034 A 
ATOM      5  C4  UNL d   1       0.752   3.422   0.892  0.00  0.00     0.162 A 
ATOM      6  C5  UNL d   1       1.303   4.574   1.444  0.00  0.00     0.062 A 
ATOM      7  F   UNL d   1       1.121   5.757   0.840  0.00  0.00    -0.097 F 
ATOM      8  F1  UNL d   1       0.045   3.520  -0.243  0.00  0.00    -0.096 F 
ATOM      9  I   UNL d   1       0.114   0.460   0.691  0.00  0.00    -0.060 I 
ATOM     10  F2  UNL d   1       1.875   0.951   3.318  0.00  0.00    -0.096 F 
ATOM     11  F3  UNL d   1       2.938   3.206   4.376  0.00  0.00    -0.097 F 
ATOM     12  F4  UNL d   1       2.569   5.613   3.148  0.00  0.00    -0.092 F 
ENDROOT
TORSDOF 0
ENDMDL
