MODEL 1
REMARK minimizedAffinity 22.4862366
REMARK minimizedRMSD -1
REMARK  0 active torsions:
REMARK  status: ('A' for Active; 'I' for Inactive)
ROOT
ATOM      1  C   UNL d   1       1.110   4.147   1.921  0.00  0.00     0.124 A 
ATOM      2  C1  UNL d   1       1.530   3.499   3.074  0.00  0.00     0.062 A 
ATOM      3  C2  UNL d   1       1.301   2.136   3.235  0.00  0.00     0.162 A 
ATOM      4  C3  UNL d   1       0.648   1.410   2.239  0.00  0.00    -0.034 A 
ATOM      5  C4  UNL d   1       0.227   2.068   1.082  0.00  0.00     0.162 A 
ATOM      6  C5  UNL d   1       0.459   3.431   0.926  0.00  0.00     0.062 A 
ATOM      7  F   UNL d   1       0.052   4.055  -0.189  0.00  0.00    -0.097 F 
ATOM      8  F1  UNL d   1      -0.404   1.401   0.104  0.00  0.00    -0.096 F 
ATOM      9  I   UNL d   1       0.303  -0.629   2.475  0.00  0.00    -0.060 I 
ATOM     10  F2  UNL d   1       1.718   1.536   4.360  0.00  0.00    -0.096 F 
ATOM     11  F3  UNL d   1       2.158   4.188   4.038  0.00  0.00    -0.097 F 
ATOM     12  F4  UNL d   1       1.331   5.459   1.770  0.00  0.00    -0.092 F 
ENDROOT
TORSDOF 0
ENDMDL
