MODEL 1
REMARK minimizedAffinity 13.1212406
REMARK minimizedRMSD -1
REMARK  0 active torsions:
REMARK  status: ('A' for Active; 'I' for Inactive)
ROOT
ATOM      1  C   UNL d   1      -0.584   0.470   1.110  0.00  0.00     0.124 A 
ATOM      2  C1  UNL d   1      -0.474   1.853   1.091  0.00  0.00     0.062 A 
ATOM      3  C2  UNL d   1       0.426   2.496   1.936  0.00  0.00     0.162 A 
ATOM      4  C3  UNL d   1       1.225   1.756   2.807  0.00  0.00    -0.034 A 
ATOM      5  C4  UNL d   1       1.108   0.365   2.821  0.00  0.00     0.162 A 
ATOM      6  C5  UNL d   1       0.208  -0.273   1.975  0.00  0.00     0.062 A 
ATOM      7  F   UNL d   1       0.103  -1.610   1.995  0.00  0.00    -0.097 F 
ATOM      8  F1  UNL d   1       1.862  -0.378   3.646  0.00  0.00    -0.096 F 
ATOM      9  I   UNL d   1       2.572   2.713   4.072  0.00  0.00    -0.060 I 
ATOM     10  F2  UNL d   1       0.510   3.834   1.896  0.00  0.00    -0.096 F 
ATOM     11  F3  UNL d   1      -1.238   2.573   0.257  0.00  0.00    -0.097 F 
ATOM     12  F4  UNL d   1      -1.451  -0.146   0.296  0.00  0.00    -0.092 F 
ENDROOT
TORSDOF 0
ENDMDL
