MODEL 1
REMARK minimizedAffinity 22.9635696
REMARK minimizedRMSD -1
REMARK  0 active torsions:
REMARK  status: ('A' for Active; 'I' for Inactive)
ROOT
ATOM      1  C   UNL d   1      -0.077   0.873   1.157  0.00  0.00     0.124 A 
ATOM      2  C1  UNL d   1       0.556  -0.201   0.548  0.00  0.00     0.062 A 
ATOM      3  C2  UNL d   1       1.748  -0.698   1.068  0.00  0.00     0.162 A 
ATOM      4  C3  UNL d   1       2.314  -0.121   2.205  0.00  0.00    -0.034 A 
ATOM      5  C4  UNL d   1       1.672   0.960   2.811  0.00  0.00     0.162 A 
ATOM      6  C5  UNL d   1       0.481   1.453   2.287  0.00  0.00     0.062 A 
ATOM      7  F   UNL d   1      -0.129   2.491   2.877  0.00  0.00    -0.097 F 
ATOM      8  F1  UNL d   1       2.189   1.539   3.906  0.00  0.00    -0.096 F 
ATOM      9  I   UNL d   1       4.096  -0.860   2.986  0.00  0.00    -0.060 I 
ATOM     10  F2  UNL d   1       2.338  -1.737   0.459  0.00  0.00    -0.096 F 
ATOM     11  F3  UNL d   1       0.020  -0.762  -0.545  0.00  0.00    -0.097 F 
ATOM     12  F4  UNL d   1      -1.223   1.350   0.654  0.00  0.00    -0.092 F 
ENDROOT
TORSDOF 0
ENDMDL
