MODEL 1
REMARK minimizedAffinity 15.4660654
REMARK minimizedRMSD -1
REMARK  0 active torsions:
REMARK  status: ('A' for Active; 'I' for Inactive)
ROOT
ATOM      1  C   UNL d   1       1.987   4.047   2.932  0.00  0.00     0.124 A 
ATOM      2  C1  UNL d   1       1.190   4.038   1.796  0.00  0.00     0.062 A 
ATOM      3  C2  UNL d   1       0.630   2.847   1.343  0.00  0.00     0.162 A 
ATOM      4  C3  UNL d   1       0.866   1.654   2.026  0.00  0.00    -0.034 A 
ATOM      5  C4  UNL d   1       1.670   1.671   3.167  0.00  0.00     0.162 A 
ATOM      6  C5  UNL d   1       2.227   2.864   3.616  0.00  0.00     0.062 A 
ATOM      7  F   UNL d   1       2.997   2.870   4.714  0.00  0.00    -0.097 F 
ATOM      8  F1  UNL d   1       1.917   0.542   3.848  0.00  0.00    -0.096 F 
ATOM      9  I   UNL d   1       0.031  -0.129   1.352  0.00  0.00    -0.060 I 
ATOM     10  F2  UNL d   1      -0.137   2.868   0.242  0.00  0.00    -0.096 F 
ATOM     11  F3  UNL d   1       0.958   5.180   1.133  0.00  0.00    -0.097 F 
ATOM     12  F4  UNL d   1       2.525   5.194   3.365  0.00  0.00    -0.092 F 
ENDROOT
TORSDOF 0
ENDMDL
