MODEL 1
REMARK minimizedAffinity 30.2880974
REMARK minimizedRMSD -1
REMARK  0 active torsions:
REMARK  status: ('A' for Active; 'I' for Inactive)
ROOT
ATOM      1  C   UNL d   1      -5.230   4.166  -3.639  0.00  0.00     0.124 A 
ATOM      2  C1  UNL d   1      -4.903   3.541  -4.834  0.00  0.00     0.062 A 
ATOM      3  C2  UNL d   1      -4.383   2.250  -4.830  0.00  0.00     0.162 A 
ATOM      4  C3  UNL d   1      -4.187   1.574  -3.625  0.00  0.00    -0.034 A 
ATOM      5  C4  UNL d   1      -4.517   2.209  -2.427  0.00  0.00     0.162 A 
ATOM      6  C5  UNL d   1      -5.037   3.500  -2.436  0.00  0.00     0.062 A 
ATOM      7  F   UNL d   1      -5.352   4.102  -1.281  0.00  0.00    -0.097 F 
ATOM      8  F1  UNL d   1      -4.342   1.588  -1.251  0.00  0.00    -0.096 F 
ATOM      9  I   UNL d   1      -3.409  -0.357  -3.614  0.00  0.00    -0.060 I 
ATOM     10  F2  UNL d   1      -4.075   1.670  -6.000  0.00  0.00    -0.096 F 
ATOM     11  F3  UNL d   1      -5.087   4.182  -5.997  0.00  0.00    -0.097 F 
ATOM     12  F4  UNL d   1      -5.729   5.408  -3.646  0.00  0.00    -0.092 F 
ENDROOT
TORSDOF 0
ENDMDL
