MODEL 1
REMARK minimizedAffinity -1.19902706
REMARK minimizedRMSD -1
REMARK  0 active torsions:
REMARK  status: ('A' for Active; 'I' for Inactive)
ROOT
ATOM      1  C   UNL d   1      -0.133   3.117   1.364  0.00  0.00     0.124 A 
ATOM      2  C1  UNL d   1       0.814   2.223   1.846  0.00  0.00     0.062 A 
ATOM      3  C2  UNL d   1       0.864   0.923   1.351  0.00  0.00     0.162 A 
ATOM      4  C3  UNL d   1      -0.035   0.509   0.368  0.00  0.00    -0.034 A 
ATOM      5  C4  UNL d   1      -0.984   1.413  -0.111  0.00  0.00     0.162 A 
ATOM      6  C5  UNL d   1      -1.030   2.712   0.387  0.00  0.00     0.062 A 
ATOM      7  F   UNL d   1      -1.945   3.574  -0.080  0.00  0.00    -0.097 F 
ATOM      8  F1  UNL d   1      -1.863   1.048  -1.056  0.00  0.00    -0.096 F 
ATOM      9  I   UNL d   1       0.037  -1.434  -0.374  0.00  0.00    -0.060 I 
ATOM     10  F2  UNL d   1       1.789   0.081   1.835  0.00  0.00    -0.096 F 
ATOM     11  F3  UNL d   1       1.681   2.612   2.791  0.00  0.00    -0.097 F 
ATOM     12  F4  UNL d   1      -0.180   4.367   1.843  0.00  0.00    -0.092 F 
ENDROOT
TORSDOF 0
ENDMDL
