MODEL 1
REMARK minimizedAffinity 12.08393
REMARK minimizedRMSD -1
REMARK  0 active torsions:
REMARK  status: ('A' for Active; 'I' for Inactive)
ROOT
ATOM      1  C   UNL d   1       1.480   3.235   2.638  0.00  0.00     0.124 A 
ATOM      2  C1  UNL d   1       2.664   3.852   2.259  0.00  0.00     0.062 A 
ATOM      3  C2  UNL d   1       2.706   4.641   1.113  0.00  0.00     0.162 A 
ATOM      4  C3  UNL d   1       1.560   4.819   0.339  0.00  0.00    -0.034 A 
ATOM      5  C4  UNL d   1       0.373   4.195   0.726  0.00  0.00     0.162 A 
ATOM      6  C5  UNL d   1       0.336   3.407   1.872  0.00  0.00     0.062 A 
ATOM      7  F   UNL d   1      -0.809   2.812   2.238  0.00  0.00    -0.097 F 
ATOM      8  F1  UNL d   1      -0.748   4.345   0.005  0.00  0.00    -0.096 F 
ATOM      9  I   UNL d   1       1.619   5.999  -1.375  0.00  0.00    -0.060 I 
ATOM     10  F2  UNL d   1       3.864   5.225   0.770  0.00  0.00    -0.096 F 
ATOM     11  F3  UNL d   1       3.771   3.687   2.997  0.00  0.00    -0.097 F 
ATOM     12  F4  UNL d   1       1.443   2.476   3.741  0.00  0.00    -0.092 F 
ENDROOT
TORSDOF 0
ENDMDL
