MODEL 1
REMARK minimizedAffinity 7.40534067
REMARK minimizedRMSD -1
REMARK  0 active torsions:
REMARK  status: ('A' for Active; 'I' for Inactive)
ROOT
ATOM      1  C   UNL d   1      -5.999  -0.849  -1.375  0.00  0.00     0.077 C 
ATOM      2  C1  UNL d   1      -5.067  -1.043  -0.216  0.00  0.00    -0.074 A 
ATOM      3  C2  UNL d   1      -5.070  -0.155   0.865  0.00  0.00    -0.005 A 
ATOM      4  C3  UNL d   1      -4.204  -0.354   1.940  0.00  0.00     0.006 A 
ATOM      5  C4  UNL d   1      -3.328  -1.440   1.945  0.00  0.00    -0.005 A 
ATOM      6  C5  UNL d   1      -3.311  -2.339   0.874  0.00  0.00    -0.074 A 
ATOM      7  C6  UNL d   1      -2.383  -3.517   0.869  0.00  0.00     0.077 C 
ATOM      8  C7  UNL d   1      -4.190  -2.136  -0.199  0.00  0.00    -0.001 A 
ENDROOT
TORSDOF 0
ENDMDL
