MODEL 1
REMARK minimizedAffinity 8.58872795
REMARK minimizedRMSD -1
REMARK  0 active torsions:
REMARK  status: ('A' for Active; 'I' for Inactive)
ROOT
ATOM      1  C   UNL d   1      -1.664  -4.540   1.282  0.00  0.00     0.077 C 
ATOM      2  C1  UNL d   1      -1.844  -3.134   1.771  0.00  0.00    -0.074 A 
ATOM      3  C2  UNL d   1      -2.329  -2.134   0.921  0.00  0.00    -0.005 A 
ATOM      4  C3  UNL d   1      -2.500  -0.832   1.392  0.00  0.00     0.006 A 
ATOM      5  C4  UNL d   1      -2.189  -0.518   2.716  0.00  0.00    -0.005 A 
ATOM      6  C5  UNL d   1      -1.704  -1.504   3.580  0.00  0.00    -0.074 A 
ATOM      7  C6  UNL d   1      -1.374  -1.185   5.008  0.00  0.00     0.077 C 
ATOM      8  C7  UNL d   1      -1.542  -2.811   3.101  0.00  0.00    -0.001 A 
ENDROOT
TORSDOF 0
ENDMDL
