MODEL 1
REMARK minimizedAffinity 4.56108379
REMARK minimizedRMSD -1
REMARK  0 active torsions:
REMARK  status: ('A' for Active; 'I' for Inactive)
ROOT
ATOM      1  C   UNL d   1      -1.309  -0.768   5.999  0.00  0.00     0.077 C 
ATOM      2  C1  UNL d   1      -1.638  -0.361   4.594  0.00  0.00    -0.074 A 
ATOM      3  C2  UNL d   1      -0.926   0.659   3.955  0.00  0.00    -0.005 A 
ATOM      4  C3  UNL d   1      -1.237   1.020   2.644  0.00  0.00     0.006 A 
ATOM      5  C4  UNL d   1      -2.262   0.366   1.960  0.00  0.00    -0.005 A 
ATOM      6  C5  UNL d   1      -2.985  -0.657   2.582  0.00  0.00    -0.074 A 
ATOM      7  C6  UNL d   1      -4.083  -1.377   1.857  0.00  0.00     0.077 C 
ATOM      8  C7  UNL d   1      -2.662  -1.019   3.897  0.00  0.00    -0.001 A 
ENDROOT
TORSDOF 0
ENDMDL
