MODEL 1
REMARK minimizedAffinity 7.21210861
REMARK minimizedRMSD -1
REMARK  0 active torsions:
REMARK  status: ('A' for Active; 'I' for Inactive)
ROOT
ATOM      1  C   UNL d   1      -5.999  -2.061   0.234  0.00  0.00     0.077 C 
ATOM      2  C1  UNL d   1      -4.837  -1.282   0.775  0.00  0.00    -0.074 A 
ATOM      3  C2  UNL d   1      -4.411  -0.103   0.154  0.00  0.00    -0.005 A 
ATOM      4  C3  UNL d   1      -3.335   0.616   0.674  0.00  0.00     0.006 A 
ATOM      5  C4  UNL d   1      -2.676   0.166   1.819  0.00  0.00    -0.005 A 
ATOM      6  C5  UNL d   1      -3.089  -1.009   2.454  0.00  0.00    -0.074 A 
ATOM      7  C6  UNL d   1      -2.399  -1.502   3.691  0.00  0.00     0.077 C 
ATOM      8  C7  UNL d   1      -4.175  -1.723   1.929  0.00  0.00    -0.001 A 
ENDROOT
TORSDOF 0
ENDMDL
