MODEL 1
REMARK minimizedAffinity 1.52030683
REMARK minimizedRMSD -1
REMARK  0 active torsions:
REMARK  status: ('A' for Active; 'I' for Inactive)
ROOT
ATOM      1  C   UNL d   1      -1.893  -0.082   3.531  0.00  0.00     0.077 C 
ATOM      2  C1  UNL d   1      -2.273  -0.538   2.154  0.00  0.00    -0.074 A 
ATOM      3  C2  UNL d   1      -1.398  -1.311   1.385  0.00  0.00    -0.005 A 
ATOM      4  C3  UNL d   1      -1.769  -1.735   0.109  0.00  0.00     0.006 A 
ATOM      5  C4  UNL d   1      -3.018  -1.392  -0.410  0.00  0.00    -0.005 A 
ATOM      6  C5  UNL d   1      -3.907  -0.620   0.345  0.00  0.00    -0.074 A 
ATOM      7  C6  UNL d   1      -5.257  -0.250  -0.194  0.00  0.00     0.077 C 
ATOM      8  C7  UNL d   1      -3.530  -0.203   1.628  0.00  0.00    -0.001 A 
ENDROOT
TORSDOF 0
ENDMDL
