MODEL 1
REMARK minimizedAffinity 5.45657635
REMARK minimizedRMSD -1
REMARK  0 active torsions:
REMARK  status: ('A' for Active; 'I' for Inactive)
ROOT
ATOM      1  C   UNL d   1       0.605   2.178   3.616  0.00  0.00     0.077 C 
ATOM      2  C1  UNL d   1      -0.384   1.056   3.724  0.00  0.00    -0.074 A 
ATOM      3  C2  UNL d   1      -0.529   0.339   4.916  0.00  0.00    -0.005 A 
ATOM      4  C3  UNL d   1      -1.460  -0.696   5.005  0.00  0.00     0.006 A 
ATOM      5  C4  UNL d   1      -2.254  -1.024   3.905  0.00  0.00    -0.005 A 
ATOM      6  C5  UNL d   1      -2.123  -0.318   2.706  0.00  0.00    -0.074 A 
ATOM      7  C6  UNL d   1      -2.975  -0.651   1.517  0.00  0.00     0.077 C 
ATOM      8  C7  UNL d   1      -1.190   0.726   2.626  0.00  0.00    -0.001 A 
ENDROOT
TORSDOF 0
ENDMDL
