MODEL 1
REMARK minimizedAffinity -3.9227345
REMARK minimizedRMSD -1
REMARK  0 active torsions:
REMARK  status: ('A' for Active; 'I' for Inactive)
ROOT
ATOM      1  C   UNL d   1      -1.124  -5.283   1.722  0.00  0.00     0.077 C 
ATOM      2  C1  UNL d   1      -1.127  -5.127   3.213  0.00  0.00    -0.074 A 
ATOM      3  C2  UNL d   1      -1.864  -5.996   4.025  0.00  0.00    -0.005 A 
ATOM      4  C3  UNL d   1      -1.850  -5.844   5.412  0.00  0.00     0.006 A 
ATOM      5  C4  UNL d   1      -1.101  -4.824   5.999  0.00  0.00    -0.005 A 
ATOM      6  C5  UNL d   1      -0.357  -3.947   5.204  0.00  0.00    -0.074 A 
ATOM      7  C6  UNL d   1       0.461  -2.851   5.820  0.00  0.00     0.077 C 
ATOM      8  C7  UNL d   1      -0.371  -4.110   3.812  0.00  0.00    -0.001 A 
ENDROOT
TORSDOF 0
ENDMDL
