MODEL 1
REMARK minimizedAffinity 14.0963869
REMARK minimizedRMSD -1
REMARK  0 active torsions:
REMARK  status: ('A' for Active; 'I' for Inactive)
ROOT
ATOM      1  C   UNL d   1      -1.625  -5.176   1.693  0.00  0.00     0.077 C 
ATOM      2  C1  UNL d   1      -0.936  -5.177   0.361  0.00  0.00    -0.074 A 
ATOM      3  C2  UNL d   1       0.172  -5.997   0.125  0.00  0.00    -0.005 A 
ATOM      4  C3  UNL d   1       0.797  -5.994  -1.122  0.00  0.00     0.006 A 
ATOM      5  C4  UNL d   1       0.321  -5.172  -2.144  0.00  0.00    -0.005 A 
ATOM      6  C5  UNL d   1      -0.787  -4.346  -1.927  0.00  0.00    -0.074 A 
ATOM      7  C6  UNL d   1      -1.317  -3.464  -3.018  0.00  0.00     0.077 C 
ATOM      8  C7  UNL d   1      -1.413  -4.360  -0.673  0.00  0.00    -0.001 A 
ENDROOT
TORSDOF 0
ENDMDL
