MODEL 1
REMARK minimizedAffinity 3.00820851
REMARK minimizedRMSD -1
REMARK  0 active torsions:
REMARK  status: ('A' for Active; 'I' for Inactive)
ROOT
ATOM      1  C   UNL d   1      -3.299  -5.962   6.000  0.00  0.00     0.077 C 
ATOM      2  C1  UNL d   1      -2.009  -5.968   5.234  0.00  0.00    -0.074 A 
ATOM      3  C2  UNL d   1      -0.779  -5.982   5.899  0.00  0.00    -0.005 A 
ATOM      4  C3  UNL d   1       0.413  -5.998   5.174  0.00  0.00     0.006 A 
ATOM      5  C4  UNL d   1       0.386  -6.000   3.779  0.00  0.00    -0.005 A 
ATOM      6  C5  UNL d   1      -0.835  -5.987   3.097  0.00  0.00    -0.074 A 
ATOM      7  C6  UNL d   1      -0.882  -5.999   1.597  0.00  0.00     0.077 C 
ATOM      8  C7  UNL d   1      -2.028  -5.979   3.833  0.00  0.00    -0.001 A 
ENDROOT
TORSDOF 0
ENDMDL
