MODEL 1
REMARK minimizedAffinity 7.96155119
REMARK minimizedRMSD -1
REMARK  0 active torsions:
REMARK  status: ('A' for Active; 'I' for Inactive)
ROOT
ATOM      1  C   UNL d   1       2.960  -1.463  -3.106  0.00  0.00     0.077 C 
ATOM      2  C1  UNL d   1       2.985  -0.767  -1.778  0.00  0.00    -0.074 A 
ATOM      3  C2  UNL d   1       3.555   0.503  -1.643  0.00  0.00    -0.005 A 
ATOM      4  C3  UNL d   1       3.562   1.143  -0.403  0.00  0.00     0.006 A 
ATOM      5  C4  UNL d   1       3.001   0.520   0.712  0.00  0.00    -0.005 A 
ATOM      6  C5  UNL d   1       2.425  -0.750   0.596  0.00  0.00    -0.074 A 
ATOM      7  C6  UNL d   1       1.808  -1.429   1.782  0.00  0.00     0.077 C 
ATOM      8  C7  UNL d   1       2.416  -1.383  -0.655  0.00  0.00    -0.001 A 
ENDROOT
TORSDOF 0
ENDMDL
