MODEL 1
REMARK minimizedAffinity 8.53427696
REMARK minimizedRMSD -1
REMARK  0 active torsions:
REMARK  status: ('A' for Active; 'I' for Inactive)
ROOT
ATOM      1  C   UNL d   1       3.865   1.750  -0.030  0.00  0.00     0.077 C 
ATOM      2  C1  UNL d   1       2.756   0.746  -0.130  0.00  0.00    -0.074 A 
ATOM      3  C2  UNL d   1       1.458   1.064   0.283  0.00  0.00    -0.005 A 
ATOM      4  C3  UNL d   1       0.435   0.123   0.176  0.00  0.00     0.006 A 
ATOM      5  C4  UNL d   1       0.698  -1.145  -0.344  0.00  0.00    -0.005 A 
ATOM      6  C5  UNL d   1       1.990  -1.482  -0.763  0.00  0.00    -0.074 A 
ATOM      7  C6  UNL d   1       2.288  -2.836  -1.333  0.00  0.00     0.077 C 
ATOM      8  C7  UNL d   1       3.011  -0.528  -0.658  0.00  0.00    -0.001 A 
ENDROOT
TORSDOF 0
ENDMDL
