MODEL 1
REMARK minimizedAffinity 1.88658559
REMARK minimizedRMSD -1
REMARK  0 active torsions:
REMARK  status: ('A' for Active; 'I' for Inactive)
ROOT
ATOM      1  C2' OXE d   1       0.441   1.872   2.152  0.00  0.00     0.078 C 
ATOM      2  C1' OXE d   1       2.660   0.153   2.189  0.00  0.00     0.078 C 
ATOM      3  C1  OXE d   1       1.784   0.145   0.961  0.00  0.00    -0.078 A 
ATOM      4  C2  OXE d   1       0.674   0.955   0.971  0.00  0.00    -0.078 A 
ATOM      5  C3  OXE d   1      -0.137   1.027  -0.158  0.00  0.00     0.003 A 
ATOM      6  C4  OXE d   1       0.080   0.169  -1.243  0.00  0.00    -0.002 A 
ATOM      7  C5  OXE d   1       1.182  -0.693  -1.257  0.00  0.00    -0.002 A 
ATOM      8  C6  OXE d   1       2.066  -0.687  -0.183  0.00  0.00     0.003 A 
ENDROOT
TORSDOF 0
ENDMDL
