MODEL 1
REMARK minimizedAffinity -6.08074951
REMARK minimizedRMSD -1
REMARK  0 active torsions:
REMARK  status: ('A' for Active; 'I' for Inactive)
ROOT
ATOM      1  C2' OXE d   1      -2.204  -0.742  -0.255  0.00  0.00     0.078 C 
ATOM      2  C1' OXE d   1       0.401  -0.460  -1.263  0.00  0.00     0.078 C 
ATOM      3  C1  OXE d   1       0.158  -0.075   0.175  0.00  0.00    -0.078 A 
ATOM      4  C2  OXE d   1      -1.129  -0.172   0.647  0.00  0.00    -0.078 A 
ATOM      5  C3  OXE d   1      -1.399   0.118   1.981  0.00  0.00     0.003 A 
ATOM      6  C4  OXE d   1      -0.402   0.653   2.805  0.00  0.00    -0.002 A 
ATOM      7  C5  OXE d   1       0.908   0.798   2.334  0.00  0.00    -0.002 A 
ATOM      8  C6  OXE d   1       1.212   0.399   1.037  0.00  0.00     0.003 A 
ENDROOT
TORSDOF 0
ENDMDL
