MODEL 1
REMARK minimizedAffinity -2.48258376
REMARK minimizedRMSD -1
REMARK  0 active torsions:
REMARK  status: ('A' for Active; 'I' for Inactive)
ROOT
ATOM      1  C2' OXE d   1      -2.527   0.090  -0.146  0.00  0.00     0.078 C 
ATOM      2  C1' OXE d   1       0.057  -0.651  -0.954  0.00  0.00     0.078 C 
ATOM      3  C1  OXE d   1      -0.104  -0.044   0.417  0.00  0.00    -0.078 A 
ATOM      4  C2  OXE d   1      -1.365   0.358   0.786  0.00  0.00    -0.078 A 
ATOM      5  C3  OXE d   1      -1.579   0.874   2.061  0.00  0.00     0.003 A 
ATOM      6  C4  OXE d   1      -0.497   1.129   2.913  0.00  0.00    -0.002 A 
ATOM      7  C5  OXE d   1       0.801   0.763   2.541  0.00  0.00    -0.002 A 
ATOM      8  C6  OXE d   1       1.008   0.138   1.317  0.00  0.00     0.003 A 
ENDROOT
TORSDOF 0
ENDMDL
