MODEL 1
REMARK minimizedAffinity -0.97246933
REMARK minimizedRMSD -1
REMARK  0 active torsions:
REMARK  status: ('A' for Active; 'I' for Inactive)
ROOT
ATOM      1  C2' OXE d   1      -2.291   0.519  -0.100  0.00  0.00     0.078 C 
ATOM      2  C1' OXE d   1      -1.043   1.230   2.312  0.00  0.00     0.078 C 
ATOM      3  C1  OXE d   1      -0.209   0.531   1.268  0.00  0.00    -0.078 A 
ATOM      4  C2  OXE d   1      -0.840   0.145   0.110  0.00  0.00    -0.078 A 
ATOM      5  C3  OXE d   1      -0.104  -0.455  -0.908  0.00  0.00     0.003 A 
ATOM      6  C4  OXE d   1       1.236  -0.807  -0.702  0.00  0.00    -0.002 A 
ATOM      7  C5  OXE d   1       1.886  -0.458   0.486  0.00  0.00    -0.002 A 
ATOM      8  C6  OXE d   1       1.191   0.247   1.462  0.00  0.00     0.003 A 
ENDROOT
TORSDOF 0
ENDMDL
