MODEL 1
REMARK minimizedAffinity -0.336651474
REMARK minimizedRMSD -1
REMARK  0 active torsions:
REMARK  status: ('A' for Active; 'I' for Inactive)
ROOT
ATOM      1  C2' OXE d   1      -0.784  -1.438  -1.710  0.00  0.00     0.078 C 
ATOM      2  C1' OXE d   1      -3.301  -0.424  -0.989  0.00  0.00     0.078 C 
ATOM      3  C1  OXE d   1      -2.180  -0.302   0.013  0.00  0.00    -0.078 A 
ATOM      4  C2  OXE d   1      -0.964  -0.843  -0.330  0.00  0.00    -0.078 A 
ATOM      5  C3  OXE d   1       0.119  -0.710   0.535  0.00  0.00     0.003 A 
ATOM      6  C4  OXE d   1      -0.058  -0.167   1.813  0.00  0.00    -0.002 A 
ATOM      7  C5  OXE d   1      -1.298   0.354   2.198  0.00  0.00    -0.002 A 
ATOM      8  C6  OXE d   1      -2.356   0.332   1.296  0.00  0.00     0.003 A 
ENDROOT
TORSDOF 0
ENDMDL
