MODEL 1
REMARK minimizedAffinity -4.27163124
REMARK minimizedRMSD -1
REMARK  0 active torsions:
REMARK  status: ('A' for Active; 'I' for Inactive)
ROOT
ATOM      1  C2' OXE d   1      -1.173   0.544   1.034  0.00  0.00     0.078 C 
ATOM      2  C1' OXE d   1      -2.196  -0.944  -1.115  0.00  0.00     0.078 C 
ATOM      3  C1  OXE d   1      -0.754  -1.163  -0.731  0.00  0.00    -0.078 A 
ATOM      4  C2  OXE d   1      -0.249  -0.396   0.292  0.00  0.00    -0.078 A 
ATOM      5  C3  OXE d   1       1.060  -0.597   0.722  0.00  0.00     0.003 A 
ATOM      6  C4  OXE d   1       1.911  -1.461   0.023  0.00  0.00    -0.002 A 
ATOM      7  C5  OXE d   1       1.428  -2.222  -1.046  0.00  0.00    -0.002 A 
ATOM      8  C6  OXE d   1       0.090  -2.117  -1.408  0.00  0.00     0.003 A 
ENDROOT
TORSDOF 0
ENDMDL
