MODEL 1
REMARK minimizedAffinity 1.55273151
REMARK minimizedRMSD -1
REMARK  0 active torsions:
REMARK  status: ('A' for Active; 'I' for Inactive)
ROOT
ATOM      1  C2' OXE d   1       2.955   1.625   1.871  0.00  0.00     0.078 C 
ATOM      2  C1' OXE d   1       1.176  -0.397   1.079  0.00  0.00     0.078 C 
ATOM      3  C1  OXE d   1       1.903  -0.573   2.389  0.00  0.00    -0.078 A 
ATOM      4  C2  OXE d   1       2.806   0.399   2.746  0.00  0.00    -0.078 A 
ATOM      5  C3  OXE d   1       3.463   0.313   3.970  0.00  0.00     0.003 A 
ATOM      6  C4  OXE d   1       3.328  -0.829   4.769  0.00  0.00    -0.002 A 
ATOM      7  C5  OXE d   1       2.442  -1.849   4.405  0.00  0.00    -0.002 A 
ATOM      8  C6  OXE d   1       1.692  -1.717   3.241  0.00  0.00     0.003 A 
ENDROOT
TORSDOF 0
ENDMDL
