MODEL 1
REMARK minimizedAffinity -1.15494859
REMARK minimizedRMSD -1
REMARK  0 active torsions:
REMARK  status: ('A' for Active; 'I' for Inactive)
ROOT
ATOM      1  C2' OXE d   1      -3.693  -1.528   3.408  0.00  0.00     0.078 C 
ATOM      2  C1' OXE d   1      -2.207   0.347   1.939  0.00  0.00     0.078 C 
ATOM      3  C1  OXE d   1      -1.460  -0.554   2.891  0.00  0.00    -0.078 A 
ATOM      4  C2  OXE d   1      -2.201  -1.436   3.639  0.00  0.00    -0.078 A 
ATOM      5  C3  OXE d   1      -1.556  -2.328   4.492  0.00  0.00     0.003 A 
ATOM      6  C4  OXE d   1      -0.176  -2.229   4.708  0.00  0.00    -0.002 A 
ATOM      7  C5  OXE d   1       0.592  -1.310   3.985  0.00  0.00    -0.002 A 
ATOM      8  C6  OXE d   1      -0.027  -0.496   3.043  0.00  0.00     0.003 A 
ENDROOT
TORSDOF 0
ENDMDL
