MODEL 1
REMARK minimizedAffinity 6.96697044
REMARK minimizedRMSD -1
REMARK  0 active torsions:
REMARK  status: ('A' for Active; 'I' for Inactive)
ROOT
ATOM      1  C2' OXE d   1      -3.786  -1.922  -5.912  0.00  0.00     0.078 C 
ATOM      2  C1' OXE d   1      -1.078  -1.181  -5.888  0.00  0.00     0.078 C 
ATOM      3  C1  OXE d   1      -1.405  -2.652  -5.937  0.00  0.00    -0.078 A 
ATOM      4  C2  OXE d   1      -2.732  -3.007  -5.901  0.00  0.00    -0.078 A 
ATOM      5  C3  OXE d   1      -3.089  -4.349  -6.000  0.00  0.00     0.003 A 
ATOM      6  C4  OXE d   1      -2.108  -5.348  -5.979  0.00  0.00    -0.002 A 
ATOM      7  C5  OXE d   1      -0.751  -5.009  -5.976  0.00  0.00    -0.002 A 
ATOM      8  C6  OXE d   1      -0.383  -3.668  -5.998  0.00  0.00     0.003 A 
ENDROOT
TORSDOF 0
ENDMDL
