MODEL 1
REMARK minimizedAffinity 1.22413611
REMARK minimizedRMSD -1
REMARK  0 active torsions:
REMARK  status: ('A' for Active; 'I' for Inactive)
ROOT
ATOM      1  C2' OXE d   1       0.764   0.938   1.590  0.00  0.00     0.078 C 
ATOM      2  C1' OXE d   1       1.441  -1.192   3.289  0.00  0.00     0.078 C 
ATOM      3  C1  OXE d   1      -0.018  -0.833   3.157  0.00  0.00    -0.078 A 
ATOM      4  C2  OXE d   1      -0.336   0.240   2.360  0.00  0.00    -0.078 A 
ATOM      5  C3  OXE d   1      -1.671   0.579   2.160  0.00  0.00     0.003 A 
ATOM      6  C4  OXE d   1      -2.682  -0.065   2.884  0.00  0.00    -0.002 A 
ATOM      7  C5  OXE d   1      -2.376  -1.135   3.732  0.00  0.00    -0.002 A 
ATOM      8  C6  OXE d   1      -1.057  -1.558   3.847  0.00  0.00     0.003 A 
ENDROOT
TORSDOF 0
ENDMDL
