MODEL 1
REMARK minimizedAffinity -5.16065168
REMARK minimizedRMSD -1
REMARK  0 active torsions:
REMARK  status: ('A' for Active; 'I' for Inactive)
ROOT
ATOM      1  C2' OXE d   1       1.808   0.007  -0.988  0.00  0.00     0.078 C 
ATOM      2  C1' OXE d   1      -0.699   0.726   0.049  0.00  0.00     0.078 C 
ATOM      3  C1  OXE d   1      -0.015  -0.482   0.638  0.00  0.00    -0.078 A 
ATOM      4  C2  OXE d   1       1.191  -0.854   0.093  0.00  0.00    -0.078 A 
ATOM      5  C3  OXE d   1       1.890  -1.928   0.635  0.00  0.00     0.003 A 
ATOM      6  C4  OXE d   1       1.308  -2.725   1.628  0.00  0.00    -0.002 A 
ATOM      7  C5  OXE d   1       0.063  -2.387   2.170  0.00  0.00    -0.002 A 
ATOM      8  C6  OXE d   1      -0.590  -1.246   1.717  0.00  0.00     0.003 A 
ENDROOT
TORSDOF 0
ENDMDL
