MODEL 1
REMARK minimizedAffinity -6.02723455
REMARK minimizedRMSD -1
REMARK  0 active torsions:
REMARK  status: ('A' for Active; 'I' for Inactive)
ROOT
ATOM      1  C2' OXE d   1       1.843   0.008  -0.866  0.00  0.00     0.078 C 
ATOM      2  C1' OXE d   1      -0.833   0.614  -0.272  0.00  0.00     0.078 C 
ATOM      3  C1  OXE d   1      -0.156  -0.456   0.547  0.00  0.00    -0.078 A 
ATOM      4  C2  OXE d   1       1.139  -0.778   0.219  0.00  0.00    -0.078 A 
ATOM      5  C3  OXE d   1       1.829  -1.719   0.979  0.00  0.00     0.003 A 
ATOM      6  C4  OXE d   1       1.168  -2.449   1.974  0.00  0.00    -0.002 A 
ATOM      7  C5  OXE d   1      -0.163  -2.164   2.298  0.00  0.00    -0.002 A 
ATOM      8  C6  OXE d   1      -0.825  -1.143   1.624  0.00  0.00     0.003 A 
ENDROOT
TORSDOF 0
ENDMDL
