MODEL 1
REMARK minimizedAffinity -5.74479342
REMARK minimizedRMSD -1
REMARK  0 active torsions:
REMARK  status: ('A' for Active; 'I' for Inactive)
ROOT
ATOM      1  C2' OXE d   1       1.884   0.125  -0.622  0.00  0.00     0.078 C 
ATOM      2  C1' OXE d   1      -0.809   0.448   0.102  0.00  0.00     0.078 C 
ATOM      3  C1  OXE d   1      -0.042  -0.687   0.733  0.00  0.00    -0.078 A 
ATOM      4  C2  OXE d   1       1.261  -0.867   0.337  0.00  0.00    -0.078 A 
ATOM      5  C3  OXE d   1       2.030  -1.865   0.928  0.00  0.00     0.003 A 
ATOM      6  C4  OXE d   1       1.444  -2.784   1.807  0.00  0.00    -0.002 A 
ATOM      7  C5  OXE d   1       0.107  -2.643   2.193  0.00  0.00    -0.002 A 
ATOM      8  C6  OXE d   1      -0.637  -1.577   1.699  0.00  0.00     0.003 A 
ENDROOT
TORSDOF 0
ENDMDL
