MODEL 1
REMARK minimizedAffinity -4.53530598
REMARK minimizedRMSD -1
REMARK  0 active torsions:
REMARK  status: ('A' for Active; 'I' for Inactive)
ROOT
ATOM      1  C2' OXE d   1       1.001  -2.729   2.137  0.00  0.00     0.078 C 
ATOM      2  C1' OXE d   1      -1.467  -1.646   2.923  0.00  0.00     0.078 C 
ATOM      3  C1  OXE d   1      -0.805  -1.070   1.697  0.00  0.00    -0.078 A 
ATOM      4  C2  OXE d   1       0.425  -1.574   1.346  0.00  0.00    -0.078 A 
ATOM      5  C3  OXE d   1       1.054  -1.116   0.192  0.00  0.00     0.003 A 
ATOM      6  C4  OXE d   1       0.519  -0.040  -0.528  0.00  0.00    -0.002 A 
ATOM      7  C5  OXE d   1      -0.713   0.514  -0.165  0.00  0.00    -0.002 A 
ATOM      8  C6  OXE d   1      -1.406  -0.016   0.917  0.00  0.00     0.003 A 
ENDROOT
TORSDOF 0
ENDMDL
