MODEL 1
REMARK minimizedAffinity -5.84863377
REMARK minimizedRMSD -1
REMARK  0 active torsions:
REMARK  status: ('A' for Active; 'I' for Inactive)
ROOT
ATOM      1  C2' OXE d   1       2.093   0.125  -0.518  0.00  0.00     0.078 C 
ATOM      2  C1' OXE d   1      -0.583   0.910  -0.198  0.00  0.00     0.078 C 
ATOM      3  C1  OXE d   1      -0.109  -0.302   0.565  0.00  0.00    -0.078 A 
ATOM      4  C2  OXE d   1       1.189  -0.707   0.366  0.00  0.00    -0.078 A 
ATOM      5  C3  OXE d   1       1.693  -1.786   1.086  0.00  0.00     0.003 A 
ATOM      6  C4  OXE d   1       0.847  -2.556   1.894  0.00  0.00    -0.002 A 
ATOM      7  C5  OXE d   1      -0.489  -2.185   2.079  0.00  0.00    -0.002 A 
ATOM      8  C6  OXE d   1      -0.970  -1.038   1.457  0.00  0.00     0.003 A 
ENDROOT
TORSDOF 0
ENDMDL
