MODEL 1
REMARK minimizedAffinity -5.74587393
REMARK minimizedRMSD -1
REMARK  0 active torsions:
REMARK  status: ('A' for Active; 'I' for Inactive)
ROOT
ATOM      1  C2' OXE d   1       0.977  -3.014   1.600  0.00  0.00     0.078 C 
ATOM      2  C1' OXE d   1      -1.241  -1.558   2.519  0.00  0.00     0.078 C 
ATOM      3  C1  OXE d   1      -0.426  -0.965   1.396  0.00  0.00    -0.078 A 
ATOM      4  C2  OXE d   1       0.685  -1.662   0.985  0.00  0.00    -0.078 A 
ATOM      5  C3  OXE d   1       1.440  -1.187  -0.084  0.00  0.00     0.003 A 
ATOM      6  C4  OXE d   1       1.169   0.068  -0.640  0.00  0.00    -0.002 A 
ATOM      7  C5  OXE d   1       0.066   0.813  -0.209  0.00  0.00    -0.002 A 
ATOM      8  C6  OXE d   1      -0.764   0.292   0.777  0.00  0.00     0.003 A 
ENDROOT
TORSDOF 0
ENDMDL
