MODEL 1
REMARK minimizedAffinity -4.45004511
REMARK minimizedRMSD -1
REMARK  0 active torsions:
REMARK  status: ('A' for Active; 'I' for Inactive)
ROOT
ATOM      1  C2' OXE d   1      -0.489   1.302  -0.033  0.00  0.00     0.078 C 
ATOM      2  C1' OXE d   1       2.199   0.806  -0.674  0.00  0.00     0.078 C 
ATOM      3  C1  OXE d   1       1.410  -0.310  -0.034  0.00  0.00    -0.078 A 
ATOM      4  C2  OXE d   1       0.109  -0.043   0.318  0.00  0.00    -0.078 A 
ATOM      5  C3  OXE d   1      -0.679  -1.054   0.861  0.00  0.00     0.003 A 
ATOM      6  C4  OXE d   1      -0.115  -2.292   1.192  0.00  0.00    -0.002 A 
ATOM      7  C5  OXE d   1       1.219  -2.571   0.878  0.00  0.00    -0.002 A 
ATOM      8  C6  OXE d   1       1.982  -1.608   0.227  0.00  0.00     0.003 A 
ENDROOT
TORSDOF 0
ENDMDL
