MODEL 1
REMARK minimizedAffinity -5.37122965
REMARK minimizedRMSD -1
REMARK  0 active torsions:
REMARK  status: ('A' for Active; 'I' for Inactive)
ROOT
ATOM      1  C2' OXE d   1      -0.981   0.671   0.469  0.00  0.00     0.078 C 
ATOM      2  C1' OXE d   1      -0.717  -1.666   2.003  0.00  0.00     0.078 C 
ATOM      3  C1  OXE d   1       0.332  -1.390   0.954  0.00  0.00    -0.078 A 
ATOM      4  C2  OXE d   1       0.169  -0.269   0.176  0.00  0.00    -0.078 A 
ATOM      5  C3  OXE d   1       1.137   0.061  -0.768  0.00  0.00     0.003 A 
ATOM      6  C4  OXE d   1       2.192  -0.818  -1.039  0.00  0.00    -0.002 A 
ATOM      7  C5  OXE d   1       2.354  -1.986  -0.286  0.00  0.00    -0.002 A 
ATOM      8  C6  OXE d   1       1.459  -2.264   0.741  0.00  0.00     0.003 A 
ENDROOT
TORSDOF 0
ENDMDL
