MODEL 1
REMARK minimizedAffinity -6.36486816
REMARK minimizedRMSD -1
REMARK  0 active torsions:
REMARK  status: ('A' for Active; 'I' for Inactive)
ROOT
ATOM      1  C2' OXE d   1       1.646  -0.326  -0.747  0.00  0.00     0.078 C 
ATOM      2  C1' OXE d   1      -0.764   0.679   0.283  0.00  0.00     0.078 C 
ATOM      3  C1  OXE d   1      -0.177  -0.547   0.936  0.00  0.00    -0.078 A 
ATOM      4  C2  OXE d   1       0.978  -1.059   0.396  0.00  0.00    -0.078 A 
ATOM      5  C3  OXE d   1       1.591  -2.156   0.995  0.00  0.00     0.003 A 
ATOM      6  C4  OXE d   1       0.962  -2.835   2.045  0.00  0.00    -0.002 A 
ATOM      7  C5  OXE d   1      -0.236  -2.353   2.584  0.00  0.00    -0.002 A 
ATOM      8  C6  OXE d   1      -0.795  -1.189   2.070  0.00  0.00     0.003 A 
ENDROOT
TORSDOF 0
ENDMDL
