MODEL 1
REMARK minimizedAffinity -4.4519453
REMARK minimizedRMSD -1
REMARK  0 active torsions:
REMARK  status: ('A' for Active; 'I' for Inactive)
ROOT
ATOM      1  C2' OXE d   1       1.837   0.688  -0.383  0.00  0.00     0.078 C 
ATOM      2  C1' OXE d   1      -0.954   0.626  -0.089  0.00  0.00     0.078 C 
ATOM      3  C1  OXE d   1      -0.158  -0.499   0.521  0.00  0.00    -0.078 A 
ATOM      4  C2  OXE d   1       1.203  -0.486   0.332  0.00  0.00    -0.078 A 
ATOM      5  C3  OXE d   1       1.991  -1.471   0.921  0.00  0.00     0.003 A 
ATOM      6  C4  OXE d   1       1.397  -2.558   1.573  0.00  0.00    -0.002 A 
ATOM      7  C5  OXE d   1       0.009  -2.612   1.742  0.00  0.00    -0.002 A 
ATOM      8  C6  OXE d   1      -0.777  -1.571   1.260  0.00  0.00     0.003 A 
ENDROOT
TORSDOF 0
ENDMDL
