MODEL 1
REMARK minimizedAffinity -4.78604317
REMARK minimizedRMSD -1
REMARK  0 active torsions:
REMARK  status: ('A' for Active; 'I' for Inactive)
ROOT
ATOM      1  C2' OXE d   1       1.452  -2.664   1.586  0.00  0.00     0.078 C 
ATOM      2  C1' OXE d   1      -0.862  -1.831   2.940  0.00  0.00     0.078 C 
ATOM      3  C1  OXE d   1      -0.444  -1.054   1.716  0.00  0.00    -0.078 A 
ATOM      4  C2  OXE d   1       0.715  -1.440   1.088  0.00  0.00    -0.078 A 
ATOM      5  C3  OXE d   1       1.117  -0.791  -0.077  0.00  0.00     0.003 A 
ATOM      6  C4  OXE d   1       0.435   0.346  -0.526  0.00  0.00    -0.002 A 
ATOM      7  C5  OXE d   1      -0.726   0.780   0.123  0.00  0.00    -0.002 A 
ATOM      8  C6  OXE d   1      -1.202   0.068   1.218  0.00  0.00     0.003 A 
ENDROOT
TORSDOF 0
ENDMDL
