MODEL 1
REMARK minimizedAffinity -6.15593147
REMARK minimizedRMSD -1
REMARK  0 active torsions:
REMARK  status: ('A' for Active; 'I' for Inactive)
ROOT
ATOM      1  C2' OXE d   1      -0.562   0.466   0.329  0.00  0.00     0.078 C 
ATOM      2  C1' OXE d   1       1.659  -0.530  -1.068  0.00  0.00     0.078 C 
ATOM      3  C1  OXE d   1       1.188  -1.297   0.141  0.00  0.00    -0.078 A 
ATOM      4  C2  OXE d   1       0.129  -0.778   0.847  0.00  0.00    -0.078 A 
ATOM      5  C3  OXE d   1      -0.381  -1.474   1.938  0.00  0.00     0.003 A 
ATOM      6  C4  OXE d   1       0.270  -2.618   2.416  0.00  0.00    -0.002 A 
ATOM      7  C5  OXE d   1       1.375  -3.142   1.736  0.00  0.00    -0.002 A 
ATOM      8  C6  OXE d   1       1.819  -2.519   0.575  0.00  0.00     0.003 A 
ENDROOT
TORSDOF 0
ENDMDL
