MODEL 1
REMARK minimizedAffinity -6.07142401
REMARK minimizedRMSD -1
REMARK  0 active torsions:
REMARK  status: ('A' for Active; 'I' for Inactive)
ROOT
ATOM      1  C2' OXE d   1      -0.792   0.621   0.178  0.00  0.00     0.078 C 
ATOM      2  C1' OXE d   1       1.865   0.245  -0.644  0.00  0.00     0.078 C 
ATOM      3  C1  OXE d   1       1.295  -0.727   0.359  0.00  0.00    -0.078 A 
ATOM      4  C2  OXE d   1       0.009  -0.507   0.791  0.00  0.00    -0.078 A 
ATOM      5  C3  OXE d   1      -0.584  -1.405   1.675  0.00  0.00     0.003 A 
ATOM      6  C4  OXE d   1       0.167  -2.440   2.244  0.00  0.00    -0.002 A 
ATOM      7  C5  OXE d   1       1.491  -2.657   1.848  0.00  0.00    -0.002 A 
ATOM      8  C6  OXE d   1       2.055  -1.837   0.877  0.00  0.00     0.003 A 
ENDROOT
TORSDOF 0
ENDMDL
