MODEL 1
REMARK minimizedAffinity -6.32850647
REMARK minimizedRMSD -1
REMARK  0 active torsions:
REMARK  status: ('A' for Active; 'I' for Inactive)
ROOT
ATOM      1  C2' OXE d   1       1.876   0.192  -0.766  0.00  0.00     0.078 C 
ATOM      2  C1' OXE d   1      -0.562   1.030   0.343  0.00  0.00     0.078 C 
ATOM      3  C1  OXE d   1       0.023  -0.271   0.833  0.00  0.00    -0.078 A 
ATOM      4  C2  OXE d   1       1.193  -0.696   0.251  0.00  0.00    -0.078 A 
ATOM      5  C3  OXE d   1       1.804  -1.862   0.705  0.00  0.00     0.003 A 
ATOM      6  C4  OXE d   1       1.160  -2.682   1.639  0.00  0.00    -0.002 A 
ATOM      7  C5  OXE d   1      -0.052  -2.287   2.215  0.00  0.00    -0.002 A 
ATOM      8  C6  OXE d   1      -0.611  -1.066   1.855  0.00  0.00     0.003 A 
ENDROOT
TORSDOF 0
ENDMDL
