MODEL 1
REMARK minimizedAffinity -5.74510098
REMARK minimizedRMSD -1
REMARK  0 active torsions:
REMARK  status: ('A' for Active; 'I' for Inactive)
ROOT
ATOM      1  C2' OXE d   1      -0.749   0.584  -0.298  0.00  0.00     0.078 C 
ATOM      2  C1' OXE d   1       1.818  -0.084  -1.220  0.00  0.00     0.078 C 
ATOM      3  C1  OXE d   1       1.237  -0.907  -0.097  0.00  0.00    -0.078 A 
ATOM      4  C2  OXE d   1       0.000  -0.544   0.379  0.00  0.00    -0.078 A 
ATOM      5  C3  OXE d   1      -0.604  -1.303   1.377  0.00  0.00     0.003 A 
ATOM      6  C4  OXE d   1       0.100  -2.338   2.005  0.00  0.00    -0.002 A 
ATOM      7  C5  OXE d   1       1.377  -2.698   1.562  0.00  0.00    -0.002 A 
ATOM      8  C6  OXE d   1       1.941  -2.022   0.487  0.00  0.00     0.003 A 
ENDROOT
TORSDOF 0
ENDMDL
