MODEL 1
REMARK minimizedAffinity -3.61581349
REMARK minimizedRMSD -1
REMARK  0 active torsions:
REMARK  status: ('A' for Active; 'I' for Inactive)
ROOT
ATOM      1  C2' OXE d   1      -1.051   0.075   0.143  0.00  0.00     0.078 C 
ATOM      2  C1' OXE d   1      -1.848  -1.031   2.596  0.00  0.00     0.078 C 
ATOM      3  C1  OXE d   1      -0.566  -1.534   1.981  0.00  0.00    -0.078 A 
ATOM      4  C2  OXE d   1      -0.208  -1.021   0.758  0.00  0.00    -0.078 A 
ATOM      5  C3  OXE d   1       0.993  -1.410   0.172  0.00  0.00     0.003 A 
ATOM      6  C4  OXE d   1       1.762  -2.431   0.743  0.00  0.00    -0.002 A 
ATOM      7  C5  OXE d   1       1.395  -2.996   1.969  0.00  0.00    -0.002 A 
ATOM      8  C6  OXE d   1       0.258  -2.529   2.621  0.00  0.00     0.003 A 
ENDROOT
TORSDOF 0
ENDMDL
