MODEL 1
REMARK minimizedAffinity -3.98739648
REMARK minimizedRMSD -1
REMARK  0 active torsions:
REMARK  status: ('A' for Active; 'I' for Inactive)
ROOT
ATOM      1  C   UNL d   1      -2.197   2.207   1.334  0.00  0.00     0.077 C 
ATOM      2  C1  UNL d   1      -1.153   1.206   0.938  0.00  0.00    -0.074 A 
ATOM      3  C2  UNL d   1      -0.898   0.082   1.730  0.00  0.00    -0.005 A 
ATOM      4  C3  UNL d   1       0.070  -0.846   1.345  0.00  0.00     0.006 A 
ATOM      5  C4  UNL d   1       0.791  -0.659   0.164  0.00  0.00    -0.005 A 
ATOM      6  C5  UNL d   1       0.549   0.458  -0.641  0.00  0.00    -0.074 A 
ATOM      7  C6  UNL d   1       1.308   0.668  -1.918  0.00  0.00     0.077 C 
ATOM      8  C7  UNL d   1      -0.430   1.382  -0.250  0.00  0.00    -0.001 A 
ENDROOT
TORSDOF 0
ENDMDL
