MODEL 1
REMARK minimizedAffinity -2.77541137
REMARK minimizedRMSD -1
REMARK  0 active torsions:
REMARK  status: ('A' for Active; 'I' for Inactive)
ROOT
ATOM      1  C   UNL d   1      -2.490   1.915   1.290  0.00  0.00     0.077 C 
ATOM      2  C1  UNL d   1      -1.436   0.916   0.918  0.00  0.00    -0.074 A 
ATOM      3  C2  UNL d   1      -1.186  -0.200   1.724  0.00  0.00    -0.005 A 
ATOM      4  C3  UNL d   1      -0.209  -1.126   1.360  0.00  0.00     0.006 A 
ATOM      5  C4  UNL d   1       0.527  -0.947   0.188  0.00  0.00    -0.005 A 
ATOM      6  C5  UNL d   1       0.291   0.162  -0.631  0.00  0.00    -0.074 A 
ATOM      7  C6  UNL d   1       1.067   0.365  -1.898  0.00  0.00     0.077 C 
ATOM      8  C7  UNL d   1      -0.697   1.085  -0.262  0.00  0.00    -0.001 A 
ENDROOT
TORSDOF 0
ENDMDL
