MODEL 1
REMARK minimizedAffinity -2.22115326
REMARK minimizedRMSD -1
REMARK  0 active torsions:
REMARK  status: ('A' for Active; 'I' for Inactive)
ROOT
ATOM      1  C   UNL d   1      -1.515   1.206   1.733  0.00  0.00     0.077 C 
ATOM      2  C1  UNL d   1      -0.580   0.955   0.587  0.00  0.00    -0.074 A 
ATOM      3  C2  UNL d   1      -0.262   1.973  -0.317  0.00  0.00    -0.005 A 
ATOM      4  C3  UNL d   1       0.617   1.728  -1.372  0.00  0.00     0.006 A 
ATOM      5  C4  UNL d   1       1.186   0.463  -1.533  0.00  0.00    -0.005 A 
ATOM      6  C5  UNL d   1       0.880  -0.567  -0.638  0.00  0.00    -0.074 A 
ATOM      7  C6  UNL d   1       1.489  -1.929  -0.791  0.00  0.00     0.077 C 
ATOM      8  C7  UNL d   1       0.001  -0.310   0.424  0.00  0.00    -0.001 A 
ENDROOT
TORSDOF 0
ENDMDL
