MODEL 1
REMARK minimizedAffinity -2.56832814
REMARK minimizedRMSD -1
REMARK  0 active torsions:
REMARK  status: ('A' for Active; 'I' for Inactive)
ROOT
ATOM      1  C   UNL d   1       0.845  -2.019  -0.837  0.00  0.00     0.077 C 
ATOM      2  C1  UNL d   1       0.457  -0.570  -0.857  0.00  0.00    -0.074 A 
ATOM      3  C2  UNL d   1       1.207   0.366  -1.576  0.00  0.00    -0.005 A 
ATOM      4  C3  UNL d   1       0.828   1.708  -1.592  0.00  0.00     0.006 A 
ATOM      5  C4  UNL d   1      -0.303   2.127  -0.891  0.00  0.00    -0.005 A 
ATOM      6  C5  UNL d   1      -1.066   1.206  -0.167  0.00  0.00    -0.074 A 
ATOM      7  C6  UNL d   1      -2.291   1.638   0.583  0.00  0.00     0.077 C 
ATOM      8  C7  UNL d   1      -0.683  -0.143  -0.161  0.00  0.00    -0.001 A 
ENDROOT
TORSDOF 0
ENDMDL
