MODEL 1
REMARK minimizedAffinity -3.96670413
REMARK minimizedRMSD -1
REMARK  0 active torsions:
REMARK  status: ('A' for Active; 'I' for Inactive)
ROOT
ATOM      1  C   UNL d   1      -2.159   2.255   1.703  0.00  0.00     0.077 C 
ATOM      2  C1  UNL d   1      -1.101   1.335   1.169  0.00  0.00    -0.074 A 
ATOM      3  C2  UNL d   1      -0.609   1.483  -0.132  0.00  0.00    -0.005 A 
ATOM      4  C3  UNL d   1       0.382   0.626  -0.611  0.00  0.00     0.006 A 
ATOM      5  C4  UNL d   1       0.889  -0.387   0.204  0.00  0.00    -0.005 A 
ATOM      6  C5  UNL d   1       0.409  -0.550   1.507  0.00  0.00    -0.074 A 
ATOM      7  C6  UNL d   1       0.951  -1.627   2.400  0.00  0.00     0.077 C 
ATOM      8  C7  UNL d   1      -0.581   0.320   1.984  0.00  0.00    -0.001 A 
ENDROOT
TORSDOF 0
ENDMDL
