MODEL 1
REMARK minimizedAffinity -3.96673799
REMARK minimizedRMSD -1
REMARK  0 active torsions:
REMARK  status: ('A' for Active; 'I' for Inactive)
ROOT
ATOM      1  C   UNL d   1       0.624  -1.072   0.214  0.00  0.00     0.077 C 
ATOM      2  C1  UNL d   1       0.087   0.311  -0.006  0.00  0.00    -0.074 A 
ATOM      3  C2  UNL d   1       0.503   1.078  -1.100  0.00  0.00    -0.005 A 
ATOM      4  C3  UNL d   1      -0.012   2.359  -1.297  0.00  0.00     0.006 A 
ATOM      5  C4  UNL d   1      -0.946   2.886  -0.404  0.00  0.00    -0.005 A 
ATOM      6  C5  UNL d   1      -1.374   2.134   0.695  0.00  0.00    -0.074 A 
ATOM      7  C6  UNL d   1      -2.384   2.682   1.659  0.00  0.00     0.077 C 
ATOM      8  C7  UNL d   1      -0.857   0.845   0.883  0.00  0.00    -0.001 A 
ENDROOT
TORSDOF 0
ENDMDL
