MODEL 1
REMARK minimizedAffinity -4.6770277
REMARK minimizedRMSD -1
REMARK  0 active torsions:
REMARK  status: ('A' for Active; 'I' for Inactive)
ROOT
ATOM      1  C   UNL d   1       0.898  -1.437   2.367  0.00  0.00     0.077 C 
ATOM      2  C1  UNL d   1       0.447  -0.537   1.255  0.00  0.00    -0.074 A 
ATOM      3  C2  UNL d   1       1.207  -0.398   0.089  0.00  0.00    -0.005 A 
ATOM      4  C3  UNL d   1       0.770   0.435  -0.940  0.00  0.00     0.006 A 
ATOM      5  C4  UNL d   1      -0.430   1.137  -0.815  0.00  0.00    -0.005 A 
ATOM      6  C5  UNL d   1      -1.204   1.010   0.343  0.00  0.00    -0.074 A 
ATOM      7  C6  UNL d   1      -2.500   1.749   0.490  0.00  0.00     0.077 C 
ATOM      8  C7  UNL d   1      -0.761   0.165   1.370  0.00  0.00    -0.001 A 
ENDROOT
TORSDOF 0
ENDMDL
