MODEL 1
REMARK minimizedAffinity -3.88053393
REMARK minimizedRMSD -1
REMARK  0 active torsions:
REMARK  status: ('A' for Active; 'I' for Inactive)
ROOT
ATOM      1  C   UNL d   1      -2.360   2.226   0.851  0.00  0.00     0.077 C 
ATOM      2  C1  UNL d   1      -1.187   1.675   0.096  0.00  0.00    -0.074 A 
ATOM      3  C2  UNL d   1      -0.617   2.386  -0.965  0.00  0.00    -0.005 A 
ATOM      4  C3  UNL d   1       0.480   1.865  -1.652  0.00  0.00     0.006 A 
ATOM      5  C4  UNL d   1       1.016   0.630  -1.286  0.00  0.00    -0.005 A 
ATOM      6  C5  UNL d   1       0.460  -0.095  -0.227  0.00  0.00    -0.074 A 
ATOM      7  C6  UNL d   1       1.030  -1.419   0.185  0.00  0.00     0.077 C 
ATOM      8  C7  UNL d   1      -0.638   0.438   0.463  0.00  0.00    -0.001 A 
ENDROOT
TORSDOF 0
ENDMDL
