MODEL 1
REMARK minimizedAffinity -4.10456228
REMARK minimizedRMSD -1
REMARK  0 active torsions:
REMARK  status: ('A' for Active; 'I' for Inactive)
ROOT
ATOM      1  C   UNL d   1      -2.217   1.871   1.118  0.00  0.00     0.077 C 
ATOM      2  C1  UNL d   1      -1.166   1.464   0.128  0.00  0.00    -0.074 A 
ATOM      3  C2  UNL d   1      -0.677   2.372  -0.817  0.00  0.00    -0.005 A 
ATOM      4  C3  UNL d   1       0.307   1.981  -1.725  0.00  0.00     0.006 A 
ATOM      5  C4  UNL d   1       0.811   0.681  -1.698  0.00  0.00    -0.005 A 
ATOM      6  C5  UNL d   1       0.336  -0.241  -0.760  0.00  0.00    -0.074 A 
ATOM      7  C6  UNL d   1       0.874  -1.640  -0.711  0.00  0.00     0.077 C 
ATOM      8  C7  UNL d   1      -0.648   0.161   0.154  0.00  0.00    -0.001 A 
ENDROOT
TORSDOF 0
ENDMDL
