MODEL 1
REMARK minimizedAffinity -3.8714149
REMARK minimizedRMSD -1
REMARK  0 active torsions:
REMARK  status: ('A' for Active; 'I' for Inactive)
ROOT
ATOM      1  C   UNL d   1       1.575  -1.946  -1.460  0.00  0.00     0.077 C 
ATOM      2  C1  UNL d   1       0.895  -0.858  -0.683  0.00  0.00    -0.074 A 
ATOM      3  C2  UNL d   1       0.413  -1.090   0.609  0.00  0.00    -0.005 A 
ATOM      4  C3  UNL d   1      -0.209  -0.066   1.322  0.00  0.00     0.006 A 
ATOM      5  C4  UNL d   1      -0.354   1.199   0.752  0.00  0.00    -0.005 A 
ATOM      6  C5  UNL d   1       0.122   1.451  -0.538  0.00  0.00    -0.074 A 
ATOM      7  C6  UNL d   1      -0.017   2.808  -1.162  0.00  0.00     0.077 C 
ATOM      8  C7  UNL d   1       0.752   0.418  -1.246  0.00  0.00    -0.001 A 
ENDROOT
TORSDOF 0
ENDMDL
