MODEL 1
REMARK minimizedAffinity -1.26659322
REMARK minimizedRMSD -1
REMARK  0 active torsions:
REMARK  status: ('A' for Active; 'I' for Inactive)
ROOT
ATOM      1  C   UNL d   1       0.814  -2.120  -2.404  0.00  0.00     0.077 C 
ATOM      2  C1  UNL d   1       0.533  -1.344  -1.152  0.00  0.00    -0.074 A 
ATOM      3  C2  UNL d   1       1.116  -1.709   0.066  0.00  0.00    -0.005 A 
ATOM      4  C3  UNL d   1       0.852  -0.972   1.221  0.00  0.00     0.006 A 
ATOM      5  C4  UNL d   1       0.005   0.136   1.169  0.00  0.00    -0.005 A 
ATOM      6  C5  UNL d   1      -0.586   0.516  -0.040  0.00  0.00    -0.074 A 
ATOM      7  C6  UNL d   1      -1.491   1.710  -0.114  0.00  0.00     0.077 C 
ATOM      8  C7  UNL d   1      -0.311  -0.225  -1.197  0.00  0.00    -0.001 A 
ENDROOT
TORSDOF 0
ENDMDL
