MODEL 1
REMARK minimizedAffinity -4.01172066
REMARK minimizedRMSD -1
REMARK  0 active torsions:
REMARK  status: ('A' for Active; 'I' for Inactive)
ROOT
ATOM      1  C   UNL d   1      -2.521   1.498   1.501  0.00  0.00     0.077 C 
ATOM      2  C1  UNL d   1      -1.327   0.758   0.976  0.00  0.00    -0.074 A 
ATOM      3  C2  UNL d   1      -0.741  -0.275   1.714  0.00  0.00    -0.005 A 
ATOM      4  C3  UNL d   1       0.364  -0.961   1.208  0.00  0.00     0.006 A 
ATOM      5  C4  UNL d   1       0.892  -0.620  -0.038  0.00  0.00    -0.005 A 
ATOM      6  C5  UNL d   1       0.318   0.409  -0.790  0.00  0.00    -0.074 A 
ATOM      7  C6  UNL d   1       0.867   0.781  -2.136  0.00  0.00     0.077 C 
ATOM      8  C7  UNL d   1      -0.796   1.089  -0.278  0.00  0.00    -0.001 A 
ENDROOT
TORSDOF 0
ENDMDL
