MODEL 1
REMARK minimizedAffinity -4.2883029
REMARK minimizedRMSD -1
REMARK  0 active torsions:
REMARK  status: ('A' for Active; 'I' for Inactive)
ROOT
ATOM      1  C   UNL d   1       1.502   1.090  -1.571  0.00  0.00     0.077 C 
ATOM      2  C1  UNL d   1       0.585   0.911  -0.398  0.00  0.00    -0.074 A 
ATOM      3  C2  UNL d   1       0.735  -0.173   0.473  0.00  0.00    -0.005 A 
ATOM      4  C3  UNL d   1      -0.120  -0.321   1.566  0.00  0.00     0.006 A 
ATOM      5  C4  UNL d   1      -1.132   0.612   1.797  0.00  0.00    -0.005 A 
ATOM      6  C5  UNL d   1      -1.296   1.702   0.937  0.00  0.00    -0.074 A 
ATOM      7  C6  UNL d   1      -2.372   2.719   1.178  0.00  0.00     0.077 C 
ATOM      8  C7  UNL d   1      -0.429   1.848  -0.154  0.00  0.00    -0.001 A 
ENDROOT
TORSDOF 0
ENDMDL
