MODEL 1
REMARK minimizedAffinity -1.29285586
REMARK minimizedRMSD -1
REMARK  0 active torsions:
REMARK  status: ('A' for Active; 'I' for Inactive)
ROOT
ATOM      1  C   UNL d   1      -0.476   2.135   3.626  0.00  0.00     0.077 C 
ATOM      2  C1  UNL d   1      -0.852   1.704   2.240  0.00  0.00    -0.074 A 
ATOM      3  C2  UNL d   1      -1.918   2.307   1.564  0.00  0.00    -0.005 A 
ATOM      4  C3  UNL d   1      -2.250   1.903   0.271  0.00  0.00     0.006 A 
ATOM      5  C4  UNL d   1      -1.520   0.893  -0.358  0.00  0.00    -0.005 A 
ATOM      6  C5  UNL d   1      -0.451   0.280   0.301  0.00  0.00    -0.074 A 
ATOM      7  C6  UNL d   1       0.349  -0.800  -0.365  0.00  0.00     0.077 C 
ATOM      8  C7  UNL d   1      -0.119   0.696   1.598  0.00  0.00    -0.001 A 
ENDROOT
TORSDOF 0
ENDMDL
