MODEL 1
REMARK minimizedAffinity -1.85123718
REMARK minimizedRMSD -1
REMARK  0 active torsions:
REMARK  status: ('A' for Active; 'I' for Inactive)
ROOT
ATOM      1  C   UNL d   1       1.061  -0.117  -0.763  0.00  0.00     0.077 C 
ATOM      2  C1  UNL d   1       0.726  -1.457  -1.348  0.00  0.00    -0.074 A 
ATOM      3  C2  UNL d   1       0.038  -1.560  -2.561  0.00  0.00    -0.005 A 
ATOM      4  C3  UNL d   1      -0.259  -2.813  -3.097  0.00  0.00     0.006 A 
ATOM      5  C4  UNL d   1       0.129  -3.974  -2.426  0.00  0.00    -0.005 A 
ATOM      6  C5  UNL d   1       0.818  -3.891  -1.213  0.00  0.00    -0.074 A 
ATOM      7  C6  UNL d   1       1.251  -5.128  -0.484  0.00  0.00     0.077 C 
ATOM      8  C7  UNL d   1       1.119  -2.628  -0.684  0.00  0.00    -0.001 A 
ENDROOT
TORSDOF 0
ENDMDL
