MODEL 1
REMARK minimizedAffinity -4.94457054
REMARK minimizedRMSD -1
REMARK  0 active torsions:
REMARK  status: ('A' for Active; 'I' for Inactive)
ROOT
ATOM      1  C   UNL d   1      -0.184   1.639   3.469  0.00  0.00     0.077 C 
ATOM      2  C1  UNL d   1      -0.698   1.147   2.149  0.00  0.00    -0.074 A 
ATOM      3  C2  UNL d   1      -1.713   1.831   1.473  0.00  0.00    -0.005 A 
ATOM      4  C3  UNL d   1      -2.175   1.366   0.241  0.00  0.00     0.006 A 
ATOM      5  C4  UNL d   1      -1.628   0.215  -0.325  0.00  0.00    -0.005 A 
ATOM      6  C5  UNL d   1      -0.611  -0.482   0.336  0.00  0.00    -0.074 A 
ATOM      7  C6  UNL d   1      -0.005  -1.716  -0.264  0.00  0.00     0.077 C 
ATOM      8  C7  UNL d   1      -0.148  -0.005   1.569  0.00  0.00    -0.001 A 
ENDROOT
TORSDOF 0
ENDMDL
