MODEL 1
REMARK minimizedAffinity -3.92283416
REMARK minimizedRMSD -1
REMARK  0 active torsions:
REMARK  status: ('A' for Active; 'I' for Inactive)
ROOT
ATOM      1  C   UNL d   1       0.736   2.261  -2.244  0.00  0.00     0.077 C 
ATOM      2  C1  UNL d   1       0.096   1.839  -0.955  0.00  0.00    -0.074 A 
ATOM      3  C2  UNL d   1      -0.713   2.721  -0.231  0.00  0.00    -0.005 A 
ATOM      4  C3  UNL d   1      -1.310   2.310   0.961  0.00  0.00     0.006 A 
ATOM      5  C4  UNL d   1      -1.104   1.016   1.440  0.00  0.00    -0.005 A 
ATOM      6  C5  UNL d   1      -0.299   0.120   0.730  0.00  0.00    -0.074 A 
ATOM      7  C6  UNL d   1      -0.076  -1.277   1.227  0.00  0.00     0.077 C 
ATOM      8  C7  UNL d   1       0.291   0.538  -0.471  0.00  0.00    -0.001 A 
ENDROOT
TORSDOF 0
ENDMDL
