MODEL 1
REMARK minimizedAffinity 0.0656299591
REMARK minimizedRMSD -1
REMARK  0 active torsions:
REMARK  status: ('A' for Active; 'I' for Inactive)
ROOT
ATOM      1  C   UNL d   1       1.265  -2.350   3.365  0.00  0.00     0.172 C 
ATOM      2  N   UNL d   1       1.848  -2.150   2.059  0.00  0.00    -0.070 N 
ATOM      3  C1  UNL d   1       2.987  -1.439   1.794  0.00  0.00    -0.004 A 
ATOM      4  C2  UNL d   1       3.207  -1.485   0.434  0.00  0.00    -0.047 A 
ATOM      5  C3  UNL d   1       2.162  -2.249  -0.138  0.00  0.00    -0.047 A 
ATOM      6  C4  UNL d   1       1.335  -2.649   0.891  0.00  0.00    -0.004 A 
ENDROOT
TORSDOF 0
ENDMDL
