MODEL 1
REMARK minimizedAffinity 1.98422647
REMARK minimizedRMSD -1
REMARK  0 active torsions:
REMARK  status: ('A' for Active; 'I' for Inactive)
ROOT
ATOM      1  C   UNL d   1       1.732   1.338   0.228  0.00  0.00     0.172 C 
ATOM      2  N   UNL d   1       2.260  -0.001   0.345  0.00  0.00    -0.070 N 
ATOM      3  C1  UNL d   1       2.946  -0.497   1.421  0.00  0.00    -0.004 A 
ATOM      4  C2  UNL d   1       3.275  -1.807   1.144  0.00  0.00    -0.047 A 
ATOM      5  C3  UNL d   1       2.770  -2.107  -0.143  0.00  0.00    -0.047 A 
ATOM      6  C4  UNL d   1       2.146  -0.972  -0.615  0.00  0.00    -0.004 A 
ENDROOT
TORSDOF 0
ENDMDL
