MODEL 1
REMARK minimizedAffinity 0.71638763
REMARK minimizedRMSD -1
REMARK  0 active torsions:
REMARK  status: ('A' for Active; 'I' for Inactive)
ROOT
ATOM      1  C   UNL d   1      -0.467  -1.718  -1.160  0.00  0.00     0.172 C 
ATOM      2  N   UNL d   1       0.969  -1.839  -1.250  0.00  0.00    -0.070 N 
ATOM      3  C1  UNL d   1       1.647  -2.813  -1.933  0.00  0.00    -0.004 A 
ATOM      4  C2  UNL d   1       2.996  -2.578  -1.774  0.00  0.00    -0.047 A 
ATOM      5  C3  UNL d   1       3.133  -1.424  -0.967  0.00  0.00    -0.047 A 
ATOM      6  C4  UNL d   1       1.863  -0.987  -0.657  0.00  0.00    -0.004 A 
ENDROOT
TORSDOF 0
ENDMDL
