MODEL 1
REMARK minimizedAffinity -1.56595385
REMARK minimizedRMSD -1
REMARK  0 active torsions:
REMARK  status: ('A' for Active; 'I' for Inactive)
ROOT
ATOM      1  C   UNL d   1       3.364  -0.448  -0.509  0.00  0.00     0.172 C 
ATOM      2  N   UNL d   1       1.955  -0.730  -0.653  0.00  0.00    -0.070 N 
ATOM      3  C1  UNL d   1       0.949   0.199  -0.639  0.00  0.00    -0.004 A 
ATOM      4  C2  UNL d   1      -0.245  -0.469  -0.806  0.00  0.00    -0.047 A 
ATOM      5  C3  UNL d   1       0.054  -1.848  -0.922  0.00  0.00    -0.047 A 
ATOM      6  C4  UNL d   1       1.423  -1.981  -0.824  0.00  0.00    -0.004 A 
ENDROOT
TORSDOF 0
ENDMDL
