MODEL 1
REMARK minimizedAffinity 6.92485237
REMARK minimizedRMSD -1
REMARK  0 active torsions:
REMARK  status: ('A' for Active; 'I' for Inactive)
ROOT
ATOM      1  C   UNL d   1      -5.198   0.068  -0.726  0.00  0.00     0.172 C 
ATOM      2  N   UNL d   1      -4.568   0.849   0.312  0.00  0.00    -0.070 N 
ATOM      3  C1  UNL d   1      -5.000   2.066   0.768  0.00  0.00    -0.004 A 
ATOM      4  C2  UNL d   1      -4.132   2.478   1.757  0.00  0.00    -0.047 A 
ATOM      5  C3  UNL d   1      -3.145   1.475   1.899  0.00  0.00    -0.047 A 
ATOM      6  C4  UNL d   1      -3.439   0.478   0.993  0.00  0.00    -0.004 A 
ENDROOT
TORSDOF 0
ENDMDL
