MODEL 1
REMARK minimizedAffinity 4.54022551
REMARK minimizedRMSD -1
REMARK  0 active torsions:
REMARK  status: ('A' for Active; 'I' for Inactive)
ROOT
ATOM      1  C   UNL d   1      -1.776  -0.934   2.372  0.00  0.00     0.124 A 
ATOM      2  C1  UNL d   1      -2.055  -1.848   3.379  0.00  0.00     0.062 A 
ATOM      3  C2  UNL d   1      -1.061  -2.221   4.279  0.00  0.00     0.162 A 
ATOM      4  C3  UNL d   1       0.220  -1.680   4.178  0.00  0.00    -0.034 A 
ATOM      5  C4  UNL d   1       0.493  -0.762   3.162  0.00  0.00     0.162 A 
ATOM      6  C5  UNL d   1      -0.503  -0.392   2.265  0.00  0.00     0.062 A 
ATOM      7  F   UNL d   1      -0.233   0.492   1.293  0.00  0.00    -0.097 F 
ATOM      8  F1  UNL d   1       1.714  -0.222   3.036  0.00  0.00    -0.096 F 
ATOM      9  I   UNL d   1       1.709  -2.236   5.522  0.00  0.00    -0.060 I 
ATOM     10  F2  UNL d   1      -1.358  -3.107   5.242  0.00  0.00    -0.096 F 
ATOM     11  F3  UNL d   1      -3.284  -2.373   3.484  0.00  0.00    -0.097 F 
ATOM     12  F4  UNL d   1      -2.734  -0.577   1.507  0.00  0.00    -0.092 F 
ENDROOT
TORSDOF 0
ENDMDL
