MODEL 1
REMARK minimizedAffinity 14.0127735
REMARK minimizedRMSD -1
REMARK  0 active torsions:
REMARK  status: ('A' for Active; 'I' for Inactive)
ROOT
ATOM      1  C   UNL d   1      -1.705  -1.309   3.235  0.00  0.00     0.124 A 
ATOM      2  C1  UNL d   1      -0.518  -1.881   3.673  0.00  0.00     0.062 A 
ATOM      3  C2  UNL d   1       0.704  -1.366   3.250  0.00  0.00     0.162 A 
ATOM      4  C3  UNL d   1       0.747  -0.273   2.385  0.00  0.00    -0.034 A 
ATOM      5  C4  UNL d   1      -0.451   0.296   1.948  0.00  0.00     0.162 A 
ATOM      6  C5  UNL d   1      -1.670  -0.221   2.374  0.00  0.00     0.062 A 
ATOM      7  F   UNL d   1      -2.816   0.332   1.950  0.00  0.00    -0.097 F 
ATOM      8  F1  UNL d   1      -0.447   1.348   1.116  0.00  0.00    -0.096 F 
ATOM      9  I   UNL d   1       2.572   0.499   1.750  0.00  0.00    -0.060 I 
ATOM     10  F2  UNL d   1       1.835  -1.939   3.689  0.00  0.00    -0.096 F 
ATOM     11  F3  UNL d   1      -0.549  -2.932   4.504  0.00  0.00    -0.097 F 
ATOM     12  F4  UNL d   1      -2.879  -1.806   3.643  0.00  0.00    -0.092 F 
ENDROOT
TORSDOF 0
ENDMDL
