MODEL 1
REMARK minimizedAffinity 30.6919918
REMARK minimizedRMSD -1
REMARK  0 active torsions:
REMARK  status: ('A' for Active; 'I' for Inactive)
ROOT
ATOM      1  C   UNL d   1      -0.144   0.170   2.636  0.00  0.00     0.124 A 
ATOM      2  C1  UNL d   1       0.471  -1.046   2.371  0.00  0.00     0.062 A 
ATOM      3  C2  UNL d   1       1.285  -1.642   3.330  0.00  0.00     0.162 A 
ATOM      4  C3  UNL d   1       1.489  -1.024   4.563  0.00  0.00    -0.034 A 
ATOM      5  C4  UNL d   1       0.868   0.199   4.822  0.00  0.00     0.162 A 
ATOM      6  C5  UNL d   1       0.055   0.791   3.861  0.00  0.00     0.062 A 
ATOM      7  F   UNL d   1      -0.538   1.966   4.118  0.00  0.00    -0.097 F 
ATOM      8  F1  UNL d   1       1.042   0.821   5.998  0.00  0.00    -0.096 F 
ATOM      9  I   UNL d   1       2.705  -1.913   5.999  0.00  0.00    -0.060 I 
ATOM     10  F2  UNL d   1       1.866  -2.818   3.046  0.00  0.00    -0.096 F 
ATOM     11  F3  UNL d   1       0.281  -1.648   1.188  0.00  0.00    -0.097 F 
ATOM     12  F4  UNL d   1      -0.925   0.742   1.711  0.00  0.00    -0.092 F 
ENDROOT
TORSDOF 0
ENDMDL
