MODEL 1
REMARK minimizedAffinity 9.27503681
REMARK minimizedRMSD -1
REMARK  0 active torsions:
REMARK  status: ('A' for Active; 'I' for Inactive)
ROOT
ATOM      1  C   UNL d   1      -0.890  -2.176   3.361  0.00  0.00     0.124 A 
ATOM      2  C1  UNL d   1       0.304  -1.482   3.217  0.00  0.00     0.062 A 
ATOM      3  C2  UNL d   1       0.313  -0.219   2.632  0.00  0.00     0.162 A 
ATOM      4  C3  UNL d   1      -0.876   0.359   2.187  0.00  0.00    -0.034 A 
ATOM      5  C4  UNL d   1      -2.072  -0.345   2.335  0.00  0.00     0.162 A 
ATOM      6  C5  UNL d   1      -2.076  -1.607   2.921  0.00  0.00     0.062 A 
ATOM      7  F   UNL d   1      -3.230  -2.275   3.059  0.00  0.00    -0.097 F 
ATOM      8  F1  UNL d   1      -3.233   0.182   1.919  0.00  0.00    -0.096 F 
ATOM      9  I   UNL d   1      -0.866   2.247   1.312  0.00  0.00    -0.060 I 
ATOM     10  F2  UNL d   1       1.481   0.428   2.505  0.00  0.00    -0.096 F 
ATOM     11  F3  UNL d   1       1.452  -2.030   3.641  0.00  0.00    -0.097 F 
ATOM     12  F4  UNL d   1      -0.895  -3.391   3.924  0.00  0.00    -0.092 F 
ENDROOT
TORSDOF 0
ENDMDL
