MODEL 1
REMARK minimizedAffinity 14.6625357
REMARK minimizedRMSD -1
REMARK  0 active torsions:
REMARK  status: ('A' for Active; 'I' for Inactive)
ROOT
ATOM      1  C   UNL d   1       2.378  -1.939   2.813  0.00  0.00     0.124 A 
ATOM      2  C1  UNL d   1       3.097  -1.687   3.974  0.00  0.00     0.062 A 
ATOM      3  C2  UNL d   1       2.644  -0.737   4.885  0.00  0.00     0.162 A 
ATOM      4  C3  UNL d   1       1.466  -0.032   4.640  0.00  0.00    -0.034 A 
ATOM      5  C4  UNL d   1       0.750  -0.289   3.470  0.00  0.00     0.162 A 
ATOM      6  C5  UNL d   1       1.206  -1.240   2.562  0.00  0.00     0.062 A 
ATOM      7  F   UNL d   1       0.511  -1.481   1.441  0.00  0.00    -0.097 F 
ATOM      8  F1  UNL d   1      -0.387   0.371   3.203  0.00  0.00    -0.096 F 
ATOM      9  I   UNL d   1       0.787   1.390   6.000  0.00  0.00    -0.060 I 
ATOM     10  F2  UNL d   1       3.359  -0.515   5.998  0.00  0.00    -0.096 F 
ATOM     11  F3  UNL d   1       4.230  -2.360   4.218  0.00  0.00    -0.097 F 
ATOM     12  F4  UNL d   1       2.817  -2.852   1.938  0.00  0.00    -0.092 F 
ENDROOT
TORSDOF 0
ENDMDL
