MODEL 1
REMARK minimizedAffinity 15.2927713
REMARK minimizedRMSD -1
REMARK  0 active torsions:
REMARK  status: ('A' for Active; 'I' for Inactive)
ROOT
ATOM      1  C   UNL d   1      -0.680  -0.640   2.527  0.00  0.00     0.124 A 
ATOM      2  C1  UNL d   1       0.573  -0.043   2.527  0.00  0.00     0.062 A 
ATOM      3  C2  UNL d   1       1.604  -0.580   3.292  0.00  0.00     0.162 A 
ATOM      4  C3  UNL d   1       1.387  -1.722   4.063  0.00  0.00    -0.034 A 
ATOM      5  C4  UNL d   1       0.124  -2.316   4.059  0.00  0.00     0.162 A 
ATOM      6  C5  UNL d   1      -0.903  -1.776   3.293  0.00  0.00     0.062 A 
ATOM      7  F   UNL d   1      -2.113  -2.354   3.294  0.00  0.00    -0.097 F 
ATOM      8  F1  UNL d   1      -0.119  -3.415   4.789  0.00  0.00    -0.096 F 
ATOM      9  I   UNL d   1       2.927  -2.528   5.209  0.00  0.00    -0.060 I 
ATOM     10  F2  UNL d   1       2.805   0.018   3.273  0.00  0.00    -0.096 F 
ATOM     11  F3  UNL d   1       0.791   1.055   1.789  0.00  0.00    -0.097 F 
ATOM     12  F4  UNL d   1      -1.671  -0.121   1.791  0.00  0.00    -0.092 F 
ENDROOT
TORSDOF 0
ENDMDL
