MODEL 1
REMARK minimizedAffinity 23.7332153
REMARK minimizedRMSD -1
REMARK  0 active torsions:
REMARK  status: ('A' for Active; 'I' for Inactive)
ROOT
ATOM      1  C   UNL d   1       0.360  -1.511   3.065  0.00  0.00     0.124 A 
ATOM      2  C1  UNL d   1       0.522  -2.381   4.135  0.00  0.00     0.062 A 
ATOM      3  C2  UNL d   1       1.626  -2.260   4.974  0.00  0.00     0.162 A 
ATOM      4  C3  UNL d   1       2.577  -1.265   4.747  0.00  0.00    -0.034 A 
ATOM      5  C4  UNL d   1       2.407  -0.395   3.669  0.00  0.00     0.162 A 
ATOM      6  C5  UNL d   1       1.302  -0.519   2.833  0.00  0.00     0.062 A 
ATOM      7  F   UNL d   1       1.147   0.322   1.800  0.00  0.00    -0.097 F 
ATOM      8  F1  UNL d   1       3.302   0.574   3.422  0.00  0.00    -0.096 F 
ATOM      9  I   UNL d   1       4.229  -1.081   5.999  0.00  0.00    -0.060 I 
ATOM     10  F2  UNL d   1       1.757  -3.114   6.000  0.00  0.00    -0.096 F 
ATOM     11  F3  UNL d   1      -0.387  -3.340   4.360  0.00  0.00    -0.097 F 
ATOM     12  F4  UNL d   1      -0.703  -1.630   2.259  0.00  0.00    -0.092 F 
ENDROOT
TORSDOF 0
ENDMDL
