MODEL 1
REMARK minimizedAffinity 9.9531641
REMARK minimizedRMSD -1
REMARK  0 active torsions:
REMARK  status: ('A' for Active; 'I' for Inactive)
ROOT
ATOM      1  C   UNL d   1      -1.196  -0.727   2.284  0.00  0.00     0.124 A 
ATOM      2  C1  UNL d   1      -0.032   0.005   2.477  0.00  0.00     0.062 A 
ATOM      3  C2  UNL d   1       1.030  -0.544   3.188  0.00  0.00     0.162 A 
ATOM      4  C3  UNL d   1       0.935  -1.834   3.711  0.00  0.00    -0.034 A 
ATOM      5  C4  UNL d   1      -0.238  -2.563   3.514  0.00  0.00     0.162 A 
ATOM      6  C5  UNL d   1      -1.298  -2.010   2.802  0.00  0.00     0.062 A 
ATOM      7  F   UNL d   1      -2.421  -2.718   2.616  0.00  0.00    -0.097 F 
ATOM      8  F1  UNL d   1      -0.363  -3.806   4.003  0.00  0.00    -0.096 F 
ATOM      9  I   UNL d   1       2.522  -2.659   4.776  0.00  0.00    -0.060 I 
ATOM     10  F2  UNL d   1       2.143   0.186   3.360  0.00  0.00    -0.096 F 
ATOM     11  F3  UNL d   1       0.068   1.246   1.978  0.00  0.00    -0.097 F 
ATOM     12  F4  UNL d   1      -2.217  -0.195   1.600  0.00  0.00    -0.092 F 
ENDROOT
TORSDOF 0
ENDMDL
