MODEL 1
REMARK minimizedAffinity 3.86795449
REMARK minimizedRMSD -1
REMARK  3 active torsions:
REMARK  status: ('A' for Active; 'I' for Inactive)
REMARK    1  A    between atoms: C3'_2  and  C2'_3 
REMARK    2  A    between atoms: C2'_3  and  C1'_4 
REMARK    3  A    between atoms: C1'_4  and  C1_5 
ROOT
ATOM      1  C1  N4B d   1       3.494  -0.016  -0.237  0.00  0.00    -0.075 A 
ATOM      2  C2  N4B d   1       2.385   0.611   0.371  0.00  0.00     0.002 A 
ATOM      3  C3  N4B d   1       2.445   1.942   0.702  0.00  0.00     0.002 A 
ATOM      4  C4  N4B d   1       3.606   2.659   0.454  0.00  0.00    -0.004 A 
ATOM      5  C5  N4B d   1       4.665   2.052  -0.156  0.00  0.00     0.002 A 
ATOM      6  C6  N4B d   1       4.616   0.715  -0.499  0.00  0.00     0.002 A 
ENDROOT
BRANCH   1   7
ATOM      7  C1' N4B d   1       3.506  -1.490  -0.538  0.00  0.00     0.057 C 
BRANCH   7   8
ATOM      8  C2' N4B d   1       2.348  -2.161   0.194  0.00  0.00     0.009 C 
BRANCH   8   9
ATOM      9  C3' N4B d   1       1.426  -2.902  -0.759  0.00  0.00     0.004 C 
ATOM     10  C4' N4B d   1       0.079  -2.255  -0.886  0.00  0.00     0.003 C 
ENDBRANCH   8   9
ENDBRANCH   7   8
ENDBRANCH   1   7
TORSDOF 3
ENDMDL
