MODEL 1
REMARK minimizedAffinity 2.66660285
REMARK minimizedRMSD -1
REMARK  3 active torsions:
REMARK  status: ('A' for Active; 'I' for Inactive)
REMARK    1  A    between atoms: C3'_2  and  C2'_3 
REMARK    2  A    between atoms: C2'_3  and  C1'_4 
REMARK    3  A    between atoms: C1'_4  and  C1_5 
ROOT
ATOM      1  C1  N4B d   1       1.405   0.834  -0.129  0.00  0.00    -0.075 A 
ATOM      2  C2  N4B d   1       2.425   1.785   0.095  0.00  0.00     0.002 A 
ATOM      3  C3  N4B d   1       3.720   1.371   0.286  0.00  0.00     0.002 A 
ATOM      4  C4  N4B d   1       4.016   0.016   0.277  0.00  0.00    -0.004 A 
ATOM      5  C5  N4B d   1       3.030  -0.895   0.035  0.00  0.00     0.002 A 
ATOM      6  C6  N4B d   1       1.724  -0.493  -0.163  0.00  0.00     0.002 A 
ENDROOT
BRANCH   1   7
ATOM      7  C1' N4B d   1      -0.039   1.233  -0.258  0.00  0.00     0.057 C 
BRANCH   7   8
ATOM      8  C2' N4B d   1      -0.452   2.028   0.977  0.00  0.00     0.009 C 
BRANCH   8   9
ATOM      9  C3' N4B d   1      -1.213   1.172   1.976  0.00  0.00     0.004 C 
ATOM     10  C4' N4B d   1      -0.338   0.644   3.074  0.00  0.00     0.003 C 
ENDBRANCH   8   9
ENDBRANCH   7   8
ENDBRANCH   1   7
TORSDOF 3
ENDMDL
