MODEL 1
REMARK minimizedAffinity 8.14251614
REMARK minimizedRMSD -1
REMARK  3 active torsions:
REMARK  status: ('A' for Active; 'I' for Inactive)
REMARK    1  A    between atoms: C3'_2  and  C2'_3 
REMARK    2  A    between atoms: C2'_3  and  C1'_4 
REMARK    3  A    between atoms: C1'_4  and  C1_5 
ROOT
ATOM      1  C1  N4B d   1       0.896   0.376  -0.893  0.00  0.00    -0.075 A 
ATOM      2  C2  N4B d   1       1.931   0.876  -0.073  0.00  0.00     0.002 A 
ATOM      3  C3  N4B d   1       2.920   0.034   0.374  0.00  0.00     0.002 A 
ATOM      4  C4  N4B d   1       2.884  -1.310   0.031  0.00  0.00    -0.004 A 
ATOM      5  C5  N4B d   1       1.895  -1.779  -0.783  0.00  0.00     0.002 A 
ATOM      6  C6  N4B d   1       0.897  -0.943  -1.243  0.00  0.00     0.002 A 
ENDROOT
BRANCH   1   7
ATOM      7  C1' N4B d   1      -0.254   1.240  -1.336  0.00  0.00     0.057 C 
BRANCH   7   8
ATOM      8  C2' N4B d   1      -0.676   0.829  -2.743  0.00  0.00     0.009 C 
BRANCH   8   9
ATOM      9  C3' N4B d   1      -2.163   1.036  -2.974  0.00  0.00     0.004 C 
ATOM     10  C4' N4B d   1      -2.459   1.713  -4.279  0.00  0.00     0.003 C 
ENDBRANCH   8   9
ENDBRANCH   7   8
ENDBRANCH   1   7
TORSDOF 3
ENDMDL
