MODEL 1
REMARK minimizedAffinity -1.13701284
REMARK minimizedRMSD -1
REMARK  3 active torsions:
REMARK  status: ('A' for Active; 'I' for Inactive)
REMARK    1  A    between atoms: C3'_2  and  C2'_3 
REMARK    2  A    between atoms: C2'_3  and  C1'_4 
REMARK    3  A    between atoms: C1'_4  and  C1_5 
ROOT
ATOM      1  C1  N4B d   1       2.155  -0.187  -0.180  0.00  0.00    -0.075 A 
ATOM      2  C2  N4B d   1       0.912  -0.004  -0.827  0.00  0.00     0.002 A 
ATOM      3  C3  N4B d   1       0.276   1.212  -0.761  0.00  0.00     0.002 A 
ATOM      4  C4  N4B d   1       0.851   2.248  -0.041  0.00  0.00    -0.004 A 
ATOM      5  C5  N4B d   1       2.064   2.072   0.559  0.00  0.00     0.002 A 
ATOM      6  C6  N4B d   1       2.716   0.857   0.497  0.00  0.00     0.002 A 
ENDROOT
BRANCH   1   7
ATOM      7  C1' N4B d   1       2.846  -1.522  -0.152  0.00  0.00     0.057 C 
BRANCH   7   8
ATOM      8  C2' N4B d   1       2.234  -2.426  -1.218  0.00  0.00     0.009 C 
BRANCH   8   9
ATOM      9  C3' N4B d   1       1.524  -3.622  -0.609  0.00  0.00     0.004 C 
ATOM     10  C4' N4B d   1       0.348  -4.075  -1.423  0.00  0.00     0.003 C 
ENDBRANCH   8   9
ENDBRANCH   7   8
ENDBRANCH   1   7
TORSDOF 3
ENDMDL
