MODEL 1
REMARK minimizedAffinity 2.86146188
REMARK minimizedRMSD -1
REMARK  3 active torsions:
REMARK  status: ('A' for Active; 'I' for Inactive)
REMARK    1  A    between atoms: C3'_2  and  C2'_3 
REMARK    2  A    between atoms: C2'_3  and  C1'_4 
REMARK    3  A    between atoms: C1'_4  and  C1_5 
ROOT
ATOM      1  C1  N4B d   1       0.160  -1.097  -0.610  0.00  0.00    -0.075 A 
ATOM      2  C2  N4B d   1       0.919   0.011  -0.172  0.00  0.00     0.002 A 
ATOM      3  C3  N4B d   1       0.506   1.287  -0.468  0.00  0.00     0.002 A 
ATOM      4  C4  N4B d   1      -0.648   1.478  -1.213  0.00  0.00    -0.004 A 
ATOM      5  C5  N4B d   1      -1.390   0.404  -1.610  0.00  0.00     0.002 A 
ATOM      6  C6  N4B d   1      -0.988  -0.884  -1.316  0.00  0.00     0.002 A 
ENDROOT
BRANCH   1   7
ATOM      7  C1' N4B d   1       0.618  -2.512  -0.384  0.00  0.00     0.057 C 
BRANCH   7   8
ATOM      8  C2' N4B d   1       2.098  -2.507  -0.015  0.00  0.00     0.009 C 
BRANCH   8   9
ATOM      9  C3' N4B d   1       2.982  -2.214  -1.215  0.00  0.00     0.004 C 
ATOM     10  C4' N4B d   1       2.953  -3.310  -2.239  0.00  0.00     0.003 C 
ENDBRANCH   8   9
ENDBRANCH   7   8
ENDBRANCH   1   7
TORSDOF 3
ENDMDL
