MODEL 1
REMARK minimizedAffinity 3.53028393
REMARK minimizedRMSD -1
REMARK  1 active torsions:
REMARK  status: ('A' for Active; 'I' for Inactive)
REMARK    1  A    between atoms: N_2  and  C1_3 
ROOT
ATOM      1  C1  UNL d   1       1.316   2.567  -2.958  0.00  0.00     0.143 A 
ATOM      2  C2  UNL d   1       2.139   2.710  -1.836  0.00  0.00    -0.057 A 
ATOM      3  C3  UNL d   1       2.806   1.611  -1.280  0.00  0.00     0.033 A 
ATOM      4  C4  UNL d   1       2.637   0.341  -1.821  0.00  0.00    -0.042 A 
ATOM      5  C5  UNL d   1       1.803   0.171  -2.920  0.00  0.00     0.033 A 
ATOM      6  C6  UNL d   1       1.145   1.273  -3.475  0.00  0.00    -0.057 A 
ENDROOT
BRANCH   1   7
ATOM      7  N   UNL d   1       0.549   3.603  -3.496  0.00  0.00    -0.732 N 
ATOM      8  C   UNL d   1      -0.889   3.478  -3.602  0.00  0.00     0.284 C 
ATOM      9  H3  UNL d   1       0.865   4.520  -3.190  0.00  0.00     0.395 HD
ENDBRANCH   1   7
TORSDOF 1
ENDMDL
