MODEL 1
REMARK minimizedAffinity -0.0687078014
REMARK minimizedRMSD -1
REMARK  1 active torsions:
REMARK  status: ('A' for Active; 'I' for Inactive)
REMARK    1  A    between atoms: N_2  and  C1_3 
ROOT
ATOM      1  C1  UNL d   1      -4.524   1.417  -5.184  0.00  0.00     0.143 A 
ATOM      2  C2  UNL d   1      -5.526   2.393  -5.179  0.00  0.00    -0.057 A 
ATOM      3  C3  UNL d   1      -5.261   3.704  -4.768  0.00  0.00     0.033 A 
ATOM      4  C4  UNL d   1      -3.990   4.057  -4.325  0.00  0.00    -0.042 A 
ATOM      5  C5  UNL d   1      -2.985   3.098  -4.298  0.00  0.00     0.033 A 
ATOM      6  C6  UNL d   1      -3.254   1.791  -4.716  0.00  0.00    -0.057 A 
ENDROOT
BRANCH   1   7
ATOM      7  N   UNL d   1      -4.748   0.072  -5.488  0.00  0.00    -0.732 N 
ATOM      8  C   UNL d   1      -5.647  -0.726  -4.682  0.00  0.00     0.284 C 
ATOM      9  H3  UNL d   1      -4.832  -0.091  -6.489  0.00  0.00     0.395 HD
ENDBRANCH   1   7
TORSDOF 1
ENDMDL
