MODEL 1
REMARK minimizedAffinity 0.910005867
REMARK minimizedRMSD -1
REMARK  1 active torsions:
REMARK  status: ('A' for Active; 'I' for Inactive)
REMARK    1  A    between atoms: N_2  and  C1_3 
ROOT
ATOM      1  C1  UNL d   1       0.572  -1.698   2.359  0.00  0.00     0.143 A 
ATOM      2  C2  UNL d   1       1.829  -1.347   2.865  0.00  0.00    -0.057 A 
ATOM      3  C3  UNL d   1       2.910  -1.096   2.012  0.00  0.00     0.033 A 
ATOM      4  C4  UNL d   1       2.761  -1.221   0.634  0.00  0.00    -0.042 A 
ATOM      5  C5  UNL d   1       1.528  -1.594   0.111  0.00  0.00     0.033 A 
ATOM      6  C6  UNL d   1       0.450  -1.836   0.968  0.00  0.00    -0.057 A 
ENDROOT
BRANCH   1   7
ATOM      7  N   UNL d   1      -0.516  -2.055   3.159  0.00  0.00    -0.732 N 
ATOM      8  C   UNL d   1      -0.854  -3.447   3.364  0.00  0.00     0.284 C 
ATOM      9  H3  UNL d   1      -0.586  -1.482   3.997  0.00  0.00     0.395 HD
ENDBRANCH   1   7
TORSDOF 1
ENDMDL
