MODEL 1
REMARK minimizedAffinity 6.91743946
REMARK minimizedRMSD -1
REMARK  1 active torsions:
REMARK  status: ('A' for Active; 'I' for Inactive)
REMARK    1  A    between atoms: N_2  and  C1_3 
ROOT
ATOM      1  C1  UNL d   1      -3.373   0.665  -3.775  0.00  0.00     0.143 A 
ATOM      2  C2  UNL d   1      -4.091   1.171  -4.863  0.00  0.00    -0.057 A 
ATOM      3  C3  UNL d   1      -4.415   0.362  -5.959  0.00  0.00     0.033 A 
ATOM      4  C4  UNL d   1      -4.001  -0.965  -5.998  0.00  0.00    -0.042 A 
ATOM      5  C5  UNL d   1      -3.265  -1.483  -4.939  0.00  0.00     0.033 A 
ATOM      6  C6  UNL d   1      -2.949  -0.672  -3.844  0.00  0.00    -0.057 A 
ENDROOT
BRANCH   1   7
ATOM      7  N   UNL d   1      -2.934   1.444  -2.701  0.00  0.00    -0.732 N 
ATOM      8  C   UNL d   1      -2.287   2.718  -2.931  0.00  0.00     0.284 C 
ATOM      9  H3  UNL d   1      -3.596   1.447  -1.928  0.00  0.00     0.395 HD
ENDBRANCH   1   7
TORSDOF 1
ENDMDL
