MODEL 1
REMARK minimizedAffinity 4.22189379
REMARK minimizedRMSD -1
REMARK  1 active torsions:
REMARK  status: ('A' for Active; 'I' for Inactive)
REMARK    1  A    between atoms: N_2  and  C1_3 
ROOT
ATOM      1  C1  UNL d   1      -0.302  -0.262   3.160  0.00  0.00     0.143 A 
ATOM      2  C2  UNL d   1      -0.278  -1.194   2.118  0.00  0.00    -0.057 A 
ATOM      3  C3  UNL d   1       0.922  -1.774   1.690  0.00  0.00     0.033 A 
ATOM      4  C4  UNL d   1       2.127  -1.409   2.279  0.00  0.00    -0.042 A 
ATOM      5  C5  UNL d   1       2.131  -0.465   3.301  0.00  0.00     0.033 A 
ATOM      6  C6  UNL d   1       0.928   0.106   3.728  0.00  0.00    -0.057 A 
ENDROOT
BRANCH   1   7
ATOM      7  N   UNL d   1      -1.450   0.424   3.565  0.00  0.00    -0.732 N 
ATOM      8  C   UNL d   1      -2.486   0.755   2.610  0.00  0.00     0.284 C 
ATOM      9  H3  UNL d   1      -1.801   0.097   4.463  0.00  0.00     0.395 HD
ENDBRANCH   1   7
TORSDOF 1
ENDMDL
