MODEL 1
REMARK minimizedAffinity 4.39587688
REMARK minimizedRMSD -1
REMARK  1 active torsions:
REMARK  status: ('A' for Active; 'I' for Inactive)
REMARK    1  A    between atoms: N_2  and  C1_3 
ROOT
ATOM      1  C1  UNL d   1       1.281   0.322   3.049  0.00  0.00     0.143 A 
ATOM      2  C2  UNL d   1       2.077  -0.825   2.976  0.00  0.00    -0.057 A 
ATOM      3  C3  UNL d   1       1.507  -2.100   2.875  0.00  0.00     0.033 A 
ATOM      4  C4  UNL d   1       0.125  -2.252   2.876  0.00  0.00    -0.042 A 
ATOM      5  C5  UNL d   1      -0.687  -1.127   2.974  0.00  0.00     0.033 A 
ATOM      6  C6  UNL d   1      -0.112   0.144   3.067  0.00  0.00    -0.057 A 
ENDROOT
BRANCH   1   7
ATOM      7  N   UNL d   1       1.787   1.609   3.249  0.00  0.00    -0.732 N 
ATOM      8  C   UNL d   1       1.400   2.697   2.377  0.00  0.00     0.284 C 
ATOM      9  H3  UNL d   1       1.829   1.861   4.234  0.00  0.00     0.395 HD
ENDBRANCH   1   7
TORSDOF 1
ENDMDL
