MODEL 1
REMARK minimizedAffinity 3.26768422
REMARK minimizedRMSD -1
REMARK  1 active torsions:
REMARK  status: ('A' for Active; 'I' for Inactive)
REMARK    1  A    between atoms: N_2  and  C1_3 
ROOT
ATOM      1  C1  UNL d   1      -1.807  -1.540   1.518  0.00  0.00     0.143 A 
ATOM      2  C2  UNL d   1      -1.208  -2.752   1.877  0.00  0.00    -0.057 A 
ATOM      3  C3  UNL d   1       0.012  -2.785   2.563  0.00  0.00     0.033 A 
ATOM      4  C4  UNL d   1       0.672  -1.601   2.878  0.00  0.00    -0.042 A 
ATOM      5  C5  UNL d   1       0.107  -0.385   2.509  0.00  0.00     0.033 A 
ATOM      6  C6  UNL d   1      -1.115  -0.359   1.830  0.00  0.00    -0.057 A 
ENDROOT
BRANCH   1   7
ATOM      7  N   UNL d   1      -2.969  -1.444   0.749  0.00  0.00    -0.732 N 
ATOM      8  C   UNL d   1      -2.901  -1.463  -0.696  0.00  0.00     0.284 C 
ATOM      9  H3  UNL d   1      -3.737  -1.987   1.137  0.00  0.00     0.395 HD
ENDBRANCH   1   7
TORSDOF 1
ENDMDL
