MODEL 1
REMARK minimizedAffinity 1.98661423
REMARK minimizedRMSD -1
REMARK  1 active torsions:
REMARK  status: ('A' for Active; 'I' for Inactive)
REMARK    1  A    between atoms: N_2  and  C1_3 
ROOT
ATOM      1  C1  UNL d   1       2.585  -1.176   0.758  0.00  0.00     0.143 A 
ATOM      2  C2  UNL d   1       1.929  -1.434  -0.450  0.00  0.00    -0.057 A 
ATOM      3  C3  UNL d   1       2.417  -0.933  -1.663  0.00  0.00     0.033 A 
ATOM      4  C4  UNL d   1       3.558  -0.137  -1.685  0.00  0.00    -0.042 A 
ATOM      5  C5  UNL d   1       4.212   0.153  -0.492  0.00  0.00     0.033 A 
ATOM      6  C6  UNL d   1       3.723  -0.357   0.714  0.00  0.00    -0.057 A 
ENDROOT
BRANCH   1   7
ATOM      7  N   UNL d   1       2.094  -1.564   2.007  0.00  0.00    -0.732 N 
ATOM      8  C   UNL d   1       0.887  -0.971   2.542  0.00  0.00     0.284 C 
ATOM      9  H3  UNL d   1       2.167  -2.568   2.159  0.00  0.00     0.395 HD
ENDBRANCH   1   7
TORSDOF 1
ENDMDL
