MODEL 1
REMARK minimizedAffinity 1.24110234
REMARK minimizedRMSD -1
REMARK  1 active torsions:
REMARK  status: ('A' for Active; 'I' for Inactive)
REMARK    1  A    between atoms: N_2  and  C1_3 
ROOT
ATOM      1  C1  UNL d   1      -4.781  -1.082  -4.411  0.00  0.00     0.143 A 
ATOM      2  C2  UNL d   1      -5.273   0.185  -4.080  0.00  0.00    -0.057 A 
ATOM      3  C3  UNL d   1      -4.793   1.338  -4.712  0.00  0.00     0.033 A 
ATOM      4  C4  UNL d   1      -3.787   1.246  -5.669  0.00  0.00    -0.042 A 
ATOM      5  C5  UNL d   1      -3.266  -0.000  -5.996  0.00  0.00     0.033 A 
ATOM      6  C6  UNL d   1      -3.755  -1.149  -5.366  0.00  0.00    -0.057 A 
ENDROOT
BRANCH   1   7
ATOM      7  N   UNL d   1      -5.148  -2.256  -3.749  0.00  0.00    -0.732 N 
ATOM      8  C   UNL d   1      -4.323  -2.792  -2.687  0.00  0.00     0.284 C 
ATOM      9  H3  UNL d   1      -6.147  -2.301  -3.562  0.00  0.00     0.395 HD
ENDBRANCH   1   7
TORSDOF 1
ENDMDL
