MODEL 1
REMARK minimizedAffinity -3.27365565
REMARK minimizedRMSD -1
REMARK  1 active torsions:
REMARK  status: ('A' for Active; 'I' for Inactive)
REMARK    1  A    between atoms: C1_2  and  C2_3 
ROOT
ATOM      1  C2  UNL d   1      -0.657   0.777   0.670  0.00  0.00    -0.077 A 
ATOM      2  C3  UNL d   1      -1.830   0.526   1.395  0.00  0.00     0.002 A 
ATOM      3  C4  UNL d   1      -2.518   1.574   2.010  0.00  0.00     0.002 A 
ATOM      4  C5  UNL d   1      -2.044   2.880   1.901  0.00  0.00    -0.004 A 
ATOM      5  C6  UNL d   1      -0.877   3.139   1.184  0.00  0.00     0.002 A 
ATOM      6  C7  UNL d   1      -0.187   2.092   0.570  0.00  0.00     0.002 A 
ENDROOT
BRANCH   1   7
ATOM      7  C1  UNL d   1       0.060  -0.346  -0.034  0.00  0.00     0.055 C 
ATOM      8  C   UNL d   1       1.148   0.185  -0.956  0.00  0.00     0.019 C 
ENDBRANCH   1   7
TORSDOF 1
ENDMDL
