MODEL 1
REMARK minimizedAffinity -5.7718997
REMARK minimizedRMSD -1
REMARK  1 active torsions:
REMARK  status: ('A' for Active; 'I' for Inactive)
REMARK    1  A    between atoms: C1_2  and  C2_3 
ROOT
ATOM      1  C2  UNL d   1       0.057   0.034   0.165  0.00  0.00    -0.077 A 
ATOM      2  C3  UNL d   1      -0.283  -0.504   1.415  0.00  0.00     0.002 A 
ATOM      3  C4  UNL d   1      -1.293   0.078   2.183  0.00  0.00     0.002 A 
ATOM      4  C5  UNL d   1      -1.974   1.198   1.710  0.00  0.00    -0.004 A 
ATOM      5  C6  UNL d   1      -1.642   1.741   0.469  0.00  0.00     0.002 A 
ATOM      6  C7  UNL d   1      -0.632   1.162  -0.300  0.00  0.00     0.002 A 
ENDROOT
BRANCH   1   7
ATOM      7  C1  UNL d   1       1.112  -0.622  -0.687  0.00  0.00     0.055 C 
ATOM      8  C   UNL d   1       0.532  -1.772  -1.498  0.00  0.00     0.019 C 
ENDBRANCH   1   7
TORSDOF 1
ENDMDL
