MODEL 1
REMARK minimizedAffinity -3.08467269
REMARK minimizedRMSD -1
REMARK  1 active torsions:
REMARK  status: ('A' for Active; 'I' for Inactive)
REMARK    1  A    between atoms: C1_2  and  C2_3 
ROOT
ATOM      1  C2  UNL d   1       0.373   0.548   0.180  0.00  0.00    -0.077 A 
ATOM      2  C3  UNL d   1      -0.678   0.946   1.019  0.00  0.00     0.002 A 
ATOM      3  C4  UNL d   1      -1.017   0.181   2.137  0.00  0.00     0.002 A 
ATOM      4  C5  UNL d   1      -0.309  -0.983   2.428  0.00  0.00    -0.004 A 
ATOM      5  C6  UNL d   1       0.736  -1.388   1.598  0.00  0.00     0.002 A 
ATOM      6  C7  UNL d   1       1.076  -0.625   0.480  0.00  0.00     0.002 A 
ENDROOT
BRANCH   1   7
ATOM      7  C1  UNL d   1       0.772   1.398  -0.998  0.00  0.00     0.055 C 
ATOM      8  C   UNL d   1       0.255   2.822  -0.854  0.00  0.00     0.019 C 
ENDBRANCH   1   7
TORSDOF 1
ENDMDL
