MODEL 1
REMARK minimizedAffinity -3.5910933
REMARK minimizedRMSD -1
REMARK  1 active torsions:
REMARK  status: ('A' for Active; 'I' for Inactive)
REMARK    1  A    between atoms: C1_2  and  C2_3 
ROOT
ATOM      1  C2  UNL d   1      -0.967   0.872   0.698  0.00  0.00    -0.077 A 
ATOM      2  C3  UNL d   1      -0.726   1.534  -0.514  0.00  0.00     0.002 A 
ATOM      3  C4  UNL d   1       0.287   1.095  -1.369  0.00  0.00     0.002 A 
ATOM      4  C5  UNL d   1       1.063  -0.009  -1.023  0.00  0.00    -0.004 A 
ATOM      5  C6  UNL d   1       0.832  -0.673   0.182  0.00  0.00     0.002 A 
ATOM      6  C7  UNL d   1      -0.179  -0.235   1.038  0.00  0.00     0.002 A 
ENDROOT
BRANCH   1   7
ATOM      7  C1  UNL d   1      -2.091   1.314   1.599  0.00  0.00     0.055 C 
ATOM      8  C   UNL d   1      -2.374   2.801   1.442  0.00  0.00     0.019 C 
ENDBRANCH   1   7
TORSDOF 1
ENDMDL
