MODEL 1
REMARK minimizedAffinity -4.40025187
REMARK minimizedRMSD -1
REMARK  1 active torsions:
REMARK  status: ('A' for Active; 'I' for Inactive)
REMARK    1  A    between atoms: C1_2  and  C2_3 
ROOT
ATOM      1  C2  UNL d   1       0.473  -1.143  -1.205  0.00  0.00    -0.077 A 
ATOM      2  C3  UNL d   1       1.737  -1.514  -1.685  0.00  0.00     0.002 A 
ATOM      3  C4  UNL d   1       1.857  -2.475  -2.690  0.00  0.00     0.002 A 
ATOM      4  C5  UNL d   1       0.718  -3.071  -3.226  0.00  0.00    -0.004 A 
ATOM      5  C6  UNL d   1      -0.544  -2.711  -2.755  0.00  0.00     0.002 A 
ATOM      6  C7  UNL d   1      -0.666  -1.751  -1.749  0.00  0.00     0.002 A 
ENDROOT
BRANCH   1   7
ATOM      7  C1  UNL d   1       0.338  -0.071  -0.156  0.00  0.00     0.055 C 
ATOM      8  C   UNL d   1      -0.833  -0.350   0.775  0.00  0.00     0.019 C 
ENDBRANCH   1   7
TORSDOF 1
ENDMDL
