MODEL 1
REMARK minimizedAffinity -2.60965085
REMARK minimizedRMSD -1
REMARK  1 active torsions:
REMARK  status: ('A' for Active; 'I' for Inactive)
REMARK    1  A    between atoms: C1_2  and  C2_3 
ROOT
ATOM      1  C2  UNL d   1      -0.746   1.143   1.254  0.00  0.00    -0.077 A 
ATOM      2  C3  UNL d   1      -0.666   1.348  -0.130  0.00  0.00     0.002 A 
ATOM      3  C4  UNL d   1      -0.073   0.389  -0.954  0.00  0.00     0.002 A 
ATOM      4  C5  UNL d   1       0.441  -0.783  -0.403  0.00  0.00    -0.004 A 
ATOM      5  C6  UNL d   1       0.368  -0.996   0.974  0.00  0.00     0.002 A 
ATOM      6  C7  UNL d   1      -0.223  -0.038   1.798  0.00  0.00     0.002 A 
ENDROOT
BRANCH   1   7
ATOM      7  C1  UNL d   1      -1.429   2.153   2.138  0.00  0.00     0.055 C 
ATOM      8  C   UNL d   1      -2.188   3.185   1.315  0.00  0.00     0.019 C 
ENDBRANCH   1   7
TORSDOF 1
ENDMDL
