MODEL 1
REMARK minimizedAffinity -3.74821949
REMARK minimizedRMSD -1
REMARK  1 active torsions:
REMARK  status: ('A' for Active; 'I' for Inactive)
REMARK    1  A    between atoms: C1_2  and  C2_3 
ROOT
ATOM      1  C2  UNL d   1      -0.527   1.154   0.429  0.00  0.00    -0.077 A 
ATOM      2  C3  UNL d   1       0.220   2.045  -0.354  0.00  0.00     0.002 A 
ATOM      3  C4  UNL d   1       0.030   3.423  -0.232  0.00  0.00     0.002 A 
ATOM      4  C5  UNL d   1      -0.904   3.921   0.674  0.00  0.00    -0.004 A 
ATOM      5  C6  UNL d   1      -1.654   3.043   1.455  0.00  0.00     0.002 A 
ATOM      6  C7  UNL d   1      -1.466   1.666   1.334  0.00  0.00     0.002 A 
ENDROOT
BRANCH   1   7
ATOM      7  C1  UNL d   1      -0.289  -0.331   0.334  0.00  0.00     0.055 C 
ATOM      8  C   UNL d   1       1.087  -0.634  -0.241  0.00  0.00     0.019 C 
ENDBRANCH   1   7
TORSDOF 1
ENDMDL
