MODEL 1
REMARK minimizedAffinity -5.84433174
REMARK minimizedRMSD -1
REMARK  1 active torsions:
REMARK  status: ('A' for Active; 'I' for Inactive)
REMARK    1  A    between atoms: C1_2  and  C2_3 
ROOT
ATOM      1  C2  UNL d   1      -0.145   0.969   0.618  0.00  0.00    -0.077 A 
ATOM      2  C3  UNL d   1      -1.104   1.472   1.508  0.00  0.00     0.002 A 
ATOM      3  C4  UNL d   1      -1.611   2.762   1.345  0.00  0.00     0.002 A 
ATOM      4  C5  UNL d   1      -1.169   3.558   0.290  0.00  0.00    -0.004 A 
ATOM      5  C6  UNL d   1      -0.214   3.067  -0.600  0.00  0.00     0.002 A 
ATOM      6  C7  UNL d   1       0.295   1.778  -0.437  0.00  0.00     0.002 A 
ENDROOT
BRANCH   1   7
ATOM      7  C1  UNL d   1       0.367  -0.440   0.764  0.00  0.00     0.055 C 
ATOM      8  C   UNL d   1       0.746  -1.034  -0.585  0.00  0.00     0.019 C 
ENDBRANCH   1   7
TORSDOF 1
ENDMDL
