MODEL 1
REMARK minimizedAffinity -2.74185276
REMARK minimizedRMSD -1
REMARK  1 active torsions:
REMARK  status: ('A' for Active; 'I' for Inactive)
REMARK    1  A    between atoms: C1_2  and  C2_3 
ROOT
ATOM      1  C2  UNL d   1       0.943  -1.626  -0.902  0.00  0.00    -0.077 A 
ATOM      2  C3  UNL d   1       0.363  -1.572  -2.177  0.00  0.00     0.002 A 
ATOM      3  C4  UNL d   1       0.356  -2.701  -2.998  0.00  0.00     0.002 A 
ATOM      4  C5  UNL d   1       0.922  -3.893  -2.551  0.00  0.00    -0.004 A 
ATOM      5  C6  UNL d   1       1.503  -3.957  -1.286  0.00  0.00     0.002 A 
ATOM      6  C7  UNL d   1       1.513  -2.829  -0.464  0.00  0.00     0.002 A 
ENDROOT
BRANCH   1   7
ATOM      7  C1  UNL d   1       0.908  -0.423   0.005  0.00  0.00     0.055 C 
ATOM      8  C   UNL d   1       0.239  -0.750   1.332  0.00  0.00     0.019 C 
ENDBRANCH   1   7
TORSDOF 1
ENDMDL
