MODEL 1
REMARK minimizedAffinity 7.78253603
REMARK minimizedRMSD -1
REMARK  1 active torsions:
REMARK  status: ('A' for Active; 'I' for Inactive)
REMARK    1  A    between atoms: C3_4  and  O_7 
ROOT
ATOM      1  C   UNL d   1       6.000   2.414  -0.422  0.00  0.00    -0.033 A 
ATOM      2  C1  UNL d   1       5.909   1.546   0.669  0.00  0.00     0.039 A 
ATOM      3  C2  UNL d   1       4.996   0.491   0.649  0.00  0.00    -0.080 A 
ATOM      4  C3  UNL d   1       4.180   0.313  -0.465  0.00  0.00     0.150 A 
ATOM      5  C4  UNL d   1       4.268   1.171  -1.556  0.00  0.00    -0.007 A 
ATOM      6  C5  UNL d   1       5.180   2.225  -1.535  0.00  0.00     0.039 A 
ENDROOT
BRANCH   4   7
ATOM      7  O   UNL d   1       3.270  -0.700  -0.528  0.00  0.00    -0.526 OA
ATOM      8  H5  UNL d   1       3.302  -1.194   0.309  0.00  0.00     0.418 HD
ENDBRANCH   4   7
TORSDOF 1
ENDMDL
