MODEL 1
REMARK minimizedAffinity 1.06072748
REMARK minimizedRMSD -1
REMARK  1 active torsions:
REMARK  status: ('A' for Active; 'I' for Inactive)
REMARK    1  A    between atoms: C3_4  and  O_7 
ROOT
ATOM      1  C   UNL d   1      -6.000   2.491  -3.540  0.00  0.00    -0.033 A 
ATOM      2  C1  UNL d   1      -5.809   1.152  -3.887  0.00  0.00     0.039 A 
ATOM      3  C2  UNL d   1      -4.737   0.786  -4.704  0.00  0.00    -0.080 A 
ATOM      4  C3  UNL d   1      -3.864   1.767  -5.166  0.00  0.00     0.150 A 
ATOM      5  C4  UNL d   1      -4.046   3.102  -4.821  0.00  0.00    -0.007 A 
ATOM      6  C5  UNL d   1      -5.117   3.466  -4.006  0.00  0.00     0.039 A 
ENDROOT
BRANCH   4   7
ATOM      7  O   UNL d   1      -2.807   1.459  -5.969  0.00  0.00    -0.526 OA
ATOM      8  H5  UNL d   1      -2.824   0.504  -6.147  0.00  0.00     0.418 HD
ENDBRANCH   4   7
TORSDOF 1
ENDMDL
