MODEL 1
REMARK minimizedAffinity -0.210880458
REMARK minimizedRMSD -1
REMARK  1 active torsions:
REMARK  status: ('A' for Active; 'I' for Inactive)
REMARK    1  A    between atoms: C3_4  and  O_7 
ROOT
ATOM      1  C   UNL d   1      -2.297   0.782  -4.105  0.00  0.00    -0.033 A 
ATOM      2  C1  UNL d   1      -2.885   1.303  -5.259  0.00  0.00     0.039 A 
ATOM      3  C2  UNL d   1      -4.133   0.839  -5.680  0.00  0.00    -0.080 A 
ATOM      4  C3  UNL d   1      -4.782  -0.144  -4.937  0.00  0.00     0.150 A 
ATOM      5  C4  UNL d   1      -4.204  -0.665  -3.784  0.00  0.00    -0.007 A 
ATOM      6  C5  UNL d   1      -2.957  -0.201  -3.367  0.00  0.00     0.039 A 
ENDROOT
BRANCH   4   7
ATOM      7  O   UNL d   1      -5.999  -0.632  -5.310  0.00  0.00    -0.526 OA
ATOM      8  H5  UNL d   1      -6.262  -0.200  -6.141  0.00  0.00     0.418 HD
ENDBRANCH   4   7
TORSDOF 1
ENDMDL
