MODEL 1
REMARK minimizedAffinity 3.48143387
REMARK minimizedRMSD -1
REMARK  1 active torsions:
REMARK  status: ('A' for Active; 'I' for Inactive)
REMARK    1  A    between atoms: C3_4  and  O_7 
ROOT
ATOM      1  C   UNL d   1       5.922   3.094  -0.324  0.00  0.00    -0.033 A 
ATOM      2  C1  UNL d   1       5.830   2.236   0.774  0.00  0.00     0.039 A 
ATOM      3  C2  UNL d   1       5.150   1.022   0.658  0.00  0.00    -0.080 A 
ATOM      4  C3  UNL d   1       4.568   0.678  -0.559  0.00  0.00     0.150 A 
ATOM      5  C4  UNL d   1       4.659   1.526  -1.658  0.00  0.00    -0.007 A 
ATOM      6  C5  UNL d   1       5.338   2.739  -1.540  0.00  0.00     0.039 A 
ENDROOT
BRANCH   4   7
ATOM      7  O   UNL d   1       3.891  -0.494  -0.719  0.00  0.00    -0.526 OA
ATOM      8  H5  UNL d   1       3.885  -0.964   0.131  0.00  0.00     0.418 HD
ENDBRANCH   4   7
TORSDOF 1
ENDMDL
