MODEL 1
REMARK minimizedAffinity 3.43552065
REMARK minimizedRMSD -1
REMARK  1 active torsions:
REMARK  status: ('A' for Active; 'I' for Inactive)
REMARK    1  A    between atoms: C3_4  and  O_7 
ROOT
ATOM      1  C   UNL d   1       2.609  -2.100  -0.190  0.00  0.00    -0.033 A 
ATOM      2  C1  UNL d   1       2.073  -2.017  -1.477  0.00  0.00     0.039 A 
ATOM      3  C2  UNL d   1       0.939  -2.760  -1.812  0.00  0.00    -0.080 A 
ATOM      4  C3  UNL d   1       0.353  -3.581  -0.853  0.00  0.00     0.150 A 
ATOM      5  C4  UNL d   1       0.879  -3.666   0.431  0.00  0.00    -0.007 A 
ATOM      6  C5  UNL d   1       2.012  -2.924   0.764  0.00  0.00     0.039 A 
ENDROOT
BRANCH   4   7
ATOM      7  O   UNL d   1      -0.752  -4.329  -1.135  0.00  0.00    -0.526 OA
ATOM      8  H5  UNL d   1      -0.987  -4.191  -2.068  0.00  0.00     0.418 HD
ENDBRANCH   4   7
TORSDOF 1
ENDMDL
