MODEL 1
REMARK minimizedAffinity 5.43853426
REMARK minimizedRMSD -1
REMARK  1 active torsions:
REMARK  status: ('A' for Active; 'I' for Inactive)
REMARK    1  A    between atoms: C3_4  and  O_7 
ROOT
ATOM      1  C   UNL d   1      -0.229  -5.999   6.000  0.00  0.00    -0.033 A 
ATOM      2  C1  UNL d   1       1.164  -5.909   5.999  0.00  0.00     0.039 A 
ATOM      3  C2  UNL d   1       1.799  -4.888   5.288  0.00  0.00    -0.080 A 
ATOM      4  C3  UNL d   1       1.030  -3.966   4.584  0.00  0.00     0.150 A 
ATOM      5  C4  UNL d   1      -0.359  -4.048   4.583  0.00  0.00    -0.007 A 
ATOM      6  C5  UNL d   1      -0.991  -5.068   5.293  0.00  0.00     0.039 A 
ENDROOT
BRANCH   4   7
ATOM      7  O   UNL d   1       1.605  -2.956   3.871  0.00  0.00    -0.526 OA
ATOM      8  H5  UNL d   1       2.570  -3.041   3.939  0.00  0.00     0.418 HD
ENDBRANCH   4   7
TORSDOF 1
ENDMDL
