MODEL 1
REMARK minimizedAffinity 3.78783274
REMARK minimizedRMSD -1
REMARK  1 active torsions:
REMARK  status: ('A' for Active; 'I' for Inactive)
REMARK    1  A    between atoms: C3_4  and  O_7 
ROOT
ATOM      1  C   UNL d   1       5.987   2.501  -0.885  0.00  0.00    -0.033 A 
ATOM      2  C1  UNL d   1       5.861   1.999   0.411  0.00  0.00     0.039 A 
ATOM      3  C2  UNL d   1       4.924   1.002   0.688  0.00  0.00    -0.080 A 
ATOM      4  C3  UNL d   1       4.120   0.516  -0.340  0.00  0.00     0.150 A 
ATOM      5  C4  UNL d   1       4.243   1.009  -1.635  0.00  0.00    -0.007 A 
ATOM      6  C5  UNL d   1       5.179   2.005  -1.909  0.00  0.00     0.039 A 
ENDROOT
BRANCH   4   7
ATOM      7  O   UNL d   1       3.188  -0.454  -0.117  0.00  0.00    -0.526 OA
ATOM      8  H5  UNL d   1       3.196  -0.677   0.828  0.00  0.00     0.418 HD
ENDBRANCH   4   7
TORSDOF 1
ENDMDL
