MODEL 1
REMARK minimizedAffinity 6.1510849
REMARK minimizedRMSD -1
REMARK  0 active torsions:
REMARK  status: ('A' for Active; 'I' for Inactive)
ROOT
ATOM      1  C   UNL d   1      -0.908   2.103   3.113  0.00  0.00     0.124 A 
ATOM      2  C1  UNL d   1      -0.540   0.831   2.698  0.00  0.00     0.062 A 
ATOM      3  C2  UNL d   1      -1.477  -0.010   2.104  0.00  0.00     0.162 A 
ATOM      4  C3  UNL d   1      -2.791   0.419   1.921  0.00  0.00    -0.034 A 
ATOM      5  C4  UNL d   1      -3.154   1.699   2.342  0.00  0.00     0.162 A 
ATOM      6  C5  UNL d   1      -2.214   2.536   2.935  0.00  0.00     0.062 A 
ATOM      7  F   UNL d   1      -2.572   3.764   3.336  0.00  0.00    -0.097 F 
ATOM      8  F1  UNL d   1      -4.410   2.143   2.181  0.00  0.00    -0.096 F 
ATOM      9  I   UNL d   1      -4.195  -0.836   1.033  0.00  0.00    -0.060 I 
ATOM     10  F2  UNL d   1      -1.093  -1.234   1.712  0.00  0.00    -0.096 F 
ATOM     11  F3  UNL d   1       0.721   0.410   2.870  0.00  0.00    -0.097 F 
ATOM     12  F4  UNL d   1      -0.005   2.909   3.685  0.00  0.00    -0.092 F 
ENDROOT
TORSDOF 0
ENDMDL
