MODEL 1
REMARK minimizedAffinity 21.9429188
REMARK minimizedRMSD -1
REMARK  0 active torsions:
REMARK  status: ('A' for Active; 'I' for Inactive)
ROOT
ATOM      1  C   UNL d   1       5.536  -1.121   3.294  0.00  0.00     0.124 A 
ATOM      2  C1  UNL d   1       5.704  -1.642   4.569  0.00  0.00     0.062 A 
ATOM      3  C2  UNL d   1       5.835  -3.015   4.753  0.00  0.00     0.162 A 
ATOM      4  C3  UNL d   1       5.800  -3.878   3.657  0.00  0.00    -0.034 A 
ATOM      5  C4  UNL d   1       5.629  -3.347   2.378  0.00  0.00     0.162 A 
ATOM      6  C5  UNL d   1       5.498  -1.974   2.199  0.00  0.00     0.062 A 
ATOM      7  F   UNL d   1       5.336  -1.472   0.966  0.00  0.00    -0.097 F 
ATOM      8  F1  UNL d   1       5.590  -4.148   1.303  0.00  0.00    -0.096 F 
ATOM      9  I   UNL d   1       5.995  -5.932   3.928  0.00  0.00    -0.060 I 
ATOM     10  F2  UNL d   1       5.997  -3.491   5.997  0.00  0.00    -0.096 F 
ATOM     11  F3  UNL d   1       5.740  -0.820   5.628  0.00  0.00    -0.097 F 
ATOM     12  F4  UNL d   1       5.409   0.201   3.120  0.00  0.00    -0.092 F 
ENDROOT
TORSDOF 0
ENDMDL
