MODEL 1
REMARK minimizedAffinity 14.3236771
REMARK minimizedRMSD -1
REMARK  0 active torsions:
REMARK  status: ('A' for Active; 'I' for Inactive)
ROOT
ATOM      1  C   UNL d   1       0.572   1.030   3.826  0.00  0.00     0.124 A 
ATOM      2  C1  UNL d   1      -0.403   2.016   3.891  0.00  0.00     0.062 A 
ATOM      3  C2  UNL d   1      -1.526   1.945   3.073  0.00  0.00     0.162 A 
ATOM      4  C3  UNL d   1      -1.681   0.882   2.182  0.00  0.00    -0.034 A 
ATOM      5  C4  UNL d   1      -0.696  -0.105   2.121  0.00  0.00     0.162 A 
ATOM      6  C5  UNL d   1       0.425  -0.029   2.942  0.00  0.00     0.062 A 
ATOM      7  F   UNL d   1       1.366  -0.982   2.877  0.00  0.00    -0.097 F 
ATOM      8  F1  UNL d   1      -0.814  -1.140   1.277  0.00  0.00    -0.096 F 
ATOM      9  I   UNL d   1      -3.360   0.772   0.956  0.00  0.00    -0.060 I 
ATOM     10  F2  UNL d   1      -2.452   2.911   3.157  0.00  0.00    -0.096 F 
ATOM     11  F3  UNL d   1      -0.262   3.041   4.744  0.00  0.00    -0.097 F 
ATOM     12  F4  UNL d   1       1.653   1.102   4.614  0.00  0.00    -0.092 F 
ENDROOT
TORSDOF 0
ENDMDL
