MODEL 1
REMARK minimizedAffinity 20.1755657
REMARK minimizedRMSD -1
REMARK  0 active torsions:
REMARK  status: ('A' for Active; 'I' for Inactive)
ROOT
ATOM      1  C   UNL d   1      -3.037   0.861   1.145  0.00  0.00     0.124 A 
ATOM      2  C1  UNL d   1      -4.251   0.778   1.812  0.00  0.00     0.062 A 
ATOM      3  C2  UNL d   1      -4.299   0.308   3.122  0.00  0.00     0.162 A 
ATOM      4  C3  UNL d   1      -3.129  -0.081   3.774  0.00  0.00    -0.034 A 
ATOM      5  C4  UNL d   1      -1.912   0.004   3.096  0.00  0.00     0.162 A 
ATOM      6  C5  UNL d   1      -1.869   0.474   1.787  0.00  0.00     0.062 A 
ATOM      7  F   UNL d   1      -0.694   0.554   1.144  0.00  0.00    -0.097 F 
ATOM      8  F1  UNL d   1      -0.768  -0.361   3.693  0.00  0.00    -0.096 F 
ATOM      9  I   UNL d   1      -3.198  -0.783   5.732  0.00  0.00    -0.060 I 
ATOM     10  F2  UNL d   1      -5.487   0.239   3.742  0.00  0.00    -0.096 F 
ATOM     11  F3  UNL d   1      -5.381   1.149   1.194  0.00  0.00    -0.097 F 
ATOM     12  F4  UNL d   1      -2.993   1.312  -0.115  0.00  0.00    -0.092 F 
ENDROOT
TORSDOF 0
ENDMDL
