MODEL 1
REMARK minimizedAffinity 32.4983978
REMARK minimizedRMSD -1
REMARK  0 active torsions:
REMARK  status: ('A' for Active; 'I' for Inactive)
ROOT
ATOM      1  C   UNL d   1      -4.592   0.151   0.747  0.00  0.00     0.124 A 
ATOM      2  C1  UNL d   1      -4.773  -1.191   0.441  0.00  0.00     0.062 A 
ATOM      3  C2  UNL d   1      -3.686  -2.060   0.434  0.00  0.00     0.162 A 
ATOM      4  C3  UNL d   1      -2.408  -1.590   0.735  0.00  0.00    -0.034 A 
ATOM      5  C4  UNL d   1      -2.233  -0.239   1.040  0.00  0.00     0.162 A 
ATOM      6  C5  UNL d   1      -3.323   0.625   1.046  0.00  0.00     0.062 A 
ATOM      7  F   UNL d   1      -3.146   1.921   1.342  0.00  0.00    -0.097 F 
ATOM      8  F1  UNL d   1      -1.018   0.245   1.334  0.00  0.00    -0.096 F 
ATOM      9  I   UNL d   1      -0.780  -2.887   0.725  0.00  0.00    -0.060 I 
ATOM     10  F2  UNL d   1      -3.891  -3.351   0.135  0.00  0.00    -0.096 F 
ATOM     11  F3  UNL d   1      -5.999  -1.651   0.151  0.00  0.00    -0.097 F 
ATOM     12  F4  UNL d   1      -5.640   0.986   0.752  0.00  0.00    -0.092 F 
ENDROOT
TORSDOF 0
ENDMDL
