MODEL 1
REMARK minimizedAffinity 9.7839756
REMARK minimizedRMSD -1
REMARK  0 active torsions:
REMARK  status: ('A' for Active; 'I' for Inactive)
ROOT
ATOM      1  C   UNL d   1      -3.873   0.334   1.332  0.00  0.00     0.124 A 
ATOM      2  C1  UNL d   1      -3.861   0.133   2.706  0.00  0.00     0.062 A 
ATOM      3  C2  UNL d   1      -2.653  -0.018   3.380  0.00  0.00     0.162 A 
ATOM      4  C3  UNL d   1      -1.446   0.031   2.682  0.00  0.00    -0.034 A 
ATOM      5  C4  UNL d   1      -1.467   0.232   1.301  0.00  0.00     0.162 A 
ATOM      6  C5  UNL d   1      -2.677   0.383   0.631  0.00  0.00     0.062 A 
ATOM      7  F   UNL d   1      -2.686   0.576  -0.696  0.00  0.00    -0.097 F 
ATOM      8  F1  UNL d   1      -0.325   0.285   0.599  0.00  0.00    -0.096 F 
ATOM      9  I   UNL d   1       0.362  -0.195   3.687  0.00  0.00    -0.060 I 
ATOM     10  F2  UNL d   1      -2.671  -0.211   4.707  0.00  0.00    -0.096 F 
ATOM     11  F3  UNL d   1      -5.016   0.084   3.385  0.00  0.00    -0.097 F 
ATOM     12  F4  UNL d   1      -5.037   0.478   0.686  0.00  0.00    -0.092 F 
ENDROOT
TORSDOF 0
ENDMDL
