MODEL 1
REMARK minimizedAffinity 24.0527649
REMARK minimizedRMSD -1
REMARK  0 active torsions:
REMARK  status: ('A' for Active; 'I' for Inactive)
ROOT
ATOM      1  C   UNL d   1      -1.959   1.655   2.157  0.00  0.00     0.124 A 
ATOM      2  C1  UNL d   1      -3.344   1.710   2.224  0.00  0.00     0.062 A 
ATOM      3  C2  UNL d   1      -4.104   0.575   1.953  0.00  0.00     0.162 A 
ATOM      4  C3  UNL d   1      -3.479  -0.625   1.613  0.00  0.00    -0.034 A 
ATOM      5  C4  UNL d   1      -2.086  -0.672   1.546  0.00  0.00     0.162 A 
ATOM      6  C5  UNL d   1      -1.331   0.465   1.818  0.00  0.00     0.062 A 
ATOM      7  F   UNL d   1       0.007   0.410   1.753  0.00  0.00    -0.097 F 
ATOM      8  F1  UNL d   1      -1.453  -1.809   1.222  0.00  0.00    -0.096 F 
ATOM      9  I   UNL d   1      -4.611  -2.323   1.206  0.00  0.00    -0.060 I 
ATOM     10  F2  UNL d   1      -5.441   0.657   2.025  0.00  0.00    -0.096 F 
ATOM     11  F3  UNL d   1      -3.953   2.859   2.551  0.00  0.00    -0.097 F 
ATOM     12  F4  UNL d   1      -1.231   2.748   2.418  0.00  0.00    -0.092 F 
ENDROOT
TORSDOF 0
ENDMDL
