MODEL 1
REMARK minimizedAffinity 19.8481045
REMARK minimizedRMSD -1
REMARK  0 active torsions:
REMARK  status: ('A' for Active; 'I' for Inactive)
ROOT
ATOM      1  C   UNL d   1      -3.110  -4.111  -5.999  0.00  0.00     0.124 A 
ATOM      2  C1  UNL d   1      -4.052  -3.091  -5.998  0.00  0.00     0.062 A 
ATOM      3  C2  UNL d   1      -3.643  -1.760  -5.997  0.00  0.00     0.162 A 
ATOM      4  C3  UNL d   1      -2.285  -1.442  -5.998  0.00  0.00    -0.034 A 
ATOM      5  C4  UNL d   1      -1.344  -2.473  -5.998  0.00  0.00     0.162 A 
ATOM      6  C5  UNL d   1      -1.758  -3.801  -5.999  0.00  0.00     0.062 A 
ATOM      7  F   UNL d   1      -0.846  -4.785  -6.000  0.00  0.00    -0.097 F 
ATOM      8  F1  UNL d   1      -0.030  -2.202  -5.998  0.00  0.00    -0.096 F 
ATOM      9  I   UNL d   1      -1.669   0.546  -5.996  0.00  0.00    -0.060 I 
ATOM     10  F2  UNL d   1      -4.575  -0.796  -5.996  0.00  0.00    -0.096 F 
ATOM     11  F3  UNL d   1      -5.359  -3.388  -5.998  0.00  0.00    -0.097 F 
ATOM     12  F4  UNL d   1      -3.507  -5.390  -6.000  0.00  0.00    -0.092 F 
ENDROOT
TORSDOF 0
ENDMDL
