MODEL 1
REMARK minimizedAffinity 22.0277138
REMARK minimizedRMSD -1
REMARK  0 active torsions:
REMARK  status: ('A' for Active; 'I' for Inactive)
ROOT
ATOM      1  C   UNL d   1      -1.343   1.578   2.845  0.00  0.00     0.124 A 
ATOM      2  C1  UNL d   1      -0.141   1.046   3.291  0.00  0.00     0.062 A 
ATOM      3  C2  UNL d   1       0.235  -0.241   2.920  0.00  0.00     0.162 A 
ATOM      4  C3  UNL d   1      -0.592  -1.006   2.097  0.00  0.00    -0.034 A 
ATOM      5  C4  UNL d   1      -1.800  -0.465   1.654  0.00  0.00     0.162 A 
ATOM      6  C5  UNL d   1      -2.171   0.823   2.028  0.00  0.00     0.062 A 
ATOM      7  F   UNL d   1      -3.333   1.335   1.596  0.00  0.00    -0.097 F 
ATOM      8  F1  UNL d   1      -2.619  -1.173   0.861  0.00  0.00    -0.096 F 
ATOM      9  I   UNL d   1      -0.034  -2.932   1.539  0.00  0.00    -0.060 I 
ATOM     10  F2  UNL d   1       1.402  -0.730   3.365  0.00  0.00    -0.096 F 
ATOM     11  F3  UNL d   1       0.660   1.774   4.082  0.00  0.00    -0.097 F 
ATOM     12  F4  UNL d   1      -1.703   2.817   3.205  0.00  0.00    -0.092 F 
ENDROOT
TORSDOF 0
ENDMDL
