MODEL 1
REMARK minimizedAffinity 12.5470972
REMARK minimizedRMSD -1
REMARK  0 active torsions:
REMARK  status: ('A' for Active; 'I' for Inactive)
ROOT
ATOM      1  C   UNL d   1       0.497   0.840   2.844  0.00  0.00     0.124 A 
ATOM      2  C1  UNL d   1      -0.147   2.038   2.566  0.00  0.00     0.062 A 
ATOM      3  C2  UNL d   1      -1.533   2.077   2.453  0.00  0.00     0.162 A 
ATOM      4  C3  UNL d   1      -2.286   0.915   2.620  0.00  0.00    -0.034 A 
ATOM      5  C4  UNL d   1      -1.632  -0.286   2.898  0.00  0.00     0.162 A 
ATOM      6  C5  UNL d   1      -0.245  -0.321   3.009  0.00  0.00     0.062 A 
ATOM      7  F   UNL d   1       0.375  -1.479   3.278  0.00  0.00    -0.097 F 
ATOM      8  F1  UNL d   1      -2.325  -1.422   3.064  0.00  0.00    -0.096 F 
ATOM      9  I   UNL d   1      -4.360   0.970   2.452  0.00  0.00    -0.060 I 
ATOM     10  F2  UNL d   1      -2.129   3.249   2.184  0.00  0.00    -0.096 F 
ATOM     11  F3  UNL d   1       0.569   3.160   2.404  0.00  0.00    -0.097 F 
ATOM     12  F4  UNL d   1       1.832   0.804   2.950  0.00  0.00    -0.092 F 
ENDROOT
TORSDOF 0
ENDMDL
