MODEL 1
REMARK minimizedAffinity 12.3099566
REMARK minimizedRMSD -1
REMARK  0 active torsions:
REMARK  status: ('A' for Active; 'I' for Inactive)
ROOT
ATOM      1  C   UNL d   1      -2.401  -0.826   3.872  0.00  0.00     0.124 A 
ATOM      2  C1  UNL d   1      -2.118   0.093   2.871  0.00  0.00     0.062 A 
ATOM      3  C2  UNL d   1      -3.143   0.614   2.088  0.00  0.00     0.162 A 
ATOM      4  C3  UNL d   1      -4.463   0.218   2.302  0.00  0.00    -0.034 A 
ATOM      5  C4  UNL d   1      -4.741  -0.708   3.310  0.00  0.00     0.162 A 
ATOM      6  C5  UNL d   1      -3.712  -1.225   4.091  0.00  0.00     0.062 A 
ATOM      7  F   UNL d   1      -3.989  -2.113   5.057  0.00  0.00    -0.097 F 
ATOM      8  F1  UNL d   1      -5.999  -1.110   3.544  0.00  0.00    -0.096 F 
ATOM      9  I   UNL d   1      -6.000   0.994   1.133  0.00  0.00    -0.060 I 
ATOM     10  F2  UNL d   1      -2.840   1.500   1.128  0.00  0.00    -0.096 F 
ATOM     11  F3  UNL d   1      -0.852   0.480   2.658  0.00  0.00    -0.097 F 
ATOM     12  F4  UNL d   1      -1.412  -1.326   4.624  0.00  0.00    -0.092 F 
ENDROOT
TORSDOF 0
ENDMDL
