MODEL 1
REMARK minimizedAffinity 14.7750158
REMARK minimizedRMSD -1
REMARK  0 active torsions:
REMARK  status: ('A' for Active; 'I' for Inactive)
ROOT
ATOM      1  C   UNL d   1      -2.653   1.470   1.611  0.00  0.00     0.124 A 
ATOM      2  C1  UNL d   1      -1.488   0.720   1.699  0.00  0.00     0.062 A 
ATOM      3  C2  UNL d   1      -1.527  -0.659   1.515  0.00  0.00     0.162 A 
ATOM      4  C3  UNL d   1      -2.736  -1.298   1.239  0.00  0.00    -0.034 A 
ATOM      5  C4  UNL d   1      -3.904  -0.537   1.153  0.00  0.00     0.162 A 
ATOM      6  C5  UNL d   1      -3.859   0.841   1.338  0.00  0.00     0.062 A 
ATOM      7  F   UNL d   1      -4.986   1.563   1.253  0.00  0.00    -0.097 F 
ATOM      8  F1  UNL d   1      -5.083  -1.120   0.890  0.00  0.00    -0.096 F 
ATOM      9  I   UNL d   1      -2.799  -3.360   0.963  0.00  0.00    -0.060 I 
ATOM     10  F2  UNL d   1      -0.386  -1.358   1.605  0.00  0.00    -0.096 F 
ATOM     11  F3  UNL d   1      -0.321   1.326   1.964  0.00  0.00    -0.097 F 
ATOM     12  F4  UNL d   1      -2.613   2.796   1.790  0.00  0.00    -0.092 F 
ENDROOT
TORSDOF 0
ENDMDL
