MODEL 1
REMARK minimizedAffinity 9.973979
REMARK minimizedRMSD -1
REMARK  0 active torsions:
REMARK  status: ('A' for Active; 'I' for Inactive)
ROOT
ATOM      1  C   UNL d   1       0.214   1.635   3.923  0.00  0.00     0.124 A 
ATOM      2  C1  UNL d   1      -0.821   2.527   3.682  0.00  0.00     0.062 A 
ATOM      3  C2  UNL d   1      -1.908   2.145   2.901  0.00  0.00     0.162 A 
ATOM      4  C3  UNL d   1      -1.965   0.862   2.355  0.00  0.00    -0.034 A 
ATOM      5  C4  UNL d   1      -0.920  -0.030   2.602  0.00  0.00     0.162 A 
ATOM      6  C5  UNL d   1       0.164   0.358   3.383  0.00  0.00     0.062 A 
ATOM      7  F   UNL d   1       1.163  -0.506   3.615  0.00  0.00    -0.097 F 
ATOM      8  F1  UNL d   1      -0.943  -1.271   2.093  0.00  0.00    -0.096 F 
ATOM      9  I   UNL d   1      -3.588   0.286   1.186  0.00  0.00    -0.060 I 
ATOM     10  F2  UNL d   1      -2.894   3.028   2.684  0.00  0.00    -0.096 F 
ATOM     11  F3  UNL d   1      -0.775   3.762   4.202  0.00  0.00    -0.097 F 
ATOM     12  F4  UNL d   1       1.258   2.006   4.675  0.00  0.00    -0.092 F 
ENDROOT
TORSDOF 0
ENDMDL
