MODEL 1
REMARK minimizedAffinity 13.8545485
REMARK minimizedRMSD -1
REMARK  0 active torsions:
REMARK  status: ('A' for Active; 'I' for Inactive)
ROOT
ATOM      1  C   UNL d   1      -4.820   0.198   1.315  0.00  0.00     0.124 A 
ATOM      2  C1  UNL d   1      -4.774   1.224   2.249  0.00  0.00     0.062 A 
ATOM      3  C2  UNL d   1      -3.549   1.678   2.730  0.00  0.00     0.162 A 
ATOM      4  C3  UNL d   1      -2.360   1.109   2.276  0.00  0.00    -0.034 A 
ATOM      5  C4  UNL d   1      -2.414   0.077   1.337  0.00  0.00     0.162 A 
ATOM      6  C5  UNL d   1      -3.641  -0.374   0.860  0.00  0.00     0.062 A 
ATOM      7  F   UNL d   1      -3.683  -1.365  -0.043  0.00  0.00    -0.097 F 
ATOM      8  F1  UNL d   1      -1.290  -0.493   0.879  0.00  0.00    -0.096 F 
ATOM      9  I   UNL d   1      -0.527   1.786   2.991  0.00  0.00    -0.060 I 
ATOM     10  F2  UNL d   1      -3.535   2.671   3.632  0.00  0.00    -0.096 F 
ATOM     11  F3  UNL d   1      -5.912   1.777   2.692  0.00  0.00    -0.097 F 
ATOM     12  F4  UNL d   1      -6.000  -0.238   0.855  0.00  0.00    -0.092 F 
ENDROOT
TORSDOF 0
ENDMDL
