MODEL 1
REMARK minimizedAffinity 7.36192417
REMARK minimizedRMSD -1
REMARK  0 active torsions:
REMARK  status: ('A' for Active; 'I' for Inactive)
ROOT
ATOM      1  C   UNL d   1      -3.934   0.107   2.157  0.00  0.00     0.124 A 
ATOM      2  C1  UNL d   1      -3.704  -0.031   3.519  0.00  0.00     0.062 A 
ATOM      3  C2  UNL d   1      -2.402  -0.053   4.011  0.00  0.00     0.162 A 
ATOM      4  C3  UNL d   1      -1.319   0.064   3.140  0.00  0.00    -0.034 A 
ATOM      5  C4  UNL d   1      -1.558   0.202   1.771  0.00  0.00     0.162 A 
ATOM      6  C5  UNL d   1      -2.861   0.224   1.285  0.00  0.00     0.062 A 
ATOM      7  F   UNL d   1      -3.081   0.358  -0.031  0.00  0.00    -0.097 F 
ATOM      8  F1  UNL d   1      -0.539   0.318   0.906  0.00  0.00    -0.096 F 
ATOM      9  I   UNL d   1       0.629   0.032   3.871  0.00  0.00    -0.060 I 
ATOM     10  F2  UNL d   1      -2.210  -0.188   5.331  0.00  0.00    -0.096 F 
ATOM     11  F3  UNL d   1      -4.739  -0.145   4.364  0.00  0.00    -0.097 F 
ATOM     12  F4  UNL d   1      -5.188   0.127   1.687  0.00  0.00    -0.092 F 
ENDROOT
TORSDOF 0
ENDMDL
