MODEL 1
REMARK minimizedAffinity 8.50614071
REMARK minimizedRMSD -1
REMARK  0 active torsions:
REMARK  status: ('A' for Active; 'I' for Inactive)
ROOT
ATOM      1  C   UNL d   1       1.343   0.248   0.998  0.00  0.00     0.124 A 
ATOM      2  C1  UNL d   1       2.445   0.032   0.181  0.00  0.00     0.062 A 
ATOM      3  C2  UNL d   1       3.705  -0.151   0.741  0.00  0.00     0.162 A 
ATOM      4  C3  UNL d   1       3.872  -0.120   2.126  0.00  0.00    -0.034 A 
ATOM      5  C4  UNL d   1       2.759   0.100   2.940  0.00  0.00     0.162 A 
ATOM      6  C5  UNL d   1       1.501   0.282   2.376  0.00  0.00     0.062 A 
ATOM      7  F   UNL d   1       0.438   0.491   3.166  0.00  0.00    -0.097 F 
ATOM      8  F1  UNL d   1       2.884   0.136   4.275  0.00  0.00    -0.096 F 
ATOM      9  I   UNL d   1       5.756  -0.393   2.967  0.00  0.00    -0.060 I 
ATOM     10  F2  UNL d   1       4.752  -0.359  -0.071  0.00  0.00    -0.096 F 
ATOM     11  F3  UNL d   1       2.294  -0.000  -1.151  0.00  0.00    -0.097 F 
ATOM     12  F4  UNL d   1       0.131   0.425   0.456  0.00  0.00    -0.092 F 
ENDROOT
TORSDOF 0
ENDMDL
