MODEL 1
REMARK minimizedAffinity 13.3849516
REMARK minimizedRMSD -1
REMARK  0 active torsions:
REMARK  status: ('A' for Active; 'I' for Inactive)
ROOT
ATOM      1  C   UNL d   1      -4.592  -0.735   0.865  0.00  0.00     0.124 A 
ATOM      2  C1  UNL d   1      -4.465   0.444   1.586  0.00  0.00     0.062 A 
ATOM      3  C2  UNL d   1      -3.221   0.840   2.067  0.00  0.00     0.162 A 
ATOM      4  C3  UNL d   1      -2.092   0.057   1.828  0.00  0.00    -0.034 A 
ATOM      5  C4  UNL d   1      -2.227  -1.128   1.103  0.00  0.00     0.162 A 
ATOM      6  C5  UNL d   1      -3.473  -1.520   0.624  0.00  0.00     0.062 A 
ATOM      7  F   UNL d   1      -3.593  -2.660  -0.072  0.00  0.00    -0.097 F 
ATOM      8  F1  UNL d   1      -1.162  -1.905   0.855  0.00  0.00    -0.096 F 
ATOM      9  I   UNL d   1      -0.229   0.646   2.546  0.00  0.00    -0.060 I 
ATOM     10  F2  UNL d   1      -3.128   1.985   2.761  0.00  0.00    -0.096 F 
ATOM     11  F3  UNL d   1      -5.545   1.204   1.821  0.00  0.00    -0.097 F 
ATOM     12  F4  UNL d   1      -5.791  -1.114   0.404  0.00  0.00    -0.092 F 
ENDROOT
TORSDOF 0
ENDMDL
