MODEL 1
REMARK minimizedAffinity 22.5380173
REMARK minimizedRMSD -1
REMARK  0 active torsions:
REMARK  status: ('A' for Active; 'I' for Inactive)
ROOT
ATOM      1  C   UNL d   1      -4.705  -0.203   0.493  0.00  0.00     0.124 A 
ATOM      2  C1  UNL d   1      -3.643  -1.096   0.462  0.00  0.00     0.062 A 
ATOM      3  C2  UNL d   1      -2.385  -0.703   0.912  0.00  0.00     0.162 A 
ATOM      4  C3  UNL d   1      -2.184   0.588   1.398  0.00  0.00    -0.034 A 
ATOM      5  C4  UNL d   1      -3.257   1.481   1.426  0.00  0.00     0.162 A 
ATOM      6  C5  UNL d   1      -4.512   1.084   0.974  0.00  0.00     0.062 A 
ATOM      7  F   UNL d   1      -5.537   1.947   1.005  0.00  0.00    -0.097 F 
ATOM      8  F1  UNL d   1      -3.098   2.730   1.887  0.00  0.00    -0.096 F 
ATOM      9  I   UNL d   1      -0.306   1.179   2.073  0.00  0.00    -0.060 I 
ATOM     10  F2  UNL d   1      -1.377  -1.586   0.871  0.00  0.00    -0.096 F 
ATOM     11  F3  UNL d   1      -3.827  -2.340  -0.004  0.00  0.00    -0.097 F 
ATOM     12  F4  UNL d   1      -5.913  -0.584   0.058  0.00  0.00    -0.092 F 
ENDROOT
TORSDOF 0
ENDMDL
