MODEL 1
REMARK minimizedAffinity -0.612287104
REMARK minimizedRMSD -1
REMARK  1 active torsions:
REMARK  status: ('A' for Active; 'I' for Inactive)
REMARK    1  A    between atoms: C1_2  and  C2_3 
ROOT
ATOM      1  C2  UNL d   1       0.257  -0.068  -0.069  0.00  0.00    -0.076 A 
ATOM      2  C3  UNL d   1      -0.128  -0.810   1.061  0.00  0.00     0.004 A 
ATOM      3  C4  UNL d   1      -0.839  -0.214   2.102  0.00  0.00    -0.003 A 
ATOM      4  C5  UNL d   1      -1.177   1.133   2.029  0.00  0.00     0.000 A 
ATOM      5  C6  UNL d   1      -0.817   1.879   0.907  0.00  0.00     0.000 A 
ATOM      6  C7  UNL d   1      -0.115   1.290  -0.158  0.00  0.00    -0.073 A 
ATOM      7  C8  UNL d   1       0.252   2.144  -1.341  0.00  0.00     0.078 C 
ENDROOT
BRANCH   1   8
ATOM      8  C1  UNL d   1       1.051  -0.761  -1.154  0.00  0.00     0.053 C 
ATOM      9  C   UNL d   1       0.273  -1.889  -1.815  0.00  0.00     0.018 C 
ENDBRANCH   1   8
TORSDOF 1
ENDMDL
