MODEL 1
REMARK minimizedAffinity -5.65814972
REMARK minimizedRMSD -1
REMARK  1 active torsions:
REMARK  status: ('A' for Active; 'I' for Inactive)
REMARK    1  A    between atoms: C1_2  and  C2_3 
ROOT
ATOM      1  C2  UNL d   1      -0.696   0.598   0.859  0.00  0.00    -0.076 A 
ATOM      2  C3  UNL d   1      -0.379   1.299  -0.318  0.00  0.00     0.004 A 
ATOM      3  C4  UNL d   1       0.577   0.811  -1.208  0.00  0.00    -0.003 A 
ATOM      4  C5  UNL d   1       1.231  -0.385  -0.935  0.00  0.00     0.000 A 
ATOM      5  C6  UNL d   1       0.917  -1.102   0.219  0.00  0.00     0.000 A 
ATOM      6  C7  UNL d   1      -0.056  -0.633   1.118  0.00  0.00    -0.073 A 
ATOM      7  C8  UNL d   1      -0.352  -1.444   2.350  0.00  0.00     0.078 C 
ENDROOT
BRANCH   1   8
ATOM      8  C1  UNL d   1      -1.721   1.189   1.799  0.00  0.00     0.053 C 
ATOM      9  C   UNL d   1      -3.013   1.566   1.091  0.00  0.00     0.018 C 
ENDBRANCH   1   8
TORSDOF 1
ENDMDL
