MODEL 1
REMARK minimizedAffinity -4.57382774
REMARK minimizedRMSD -1
REMARK  1 active torsions:
REMARK  status: ('A' for Active; 'I' for Inactive)
REMARK    1  A    between atoms: C1_2  and  C2_3 
ROOT
ATOM      1  C2  UNL d   1      -1.243   1.426   1.181  0.00  0.00    -0.076 A 
ATOM      2  C3  UNL d   1      -0.742   2.113   0.062  0.00  0.00     0.004 A 
ATOM      3  C4  UNL d   1       0.415   1.684  -0.586  0.00  0.00    -0.003 A 
ATOM      4  C5  UNL d   1       1.090   0.559  -0.124  0.00  0.00     0.000 A 
ATOM      5  C6  UNL d   1       0.598  -0.145   0.974  0.00  0.00     0.000 A 
ATOM      6  C7  UNL d   1      -0.576   0.265   1.628  0.00  0.00    -0.073 A 
ATOM      7  C8  UNL d   1      -1.058  -0.529   2.811  0.00  0.00     0.078 C 
ENDROOT
BRANCH   1   8
ATOM      8  C1  UNL d   1      -2.487   1.954   1.859  0.00  0.00     0.053 C 
ATOM      9  C   UNL d   1      -2.711   3.435   1.594  0.00  0.00     0.018 C 
ENDBRANCH   1   8
TORSDOF 1
ENDMDL
