MODEL 1
REMARK minimizedAffinity -4.1866827
REMARK minimizedRMSD -1
REMARK  1 active torsions:
REMARK  status: ('A' for Active; 'I' for Inactive)
REMARK    1  A    between atoms: C1_2  and  C2_3 
ROOT
ATOM      1  C2  UNL d   1       0.418  -1.328  -0.703  0.00  0.00    -0.076 A 
ATOM      2  C3  UNL d   1      -0.759  -1.592   0.019  0.00  0.00     0.004 A 
ATOM      3  C4  UNL d   1      -1.437  -0.572   0.683  0.00  0.00    -0.003 A 
ATOM      4  C5  UNL d   1      -0.949   0.729   0.636  0.00  0.00     0.000 A 
ATOM      5  C6  UNL d   1       0.207   1.012  -0.089  0.00  0.00     0.000 A 
ATOM      6  C7  UNL d   1       0.894  -0.002  -0.779  0.00  0.00    -0.073 A 
ATOM      7  C8  UNL d   1       2.140   0.359  -1.541  0.00  0.00     0.078 C 
ENDROOT
BRANCH   1   8
ATOM      8  C1  UNL d   1       1.125  -2.480  -1.381  0.00  0.00     0.053 C 
ATOM      9  C   UNL d   1       0.411  -2.941  -2.642  0.00  0.00     0.018 C 
ENDBRANCH   1   8
TORSDOF 1
ENDMDL
