MODEL 1
REMARK minimizedAffinity -5.92500305
REMARK minimizedRMSD -1
REMARK  1 active torsions:
REMARK  status: ('A' for Active; 'I' for Inactive)
REMARK    1  A    between atoms: C1_2  and  C2_3 
ROOT
ATOM      1  C2  UNL d   1       0.174   0.721  -0.234  0.00  0.00    -0.076 A 
ATOM      2  C3  UNL d   1       0.478   1.803  -1.079  0.00  0.00     0.004 A 
ATOM      3  C4  UNL d   1      -0.021   3.078  -0.819  0.00  0.00    -0.003 A 
ATOM      4  C5  UNL d   1      -0.831   3.292   0.291  0.00  0.00     0.000 A 
ATOM      5  C6  UNL d   1      -1.128   2.234   1.149  0.00  0.00     0.000 A 
ATOM      6  C7  UNL d   1      -0.620   0.946   0.910  0.00  0.00    -0.073 A 
ATOM      7  C8  UNL d   1      -0.977  -0.159   1.866  0.00  0.00     0.078 C 
ENDROOT
BRANCH   1   8
ATOM      8  C1  UNL d   1       0.721  -0.645  -0.582  0.00  0.00     0.053 C 
ATOM      9  C   UNL d   1      -0.195  -1.419  -1.517  0.00  0.00     0.018 C 
ENDBRANCH   1   8
TORSDOF 1
ENDMDL
