MODEL 1
REMARK minimizedAffinity -3.9456861
REMARK minimizedRMSD -1
REMARK  1 active torsions:
REMARK  status: ('A' for Active; 'I' for Inactive)
REMARK    1  A    between atoms: C1_2  and  C2_3 
ROOT
ATOM      1  C2  UNL d   1      -0.749   1.428   0.414  0.00  0.00    -0.076 A 
ATOM      2  C3  UNL d   1      -1.696   1.739   1.405  0.00  0.00     0.004 A 
ATOM      3  C4  UNL d   1      -2.190   0.755   2.259  0.00  0.00    -0.003 A 
ATOM      4  C5  UNL d   1      -1.744  -0.556   2.138  0.00  0.00     0.000 A 
ATOM      5  C6  UNL d   1      -0.791  -0.880   1.172  0.00  0.00     0.000 A 
ATOM      6  C7  UNL d   1      -0.271   0.104   0.313  0.00  0.00    -0.073 A 
ATOM      7  C8  UNL d   1       0.751  -0.302  -0.714  0.00  0.00     0.078 C 
ENDROOT
BRANCH   1   8
ATOM      8  C1  UNL d   1      -0.269   2.532  -0.502  0.00  0.00     0.053 C 
ATOM      9  C   UNL d   1      -0.817   3.895  -0.107  0.00  0.00     0.018 C 
ENDBRANCH   1   8
TORSDOF 1
ENDMDL
