MODEL 1
REMARK minimizedAffinity -5.23521185
REMARK minimizedRMSD -1
REMARK  1 active torsions:
REMARK  status: ('A' for Active; 'I' for Inactive)
REMARK    1  A    between atoms: C1_2  and  C2_3 
ROOT
ATOM      1  C2  UNL d   1       0.289   0.935   0.242  0.00  0.00    -0.076 A 
ATOM      2  C3  UNL d   1      -0.322   0.347   1.363  0.00  0.00     0.004 A 
ATOM      3  C4  UNL d   1      -1.127   1.097   2.218  0.00  0.00    -0.003 A 
ATOM      4  C5  UNL d   1      -1.336   2.449   1.966  0.00  0.00     0.000 A 
ATOM      5  C6  UNL d   1      -0.752   3.045   0.848  0.00  0.00     0.000 A 
ATOM      6  C7  UNL d   1       0.050   2.299  -0.032  0.00  0.00    -0.073 A 
ATOM      7  C8  UNL d   1       0.660   2.995  -1.218  0.00  0.00     0.078 C 
ENDROOT
BRANCH   1   8
ATOM      8  C1  UNL d   1       1.175   0.078  -0.634  0.00  0.00     0.053 C 
ATOM      9  C   UNL d   1       0.487  -1.203  -1.080  0.00  0.00     0.018 C 
ENDBRANCH   1   8
TORSDOF 1
ENDMDL
