MODEL 1
REMARK minimizedAffinity -3.71638703
REMARK minimizedRMSD -1
REMARK  1 active torsions:
REMARK  status: ('A' for Active; 'I' for Inactive)
REMARK    1  A    between atoms: C1_2  and  C2_3 
ROOT
ATOM      1  C2  UNL d   1       0.106  -0.214   0.263  0.00  0.00    -0.076 A 
ATOM      2  C3  UNL d   1       0.028   0.920  -0.565  0.00  0.00     0.004 A 
ATOM      3  C4  UNL d   1      -0.709   2.039  -0.182  0.00  0.00    -0.003 A 
ATOM      4  C5  UNL d   1      -1.380   2.044   1.036  0.00  0.00     0.000 A 
ATOM      5  C6  UNL d   1      -1.300   0.935   1.878  0.00  0.00     0.000 A 
ATOM      6  C7  UNL d   1      -0.548  -0.196   1.514  0.00  0.00    -0.073 A 
ATOM      7  C8  UNL d   1      -0.501  -1.366   2.458  0.00  0.00     0.078 C 
ENDROOT
BRANCH   1   8
ATOM      8  C1  UNL d   1       0.898  -1.409  -0.217  0.00  0.00     0.053 C 
ATOM      9  C   UNL d   1       0.252  -2.094  -1.412  0.00  0.00     0.018 C 
ENDBRANCH   1   8
TORSDOF 1
ENDMDL
