MODEL 1
REMARK minimizedAffinity -5.79400158
REMARK minimizedRMSD -1
REMARK  1 active torsions:
REMARK  status: ('A' for Active; 'I' for Inactive)
REMARK    1  A    between atoms: C1_2  and  C2_3 
ROOT
ATOM      1  C2  UNL d   1      -0.344   1.263   0.227  0.00  0.00    -0.076 A 
ATOM      2  C3  UNL d   1      -1.324   1.523   1.200  0.00  0.00     0.004 A 
ATOM      3  C4  UNL d   1      -1.847   2.805   1.367  0.00  0.00    -0.003 A 
ATOM      4  C5  UNL d   1      -1.398   3.847   0.563  0.00  0.00     0.000 A 
ATOM      5  C6  UNL d   1      -0.439   3.602  -0.420  0.00  0.00     0.000 A 
ATOM      6  C7  UNL d   1       0.086   2.313  -0.612  0.00  0.00    -0.073 A 
ATOM      7  C8  UNL d   1       1.123   2.108  -1.682  0.00  0.00     0.078 C 
ENDROOT
BRANCH   1   8
ATOM      8  C1  UNL d   1       0.205  -0.141   0.110  0.00  0.00     0.053 C 
ATOM      9  C   UNL d   1       0.192  -0.884   1.437  0.00  0.00     0.018 C 
ENDBRANCH   1   8
TORSDOF 1
ENDMDL
