MODEL 1
REMARK minimizedAffinity -5.02357244
REMARK minimizedRMSD -1
REMARK  1 active torsions:
REMARK  status: ('A' for Active; 'I' for Inactive)
REMARK    1  A    between atoms: C1_2  and  C2_3 
ROOT
ATOM      1  C2  UNL d   1       0.045   1.001  -0.017  0.00  0.00    -0.076 A 
ATOM      2  C3  UNL d   1      -0.934   0.828   0.976  0.00  0.00     0.004 A 
ATOM      3  C4  UNL d   1      -1.785   1.873   1.335  0.00  0.00    -0.003 A 
ATOM      4  C5  UNL d   1      -1.669   3.108   0.706  0.00  0.00     0.000 A 
ATOM      5  C6  UNL d   1      -0.715   3.292  -0.294  0.00  0.00     0.000 A 
ATOM      6  C7  UNL d   1       0.139   2.244  -0.679  0.00  0.00    -0.073 A 
ATOM      7  C8  UNL d   1       1.155   2.500  -1.759  0.00  0.00     0.078 C 
ENDROOT
BRANCH   1   8
ATOM      8  C1  UNL d   1       0.957  -0.159  -0.345  0.00  0.00     0.053 C 
ATOM      9  C   UNL d   1       0.189  -1.402  -0.767  0.00  0.00     0.018 C 
ENDBRANCH   1   8
TORSDOF 1
ENDMDL
