MODEL 1
REMARK minimizedAffinity -6.29305649
REMARK minimizedRMSD -1
REMARK  1 active torsions:
REMARK  status: ('A' for Active; 'I' for Inactive)
REMARK    1  A    between atoms: C1_2  and  C2_3 
ROOT
ATOM      1  C2  UNL d   1      -0.244   0.944   0.048  0.00  0.00    -0.076 A 
ATOM      2  C3  UNL d   1       0.687   1.003  -1.004  0.00  0.00     0.004 A 
ATOM      3  C4  UNL d   1       0.938   2.200  -1.673  0.00  0.00    -0.003 A 
ATOM      4  C5  UNL d   1       0.263   3.357  -1.300  0.00  0.00     0.000 A 
ATOM      5  C6  UNL d   1      -0.651   3.321  -0.248  0.00  0.00     0.000 A 
ATOM      6  C7  UNL d   1      -0.904   2.126   0.448  0.00  0.00    -0.073 A 
ATOM      7  C8  UNL d   1      -1.904   2.143   1.571  0.00  0.00     0.078 C 
ENDROOT
BRANCH   1   8
ATOM      8  C1  UNL d   1      -0.496  -0.387   0.719  0.00  0.00     0.053 C 
ATOM      9  C   UNL d   1       0.459  -0.648   1.874  0.00  0.00     0.018 C 
ENDBRANCH   1   8
TORSDOF 1
ENDMDL
