MODEL 1
REMARK minimizedAffinity -5.42441273
REMARK minimizedRMSD -1
REMARK  1 active torsions:
REMARK  status: ('A' for Active; 'I' for Inactive)
REMARK    1  A    between atoms: C1_2  and  C2_3 
ROOT
ATOM      1  C2  UNL d   1      -0.336   1.213   0.276  0.00  0.00    -0.076 A 
ATOM      2  C3  UNL d   1      -1.249   0.622   1.166  0.00  0.00     0.004 A 
ATOM      3  C4  UNL d   1      -2.344   1.336   1.650  0.00  0.00    -0.003 A 
ATOM      4  C5  UNL d   1      -2.544   2.653   1.250  0.00  0.00     0.000 A 
ATOM      5  C6  UNL d   1      -1.658   3.250   0.353  0.00  0.00     0.000 A 
ATOM      6  C7  UNL d   1      -0.558   2.538  -0.156  0.00  0.00    -0.073 A 
ATOM      7  C8  UNL d   1       0.369   3.233  -1.116  0.00  0.00     0.078 C 
ENDROOT
BRANCH   1   8
ATOM      8  C1  UNL d   1       0.848   0.398  -0.194  0.00  0.00     0.053 C 
ATOM      9  C   UNL d   1       0.437  -0.951  -0.763  0.00  0.00     0.018 C 
ENDBRANCH   1   8
TORSDOF 1
ENDMDL
