MODEL 1
REMARK minimizedAffinity -5.64077425
REMARK minimizedRMSD -1
REMARK  1 active torsions:
REMARK  status: ('A' for Active; 'I' for Inactive)
REMARK    1  A    between atoms: C1_2  and  C2_3 
ROOT
ATOM      1  C2  UNL d   1       0.013   1.404  -0.059  0.00  0.00    -0.076 A 
ATOM      2  C3  UNL d   1      -0.711   2.497   0.447  0.00  0.00     0.004 A 
ATOM      3  C4  UNL d   1      -2.005   2.335   0.939  0.00  0.00    -0.003 A 
ATOM      4  C5  UNL d   1      -2.596   1.077   0.933  0.00  0.00     0.000 A 
ATOM      5  C6  UNL d   1      -1.886  -0.023   0.451  0.00  0.00     0.000 A 
ATOM      6  C7  UNL d   1      -0.575   0.121  -0.033  0.00  0.00    -0.073 A 
ATOM      7  C8  UNL d   1       0.142  -1.098  -0.547  0.00  0.00     0.078 C 
ENDROOT
BRANCH   1   8
ATOM      8  C1  UNL d   1       1.402   1.645  -0.604  0.00  0.00     0.053 C 
ATOM      9  C   UNL d   1       1.434   2.745  -1.653  0.00  0.00     0.018 C 
ENDBRANCH   1   8
TORSDOF 1
ENDMDL
