MODEL 1
REMARK minimizedAffinity 15.8604927
REMARK minimizedRMSD -1
REMARK  1 active torsions:
REMARK  status: ('A' for Active; 'I' for Inactive)
REMARK    1  A    between atoms: C1_2  and  C2_3 
ROOT
ATOM      1  C2  UNL d   1       3.491  -3.780   1.806  0.00  0.00    -0.076 A 
ATOM      2  C3  UNL d   1       2.598  -2.877   1.203  0.00  0.00     0.004 A 
ATOM      3  C4  UNL d   1       3.017  -2.030   0.179  0.00  0.00    -0.003 A 
ATOM      4  C5  UNL d   1       4.336  -2.072  -0.260  0.00  0.00     0.000 A 
ATOM      5  C6  UNL d   1       5.231  -2.975   0.314  0.00  0.00     0.000 A 
ATOM      6  C7  UNL d   1       4.820  -3.847   1.337  0.00  0.00    -0.073 A 
ATOM      7  C8  UNL d   1       5.829  -4.795   1.925  0.00  0.00     0.078 C 
ENDROOT
BRANCH   1   8
ATOM      8  C1  UNL d   1       2.986  -4.655   2.931  0.00  0.00     0.053 C 
ATOM      9  C   UNL d   1       1.966  -5.679   2.460  0.00  0.00     0.018 C 
ENDBRANCH   1   8
TORSDOF 1
ENDMDL
