MODEL 1
REMARK minimizedAffinity 9.03360176
REMARK minimizedRMSD -1
REMARK  1 active torsions:
REMARK  status: ('A' for Active; 'I' for Inactive)
REMARK    1  A    between atoms: C1_2  and  C2_3 
ROOT
ATOM      1  C2  UNL d   1      -3.867   2.337  -3.279  0.00  0.00    -0.076 A 
ATOM      2  C3  UNL d   1      -3.445   2.441  -4.616  0.00  0.00     0.004 A 
ATOM      3  C4  UNL d   1      -3.612   3.625  -5.332  0.00  0.00    -0.003 A 
ATOM      4  C5  UNL d   1      -4.204   4.725  -4.722  0.00  0.00     0.000 A 
ATOM      5  C6  UNL d   1      -4.613   4.646  -3.391  0.00  0.00     0.000 A 
ATOM      6  C7  UNL d   1      -4.437   3.464  -2.650  0.00  0.00    -0.073 A 
ATOM      7  C8  UNL d   1      -4.902   3.433  -1.220  0.00  0.00     0.078 C 
ENDROOT
BRANCH   1   8
ATOM      8  C1  UNL d   1      -3.684   1.018  -2.562  0.00  0.00     0.053 C 
ATOM      9  C   UNL d   1      -2.367   0.945  -1.806  0.00  0.00     0.018 C 
ENDBRANCH   1   8
TORSDOF 1
ENDMDL
