MODEL 1
REMARK minimizedAffinity 16.4036484
REMARK minimizedRMSD -1
REMARK  1 active torsions:
REMARK  status: ('A' for Active; 'I' for Inactive)
REMARK    1  A    between atoms: C1_2  and  C2_3 
ROOT
ATOM      1  C2  UNL d   1      -4.244   3.079  -3.750  0.00  0.00    -0.076 A 
ATOM      2  C3  UNL d   1      -3.710   3.508  -4.978  0.00  0.00     0.004 A 
ATOM      3  C4  UNL d   1      -4.302   4.547  -5.694  0.00  0.00    -0.003 A 
ATOM      4  C5  UNL d   1      -5.437   5.175  -5.193  0.00  0.00     0.000 A 
ATOM      5  C6  UNL d   1      -5.969   4.775  -3.968  0.00  0.00     0.000 A 
ATOM      6  C7  UNL d   1      -5.375   3.740  -3.226  0.00  0.00    -0.073 A 
ATOM      7  C8  UNL d   1      -5.995   3.345  -1.913  0.00  0.00     0.078 C 
ENDROOT
BRANCH   1   8
ATOM      8  C1  UNL d   1      -3.575   1.929  -3.031  0.00  0.00     0.053 C 
ATOM      9  C   UNL d   1      -4.118   0.577  -3.466  0.00  0.00     0.018 C 
ENDBRANCH   1   8
TORSDOF 1
ENDMDL
