MODEL 1
REMARK minimizedAffinity 9.27595139
REMARK minimizedRMSD -1
REMARK  1 active torsions:
REMARK  status: ('A' for Active; 'I' for Inactive)
REMARK    1  A    between atoms: C1_2  and  C2_3 
ROOT
ATOM      1  C2  UNL d   1      -3.726   2.720  -3.620  0.00  0.00    -0.076 A 
ATOM      2  C3  UNL d   1      -3.166   2.960  -4.887  0.00  0.00     0.004 A 
ATOM      3  C4  UNL d   1      -3.272   4.211  -5.492  0.00  0.00    -0.003 A 
ATOM      4  C5  UNL d   1      -3.939   5.243  -4.841  0.00  0.00     0.000 A 
ATOM      5  C6  UNL d   1      -4.485   5.027  -3.576  0.00  0.00     0.000 A 
ATOM      6  C7  UNL d   1      -4.373   3.777  -2.944  0.00  0.00    -0.073 A 
ATOM      7  C8  UNL d   1      -4.986   3.599  -1.582  0.00  0.00     0.078 C 
ENDROOT
BRANCH   1   8
ATOM      8  C1  UNL d   1      -3.603   1.336  -3.024  0.00  0.00     0.053 C 
ATOM      9  C   UNL d   1      -2.374   1.188  -2.141  0.00  0.00     0.018 C 
ENDBRANCH   1   8
TORSDOF 1
ENDMDL
