MODEL 1
REMARK minimizedAffinity 11.7598286
REMARK minimizedRMSD -1
REMARK  1 active torsions:
REMARK  status: ('A' for Active; 'I' for Inactive)
REMARK    1  A    between atoms: C1_2  and  C2_3 
ROOT
ATOM      1  C2  UNL d   1       3.647  -3.912  -0.247  0.00  0.00    -0.076 A 
ATOM      2  C3  UNL d   1       4.989  -3.846   0.168  0.00  0.00     0.004 A 
ATOM      3  C4  UNL d   1       5.999  -4.460  -0.571  0.00  0.00    -0.003 A 
ATOM      4  C5  UNL d   1       5.684  -5.149  -1.737  0.00  0.00     0.000 A 
ATOM      5  C6  UNL d   1       4.360  -5.210  -2.173  0.00  0.00     0.000 A 
ATOM      6  C7  UNL d   1       3.332  -4.583  -1.448  0.00  0.00    -0.073 A 
ATOM      7  C8  UNL d   1       1.922  -4.685  -1.961  0.00  0.00     0.078 C 
ENDROOT
BRANCH   1   8
ATOM      8  C1  UNL d   1       2.591  -3.250   0.609  0.00  0.00     0.053 C 
ATOM      9  C   UNL d   1       2.656  -1.732   0.545  0.00  0.00     0.018 C 
ENDBRANCH   1   8
TORSDOF 1
ENDMDL
