MODEL 1
REMARK minimizedAffinity 4.98018694
REMARK minimizedRMSD -1
REMARK  1 active torsions:
REMARK  status: ('A' for Active; 'I' for Inactive)
REMARK    1  A    between atoms: C1_2  and  C2_3 
ROOT
ATOM      1  C2  UNL d   1      -3.905   2.925  -3.348  0.00  0.00    -0.076 A 
ATOM      2  C3  UNL d   1      -4.595   3.497  -2.265  0.00  0.00     0.004 A 
ATOM      3  C4  UNL d   1      -5.083   4.801  -2.333  0.00  0.00    -0.003 A 
ATOM      4  C5  UNL d   1      -4.889   5.554  -3.486  0.00  0.00     0.000 A 
ATOM      5  C6  UNL d   1      -4.222   4.996  -4.576  0.00  0.00     0.000 A 
ATOM      6  C7  UNL d   1      -3.738   3.678  -4.530  0.00  0.00    -0.073 A 
ATOM      7  C8  UNL d   1      -3.021   3.129  -5.733  0.00  0.00     0.078 C 
ENDROOT
BRANCH   1   8
ATOM      8  C1  UNL d   1      -3.374   1.516  -3.206  0.00  0.00     0.053 C 
ATOM      9  C   UNL d   1      -4.455   0.464  -3.402  0.00  0.00     0.018 C 
ENDBRANCH   1   8
TORSDOF 1
ENDMDL
