MODEL 1
REMARK minimizedAffinity 17.2623272
REMARK minimizedRMSD -1
REMARK  1 active torsions:
REMARK  status: ('A' for Active; 'I' for Inactive)
REMARK    1  A    between atoms: C1_2  and  C2_3 
ROOT
ATOM      1  C2  UNL d   1       1.447  -1.833   3.547  0.00  0.00    -0.076 A 
ATOM      2  C3  UNL d   1       1.208  -0.558   3.006  0.00  0.00     0.004 A 
ATOM      3  C4  UNL d   1       1.553  -0.262   1.688  0.00  0.00    -0.003 A 
ATOM      4  C5  UNL d   1       2.144  -1.236   0.891  0.00  0.00     0.000 A 
ATOM      5  C6  UNL d   1       2.373  -2.511   1.406  0.00  0.00     0.000 A 
ATOM      6  C7  UNL d   1       2.015  -2.831   2.727  0.00  0.00    -0.073 A 
ATOM      7  C8  UNL d   1       2.291  -4.221   3.234  0.00  0.00     0.078 C 
ENDROOT
BRANCH   1   8
ATOM      8  C1  UNL d   1       1.076  -2.088   4.991  0.00  0.00     0.053 C 
ATOM      9  C   UNL d   1       2.198  -2.755   5.772  0.00  0.00     0.018 C 
ENDBRANCH   1   8
TORSDOF 1
ENDMDL
