MODEL 1
REMARK minimizedAffinity 8.48298836
REMARK minimizedRMSD -1
REMARK  1 active torsions:
REMARK  status: ('A' for Active; 'I' for Inactive)
REMARK    1  A    between atoms: C1_2  and  C2_3 
ROOT
ATOM      1  C2  UNL d   1       3.361  -3.390   0.727  0.00  0.00    -0.076 A 
ATOM      2  C3  UNL d   1       3.602  -2.038   0.426  0.00  0.00     0.004 A 
ATOM      3  C4  UNL d   1       2.698  -1.047   0.804  0.00  0.00    -0.003 A 
ATOM      4  C5  UNL d   1       1.538  -1.391   1.490  0.00  0.00     0.000 A 
ATOM      5  C6  UNL d   1       1.292  -2.725   1.812  0.00  0.00     0.000 A 
ATOM      6  C7  UNL d   1       2.201  -3.735   1.453  0.00  0.00    -0.073 A 
ATOM      7  C8  UNL d   1       1.882  -5.158   1.821  0.00  0.00     0.078 C 
ENDROOT
BRANCH   1   8
ATOM      8  C1  UNL d   1       4.364  -4.424   0.267  0.00  0.00     0.053 C 
ATOM      9  C   UNL d   1       5.786  -4.082   0.684  0.00  0.00     0.018 C 
ENDBRANCH   1   8
TORSDOF 1
ENDMDL
