MODEL 1
REMARK minimizedAffinity 12.2391233
REMARK minimizedRMSD -1
REMARK  0 active torsions:
REMARK  status: ('A' for Active; 'I' for Inactive)
ROOT
ATOM      1  C   UNL d   1      -2.305   2.591  -2.096  0.00  0.00     0.124 A 
ATOM      2  C1  UNL d   1      -1.114   3.264  -1.863  0.00  0.00     0.062 A 
ATOM      3  C2  UNL d   1      -0.404   3.043  -0.686  0.00  0.00     0.162 A 
ATOM      4  C3  UNL d   1      -0.883   2.144   0.266  0.00  0.00    -0.034 A 
ATOM      5  C4  UNL d   1      -2.082   1.472   0.026  0.00  0.00     0.162 A 
ATOM      6  C5  UNL d   1      -2.788   1.696  -1.152  0.00  0.00     0.062 A 
ATOM      7  F   UNL d   1      -3.939   1.045  -1.375  0.00  0.00    -0.097 F 
ATOM      8  F1  UNL d   1      -2.571   0.600   0.920  0.00  0.00    -0.096 F 
ATOM      9  I   UNL d   1       0.176   1.811   2.027  0.00  0.00    -0.060 I 
ATOM     10  F2  UNL d   1       0.745   3.707  -0.488  0.00  0.00    -0.096 F 
ATOM     11  F3  UNL d   1      -0.646   4.130  -2.773  0.00  0.00    -0.097 F 
ATOM     12  F4  UNL d   1      -2.987   2.806  -3.228  0.00  0.00    -0.092 F 
ENDROOT
TORSDOF 0
ENDMDL
