MODEL 1
REMARK minimizedAffinity 1.72820652
REMARK minimizedRMSD -1
REMARK  0 active torsions:
REMARK  status: ('A' for Active; 'I' for Inactive)
ROOT
ATOM      1  C   UNL d   1       0.288  -4.584  -2.717  0.00  0.00     0.124 A 
ATOM      2  C1  UNL d   1       0.469  -4.470  -4.088  0.00  0.00     0.062 A 
ATOM      3  C2  UNL d   1       1.667  -4.873  -4.672  0.00  0.00     0.162 A 
ATOM      4  C3  UNL d   1       2.694  -5.394  -3.884  0.00  0.00    -0.034 A 
ATOM      5  C4  UNL d   1       2.505  -5.504  -2.506  0.00  0.00     0.162 A 
ATOM      6  C5  UNL d   1       1.306  -5.100  -1.927  0.00  0.00     0.062 A 
ATOM      7  F   UNL d   1       1.133  -5.210  -0.602  0.00  0.00    -0.097 F 
ATOM      8  F1  UNL d   1       3.471  -6.000  -1.719  0.00  0.00    -0.096 F 
ATOM      9  I   UNL d   1       4.486  -5.996  -4.753  0.00  0.00    -0.060 I 
ATOM     10  F2  UNL d   1       1.814  -4.752  -6.000  0.00  0.00    -0.096 F 
ATOM     11  F3  UNL d   1      -0.512  -3.971  -4.853  0.00  0.00    -0.097 F 
ATOM     12  F4  UNL d   1      -0.865  -4.195  -2.158  0.00  0.00    -0.092 F 
ENDROOT
TORSDOF 0
ENDMDL
