MODEL 1
REMARK minimizedAffinity 18.3856831
REMARK minimizedRMSD -1
REMARK  0 active torsions:
REMARK  status: ('A' for Active; 'I' for Inactive)
ROOT
ATOM      1  C   UNL d   1      -3.825  -3.541   5.235  0.00  0.00     0.124 A 
ATOM      2  C1  UNL d   1      -2.723  -2.697   5.233  0.00  0.00     0.062 A 
ATOM      3  C2  UNL d   1      -2.717  -1.554   4.439  0.00  0.00     0.162 A 
ATOM      4  C3  UNL d   1      -3.819  -1.247   3.640  0.00  0.00    -0.034 A 
ATOM      5  C4  UNL d   1      -4.923  -2.102   3.646  0.00  0.00     0.162 A 
ATOM      6  C5  UNL d   1      -4.923  -3.243   4.441  0.00  0.00     0.062 A 
ATOM      7  F   UNL d   1      -5.989  -4.057   4.442  0.00  0.00    -0.097 F 
ATOM      8  F1  UNL d   1      -5.998  -1.837   2.889  0.00  0.00    -0.096 F 
ATOM      9  I   UNL d   1      -3.814   0.460   2.450  0.00  0.00    -0.060 I 
ATOM     10  F2  UNL d   1      -1.639  -0.757   4.457  0.00  0.00    -0.096 F 
ATOM     11  F3  UNL d   1      -1.660  -2.983   5.999  0.00  0.00    -0.097 F 
ATOM     12  F4  UNL d   1      -3.827  -4.640   6.000  0.00  0.00    -0.092 F 
ENDROOT
TORSDOF 0
ENDMDL
