MODEL 1
REMARK minimizedAffinity 27.8390198
REMARK minimizedRMSD -1
REMARK  0 active torsions:
REMARK  status: ('A' for Active; 'I' for Inactive)
ROOT
ATOM      1  C   UNL d   1      -1.483   3.259  -2.293  0.00  0.00     0.124 A 
ATOM      2  C1  UNL d   1      -0.651   2.993  -1.215  0.00  0.00     0.062 A 
ATOM      3  C2  UNL d   1      -1.076   2.144  -0.197  0.00  0.00     0.162 A 
ATOM      4  C3  UNL d   1      -2.339   1.554  -0.253  0.00  0.00    -0.034 A 
ATOM      5  C4  UNL d   1      -3.170   1.828  -1.340  0.00  0.00     0.162 A 
ATOM      6  C5  UNL d   1      -2.741   2.677  -2.355  0.00  0.00     0.062 A 
ATOM      7  F   UNL d   1      -3.546   2.934  -3.397  0.00  0.00    -0.097 F 
ATOM      8  F1  UNL d   1      -4.390   1.278  -1.426  0.00  0.00    -0.096 F 
ATOM      9  I   UNL d   1      -2.977   0.284   1.267  0.00  0.00    -0.060 I 
ATOM     10  F2  UNL d   1      -0.251   1.904   0.834  0.00  0.00    -0.096 F 
ATOM     11  F3  UNL d   1       0.564   3.555  -1.152  0.00  0.00    -0.097 F 
ATOM     12  F4  UNL d   1      -1.072   4.078  -3.271  0.00  0.00    -0.092 F 
ENDROOT
TORSDOF 0
ENDMDL
