MODEL 1
REMARK minimizedAffinity 32.1605339
REMARK minimizedRMSD -1
REMARK  0 active torsions:
REMARK  status: ('A' for Active; 'I' for Inactive)
ROOT
ATOM      1  C   UNL d   1       4.114  -2.427  -0.113  0.00  0.00     0.124 A 
ATOM      2  C1  UNL d   1       4.634  -3.654  -0.503  0.00  0.00     0.062 A 
ATOM      3  C2  UNL d   1       3.783  -4.675  -0.914  0.00  0.00     0.162 A 
ATOM      4  C3  UNL d   1       2.403  -4.475  -0.938  0.00  0.00    -0.034 A 
ATOM      5  C4  UNL d   1       1.888  -3.239  -0.544  0.00  0.00     0.162 A 
ATOM      6  C5  UNL d   1       2.742  -2.221  -0.133  0.00  0.00     0.062 A 
ATOM      7  F   UNL d   1       2.239  -1.036   0.244  0.00  0.00    -0.097 F 
ATOM      8  F1  UNL d   1       0.566  -3.012  -0.555  0.00  0.00    -0.096 F 
ATOM      9  I   UNL d   1       1.127  -6.000  -1.553  0.00  0.00    -0.060 I 
ATOM     10  F2  UNL d   1       4.312  -5.850  -1.286  0.00  0.00    -0.096 F 
ATOM     11  F3  UNL d   1       5.959  -3.856  -0.483  0.00  0.00    -0.097 F 
ATOM     12  F4  UNL d   1       4.936  -1.446   0.283  0.00  0.00    -0.092 F 
ENDROOT
TORSDOF 0
ENDMDL
