MODEL 1
REMARK minimizedAffinity 21.1977367
REMARK minimizedRMSD -1
REMARK  0 active torsions:
REMARK  status: ('A' for Active; 'I' for Inactive)
ROOT
ATOM      1  C   UNL d   1       0.642   4.183  -0.422  0.00  0.00     0.124 A 
ATOM      2  C1  UNL d   1      -0.015   3.044   0.024  0.00  0.00     0.062 A 
ATOM      3  C2  UNL d   1      -1.184   2.620  -0.602  0.00  0.00     0.162 A 
ATOM      4  C3  UNL d   1      -1.703   3.334  -1.682  0.00  0.00    -0.034 A 
ATOM      5  C4  UNL d   1      -1.037   4.479  -2.124  0.00  0.00     0.162 A 
ATOM      6  C5  UNL d   1       0.131   4.898  -1.496  0.00  0.00     0.062 A 
ATOM      7  F   UNL d   1       0.765   5.998  -1.928  0.00  0.00    -0.097 F 
ATOM      8  F1  UNL d   1      -1.508   5.189  -3.160  0.00  0.00    -0.096 F 
ATOM      9  I   UNL d   1      -3.450   2.703  -2.620  0.00  0.00    -0.060 I 
ATOM     10  F2  UNL d   1      -1.798   1.517  -0.149  0.00  0.00    -0.096 F 
ATOM     11  F3  UNL d   1       0.476   2.352   1.062  0.00  0.00    -0.097 F 
ATOM     12  F4  UNL d   1       1.766   4.589   0.182  0.00  0.00    -0.092 F 
ENDROOT
TORSDOF 0
ENDMDL
