MODEL 1
REMARK minimizedAffinity 18.704422
REMARK minimizedRMSD -1
REMARK  0 active torsions:
REMARK  status: ('A' for Active; 'I' for Inactive)
ROOT
ATOM      1  C   UNL d   1      -4.492  -3.229  -5.999  0.00  0.00     0.124 A 
ATOM      2  C1  UNL d   1      -3.989  -4.523  -5.999  0.00  0.00     0.062 A 
ATOM      3  C2  UNL d   1      -2.614  -4.738  -5.999  0.00  0.00     0.162 A 
ATOM      4  C3  UNL d   1      -1.732  -3.658  -5.998  0.00  0.00    -0.034 A 
ATOM      5  C4  UNL d   1      -2.246  -2.360  -5.999  0.00  0.00     0.162 A 
ATOM      6  C5  UNL d   1      -3.621  -2.149  -5.999  0.00  0.00     0.062 A 
ATOM      7  F   UNL d   1      -4.105  -0.899  -5.999  0.00  0.00    -0.097 F 
ATOM      8  F1  UNL d   1      -1.426  -1.298  -5.998  0.00  0.00    -0.096 F 
ATOM      9  I   UNL d   1       0.325  -3.976  -5.998  0.00  0.00    -0.060 I 
ATOM     10  F2  UNL d   1      -2.155  -5.999  -5.999  0.00  0.00    -0.096 F 
ATOM     11  F3  UNL d   1      -4.829  -5.568  -5.999  0.00  0.00    -0.097 F 
ATOM     12  F4  UNL d   1      -5.816  -3.024  -6.000  0.00  0.00    -0.092 F 
ENDROOT
TORSDOF 0
ENDMDL
