MODEL 1
REMARK minimizedAffinity 12.5867558
REMARK minimizedRMSD -1
REMARK  0 active torsions:
REMARK  status: ('A' for Active; 'I' for Inactive)
ROOT
ATOM      1  C   UNL d   1      -4.629  -0.335   2.173  0.00  0.00     0.124 A 
ATOM      2  C1  UNL d   1      -5.232   0.115   3.339  0.00  0.00     0.062 A 
ATOM      3  C2  UNL d   1      -5.404  -0.749   4.417  0.00  0.00     0.162 A 
ATOM      4  C3  UNL d   1      -4.973  -2.072   4.334  0.00  0.00    -0.034 A 
ATOM      5  C4  UNL d   1      -4.368  -2.518   3.157  0.00  0.00     0.162 A 
ATOM      6  C5  UNL d   1      -4.198  -1.651   2.083  0.00  0.00     0.062 A 
ATOM      7  F   UNL d   1      -3.615  -2.088   0.957  0.00  0.00    -0.097 F 
ATOM      8  F1  UNL d   1      -3.941  -3.785   3.043  0.00  0.00    -0.096 F 
ATOM      9  I   UNL d   1      -5.229  -3.368   5.942  0.00  0.00    -0.060 I 
ATOM     10  F2  UNL d   1      -5.990  -0.286   5.532  0.00  0.00    -0.096 F 
ATOM     11  F3  UNL d   1      -5.650   1.386   3.429  0.00  0.00    -0.097 F 
ATOM     12  F4  UNL d   1      -4.465   0.498   1.138  0.00  0.00    -0.092 F 
ENDROOT
TORSDOF 0
ENDMDL
