MODEL 1
REMARK minimizedAffinity 22.9437408
REMARK minimizedRMSD -1
REMARK  0 active torsions:
REMARK  status: ('A' for Active; 'I' for Inactive)
ROOT
ATOM      1  C   UNL d   1      -1.187   3.385  -2.392  0.00  0.00     0.124 A 
ATOM      2  C1  UNL d   1      -0.563   2.933  -1.237  0.00  0.00     0.062 A 
ATOM      3  C2  UNL d   1      -1.174   1.966  -0.444  0.00  0.00     0.162 A 
ATOM      4  C3  UNL d   1      -2.416   1.442  -0.804  0.00  0.00    -0.034 A 
ATOM      5  C4  UNL d   1      -3.037   1.902  -1.967  0.00  0.00     0.162 A 
ATOM      6  C5  UNL d   1      -2.422   2.869  -2.755  0.00  0.00     0.062 A 
ATOM      7  F   UNL d   1      -3.026   3.305  -3.871  0.00  0.00    -0.097 F 
ATOM      8  F1  UNL d   1      -4.231   1.420  -2.342  0.00  0.00    -0.096 F 
ATOM      9  I   UNL d   1      -3.333  -0.005   0.378  0.00  0.00    -0.060 I 
ATOM     10  F2  UNL d   1      -0.549   1.548   0.666  0.00  0.00    -0.096 F 
ATOM     11  F3  UNL d   1       0.631   3.430  -0.882  0.00  0.00    -0.097 F 
ATOM     12  F4  UNL d   1      -0.597   4.317  -3.152  0.00  0.00    -0.092 F 
ENDROOT
TORSDOF 0
ENDMDL
