MODEL 1
REMARK minimizedAffinity -4.03027725
REMARK minimizedRMSD -1
REMARK  0 active torsions:
REMARK  status: ('A' for Active; 'I' for Inactive)
ROOT
ATOM      1  C   UNL d   1       0.003  -0.448  -0.377  0.00  0.00     0.172 C 
ATOM      2  N   UNL d   1      -0.473   0.885  -0.090  0.00  0.00    -0.070 N 
ATOM      3  C1  UNL d   1      -0.745   1.385   1.155  0.00  0.00    -0.004 A 
ATOM      4  C2  UNL d   1      -1.174   2.686   1.004  0.00  0.00    -0.047 A 
ATOM      5  C3  UNL d   1      -1.160   2.978  -0.381  0.00  0.00    -0.047 A 
ATOM      6  C4  UNL d   1      -0.722   1.846  -1.035  0.00  0.00    -0.004 A 
ENDROOT
TORSDOF 0
ENDMDL
