MODEL 1
REMARK minimizedAffinity -3.74052358
REMARK minimizedRMSD -1
REMARK  0 active torsions:
REMARK  status: ('A' for Active; 'I' for Inactive)
ROOT
ATOM      1  C   UNL d   1       0.317  -0.913  -0.570  0.00  0.00     0.172 C 
ATOM      2  N   UNL d   1      -0.071   0.124   0.357  0.00  0.00    -0.070 N 
ATOM      3  C1  UNL d   1      -1.070   1.039   0.159  0.00  0.00    -0.004 A 
ATOM      4  C2  UNL d   1      -1.125   1.851   1.271  0.00  0.00    -0.047 A 
ATOM      5  C3  UNL d   1      -0.124   1.409   2.168  0.00  0.00    -0.047 A 
ATOM      6  C4  UNL d   1       0.513   0.339   1.578  0.00  0.00    -0.004 A 
ENDROOT
TORSDOF 0
ENDMDL
