MODEL 1
REMARK minimizedAffinity -2.49557996
REMARK minimizedRMSD -1
REMARK  0 active torsions:
REMARK  status: ('A' for Active; 'I' for Inactive)
ROOT
ATOM      1  C   UNL d   1      -0.377  -0.118   0.587  0.00  0.00     0.172 C 
ATOM      2  N   UNL d   1      -0.141  -1.178  -0.365  0.00  0.00    -0.070 N 
ATOM      3  C1  UNL d   1       0.940  -1.275  -1.200  0.00  0.00    -0.004 A 
ATOM      4  C2  UNL d   1       0.794  -2.424  -1.948  0.00  0.00    -0.047 A 
ATOM      5  C3  UNL d   1      -0.417  -3.037  -1.549  0.00  0.00    -0.047 A 
ATOM      6  C4  UNL d   1      -0.975  -2.245  -0.568  0.00  0.00    -0.004 A 
ENDROOT
TORSDOF 0
ENDMDL
