MODEL 1
REMARK minimizedAffinity -2.58573151
REMARK minimizedRMSD -1
REMARK  0 active torsions:
REMARK  status: ('A' for Active; 'I' for Inactive)
ROOT
ATOM      1  C   UNL d   1       0.278  -0.951  -0.667  0.00  0.00     0.172 C 
ATOM      2  N   UNL d   1       0.069  -0.016   0.413  0.00  0.00    -0.070 N 
ATOM      3  C1  UNL d   1       0.748  -0.003   1.602  0.00  0.00    -0.004 A 
ATOM      4  C2  UNL d   1       0.256   1.038   2.358  0.00  0.00    -0.047 A 
ATOM      5  C3  UNL d   1      -0.755   1.673   1.599  0.00  0.00    -0.047 A 
ATOM      6  C4  UNL d   1      -0.850   1.001   0.399  0.00  0.00    -0.004 A 
ENDROOT
TORSDOF 0
ENDMDL
