MODEL 1
REMARK minimizedAffinity -4.01809072
REMARK minimizedRMSD -1
REMARK  0 active torsions:
REMARK  status: ('A' for Active; 'I' for Inactive)
ROOT
ATOM      1  C   UNL d   1       0.455  -0.289  -0.593  0.00  0.00     0.172 C 
ATOM      2  N   UNL d   1       0.051   0.786   0.282  0.00  0.00    -0.070 N 
ATOM      3  C1  UNL d   1      -0.659   1.896  -0.091  0.00  0.00    -0.004 A 
ATOM      4  C2  UNL d   1      -0.842   2.677   1.029  0.00  0.00    -0.047 A 
ATOM      5  C3  UNL d   1      -0.219   2.014   2.114  0.00  0.00    -0.047 A 
ATOM      6  C4  UNL d   1       0.326   0.846   1.623  0.00  0.00    -0.004 A 
ENDROOT
TORSDOF 0
ENDMDL
