MODEL 1
REMARK minimizedAffinity -2.3323617
REMARK minimizedRMSD -1
REMARK  0 active torsions:
REMARK  status: ('A' for Active; 'I' for Inactive)
ROOT
ATOM      1  C   UNL d   1       1.671  -0.682   2.399  0.00  0.00     0.172 C 
ATOM      2  N   UNL d   1       0.854  -0.302   1.271  0.00  0.00    -0.070 N 
ATOM      3  C1  UNL d   1      -0.095   0.685   1.269  0.00  0.00    -0.004 A 
ATOM      4  C2  UNL d   1      -0.648   0.736   0.008  0.00  0.00    -0.047 A 
ATOM      5  C3  UNL d   1      -0.011  -0.256  -0.775  0.00  0.00    -0.047 A 
ATOM      6  C4  UNL d   1       0.915  -0.883   0.032  0.00  0.00    -0.004 A 
ENDROOT
TORSDOF 0
ENDMDL
