MODEL 1
REMARK minimizedAffinity -4.06956482
REMARK minimizedRMSD -1
REMARK  0 active torsions:
REMARK  status: ('A' for Active; 'I' for Inactive)
ROOT
ATOM      1  C   UNL d   1       0.308  -0.613  -0.433  0.00  0.00     0.172 C 
ATOM      2  N   UNL d   1      -0.199   0.356   0.509  0.00  0.00    -0.070 N 
ATOM      3  C1  UNL d   1      -1.296   1.154   0.321  0.00  0.00    -0.004 A 
ATOM      4  C2  UNL d   1      -1.448   1.935   1.446  0.00  0.00    -0.047 A 
ATOM      5  C3  UNL d   1      -0.405   1.596   2.341  0.00  0.00    -0.047 A 
ATOM      6  C4  UNL d   1       0.353   0.616   1.736  0.00  0.00    -0.004 A 
ENDROOT
TORSDOF 0
ENDMDL
