MODEL 1
REMARK minimizedAffinity -4.14487267
REMARK minimizedRMSD -1
REMARK  0 active torsions:
REMARK  status: ('A' for Active; 'I' for Inactive)
ROOT
ATOM      1  C   UNL d   1       0.587  -0.376  -0.037  0.00  0.00     0.172 C 
ATOM      2  N   UNL d   1      -0.006   0.649   0.790  0.00  0.00    -0.070 N 
ATOM      3  C1  UNL d   1      -0.562   1.816   0.338  0.00  0.00    -0.004 A 
ATOM      4  C2  UNL d   1      -1.015   2.519   1.434  0.00  0.00    -0.047 A 
ATOM      5  C3  UNL d   1      -0.720   1.748   2.583  0.00  0.00    -0.047 A 
ATOM      6  C4  UNL d   1      -0.096   0.595   2.156  0.00  0.00    -0.004 A 
ENDROOT
TORSDOF 0
ENDMDL
