MODEL 1
REMARK minimizedAffinity -1.54699814
REMARK minimizedRMSD -1
REMARK  0 active torsions:
REMARK  status: ('A' for Active; 'I' for Inactive)
ROOT
ATOM      1  C   UNL d   1       2.319   2.819   2.882  0.00  0.00     0.172 C 
ATOM      2  N   UNL d   1       1.538   1.703   2.402  0.00  0.00    -0.070 N 
ATOM      3  C1  UNL d   1       0.187   1.547   2.562  0.00  0.00    -0.004 A 
ATOM      4  C2  UNL d   1      -0.174   0.359   1.964  0.00  0.00    -0.047 A 
ATOM      5  C3  UNL d   1       1.000  -0.219   1.426  0.00  0.00    -0.047 A 
ATOM      6  C4  UNL d   1       2.045   0.634   1.712  0.00  0.00    -0.004 A 
ENDROOT
TORSDOF 0
ENDMDL
