MODEL 1
REMARK minimizedAffinity -3.26558375
REMARK minimizedRMSD -1
REMARK  0 active torsions:
REMARK  status: ('A' for Active; 'I' for Inactive)
ROOT
ATOM      1  C   UNL d   1       0.176  -1.185  -0.341  0.00  0.00     0.172 C 
ATOM      2  N   UNL d   1       0.105  -0.138   0.651  0.00  0.00    -0.070 N 
ATOM      3  C1  UNL d   1       0.900  -0.033   1.761  0.00  0.00    -0.004 A 
ATOM      4  C2  UNL d   1       0.519   1.099   2.448  0.00  0.00    -0.047 A 
ATOM      5  C3  UNL d   1      -0.542   1.695   1.728  0.00  0.00    -0.047 A 
ATOM      6  C4  UNL d   1      -0.779   0.909   0.620  0.00  0.00    -0.004 A 
ENDROOT
TORSDOF 0
ENDMDL
