MODEL 1
REMARK minimizedAffinity 2.48037267
REMARK minimizedRMSD -1
REMARK  0 active torsions:
REMARK  status: ('A' for Active; 'I' for Inactive)
ROOT
ATOM      1  C   UNL d   1      -4.265   4.323  -3.205  0.00  0.00     0.172 C 
ATOM      2  N   UNL d   1      -3.935   3.201  -2.358  0.00  0.00    -0.070 N 
ATOM      3  C1  UNL d   1      -3.197   3.260  -1.206  0.00  0.00    -0.004 A 
ATOM      4  C2  UNL d   1      -3.109   1.983  -0.696  0.00  0.00    -0.047 A 
ATOM      5  C3  UNL d   1      -3.818   1.126  -1.571  0.00  0.00    -0.047 A 
ATOM      6  C4  UNL d   1      -4.319   1.907  -2.592  0.00  0.00    -0.004 A 
ENDROOT
TORSDOF 0
ENDMDL
