MODEL 1
REMARK minimizedAffinity 0.104404986
REMARK minimizedRMSD -1
REMARK  0 active torsions:
REMARK  status: ('A' for Active; 'I' for Inactive)
ROOT
ATOM      1  C   UNL d   1      -1.405   2.392  -3.086  0.00  0.00     0.077 C 
ATOM      2  C1  UNL d   1      -0.800   2.898  -1.810  0.00  0.00    -0.074 A 
ATOM      3  C2  UNL d   1      -0.147   4.133  -1.765  0.00  0.00    -0.005 A 
ATOM      4  C3  UNL d   1       0.402   4.595  -0.568  0.00  0.00     0.006 A 
ATOM      5  C4  UNL d   1       0.304   3.827   0.592  0.00  0.00    -0.005 A 
ATOM      6  C5  UNL d   1      -0.346   2.589   0.567  0.00  0.00    -0.074 A 
ATOM      7  C6  UNL d   1      -0.470   1.756   1.807  0.00  0.00     0.077 C 
ATOM      8  C7  UNL d   1      -0.902   2.135  -0.638  0.00  0.00    -0.001 A 
ENDROOT
TORSDOF 0
ENDMDL
