MODEL 1
REMARK minimizedAffinity 3.60521412
REMARK minimizedRMSD -1
REMARK  0 active torsions:
REMARK  status: ('A' for Active; 'I' for Inactive)
ROOT
ATOM      1  C   UNL d   1       2.291   4.965  -2.552  0.00  0.00     0.077 C 
ATOM      2  C1  UNL d   1       1.074   4.344  -1.932  0.00  0.00    -0.074 A 
ATOM      3  C2  UNL d   1       1.006   4.119  -0.554  0.00  0.00    -0.005 A 
ATOM      4  C3  UNL d   1      -0.136   3.550   0.010  0.00  0.00     0.006 A 
ATOM      5  C4  UNL d   1      -1.219   3.201  -0.798  0.00  0.00    -0.005 A 
ATOM      6  C5  UNL d   1      -1.169   3.419  -2.178  0.00  0.00    -0.074 A 
ATOM      7  C6  UNL d   1      -2.328   3.058  -3.059  0.00  0.00     0.077 C 
ATOM      8  C7  UNL d   1      -0.021   3.998  -2.736  0.00  0.00    -0.001 A 
ENDROOT
TORSDOF 0
ENDMDL
