MODEL 1
REMARK minimizedAffinity 2.27368951
REMARK minimizedRMSD -1
REMARK  0 active torsions:
REMARK  status: ('A' for Active; 'I' for Inactive)
ROOT
ATOM      1  C   UNL d   1      -2.070   0.791   3.089  0.00  0.00     0.077 C 
ATOM      2  C1  UNL d   1      -1.096   1.779   2.521  0.00  0.00    -0.074 A 
ATOM      3  C2  UNL d   1      -0.202   2.465   3.350  0.00  0.00    -0.005 A 
ATOM      4  C3  UNL d   1       0.705   3.375   2.806  0.00  0.00     0.006 A 
ATOM      5  C4  UNL d   1       0.728   3.607   1.430  0.00  0.00    -0.005 A 
ATOM      6  C5  UNL d   1      -0.157   2.929   0.586  0.00  0.00    -0.074 A 
ATOM      7  C6  UNL d   1      -0.139   3.159  -0.896  0.00  0.00     0.077 C 
ATOM      8  C7  UNL d   1      -1.061   2.012   1.139  0.00  0.00    -0.001 A 
ENDROOT
TORSDOF 0
ENDMDL
