MODEL 1
REMARK minimizedAffinity -0.831287563
REMARK minimizedRMSD -1
REMARK  0 active torsions:
REMARK  status: ('A' for Active; 'I' for Inactive)
ROOT
ATOM      1  C   UNL d   1      -0.745   2.273   2.267  0.00  0.00     0.077 C 
ATOM      2  C1  UNL d   1      -0.589   2.731   0.848  0.00  0.00    -0.074 A 
ATOM      3  C2  UNL d   1       0.185   3.854   0.536  0.00  0.00    -0.005 A 
ATOM      4  C3  UNL d   1       0.329   4.262  -0.790  0.00  0.00     0.006 A 
ATOM      5  C4  UNL d   1      -0.299   3.554  -1.816  0.00  0.00    -0.005 A 
ATOM      6  C5  UNL d   1      -1.076   2.429  -1.523  0.00  0.00    -0.074 A 
ATOM      7  C6  UNL d   1      -1.749   1.651  -2.614  0.00  0.00     0.077 C 
ATOM      8  C7  UNL d   1      -1.210   2.020  -0.189  0.00  0.00    -0.001 A 
ENDROOT
TORSDOF 0
ENDMDL
