MODEL 1
REMARK minimizedAffinity 6.37952232
REMARK minimizedRMSD -1
REMARK  0 active torsions:
REMARK  status: ('A' for Active; 'I' for Inactive)
ROOT
ATOM      1  C   UNL d   1      -1.899  -2.874   4.283  0.00  0.00     0.077 C 
ATOM      2  C1  UNL d   1      -1.442  -1.545   3.757  0.00  0.00    -0.074 A 
ATOM      3  C2  UNL d   1      -0.086  -1.202   3.755  0.00  0.00    -0.005 A 
ATOM      4  C3  UNL d   1       0.325   0.034   3.254  0.00  0.00     0.006 A 
ATOM      5  C4  UNL d   1      -0.614   0.936   2.752  0.00  0.00    -0.005 A 
ATOM      6  C5  UNL d   1      -1.973   0.609   2.745  0.00  0.00    -0.074 A 
ATOM      7  C6  UNL d   1      -2.994   1.564   2.200  0.00  0.00     0.077 C 
ATOM      8  C7  UNL d   1      -2.378  -0.637   3.244  0.00  0.00    -0.001 A 
ENDROOT
TORSDOF 0
ENDMDL
