MODEL 1
REMARK minimizedAffinity 8.91609287
REMARK minimizedRMSD -1
REMARK  0 active torsions:
REMARK  status: ('A' for Active; 'I' for Inactive)
ROOT
ATOM      1  C   UNL d   1      -2.546   5.438   0.575  0.00  0.00     0.077 C 
ATOM      2  C1  UNL d   1      -1.443   4.493   0.200  0.00  0.00    -0.074 A 
ATOM      3  C2  UNL d   1      -1.466   3.159   0.620  0.00  0.00    -0.005 A 
ATOM      4  C3  UNL d   1      -0.438   2.289   0.255  0.00  0.00     0.006 A 
ATOM      5  C4  UNL d   1       0.621   2.743  -0.531  0.00  0.00    -0.005 A 
ATOM      6  C5  UNL d   1       0.660   4.073  -0.961  0.00  0.00    -0.074 A 
ATOM      7  C6  UNL d   1       1.786   4.575  -1.816  0.00  0.00     0.077 C 
ATOM      8  C7  UNL d   1      -0.380   4.939  -0.597  0.00  0.00    -0.001 A 
ENDROOT
TORSDOF 0
ENDMDL
