MODEL 1
REMARK minimizedAffinity 7.58723164
REMARK minimizedRMSD -1
REMARK  0 active torsions:
REMARK  status: ('A' for Active; 'I' for Inactive)
ROOT
ATOM      1  C   UNL d   1      -2.321   2.185  -3.001  0.00  0.00     0.077 C 
ATOM      2  C1  UNL d   1      -1.354   2.690  -1.972  0.00  0.00    -0.074 A 
ATOM      3  C2  UNL d   1      -0.526   3.785  -2.241  0.00  0.00    -0.005 A 
ATOM      4  C3  UNL d   1       0.362   4.249  -1.271  0.00  0.00     0.006 A 
ATOM      5  C4  UNL d   1       0.432   3.625  -0.025  0.00  0.00    -0.005 A 
ATOM      6  C5  UNL d   1      -0.389   2.530   0.262  0.00  0.00    -0.074 A 
ATOM      7  C6  UNL d   1      -0.334   1.853   1.600  0.00  0.00     0.077 C 
ATOM      8  C7  UNL d   1      -1.284   2.073  -0.715  0.00  0.00    -0.001 A 
ENDROOT
TORSDOF 0
ENDMDL
