MODEL 1
REMARK minimizedAffinity 1.27036786
REMARK minimizedRMSD -1
REMARK  0 active torsions:
REMARK  status: ('A' for Active; 'I' for Inactive)
ROOT
ATOM      1  C   UNL d   1      -1.439   2.086  -2.969  0.00  0.00     0.077 C 
ATOM      2  C1  UNL d   1      -0.806   2.569  -1.698  0.00  0.00    -0.074 A 
ATOM      3  C2  UNL d   1      -0.071   3.759  -1.668  0.00  0.00    -0.005 A 
ATOM      4  C3  UNL d   1       0.504   4.200  -0.476  0.00  0.00     0.006 A 
ATOM      5  C4  UNL d   1       0.351   3.458   0.695  0.00  0.00    -0.005 A 
ATOM      6  C5  UNL d   1      -0.382   2.267   0.685  0.00  0.00    -0.074 A 
ATOM      7  C6  UNL d   1      -0.565   1.462   1.937  0.00  0.00     0.077 C 
ATOM      8  C7  UNL d   1      -0.962   1.833  -0.515  0.00  0.00    -0.001 A 
ENDROOT
TORSDOF 0
ENDMDL
