MODEL 1
REMARK minimizedAffinity 11.295146
REMARK minimizedRMSD -1
REMARK  0 active torsions:
REMARK  status: ('A' for Active; 'I' for Inactive)
ROOT
ATOM      1  C   UNL d   1       1.084   6.000   0.695  0.00  0.00     0.077 C 
ATOM      2  C1  UNL d   1       0.697   4.814  -0.138  0.00  0.00    -0.074 A 
ATOM      3  C2  UNL d   1       0.643   4.901  -1.532  0.00  0.00    -0.005 A 
ATOM      4  C3  UNL d   1       0.291   3.787  -2.294  0.00  0.00     0.006 A 
ATOM      5  C4  UNL d   1      -0.010   2.576  -1.669  0.00  0.00    -0.005 A 
ATOM      6  C5  UNL d   1       0.040   2.469  -0.276  0.00  0.00    -0.074 A 
ATOM      7  C6  UNL d   1      -0.270   1.172   0.411  0.00  0.00     0.077 C 
ATOM      8  C7  UNL d   1       0.402   3.591   0.482  0.00  0.00    -0.001 A 
ENDROOT
TORSDOF 0
ENDMDL
