MODEL 1
REMARK minimizedAffinity 4.91243982
REMARK minimizedRMSD -1
REMARK  0 active torsions:
REMARK  status: ('A' for Active; 'I' for Inactive)
ROOT
ATOM      1  C   UNL d   1      -2.580   6.000  -0.733  0.00  0.00     0.077 C 
ATOM      2  C1  UNL d   1      -1.513   4.946  -0.763  0.00  0.00    -0.074 A 
ATOM      3  C2  UNL d   1      -0.754   4.723  -1.916  0.00  0.00    -0.005 A 
ATOM      4  C3  UNL d   1       0.241   3.745  -1.925  0.00  0.00     0.006 A 
ATOM      5  C4  UNL d   1       0.486   2.982  -0.784  0.00  0.00    -0.005 A 
ATOM      6  C5  UNL d   1      -0.262   3.190   0.379  0.00  0.00    -0.074 A 
ATOM      7  C6  UNL d   1      -0.005   2.385   1.618  0.00  0.00     0.077 C 
ATOM      8  C7  UNL d   1      -1.256   4.180   0.383  0.00  0.00    -0.001 A 
ENDROOT
TORSDOF 0
ENDMDL
