MODEL 1
REMARK minimizedAffinity 7.79175091
REMARK minimizedRMSD -1
REMARK  0 active torsions:
REMARK  status: ('A' for Active; 'I' for Inactive)
ROOT
ATOM      1  C   UNL d   1      -1.300   3.923  -3.350  0.00  0.00     0.077 C 
ATOM      2  C1  UNL d   1      -0.769   3.992  -1.949  0.00  0.00    -0.074 A 
ATOM      3  C2  UNL d   1      -0.121   5.141  -1.482  0.00  0.00    -0.005 A 
ATOM      4  C3  UNL d   1       0.360   5.194  -0.174  0.00  0.00     0.006 A 
ATOM      5  C4  UNL d   1       0.198   4.102   0.680  0.00  0.00    -0.005 A 
ATOM      6  C5  UNL d   1      -0.448   2.946   0.231  0.00  0.00    -0.074 A 
ATOM      7  C6  UNL d   1      -0.639   1.767   1.138  0.00  0.00     0.077 C 
ATOM      8  C7  UNL d   1      -0.934   2.902  -1.083  0.00  0.00    -0.001 A 
ENDROOT
TORSDOF 0
ENDMDL
