MODEL 1
REMARK minimizedAffinity 3.93628454
REMARK minimizedRMSD -1
REMARK  0 active torsions:
REMARK  status: ('A' for Active; 'I' for Inactive)
ROOT
ATOM      1  C   UNL d   1      -1.496   6.000   0.568  0.00  0.00     0.077 C 
ATOM      2  C1  UNL d   1      -0.794   4.928  -0.212  0.00  0.00    -0.074 A 
ATOM      3  C2  UNL d   1       0.336   4.285   0.306  0.00  0.00    -0.005 A 
ATOM      4  C3  UNL d   1       0.973   3.284  -0.426  0.00  0.00     0.006 A 
ATOM      5  C4  UNL d   1       0.487   2.914  -1.682  0.00  0.00    -0.005 A 
ATOM      6  C5  UNL d   1      -0.641   3.545  -2.215  0.00  0.00    -0.074 A 
ATOM      7  C6  UNL d   1      -1.181   3.153  -3.558  0.00  0.00     0.077 C 
ATOM      8  C7  UNL d   1      -1.280   4.546  -1.470  0.00  0.00    -0.001 A 
ENDROOT
TORSDOF 0
ENDMDL
