MODEL 1
REMARK minimizedAffinity 12.9836054
REMARK minimizedRMSD -1
REMARK  0 active torsions:
REMARK  status: ('A' for Active; 'I' for Inactive)
ROOT
ATOM      1  C   UNL d   1       5.179  -2.948  -5.995  0.00  0.00     0.077 C 
ATOM      2  C1  UNL d   1       3.764  -2.450  -5.987  0.00  0.00    -0.074 A 
ATOM      3  C2  UNL d   1       3.485  -1.080  -5.988  0.00  0.00    -0.005 A 
ATOM      4  C3  UNL d   1       2.164  -0.631  -5.990  0.00  0.00     0.006 A 
ATOM      5  C4  UNL d   1       1.111  -1.547  -5.990  0.00  0.00    -0.005 A 
ATOM      6  C5  UNL d   1       1.371  -2.921  -5.989  0.00  0.00    -0.074 A 
ATOM      7  C6  UNL d   1       0.251  -3.919  -6.000  0.00  0.00     0.077 C 
ATOM      8  C7  UNL d   1       2.701  -3.364  -5.995  0.00  0.00    -0.001 A 
ENDROOT
TORSDOF 0
ENDMDL
