MODEL 1
REMARK minimizedAffinity 15.4098816
REMARK minimizedRMSD -1
REMARK  0 active torsions:
REMARK  status: ('A' for Active; 'I' for Inactive)
ROOT
ATOM      1  C   UNL d   1      -5.837  -5.998   5.039  0.00  0.00     0.077 C 
ATOM      2  C1  UNL d   1      -5.235  -4.632   5.187  0.00  0.00    -0.074 A 
ATOM      3  C2  UNL d   1      -5.917  -3.614   5.862  0.00  0.00    -0.005 A 
ATOM      4  C3  UNL d   1      -5.340  -2.352   5.999  0.00  0.00     0.006 A 
ATOM      5  C4  UNL d   1      -4.077  -2.095   5.464  0.00  0.00    -0.005 A 
ATOM      6  C5  UNL d   1      -3.380  -3.100   4.787  0.00  0.00    -0.074 A 
ATOM      7  C6  UNL d   1      -2.018  -2.843   4.214  0.00  0.00     0.077 C 
ATOM      8  C7  UNL d   1      -3.963  -4.368   4.659  0.00  0.00    -0.001 A 
ENDROOT
TORSDOF 0
ENDMDL
