MODEL 1
REMARK minimizedAffinity 6.70766115
REMARK minimizedRMSD -1
REMARK  0 active torsions:
REMARK  status: ('A' for Active; 'I' for Inactive)
ROOT
ATOM      1  C   UNL d   1      -1.103   3.894  -3.484  0.00  0.00     0.077 C 
ATOM      2  C1  UNL d   1      -0.633   3.991  -2.063  0.00  0.00    -0.074 A 
ATOM      3  C2  UNL d   1      -0.102   5.184  -1.562  0.00  0.00    -0.005 A 
ATOM      4  C3  UNL d   1       0.322   5.262  -0.235  0.00  0.00     0.006 A 
ATOM      5  C4  UNL d   1       0.219   4.150   0.602  0.00  0.00    -0.005 A 
ATOM      6  C5  UNL d   1      -0.310   2.950   0.118  0.00  0.00    -0.074 A 
ATOM      7  C6  UNL d   1      -0.436   1.748   1.007  0.00  0.00     0.077 C 
ATOM      8  C7  UNL d   1      -0.740   2.881  -1.214  0.00  0.00    -0.001 A 
ENDROOT
TORSDOF 0
ENDMDL
