MODEL 1
REMARK minimizedAffinity 5.19037867
REMARK minimizedRMSD -1
REMARK  0 active torsions:
REMARK  status: ('A' for Active; 'I' for Inactive)
ROOT
ATOM      1  C   UNL d   1       0.006   1.723   1.450  0.00  0.00     0.077 C 
ATOM      2  C1  UNL d   1       0.141   3.211   1.322  0.00  0.00    -0.074 A 
ATOM      3  C2  UNL d   1      -0.671   3.933   0.442  0.00  0.00    -0.005 A 
ATOM      4  C3  UNL d   1      -0.541   5.318   0.341  0.00  0.00     0.006 A 
ATOM      5  C4  UNL d   1       0.402   5.994   1.116  0.00  0.00    -0.005 A 
ATOM      6  C5  UNL d   1       1.223   5.288   2.002  0.00  0.00    -0.074 A 
ATOM      7  C6  UNL d   1       2.235   6.000   2.850  0.00  0.00     0.077 C 
ATOM      8  C7  UNL d   1       1.081   3.897   2.103  0.00  0.00    -0.001 A 
ENDROOT
TORSDOF 0
ENDMDL
