MODEL 1
REMARK minimizedAffinity -1.515329
REMARK minimizedRMSD -1
REMARK  0 active torsions:
REMARK  status: ('A' for Active; 'I' for Inactive)
ROOT
ATOM      1  C   UNL d   1      -5.018  -2.800   6.000  0.00  0.00     0.077 C 
ATOM      2  C1  UNL d   1      -3.585  -2.970   5.592  0.00  0.00    -0.074 A 
ATOM      3  C2  UNL d   1      -2.924  -1.978   4.859  0.00  0.00    -0.005 A 
ATOM      4  C3  UNL d   1      -1.588  -2.146   4.495  0.00  0.00     0.006 A 
ATOM      5  C4  UNL d   1      -0.900  -3.304   4.859  0.00  0.00    -0.005 A 
ATOM      6  C5  UNL d   1      -1.544  -4.306   5.592  0.00  0.00    -0.074 A 
ATOM      7  C6  UNL d   1      -0.817  -5.552   6.000  0.00  0.00     0.077 C 
ATOM      8  C7  UNL d   1      -2.885  -4.127   5.960  0.00  0.00    -0.001 A 
ENDROOT
TORSDOF 0
ENDMDL
