MODEL 1
REMARK minimizedAffinity 1.52022183
REMARK minimizedRMSD -1
REMARK  0 active torsions:
REMARK  status: ('A' for Active; 'I' for Inactive)
ROOT
ATOM      1  C   UNL d   1      -1.523   1.497   2.786  0.00  0.00     0.077 C 
ATOM      2  C1  UNL d   1      -0.942   0.120   2.657  0.00  0.00    -0.074 A 
ATOM      3  C2  UNL d   1       0.010  -0.169   1.674  0.00  0.00    -0.005 A 
ATOM      4  C3  UNL d   1       0.548  -1.452   1.572  0.00  0.00     0.006 A 
ATOM      5  C4  UNL d   1       0.140  -2.457   2.449  0.00  0.00    -0.005 A 
ATOM      6  C5  UNL d   1      -0.811  -2.187   3.438  0.00  0.00    -0.074 A 
ATOM      7  C6  UNL d   1      -1.253  -3.253   4.396  0.00  0.00     0.077 C 
ATOM      8  C7  UNL d   1      -1.342  -0.894   3.539  0.00  0.00    -0.001 A 
ENDROOT
TORSDOF 0
ENDMDL
