MODEL 1
REMARK minimizedAffinity -2.6869173
REMARK minimizedRMSD -1
REMARK  0 active torsions:
REMARK  status: ('A' for Active; 'I' for Inactive)
ROOT
ATOM      1  C   UNL d   1      -0.491  -2.781   0.860  0.00  0.00     0.023 A 
ATOM      2  C1  UNL d   1       0.685  -2.395   0.217  0.00  0.00     0.003 A 
ATOM      3  C2  UNL d   1       0.874  -1.062  -0.154  0.00  0.00     0.048 A 
ATOM      4  C3  UNL d   1      -0.117  -0.120   0.122  0.00  0.00     0.023 A 
ATOM      5  C4  UNL d   1      -1.295  -0.502   0.766  0.00  0.00     0.048 A 
ATOM      6  C5  UNL d   1      -1.480  -1.836   1.134  0.00  0.00     0.003 A 
ATOM      7  I   UNL d   1       0.163   1.864  -0.430  0.00  0.00    -0.146 I 
ENDROOT
TORSDOF 0
ENDMDL
