MODEL 1
REMARK minimizedAffinity -2.49794269
REMARK minimizedRMSD -1
REMARK  0 active torsions:
REMARK  status: ('A' for Active; 'I' for Inactive)
ROOT
ATOM      1  C   UNL d   1      -0.102   1.511  -0.136  0.00  0.00     0.023 A 
ATOM      2  C1  UNL d   1      -0.715   0.901   0.959  0.00  0.00     0.003 A 
ATOM      3  C2  UNL d   1      -0.683  -0.488   1.094  0.00  0.00     0.048 A 
ATOM      4  C3  UNL d   1      -0.035  -1.262   0.132  0.00  0.00     0.023 A 
ATOM      5  C4  UNL d   1       0.580  -0.656  -0.965  0.00  0.00     0.048 A 
ATOM      6  C5  UNL d   1       0.545   0.733  -1.096  0.00  0.00     0.003 A 
ATOM      7  I   UNL d   1       0.014  -3.330   0.332  0.00  0.00    -0.146 I 
ENDROOT
TORSDOF 0
ENDMDL
