MODEL 1
REMARK minimizedAffinity -2.94321775
REMARK minimizedRMSD -1
REMARK  0 active torsions:
REMARK  status: ('A' for Active; 'I' for Inactive)
ROOT
ATOM      1  C   UNL d   1      -0.660  -2.723   0.859  0.00  0.00     0.023 A 
ATOM      2  C1  UNL d   1       0.342  -2.537  -0.094  0.00  0.00     0.003 A 
ATOM      3  C2  UNL d   1       0.717  -1.245  -0.470  0.00  0.00     0.048 A 
ATOM      4  C3  UNL d   1       0.087  -0.145   0.110  0.00  0.00     0.023 A 
ATOM      5  C4  UNL d   1      -0.915  -0.327   1.065  0.00  0.00     0.048 A 
ATOM      6  C5  UNL d   1      -1.288  -1.620   1.437  0.00  0.00     0.003 A 
ATOM      7  I   UNL d   1       0.644   1.778  -0.448  0.00  0.00    -0.146 I 
ENDROOT
TORSDOF 0
ENDMDL
