MODEL 1
REMARK minimizedAffinity -5.10413074
REMARK minimizedRMSD -1
REMARK  0 active torsions:
REMARK  status: ('A' for Active; 'I' for Inactive)
ROOT
ATOM      1  C   UNL d   1      -0.611  -2.832   1.047  0.00  0.00     0.023 A 
ATOM      2  C1  UNL d   1       0.392  -2.564   0.114  0.00  0.00     0.003 A 
ATOM      3  C2  UNL d   1       0.726  -1.244  -0.194  0.00  0.00     0.048 A 
ATOM      4  C3  UNL d   1       0.054  -0.196   0.434  0.00  0.00     0.023 A 
ATOM      5  C4  UNL d   1      -0.949  -0.459   1.369  0.00  0.00     0.048 A 
ATOM      6  C5  UNL d   1      -1.280  -1.781   1.673  0.00  0.00     0.003 A 
ATOM      7  I   UNL d   1       0.549   1.770  -0.023  0.00  0.00    -0.146 I 
ENDROOT
TORSDOF 0
ENDMDL
