MODEL 1
REMARK minimizedAffinity -2.60119057
REMARK minimizedRMSD -1
REMARK  0 active torsions:
REMARK  status: ('A' for Active; 'I' for Inactive)
ROOT
ATOM      1  C   UNL d   1      -1.625  -3.269   0.522  0.00  0.00     0.023 A 
ATOM      2  C1  UNL d   1      -0.234  -3.283   0.427  0.00  0.00     0.003 A 
ATOM      3  C2  UNL d   1       0.486  -2.089   0.520  0.00  0.00     0.048 A 
ATOM      4  C3  UNL d   1      -0.193  -0.886   0.710  0.00  0.00     0.023 A 
ATOM      5  C4  UNL d   1      -1.585  -0.868   0.807  0.00  0.00     0.048 A 
ATOM      6  C5  UNL d   1      -2.300  -2.063   0.712  0.00  0.00     0.003 A 
ATOM      7  I   UNL d   1       0.875   0.891   0.850  0.00  0.00    -0.146 I 
ENDROOT
TORSDOF 0
ENDMDL
