MODEL 1
REMARK minimizedAffinity -4.25419378
REMARK minimizedRMSD -1
REMARK  0 active torsions:
REMARK  status: ('A' for Active; 'I' for Inactive)
ROOT
ATOM      1  C   UNL d   1      -0.571  -2.716   1.100  0.00  0.00     0.023 A 
ATOM      2  C1  UNL d   1      -1.376  -1.652   1.506  0.00  0.00     0.003 A 
ATOM      3  C2  UNL d   1      -1.125  -0.363   1.030  0.00  0.00     0.048 A 
ATOM      4  C3  UNL d   1      -0.067  -0.146   0.148  0.00  0.00     0.023 A 
ATOM      5  C4  UNL d   1       0.740  -1.208  -0.262  0.00  0.00     0.048 A 
ATOM      6  C5  UNL d   1       0.486  -2.494   0.217  0.00  0.00     0.003 A 
ATOM      7  I   UNL d   1       0.309   1.771  -0.562  0.00  0.00    -0.146 I 
ENDROOT
TORSDOF 0
ENDMDL
