MODEL 1
REMARK minimizedAffinity 0.212122068
REMARK minimizedRMSD -1
REMARK  0 active torsions:
REMARK  status: ('A' for Active; 'I' for Inactive)
ROOT
ATOM      1  C   UNL d   1       0.797  -1.147  -1.774  0.00  0.00     0.023 A 
ATOM      2  C1  UNL d   1       0.828  -1.085  -0.380  0.00  0.00     0.003 A 
ATOM      3  C2  UNL d   1       0.965   0.148   0.261  0.00  0.00     0.048 A 
ATOM      4  C3  UNL d   1       1.068   1.314  -0.496  0.00  0.00     0.023 A 
ATOM      5  C4  UNL d   1       1.037   1.256  -1.890  0.00  0.00     0.048 A 
ATOM      6  C5  UNL d   1       0.901   0.022  -2.528  0.00  0.00     0.003 A 
ATOM      7  I   UNL d   1       1.271   3.150   0.457  0.00  0.00    -0.146 I 
ENDROOT
TORSDOF 0
ENDMDL
