MODEL 1
REMARK minimizedAffinity -0.91931963
REMARK minimizedRMSD -1
REMARK  0 active torsions:
REMARK  status: ('A' for Active; 'I' for Inactive)
ROOT
ATOM      1  C   UNL d   1       0.757  -1.885  -1.375  0.00  0.00     0.023 A 
ATOM      2  C1  UNL d   1       0.707  -1.683   0.005  0.00  0.00     0.003 A 
ATOM      3  C2  UNL d   1       0.670  -0.386   0.521  0.00  0.00     0.048 A 
ATOM      4  C3  UNL d   1       0.681   0.705  -0.349  0.00  0.00     0.023 A 
ATOM      5  C4  UNL d   1       0.729   0.507  -1.730  0.00  0.00     0.048 A 
ATOM      6  C5  UNL d   1       0.768  -0.792  -2.241  0.00  0.00     0.003 A 
ATOM      7  I   UNL d   1       0.625   2.636   0.417  0.00  0.00    -0.146 I 
ENDROOT
TORSDOF 0
ENDMDL
