MODEL 1
REMARK minimizedAffinity -2.70238566
REMARK minimizedRMSD -1
REMARK  0 active torsions:
REMARK  status: ('A' for Active; 'I' for Inactive)
ROOT
ATOM      1  C   UNL d   1      -1.064  -1.032   1.785  0.00  0.00     0.023 A 
ATOM      2  C1  UNL d   1      -1.173  -2.336   1.302  0.00  0.00     0.003 A 
ATOM      3  C2  UNL d   1      -0.754  -2.639   0.005  0.00  0.00     0.048 A 
ATOM      4  C3  UNL d   1      -0.226  -1.633  -0.804  0.00  0.00     0.023 A 
ATOM      5  C4  UNL d   1      -0.115  -0.327  -0.325  0.00  0.00     0.048 A 
ATOM      6  C5  UNL d   1      -0.536  -0.028   0.972  0.00  0.00     0.003 A 
ATOM      7  I   UNL d   1       0.397  -2.082  -2.735  0.00  0.00    -0.146 I 
ENDROOT
TORSDOF 0
ENDMDL
