MODEL 1
REMARK minimizedAffinity -2.56042361
REMARK minimizedRMSD -1
REMARK  0 active torsions:
REMARK  status: ('A' for Active; 'I' for Inactive)
ROOT
ATOM      1  C   UNL d   1       0.821   1.914  -1.687  0.00  0.00     0.023 A 
ATOM      2  C1  UNL d   1       0.284   0.672  -2.026  0.00  0.00     0.003 A 
ATOM      3  C2  UNL d   1      -0.424  -0.067  -1.076  0.00  0.00     0.048 A 
ATOM      4  C3  UNL d   1      -0.592   0.443   0.211  0.00  0.00     0.023 A 
ATOM      5  C4  UNL d   1      -0.057   1.685   0.554  0.00  0.00     0.048 A 
ATOM      6  C5  UNL d   1       0.651   2.420  -0.399  0.00  0.00     0.003 A 
ATOM      7  I   UNL d   1      -1.645  -0.655   1.627  0.00  0.00    -0.146 I 
ENDROOT
TORSDOF 0
ENDMDL
