MODEL 1
REMARK minimizedAffinity -5.10261726
REMARK minimizedRMSD -1
REMARK  0 active torsions:
REMARK  status: ('A' for Active; 'I' for Inactive)
ROOT
ATOM      1  C   UNL d   1      -1.496  -0.396   1.859  0.00  0.00     0.023 A 
ATOM      2  C1  UNL d   1      -1.843  -1.711   1.553  0.00  0.00     0.003 A 
ATOM      3  C2  UNL d   1      -1.196  -2.382   0.513  0.00  0.00     0.048 A 
ATOM      4  C3  UNL d   1      -0.201  -1.732  -0.216  0.00  0.00     0.023 A 
ATOM      5  C4  UNL d   1       0.151  -0.415   0.087  0.00  0.00     0.048 A 
ATOM      6  C5  UNL d   1      -0.500   0.252   1.127  0.00  0.00     0.003 A 
ATOM      7  I   UNL d   1       0.763  -2.728  -1.764  0.00  0.00    -0.146 I 
ENDROOT
TORSDOF 0
ENDMDL
