MODEL 1
REMARK minimizedAffinity -2.11858606
REMARK minimizedRMSD -1
REMARK  0 active torsions:
REMARK  status: ('A' for Active; 'I' for Inactive)
ROOT
ATOM      1  C   UNL d   1      -2.182  -1.727   2.466  0.00  0.00     0.023 A 
ATOM      2  C1  UNL d   1      -1.879  -2.171   1.178  0.00  0.00     0.003 A 
ATOM      3  C2  UNL d   1      -1.153  -1.354   0.310  0.00  0.00     0.048 A 
ATOM      4  C3  UNL d   1      -0.732  -0.095   0.735  0.00  0.00     0.023 A 
ATOM      5  C4  UNL d   1      -1.032   0.353   2.023  0.00  0.00     0.048 A 
ATOM      6  C5  UNL d   1      -1.759  -0.467   2.887  0.00  0.00     0.003 A 
ATOM      7  I   UNL d   1       0.350   1.123  -0.556  0.00  0.00    -0.146 I 
ENDROOT
TORSDOF 0
ENDMDL
