MODEL 1
REMARK minimizedAffinity -3.33086538
REMARK minimizedRMSD -1
REMARK  1 active torsions:
REMARK  status: ('A' for Active; 'I' for Inactive)
REMARK    1  A    between atoms: C1_2  and  C2_3 
ROOT
ATOM      1  C2  UNL d   1       0.164  -0.006   0.059  0.00  0.00    -0.077 A 
ATOM      2  C3  UNL d   1       0.831   1.028   0.730  0.00  0.00     0.002 A 
ATOM      3  C4  UNL d   1       0.259   1.624   1.856  0.00  0.00     0.002 A 
ATOM      4  C5  UNL d   1      -0.979   1.189   2.323  0.00  0.00    -0.004 A 
ATOM      5  C6  UNL d   1      -1.652   0.162   1.661  0.00  0.00     0.002 A 
ATOM      6  C7  UNL d   1      -1.082  -0.433   0.535  0.00  0.00     0.002 A 
ENDROOT
BRANCH   1   7
ATOM      7  C1  UNL d   1       0.802  -0.683  -1.126  0.00  0.00     0.055 C 
ATOM      8  C   UNL d   1       0.498   0.061  -2.419  0.00  0.00     0.019 C 
ENDBRANCH   1   7
TORSDOF 1
ENDMDL
