MODEL 1
REMARK minimizedAffinity -2.82504582
REMARK minimizedRMSD -1
REMARK  1 active torsions:
REMARK  status: ('A' for Active; 'I' for Inactive)
REMARK    1  A    between atoms: C1_2  and  C2_3 
ROOT
ATOM      1  C2  UNL d   1       0.566  -0.268  -1.101  0.00  0.00    -0.077 A 
ATOM      2  C3  UNL d   1      -0.036   0.897  -0.606  0.00  0.00     0.002 A 
ATOM      3  C4  UNL d   1       0.174   1.293   0.716  0.00  0.00     0.002 A 
ATOM      4  C5  UNL d   1       0.988   0.533   1.552  0.00  0.00    -0.004 A 
ATOM      5  C6  UNL d   1       1.589  -0.629   1.070  0.00  0.00     0.002 A 
ATOM      6  C7  UNL d   1       1.380  -1.027  -0.251  0.00  0.00     0.002 A 
ENDROOT
BRANCH   1   7
ATOM      7  C1  UNL d   1       0.381  -0.670  -2.541  0.00  0.00     0.055 C 
ATOM      8  C   UNL d   1       0.806   0.444  -3.486  0.00  0.00     0.019 C 
ENDBRANCH   1   7
TORSDOF 1
ENDMDL
