MODEL 1
REMARK minimizedAffinity -2.29742837
REMARK minimizedRMSD -1
REMARK  1 active torsions:
REMARK  status: ('A' for Active; 'I' for Inactive)
REMARK    1  A    between atoms: C1_2  and  C2_3 
ROOT
ATOM      1  C2  UNL d   1       0.006   0.411  -0.114  0.00  0.00    -0.077 A 
ATOM      2  C3  UNL d   1       0.222   0.276   1.264  0.00  0.00     0.002 A 
ATOM      3  C4  UNL d   1      -0.837   0.415   2.163  0.00  0.00     0.002 A 
ATOM      4  C5  UNL d   1      -2.120   0.686   1.693  0.00  0.00    -0.004 A 
ATOM      5  C6  UNL d   1      -2.346   0.825   0.324  0.00  0.00     0.002 A 
ATOM      6  C7  UNL d   1      -1.288   0.687  -0.575  0.00  0.00     0.002 A 
ENDROOT
BRANCH   1   7
ATOM      7  C1  UNL d   1       1.137   0.212  -1.088  0.00  0.00     0.055 C 
ATOM      8  C   UNL d   1       0.799   0.789  -2.455  0.00  0.00     0.019 C 
ENDBRANCH   1   7
TORSDOF 1
ENDMDL
