MODEL 1
REMARK minimizedAffinity -5.28412914
REMARK minimizedRMSD -1
REMARK  1 active torsions:
REMARK  status: ('A' for Active; 'I' for Inactive)
REMARK    1  A    between atoms: C1_2  and  C2_3 
ROOT
ATOM      1  C2  UNL d   1      -0.112   0.020   0.121  0.00  0.00    -0.077 A 
ATOM      2  C3  UNL d   1       0.768   0.787   0.898  0.00  0.00     0.002 A 
ATOM      3  C4  UNL d   1       0.328   1.389   2.078  0.00  0.00     0.002 A 
ATOM      4  C5  UNL d   1      -0.992   1.227   2.494  0.00  0.00    -0.004 A 
ATOM      5  C6  UNL d   1      -1.875   0.468   1.728  0.00  0.00     0.002 A 
ATOM      6  C7  UNL d   1      -1.437  -0.133   0.547  0.00  0.00     0.002 A 
ENDROOT
BRANCH   1   7
ATOM      7  C1  UNL d   1       0.374  -0.670  -1.126  0.00  0.00     0.055 C 
ATOM      8  C   UNL d   1       0.808   0.336  -2.182  0.00  0.00     0.019 C 
ENDBRANCH   1   7
TORSDOF 1
ENDMDL
