MODEL 1
REMARK minimizedAffinity -4.78483057
REMARK minimizedRMSD -1
REMARK  1 active torsions:
REMARK  status: ('A' for Active; 'I' for Inactive)
REMARK    1  A    between atoms: C1_2  and  C2_3 
ROOT
ATOM      1  C2  UNL d   1      -0.049  -0.005   0.131  0.00  0.00    -0.077 A 
ATOM      2  C3  UNL d   1      -1.382   0.338  -0.135  0.00  0.00     0.002 A 
ATOM      3  C4  UNL d   1      -2.127   1.058   0.801  0.00  0.00     0.002 A 
ATOM      4  C5  UNL d   1      -1.547   1.444   2.007  0.00  0.00    -0.004 A 
ATOM      5  C6  UNL d   1      -0.222   1.106   2.282  0.00  0.00     0.002 A 
ATOM      6  C7  UNL d   1       0.523   0.386   1.348  0.00  0.00     0.002 A 
ENDROOT
BRANCH   1   7
ATOM      7  C1  UNL d   1       0.771  -0.738  -0.898  0.00  0.00     0.055 C 
ATOM      8  C   UNL d   1       0.740  -0.024  -2.241  0.00  0.00     0.019 C 
ENDBRANCH   1   7
TORSDOF 1
ENDMDL
