MODEL 1
REMARK minimizedAffinity -5.82710981
REMARK minimizedRMSD -1
REMARK  1 active torsions:
REMARK  status: ('A' for Active; 'I' for Inactive)
REMARK    1  A    between atoms: C1_2  and  C2_3 
ROOT
ATOM      1  C2  UNL d   1      -0.224   0.342   0.314  0.00  0.00    -0.077 A 
ATOM      2  C3  UNL d   1       0.704   1.163   0.969  0.00  0.00     0.002 A 
ATOM      3  C4  UNL d   1       0.454   1.617   2.266  0.00  0.00     0.002 A 
ATOM      4  C5  UNL d   1      -0.722   1.253   2.918  0.00  0.00    -0.004 A 
ATOM      5  C6  UNL d   1      -1.653   0.439   2.274  0.00  0.00     0.002 A 
ATOM      6  C7  UNL d   1      -1.405  -0.015   0.978  0.00  0.00     0.002 A 
ENDROOT
BRANCH   1   7
ATOM      7  C1  UNL d   1       0.066  -0.190  -1.065  0.00  0.00     0.055 C 
ATOM      8  C   UNL d   1       1.115  -1.292  -1.024  0.00  0.00     0.019 C 
ENDBRANCH   1   7
TORSDOF 1
ENDMDL
