MODEL 1
REMARK minimizedAffinity 19.0619125
REMARK minimizedRMSD -1
REMARK  1 active torsions:
REMARK  status: ('A' for Active; 'I' for Inactive)
REMARK    1  A    between atoms: C1_2  and  C2_3 
ROOT
ATOM      1  C2  UNL d   1      -2.774  -4.054  -3.711  0.00  0.00    -0.081 A 
ATOM      2  C3  UNL d   1      -1.939  -5.005  -3.111  0.00  0.00     0.006 A 
ATOM      3  C4  UNL d   1      -0.934  -5.632  -3.852  0.00  0.00     0.002 A 
ATOM      4  C5  UNL d   1      -0.743  -5.314  -5.201  0.00  0.00    -0.080 A 
ATOM      5  C6  UNL d   1       0.351  -5.958  -6.000  0.00  0.00     0.076 C 
ATOM      6  C7  UNL d   1      -1.589  -4.378  -5.805  0.00  0.00     0.002 A 
ATOM      7  C8  UNL d   1      -2.594  -3.751  -5.065  0.00  0.00     0.006 A 
ENDROOT
BRANCH   1   8
ATOM      8  C1  UNL d   1      -3.816  -3.329  -2.898  0.00  0.00     0.054 C 
ATOM      9  C   UNL d   1      -5.223  -3.740  -3.309  0.00  0.00     0.018 C 
ENDBRANCH   1   8
TORSDOF 1
ENDMDL
