MODEL 1
REMARK minimizedAffinity 11.4881964
REMARK minimizedRMSD -1
REMARK  1 active torsions:
REMARK  status: ('A' for Active; 'I' for Inactive)
REMARK    1  A    between atoms: C1_2  and  C2_3 
ROOT
ATOM      1  C2  UNL d   1       2.065   0.926   1.975  0.00  0.00    -0.081 A 
ATOM      2  C3  UNL d   1       1.397   1.870   1.185  0.00  0.00     0.006 A 
ATOM      3  C4  UNL d   1       1.817   2.121  -0.124  0.00  0.00     0.002 A 
ATOM      4  C5  UNL d   1       2.904   1.428  -0.666  0.00  0.00    -0.080 A 
ATOM      5  C6  UNL d   1       3.345   1.666  -2.080  0.00  0.00     0.076 C 
ATOM      6  C7  UNL d   1       3.581   0.497   0.129  0.00  0.00     0.002 A 
ATOM      7  C8  UNL d   1       3.163   0.246   1.438  0.00  0.00     0.006 A 
ENDROOT
BRANCH   1   8
ATOM      8  C1  UNL d   1       1.575   0.607   3.364  0.00  0.00     0.054 C 
ATOM      9  C   UNL d   1       0.126   1.032   3.552  0.00  0.00     0.018 C 
ENDBRANCH   1   8
TORSDOF 1
ENDMDL
