MODEL 1
REMARK minimizedAffinity 15.8419962
REMARK minimizedRMSD -1
REMARK  1 active torsions:
REMARK  status: ('A' for Active; 'I' for Inactive)
REMARK    1  A    between atoms: C1_2  and  C2_3 
ROOT
ATOM      1  C2  UNL d   1       2.701   0.979   1.988  0.00  0.00    -0.081 A 
ATOM      2  C3  UNL d   1       1.549   0.899   2.779  0.00  0.00     0.006 A 
ATOM      3  C4  UNL d   1       0.553   1.873   2.680  0.00  0.00     0.002 A 
ATOM      4  C5  UNL d   1       0.688   2.938   1.782  0.00  0.00    -0.080 A 
ATOM      5  C6  UNL d   1      -0.387   3.974   1.644  0.00  0.00     0.076 C 
ATOM      6  C7  UNL d   1       1.847   3.027   1.004  0.00  0.00     0.002 A 
ATOM      7  C8  UNL d   1       2.844   2.054   1.104  0.00  0.00     0.006 A 
ENDROOT
BRANCH   1   8
ATOM      8  C1  UNL d   1       3.747  -0.105   2.046  0.00  0.00     0.054 C 
ATOM      9  C   UNL d   1       4.244  -0.470   0.655  0.00  0.00     0.018 C 
ENDBRANCH   1   8
TORSDOF 1
ENDMDL
