MODEL 1
REMARK minimizedAffinity 15.0805855
REMARK minimizedRMSD -1
REMARK  1 active torsions:
REMARK  status: ('A' for Active; 'I' for Inactive)
REMARK    1  A    between atoms: C1_2  and  C2_3 
ROOT
ATOM      1  C2  UNL d   1      -2.422  -5.057  -2.999  0.00  0.00    -0.081 A 
ATOM      2  C3  UNL d   1      -3.678  -5.591  -2.686  0.00  0.00     0.006 A 
ATOM      3  C4  UNL d   1      -4.837  -4.838  -2.886  0.00  0.00     0.002 A 
ATOM      4  C5  UNL d   1      -4.760  -3.543  -3.410  0.00  0.00    -0.080 A 
ATOM      5  C6  UNL d   1      -5.999  -2.735  -3.658  0.00  0.00     0.076 C 
ATOM      6  C7  UNL d   1      -3.504  -3.003  -3.707  0.00  0.00     0.002 A 
ATOM      7  C8  UNL d   1      -2.345  -3.756  -3.506  0.00  0.00     0.006 A 
ENDROOT
BRANCH   1   8
ATOM      8  C1  UNL d   1      -1.175  -5.891  -2.845  0.00  0.00     0.054 C 
ATOM      9  C   UNL d   1      -0.409  -5.988  -4.157  0.00  0.00     0.018 C 
ENDBRANCH   1   8
TORSDOF 1
ENDMDL
