MODEL 1
REMARK minimizedAffinity 13.1267166
REMARK minimizedRMSD -1
REMARK  1 active torsions:
REMARK  status: ('A' for Active; 'I' for Inactive)
REMARK    1  A    between atoms: C1_2  and  C2_3 
ROOT
ATOM      1  C2  UNL d   1       3.992   0.679  -3.999  0.00  0.00    -0.081 A 
ATOM      2  C3  UNL d   1       4.417   0.583  -2.668  0.00  0.00     0.006 A 
ATOM      3  C4  UNL d   1       3.899   1.442  -1.696  0.00  0.00     0.002 A 
ATOM      4  C5  UNL d   1       2.944   2.406  -2.036  0.00  0.00    -0.080 A 
ATOM      5  C6  UNL d   1       2.358   3.314  -0.996  0.00  0.00     0.076 C 
ATOM      6  C7  UNL d   1       2.532   2.513  -3.368  0.00  0.00     0.002 A 
ATOM      7  C8  UNL d   1       3.049   1.655  -4.341  0.00  0.00     0.006 A 
ENDROOT
BRANCH   1   8
ATOM      8  C1  UNL d   1       4.499  -0.289  -5.037  0.00  0.00     0.054 C 
ATOM      9  C   UNL d   1       3.469  -1.368  -5.339  0.00  0.00     0.018 C 
ENDBRANCH   1   8
TORSDOF 1
ENDMDL
