MODEL 1
REMARK minimizedAffinity 25.69557
REMARK minimizedRMSD -1
REMARK  1 active torsions:
REMARK  status: ('A' for Active; 'I' for Inactive)
REMARK    1  A    between atoms: C1_2  and  C2_3 
ROOT
ATOM      1  C2  UNL d   1      -4.100  -5.290  -1.200  0.00  0.00    -0.081 A 
ATOM      2  C3  UNL d   1      -3.256  -4.290  -1.698  0.00  0.00     0.006 A 
ATOM      3  C4  UNL d   1      -3.593  -3.593  -2.861  0.00  0.00     0.002 A 
ATOM      4  C5  UNL d   1      -4.782  -3.879  -3.541  0.00  0.00    -0.080 A 
ATOM      5  C6  UNL d   1      -5.170  -3.118  -4.774  0.00  0.00     0.076 C 
ATOM      6  C7  UNL d   1      -5.617  -4.891  -3.053  0.00  0.00     0.002 A 
ATOM      7  C8  UNL d   1      -5.280  -5.588  -1.891  0.00  0.00     0.006 A 
ENDROOT
BRANCH   1   8
ATOM      8  C1  UNL d   1      -3.772  -5.999   0.089  0.00  0.00     0.054 C 
ATOM      9  C   UNL d   1      -4.962  -6.000   1.038  0.00  0.00     0.018 C 
ENDBRANCH   1   8
TORSDOF 1
ENDMDL
