MODEL 1
REMARK minimizedAffinity 14.3357153
REMARK minimizedRMSD -1
REMARK  1 active torsions:
REMARK  status: ('A' for Active; 'I' for Inactive)
REMARK    1  A    between atoms: C1_2  and  C2_3 
ROOT
ATOM      1  C2  UNL d   1      -1.575  -2.173  -1.347  0.00  0.00    -0.081 A 
ATOM      2  C3  UNL d   1      -0.375  -2.677  -0.831  0.00  0.00     0.006 A 
ATOM      3  C4  UNL d   1      -0.332  -3.224   0.453  0.00  0.00     0.002 A 
ATOM      4  C5  UNL d   1      -1.487  -3.284   1.239  0.00  0.00    -0.080 A 
ATOM      5  C6  UNL d   1      -1.461  -3.897   2.608  0.00  0.00     0.076 C 
ATOM      6  C7  UNL d   1      -2.683  -2.765   0.730  0.00  0.00     0.002 A 
ATOM      7  C8  UNL d   1      -2.727  -2.217  -0.554  0.00  0.00     0.006 A 
ENDROOT
BRANCH   1   8
ATOM      8  C1  UNL d   1      -1.640  -1.641  -2.756  0.00  0.00     0.054 C 
ATOM      9  C   UNL d   1      -1.937  -2.752  -3.754  0.00  0.00     0.018 C 
ENDBRANCH   1   8
TORSDOF 1
ENDMDL
