MODEL 1
REMARK minimizedAffinity 6.02717638
REMARK minimizedRMSD -1
REMARK  1 active torsions:
REMARK  status: ('A' for Active; 'I' for Inactive)
REMARK    1  A    between atoms: C1_2  and  C2_3 
ROOT
ATOM      1  C2  UNL d   1      -0.727  -2.696  -1.183  0.00  0.00    -0.081 A 
ATOM      2  C3  UNL d   1      -1.795  -2.279  -1.988  0.00  0.00     0.006 A 
ATOM      3  C4  UNL d   1      -1.695  -2.333  -3.380  0.00  0.00     0.002 A 
ATOM      4  C5  UNL d   1      -0.531  -2.811  -3.991  0.00  0.00    -0.080 A 
ATOM      5  C6  UNL d   1      -0.422  -2.902  -5.484  0.00  0.00     0.076 C 
ATOM      6  C7  UNL d   1       0.542  -3.211  -3.187  0.00  0.00     0.002 A 
ATOM      7  C8  UNL d   1       0.443  -3.157  -1.795  0.00  0.00     0.006 A 
ENDROOT
BRANCH   1   8
ATOM      8  C1  UNL d   1      -0.856  -2.700   0.319  0.00  0.00     0.054 C 
ATOM      9  C   UNL d   1      -0.935  -4.119   0.863  0.00  0.00     0.018 C 
ENDBRANCH   1   8
TORSDOF 1
ENDMDL
