MODEL 1
REMARK minimizedAffinity 7.85733986
REMARK minimizedRMSD -1
REMARK  1 active torsions:
REMARK  status: ('A' for Active; 'I' for Inactive)
REMARK    1  A    between atoms: C1_2  and  C2_3 
ROOT
ATOM      1  C2  UNL d   1      -1.147  -1.902   1.551  0.00  0.00    -0.081 A 
ATOM      2  C3  UNL d   1      -0.890  -3.165   1.002  0.00  0.00     0.006 A 
ATOM      3  C4  UNL d   1      -1.591  -3.603  -0.124  0.00  0.00     0.002 A 
ATOM      4  C5  UNL d   1      -2.553  -2.784  -0.725  0.00  0.00    -0.080 A 
ATOM      5  C6  UNL d   1      -3.290  -3.230  -1.953  0.00  0.00     0.076 C 
ATOM      6  C7  UNL d   1      -2.822  -1.530  -0.166  0.00  0.00     0.002 A 
ATOM      7  C8  UNL d   1      -2.123  -1.092   0.960  0.00  0.00     0.006 A 
ENDROOT
BRANCH   1   8
ATOM      8  C1  UNL d   1      -0.348  -1.401   2.727  0.00  0.00     0.054 C 
ATOM      9  C   UNL d   1       0.008   0.070   2.566  0.00  0.00     0.018 C 
ENDBRANCH   1   8
TORSDOF 1
ENDMDL
