MODEL 1
REMARK minimizedAffinity 14.0052471
REMARK minimizedRMSD -1
REMARK  1 active torsions:
REMARK  status: ('A' for Active; 'I' for Inactive)
REMARK    1  A    between atoms: C1_2  and  C2_3 
ROOT
ATOM      1  C2  UNL d   1       1.208   1.651   2.846  0.00  0.00    -0.081 A 
ATOM      2  C3  UNL d   1       1.120   2.728   1.956  0.00  0.00     0.006 A 
ATOM      3  C4  UNL d   1       1.943   2.784   0.828  0.00  0.00     0.002 A 
ATOM      4  C5  UNL d   1       2.861   1.761   0.568  0.00  0.00    -0.080 A 
ATOM      5  C6  UNL d   1       3.729   1.794  -0.654  0.00  0.00     0.076 C 
ATOM      6  C7  UNL d   1       2.961   0.694   1.467  0.00  0.00     0.002 A 
ATOM      7  C8  UNL d   1       2.139   0.638   2.595  0.00  0.00     0.006 A 
ENDROOT
BRANCH   1   8
ATOM      8  C1  UNL d   1       0.277   1.556   4.028  0.00  0.00     0.054 C 
ATOM      9  C   UNL d   1       0.943   0.852   5.202  0.00  0.00     0.018 C 
ENDBRANCH   1   8
TORSDOF 1
ENDMDL
