MODEL 1
REMARK minimizedAffinity 21.7294426
REMARK minimizedRMSD -1
REMARK  1 active torsions:
REMARK  status: ('A' for Active; 'I' for Inactive)
REMARK    1  A    between atoms: C1_2  and  C2_3 
ROOT
ATOM      1  C2  UNL d   1       1.536   1.802   2.476  0.00  0.00    -0.081 A 
ATOM      2  C3  UNL d   1       0.558   2.429   3.258  0.00  0.00     0.006 A 
ATOM      3  C4  UNL d   1       0.044   1.795   4.392  0.00  0.00     0.002 A 
ATOM      4  C5  UNL d   1       0.504   0.528   4.767  0.00  0.00    -0.080 A 
ATOM      5  C6  UNL d   1      -0.017  -0.150   5.999  0.00  0.00     0.076 C 
ATOM      6  C7  UNL d   1       1.468  -0.106   3.976  0.00  0.00     0.002 A 
ATOM      7  C8  UNL d   1       1.982   0.527   2.842  0.00  0.00     0.006 A 
ENDROOT
BRANCH   1   8
ATOM      8  C1  UNL d   1       2.139   2.509   1.290  0.00  0.00     0.054 C 
ATOM      9  C   UNL d   1       2.383   3.982   1.589  0.00  0.00     0.018 C 
ENDBRANCH   1   8
TORSDOF 1
ENDMDL
