MODEL 1
REMARK minimizedAffinity -2.93171978
REMARK minimizedRMSD -1
REMARK  1 active torsions:
REMARK  status: ('A' for Active; 'I' for Inactive)
REMARK    1  A    between atoms: C1_2  and  C2_3 
ROOT
ATOM      1  C2  UNL d   1       0.086   0.422  -0.736  0.00  0.00    -0.073 A 
ATOM      2  C3  UNL d   1      -0.375   1.363   0.193  0.00  0.00    -0.002 A 
ATOM      3  C4  UNL d   1      -1.353   1.012   1.124  0.00  0.00     0.004 A 
ATOM      4  C5  UNL d   1      -1.874  -0.281   1.142  0.00  0.00    -0.004 A 
ATOM      5  C6  UNL d   1      -1.417  -1.238   0.231  0.00  0.00    -0.075 A 
ATOM      6  C7  UNL d   1      -1.969  -2.634   0.235  0.00  0.00     0.076 C 
ATOM      7  C8  UNL d   1      -0.437  -0.878  -0.704  0.00  0.00     0.001 A 
ENDROOT
BRANCH   1   8
ATOM      8  C1  UNL d   1       1.147   0.794  -1.739  0.00  0.00     0.053 C 
ATOM      9  C   UNL d   1       0.612   1.726  -2.815  0.00  0.00     0.018 C 
ENDBRANCH   1   8
TORSDOF 1
ENDMDL
