MODEL 1
REMARK minimizedAffinity -4.17938137
REMARK minimizedRMSD -1
REMARK  1 active torsions:
REMARK  status: ('A' for Active; 'I' for Inactive)
REMARK    1  A    between atoms: C1_2  and  C2_3 
ROOT
ATOM      1  C2  UNL d   1       0.868  -1.282   0.677  0.00  0.00    -0.073 A 
ATOM      2  C3  UNL d   1       0.288  -2.533   0.437  0.00  0.00    -0.002 A 
ATOM      3  C4  UNL d   1      -1.101  -2.671   0.399  0.00  0.00     0.004 A 
ATOM      4  C5  UNL d   1      -1.922  -1.560   0.594  0.00  0.00    -0.004 A 
ATOM      5  C6  UNL d   1      -1.361  -0.300   0.824  0.00  0.00    -0.075 A 
ATOM      6  C7  UNL d   1      -2.230   0.904   1.038  0.00  0.00     0.076 C 
ATOM      7  C8  UNL d   1       0.034  -0.170   0.863  0.00  0.00     0.001 A 
ENDROOT
BRANCH   1   8
ATOM      8  C1  UNL d   1       2.366  -1.128   0.713  0.00  0.00     0.053 C 
ATOM      9  C   UNL d   1       2.787   0.208   1.306  0.00  0.00     0.018 C 
ENDBRANCH   1   8
TORSDOF 1
ENDMDL
