MODEL 1
REMARK minimizedAffinity -3.2142508
REMARK minimizedRMSD -1
REMARK  1 active torsions:
REMARK  status: ('A' for Active; 'I' for Inactive)
REMARK    1  A    between atoms: C1_2  and  C2_3 
ROOT
ATOM      1  C2  UNL d   1       0.214   0.727  -0.649  0.00  0.00    -0.073 A 
ATOM      2  C3  UNL d   1      -0.719   1.464   0.090  0.00  0.00    -0.002 A 
ATOM      3  C4  UNL d   1      -1.433   0.861   1.126  0.00  0.00     0.004 A 
ATOM      4  C5  UNL d   1      -1.217  -0.481   1.439  0.00  0.00    -0.004 A 
ATOM      5  C6  UNL d   1      -0.281  -1.231   0.720  0.00  0.00    -0.075 A 
ATOM      6  C7  UNL d   1      -0.039  -2.677   1.042  0.00  0.00     0.076 C 
ATOM      7  C8  UNL d   1       0.430  -0.619  -0.321  0.00  0.00     0.001 A 
ENDROOT
BRANCH   1   8
ATOM      8  C1  UNL d   1       0.991   1.376  -1.764  0.00  0.00     0.053 C 
ATOM      9  C   UNL d   1       0.106   2.236  -2.652  0.00  0.00     0.018 C 
ENDBRANCH   1   8
TORSDOF 1
ENDMDL
