MODEL 1
REMARK minimizedAffinity -2.64775968
REMARK minimizedRMSD -1
REMARK  1 active torsions:
REMARK  status: ('A' for Active; 'I' for Inactive)
REMARK    1  A    between atoms: C1_2  and  C2_3 
ROOT
ATOM      1  C2  UNL d   1       0.019  -1.653   1.889  0.00  0.00    -0.073 A 
ATOM      2  C3  UNL d   1      -1.128  -1.197   2.548  0.00  0.00    -0.002 A 
ATOM      3  C4  UNL d   1      -1.460  -1.692   3.810  0.00  0.00     0.004 A 
ATOM      4  C5  UNL d   1      -0.646  -2.641   4.427  0.00  0.00    -0.004 A 
ATOM      5  C6  UNL d   1       0.511  -3.101   3.790  0.00  0.00    -0.075 A 
ATOM      6  C7  UNL d   1       1.396  -4.123   4.440  0.00  0.00     0.076 C 
ATOM      7  C8  UNL d   1       0.836  -2.600   2.522  0.00  0.00     0.001 A 
ENDROOT
BRANCH   1   8
ATOM      8  C1  UNL d   1       0.385  -1.116   0.529  0.00  0.00     0.053 C 
ATOM      9  C   UNL d   1       0.978   0.282   0.608  0.00  0.00     0.018 C 
ENDBRANCH   1   8
TORSDOF 1
ENDMDL
