MODEL 1
REMARK minimizedAffinity -0.422566116
REMARK minimizedRMSD -1
REMARK  1 active torsions:
REMARK  status: ('A' for Active; 'I' for Inactive)
REMARK    1  A    between atoms: C1_2  and  C2_3 
ROOT
ATOM      1  C2  UNL d   1      -0.891  -0.179  -0.536  0.00  0.00    -0.073 A 
ATOM      2  C3  UNL d   1       0.406  -0.017  -1.036  0.00  0.00    -0.002 A 
ATOM      3  C4  UNL d   1       1.486  -0.637  -0.408  0.00  0.00     0.004 A 
ATOM      4  C5  UNL d   1       1.281  -1.431   0.720  0.00  0.00    -0.004 A 
ATOM      5  C6  UNL d   1      -0.009  -1.615   1.228  0.00  0.00    -0.075 A 
ATOM      6  C7  UNL d   1      -0.246  -2.464   2.442  0.00  0.00     0.076 C 
ATOM      7  C8  UNL d   1      -1.089  -0.987   0.593  0.00  0.00     0.001 A 
ENDROOT
BRANCH   1   8
ATOM      8  C1  UNL d   1      -2.062   0.483  -1.215  0.00  0.00     0.053 C 
ATOM      9  C   UNL d   1      -1.698   1.849  -1.776  0.00  0.00     0.018 C 
ENDBRANCH   1   8
TORSDOF 1
ENDMDL
