MODEL 1
REMARK minimizedAffinity -3.00895
REMARK minimizedRMSD -1
REMARK  1 active torsions:
REMARK  status: ('A' for Active; 'I' for Inactive)
REMARK    1  A    between atoms: C1_2  and  C2_3 
ROOT
ATOM      1  C2  UNL d   1       0.223  -1.708   1.500  0.00  0.00    -0.073 A 
ATOM      2  C3  UNL d   1       0.449  -2.941   2.122  0.00  0.00    -0.002 A 
ATOM      3  C4  UNL d   1      -0.283  -3.304   3.253  0.00  0.00     0.004 A 
ATOM      4  C5  UNL d   1      -1.252  -2.444   3.769  0.00  0.00    -0.004 A 
ATOM      5  C6  UNL d   1      -1.501  -1.212   3.154  0.00  0.00    -0.075 A 
ATOM      6  C7  UNL d   1      -2.538  -0.274   3.698  0.00  0.00     0.076 C 
ATOM      7  C8  UNL d   1      -0.760  -0.853   2.020  0.00  0.00     0.001 A 
ENDROOT
BRANCH   1   8
ATOM      8  C1  UNL d   1       1.006  -1.314   0.274  0.00  0.00     0.053 C 
ATOM      9  C   UNL d   1       0.837   0.159  -0.061  0.00  0.00     0.018 C 
ENDBRANCH   1   8
TORSDOF 1
ENDMDL
