MODEL 1
REMARK minimizedAffinity 6.10488319
REMARK minimizedRMSD -1
REMARK  1 active torsions:
REMARK  status: ('A' for Active; 'I' for Inactive)
REMARK    1  A    between atoms: C1_2  and  C2_3 
ROOT
ATOM      1  C2  UNL d   1       0.485  -2.400   2.412  0.00  0.00    -0.073 A 
ATOM      2  C3  UNL d   1       1.288  -3.057   1.472  0.00  0.00    -0.002 A 
ATOM      3  C4  UNL d   1       1.517  -2.487   0.219  0.00  0.00     0.004 A 
ATOM      4  C5  UNL d   1       0.952  -1.254  -0.104  0.00  0.00    -0.004 A 
ATOM      5  C6  UNL d   1       0.156  -0.576   0.825  0.00  0.00    -0.075 A 
ATOM      6  C7  UNL d   1      -0.461   0.750   0.491  0.00  0.00     0.076 C 
ATOM      7  C8  UNL d   1      -0.071  -1.157   2.080  0.00  0.00     0.001 A 
ENDROOT
BRANCH   1   8
ATOM      8  C1  UNL d   1       0.240  -3.009   3.768  0.00  0.00     0.053 C 
ATOM      9  C   UNL d   1       1.539  -3.319   4.497  0.00  0.00     0.018 C 
ENDBRANCH   1   8
TORSDOF 1
ENDMDL
