MODEL 1
REMARK minimizedAffinity 6.29968214
REMARK minimizedRMSD -1
REMARK  1 active torsions:
REMARK  status: ('A' for Active; 'I' for Inactive)
REMARK    1  A    between atoms: C1_2  and  C2_3 
ROOT
ATOM      1  C2  UNL d   1      -0.077  -1.642   1.913  0.00  0.00    -0.073 A 
ATOM      2  C3  UNL d   1      -1.176  -1.166   2.637  0.00  0.00    -0.002 A 
ATOM      3  C4  UNL d   1      -1.411  -1.614   3.938  0.00  0.00     0.004 A 
ATOM      4  C5  UNL d   1      -0.548  -2.536   4.529  0.00  0.00    -0.004 A 
ATOM      5  C6  UNL d   1       0.563  -3.015   3.826  0.00  0.00    -0.075 A 
ATOM      6  C7  UNL d   1       1.500  -4.008   4.447  0.00  0.00     0.076 C 
ATOM      7  C8  UNL d   1       0.790  -2.562   2.519  0.00  0.00     0.001 A 
ENDROOT
BRANCH   1   8
ATOM      8  C1  UNL d   1       0.184  -1.156   0.511  0.00  0.00     0.053 C 
ATOM      9  C   UNL d   1      -0.190   0.307   0.336  0.00  0.00     0.018 C 
ENDBRANCH   1   8
TORSDOF 1
ENDMDL
