MODEL 1
REMARK minimizedAffinity 3.21066189
REMARK minimizedRMSD -1
REMARK  1 active torsions:
REMARK  status: ('A' for Active; 'I' for Inactive)
REMARK    1  A    between atoms: C1_2  and  C2_3 
ROOT
ATOM      1  C2  UNL d   1       0.090  -2.122   2.573  0.00  0.00    -0.073 A 
ATOM      2  C3  UNL d   1       1.064  -2.864   1.896  0.00  0.00    -0.002 A 
ATOM      3  C4  UNL d   1       1.294  -2.650   0.536  0.00  0.00     0.004 A 
ATOM      4  C5  UNL d   1       0.558  -1.689  -0.158  0.00  0.00    -0.004 A 
ATOM      5  C6  UNL d   1      -0.411  -0.929   0.504  0.00  0.00    -0.075 A 
ATOM      6  C7  UNL d   1      -1.213   0.106  -0.228  0.00  0.00     0.076 C 
ATOM      7  C8  UNL d   1      -0.638  -1.152   1.869  0.00  0.00     0.001 A 
ENDROOT
BRANCH   1   8
ATOM      8  C1  UNL d   1      -0.157  -2.344   4.043  0.00  0.00     0.053 C 
ATOM      9  C   UNL d   1       0.960  -3.145   4.694  0.00  0.00     0.018 C 
ENDBRANCH   1   8
TORSDOF 1
ENDMDL
