MODEL 1
REMARK minimizedAffinity 2.31857157
REMARK minimizedRMSD -1
REMARK  1 active torsions:
REMARK  status: ('A' for Active; 'I' for Inactive)
REMARK    1  A    between atoms: C1_2  and  C2_3 
ROOT
ATOM      1  C2  UNL d   1       0.631  -2.433   1.770  0.00  0.00    -0.073 A 
ATOM      2  C3  UNL d   1       1.632  -3.142   2.444  0.00  0.00    -0.002 A 
ATOM      3  C4  UNL d   1       1.486  -3.455   3.795  0.00  0.00     0.004 A 
ATOM      4  C5  UNL d   1       0.336  -3.071   4.485  0.00  0.00    -0.004 A 
ATOM      5  C6  UNL d   1      -0.681  -2.372   3.827  0.00  0.00    -0.075 A 
ATOM      6  C7  UNL d   1      -1.923  -1.949   4.555  0.00  0.00     0.076 C 
ATOM      7  C8  UNL d   1      -0.526  -2.058   2.470  0.00  0.00     0.001 A 
ENDROOT
BRANCH   1   8
ATOM      8  C1  UNL d   1       0.781  -2.098   0.309  0.00  0.00     0.053 C 
ATOM      9  C   UNL d   1       2.149  -1.512  -0.004  0.00  0.00     0.018 C 
ENDBRANCH   1   8
TORSDOF 1
ENDMDL
