MODEL 1
REMARK minimizedAffinity 8.51653767
REMARK minimizedRMSD -1
REMARK  0 active torsions:
REMARK  status: ('A' for Active; 'I' for Inactive)
ROOT
ATOM      1  C1  BNZ d   1      -1.236  -0.760   0.707  0.00  0.00     0.000 A 
ATOM      2  C2  BNZ d   1       0.042  -0.435   0.338  0.00  0.00     0.000 A 
ATOM      3  C3  BNZ d   1       0.604  -0.972  -0.787  0.00  0.00     0.000 A 
ATOM      4  C4  BNZ d   1      -0.098  -1.861  -1.519  0.00  0.00     0.000 A 
ATOM      5  C5  BNZ d   1      -1.384  -2.206  -1.155  0.00  0.00     0.000 A 
ATOM      6  C6  BNZ d   1      -1.960  -1.634  -0.044  0.00  0.00     0.000 A 
ENDROOT
TORSDOF 0
ENDMDL
