MODEL 1
REMARK minimizedAffinity -0.164851189
REMARK minimizedRMSD -1
REMARK  0 active torsions:
REMARK  status: ('A' for Active; 'I' for Inactive)
ROOT
ATOM      1  C1  BNZ d   1      -1.517  -2.475  -1.204  0.00  0.00     0.000 A 
ATOM      2  C2  BNZ d   1      -0.476  -1.722  -1.678  0.00  0.00     0.000 A 
ATOM      3  C3  BNZ d   1       0.029  -0.685  -0.945  0.00  0.00     0.000 A 
ATOM      4  C4  BNZ d   1      -0.532  -0.377   0.242  0.00  0.00     0.000 A 
ATOM      5  C5  BNZ d   1      -1.587  -1.121   0.730  0.00  0.00     0.000 A 
ATOM      6  C6  BNZ d   1      -2.068  -2.189   0.007  0.00  0.00     0.000 A 
ENDROOT
TORSDOF 0
ENDMDL
