MODEL 1
REMARK minimizedAffinity 3.52561975
REMARK minimizedRMSD -1
REMARK  0 active torsions:
REMARK  status: ('A' for Active; 'I' for Inactive)
ROOT
ATOM      1  C1  BNZ d   1       5.993  -2.979  -2.338  0.00  0.00     0.000 A 
ATOM      2  C2  BNZ d   1       5.984  -2.676  -3.674  0.00  0.00     0.000 A 
ATOM      3  C3  BNZ d   1       4.835  -2.267  -4.291  0.00  0.00     0.000 A 
ATOM      4  C4  BNZ d   1       3.690  -2.200  -3.582  0.00  0.00     0.000 A 
ATOM      5  C5  BNZ d   1       3.680  -2.511  -2.237  0.00  0.00     0.000 A 
ATOM      6  C6  BNZ d   1       4.847  -2.885  -1.610  0.00  0.00     0.000 A 
ENDROOT
TORSDOF 0
ENDMDL
