MODEL 1
REMARK minimizedAffinity 3.88462448
REMARK minimizedRMSD -1
REMARK  0 active torsions:
REMARK  status: ('A' for Active; 'I' for Inactive)
ROOT
ATOM      1  C1  BNZ d   1      -2.086  -2.947  -2.919  0.00  0.00     0.000 A 
ATOM      2  C2  BNZ d   1      -1.463  -2.498  -4.053  0.00  0.00     0.000 A 
ATOM      3  C3  BNZ d   1      -1.469  -3.245  -5.197  0.00  0.00     0.000 A 
ATOM      4  C4  BNZ d   1      -2.063  -4.456  -5.196  0.00  0.00     0.000 A 
ATOM      5  C5  BNZ d   1      -2.688  -4.927  -4.058  0.00  0.00     0.000 A 
ATOM      6  C6  BNZ d   1      -2.713  -4.155  -2.919  0.00  0.00     0.000 A 
ENDROOT
TORSDOF 0
ENDMDL
