MODEL 1
REMARK minimizedAffinity -1.95887876
REMARK minimizedRMSD -1
REMARK  0 active torsions:
REMARK  status: ('A' for Active; 'I' for Inactive)
ROOT
ATOM      1  C1  BNZ d   1       4.900  -3.371  -4.972  0.00  0.00     0.000 A 
ATOM      2  C2  BNZ d   1       5.996  -3.753  -4.245  0.00  0.00     0.000 A 
ATOM      3  C3  BNZ d   1       6.000  -3.658  -2.882  0.00  0.00     0.000 A 
ATOM      4  C4  BNZ d   1       4.924  -3.145  -2.250  0.00  0.00     0.000 A 
ATOM      5  C5  BNZ d   1       3.815  -2.747  -2.970  0.00  0.00     0.000 A 
ATOM      6  C6  BNZ d   1       3.800  -2.880  -4.339  0.00  0.00     0.000 A 
ENDROOT
TORSDOF 0
ENDMDL
