MODEL 1
REMARK minimizedAffinity 2.45171428
REMARK minimizedRMSD -1
REMARK  0 active torsions:
REMARK  status: ('A' for Active; 'I' for Inactive)
ROOT
ATOM      1  C1  BNZ d   1       5.999  -4.173  -1.516  0.00  0.00     0.000 A 
ATOM      2  C2  BNZ d   1       5.984  -3.120  -2.392  0.00  0.00     0.000 A 
ATOM      3  C3  BNZ d   1       5.981  -1.831  -1.936  0.00  0.00     0.000 A 
ATOM      4  C4  BNZ d   1       5.952  -1.597  -0.609  0.00  0.00     0.000 A 
ATOM      5  C5  BNZ d   1       5.957  -2.648   0.287  0.00  0.00     0.000 A 
ATOM      6  C6  BNZ d   1       6.000  -3.943  -0.175  0.00  0.00     0.000 A 
ENDROOT
TORSDOF 0
ENDMDL
