MODEL 1
REMARK minimizedAffinity 5.21555376
REMARK minimizedRMSD -1
REMARK  0 active torsions:
REMARK  status: ('A' for Active; 'I' for Inactive)
ROOT
ATOM      1  C1  BNZ d   1       4.866  -3.377  -4.921  0.00  0.00     0.000 A 
ATOM      2  C2  BNZ d   1       6.000  -3.622  -4.193  0.00  0.00     0.000 A 
ATOM      3  C3  BNZ d   1       5.999  -3.494  -2.832  0.00  0.00     0.000 A 
ATOM      4  C4  BNZ d   1       4.877  -3.083  -2.205  0.00  0.00     0.000 A 
ATOM      5  C5  BNZ d   1       3.729  -2.822  -2.926  0.00  0.00     0.000 A 
ATOM      6  C6  BNZ d   1       3.723  -2.990  -4.292  0.00  0.00     0.000 A 
ENDROOT
TORSDOF 0
ENDMDL
