MODEL 1
REMARK minimizedAffinity 2.36228538
REMARK minimizedRMSD -1
REMARK  0 active torsions:
REMARK  status: ('A' for Active; 'I' for Inactive)
ROOT
ATOM      1  C1  BNZ d   1       5.997  -2.978  -3.638  0.00  0.00     0.000 A 
ATOM      2  C2  BNZ d   1       5.997  -3.223  -4.985  0.00  0.00     0.000 A 
ATOM      3  C3  BNZ d   1       4.847  -3.111  -5.716  0.00  0.00     0.000 A 
ATOM      4  C4  BNZ d   1       3.693  -2.796  -5.093  0.00  0.00     0.000 A 
ATOM      5  C5  BNZ d   1       3.676  -2.555  -3.734  0.00  0.00     0.000 A 
ATOM      6  C6  BNZ d   1       4.842  -2.630  -3.008  0.00  0.00     0.000 A 
ENDROOT
TORSDOF 0
ENDMDL
