MODEL 1
REMARK minimizedAffinity 6.31626368
REMARK minimizedRMSD -1
REMARK  0 active torsions:
REMARK  status: ('A' for Active; 'I' for Inactive)
ROOT
ATOM      1  C1  BNZ d   1       3.639  -2.996   5.249  0.00  0.00     0.000 A 
ATOM      2  C2  BNZ d   1       3.656  -4.285   5.711  0.00  0.00     0.000 A 
ATOM      3  C3  BNZ d   1       4.837  -4.909   6.000  0.00  0.00     0.000 A 
ATOM      4  C4  BNZ d   1       6.000  -4.259   5.789  0.00  0.00     0.000 A 
ATOM      5  C5  BNZ d   1       5.999  -2.962   5.314  0.00  0.00     0.000 A 
ATOM      6  C6  BNZ d   1       4.807  -2.324   5.061  0.00  0.00     0.000 A 
ENDROOT
TORSDOF 0
ENDMDL
