MODEL 1
REMARK minimizedAffinity -0.87168169
REMARK minimizedRMSD -1
REMARK  0 active torsions:
REMARK  status: ('A' for Active; 'I' for Inactive)
ROOT
ATOM      1  C1  BNZ d   1      -0.779  -1.906  -1.038  0.00  0.00     0.000 A 
ATOM      2  C2  BNZ d   1       0.258  -1.043  -0.801  0.00  0.00     0.000 A 
ATOM      3  C3  BNZ d   1       0.190  -0.130   0.214  0.00  0.00     0.000 A 
ATOM      4  C4  BNZ d   1      -0.928  -0.054   0.964  0.00  0.00     0.000 A 
ATOM      5  C5  BNZ d   1      -1.985  -0.911   0.732  0.00  0.00     0.000 A 
ATOM      6  C6  BNZ d   1      -1.898  -1.855  -0.266  0.00  0.00     0.000 A 
ENDROOT
TORSDOF 0
ENDMDL
