MODEL 1
REMARK minimizedAffinity 4.92106009
REMARK minimizedRMSD -1
REMARK  0 active torsions:
REMARK  status: ('A' for Active; 'I' for Inactive)
ROOT
ATOM      1  C1  BNZ d   1      -3.291   0.513   1.438  0.00  0.00     0.000 A 
ATOM      2  C2  BNZ d   1      -4.336   1.269   1.899  0.00  0.00     0.000 A 
ATOM      3  C3  BNZ d   1      -4.764   1.157   3.192  0.00  0.00     0.000 A 
ATOM      4  C4  BNZ d   1      -4.174   0.261   4.011  0.00  0.00     0.000 A 
ATOM      5  C5  BNZ d   1      -3.126  -0.514   3.558  0.00  0.00     0.000 A 
ATOM      6  C6  BNZ d   1      -2.672  -0.371   2.267  0.00  0.00     0.000 A 
ENDROOT
TORSDOF 0
ENDMDL
