MODEL 1
REMARK minimizedAffinity 2.25319219
REMARK minimizedRMSD -1
REMARK  0 active torsions:
REMARK  status: ('A' for Active; 'I' for Inactive)
ROOT
ATOM      1  C1  BNZ d   1      -0.878  -0.564   0.519  0.00  0.00     0.000 A 
ATOM      2  C2  BNZ d   1      -0.046   0.492   0.256  0.00  0.00     0.000 A 
ATOM      3  C3  BNZ d   1       0.573   0.611  -0.957  0.00  0.00     0.000 A 
ATOM      4  C4  BNZ d   1       0.392  -0.347  -1.890  0.00  0.00     0.000 A 
ATOM      5  C5  BNZ d   1      -0.436  -1.422  -1.637  0.00  0.00     0.000 A 
ATOM      6  C6  BNZ d   1      -1.088  -1.518  -0.429  0.00  0.00     0.000 A 
ENDROOT
TORSDOF 0
ENDMDL
