MODEL 1
REMARK minimizedAffinity 3.61820149
REMARK minimizedRMSD -1
REMARK  0 active torsions:
REMARK  status: ('A' for Active; 'I' for Inactive)
ROOT
ATOM      1  C1  BNZ d   1       5.561  -3.774  -2.650  0.00  0.00     0.000 A 
ATOM      2  C2  BNZ d   1       4.235  -3.769  -2.995  0.00  0.00     0.000 A 
ATOM      3  C3  BNZ d   1       3.337  -2.999  -2.311  0.00  0.00     0.000 A 
ATOM      4  C4  BNZ d   1       3.757  -2.267  -1.259  0.00  0.00     0.000 A 
ATOM      5  C5  BNZ d   1       5.088  -2.268  -0.893  0.00  0.00     0.000 A 
ATOM      6  C6  BNZ d   1       5.996  -3.015  -1.608  0.00  0.00     0.000 A 
ENDROOT
TORSDOF 0
ENDMDL
