MODEL 1
REMARK minimizedAffinity 1.03790879
REMARK minimizedRMSD -1
REMARK  0 active torsions:
REMARK  status: ('A' for Active; 'I' for Inactive)
ROOT
ATOM      1  C1  BNZ d   1       5.961  -2.865   3.425  0.00  0.00     0.000 A 
ATOM      2  C2  BNZ d   1       5.973  -4.224   3.595  0.00  0.00     0.000 A 
ATOM      3  C3  BNZ d   1       5.972  -4.774   4.846  0.00  0.00     0.000 A 
ATOM      4  C4  BNZ d   1       6.000  -3.965   5.925  0.00  0.00     0.000 A 
ATOM      5  C5  BNZ d   1       5.998  -2.593   5.771  0.00  0.00     0.000 A 
ATOM      6  C6  BNZ d   1       5.960  -2.043   4.510  0.00  0.00     0.000 A 
ENDROOT
TORSDOF 0
ENDMDL
