MODEL 1
REMARK minimizedAffinity 0.859291136
REMARK minimizedRMSD -1
REMARK  0 active torsions:
REMARK  status: ('A' for Active; 'I' for Inactive)
ROOT
ATOM      1  C1  BNZ d   1      -3.079   0.401   1.953  0.00  0.00     0.000 A 
ATOM      2  C2  BNZ d   1      -2.631  -0.501   2.880  0.00  0.00     0.000 A 
ATOM      3  C3  BNZ d   1      -3.219  -0.592   4.110  0.00  0.00     0.000 A 
ATOM      4  C4  BNZ d   1      -4.228   0.246   4.426  0.00  0.00     0.000 A 
ATOM      5  C5  BNZ d   1      -4.685   1.167   3.505  0.00  0.00     0.000 A 
ATOM      6  C6  BNZ d   1      -4.116   1.229   2.254  0.00  0.00     0.000 A 
ENDROOT
TORSDOF 0
ENDMDL
