MODEL 1
REMARK minimizedAffinity 0.190731436
REMARK minimizedRMSD -1
REMARK  0 active torsions:
REMARK  status: ('A' for Active; 'I' for Inactive)
ROOT
ATOM      1  C1  BNZ d   1       0.016   1.831   0.834  0.00  0.00     0.000 A 
ATOM      2  C2  BNZ d   1      -0.829   1.143   1.664  0.00  0.00     0.000 A 
ATOM      3  C3  BNZ d   1      -1.455   0.005   1.238  0.00  0.00     0.000 A 
ATOM      4  C4  BNZ d   1      -1.268  -0.420  -0.028  0.00  0.00     0.000 A 
ATOM      5  C5  BNZ d   1      -0.426   0.267  -0.879  0.00  0.00     0.000 A 
ATOM      6  C6  BNZ d   1       0.233   1.391  -0.435  0.00  0.00     0.000 A 
ENDROOT
TORSDOF 0
ENDMDL
