MODEL 1
REMARK minimizedAffinity -4.02910852
REMARK minimizedRMSD -1
REMARK  0 active torsions:
REMARK  status: ('A' for Active; 'I' for Inactive)
ROOT
ATOM      1  C1  BNZ d   1      -0.810   0.295   0.361  0.00  0.00     0.000 A 
ATOM      2  C2  BNZ d   1      -1.309  -0.607   1.263  0.00  0.00     0.000 A 
ATOM      3  C3  BNZ d   1      -1.103  -1.948   1.098  0.00  0.00     0.000 A 
ATOM      4  C4  BNZ d   1      -0.434  -2.388   0.013  0.00  0.00     0.000 A 
ATOM      5  C5  BNZ d   1       0.068  -1.491  -0.910  0.00  0.00     0.000 A 
ATOM      6  C6  BNZ d   1      -0.108  -0.140  -0.720  0.00  0.00     0.000 A 
ENDROOT
TORSDOF 0
ENDMDL
