MODEL 1
REMARK minimizedAffinity 20.1213512
REMARK minimizedRMSD -1
REMARK  2 active torsions:
REMARK  status: ('A' for Active; 'I' for Inactive)
REMARK    1  A    between atoms: C1_2  and  C2_3 
REMARK    2  A    between atoms: C2_3  and  C3_4 
ROOT
ATOM      1  C3  UNL d   1       2.272   2.566  -1.024  0.00  0.00    -0.075 A 
ATOM      2  C4  UNL d   1       2.015   2.687   0.349  0.00  0.00     0.002 A 
ATOM      3  C5  UNL d   1       1.385   3.825   0.855  0.00  0.00     0.002 A 
ATOM      4  C6  UNL d   1       1.013   4.858  -0.003  0.00  0.00    -0.004 A 
ATOM      5  C7  UNL d   1       1.278   4.756  -1.367  0.00  0.00     0.002 A 
ATOM      6  C8  UNL d   1       1.905   3.617  -1.876  0.00  0.00     0.002 A 
ENDROOT
BRANCH   1   7
ATOM      7  C2  UNL d   1       2.927   1.325  -1.582  0.00  0.00     0.056 C 
BRANCH   7   8
ATOM      8  C1  UNL d   1       3.632   0.465  -0.527  0.00  0.00     0.007 C 
ATOM      9  C   UNL d   1       5.103   0.816  -0.352  0.00  0.00     0.009 C 
ENDBRANCH   7   8
ENDBRANCH   1   7
TORSDOF 2
ENDMDL
