MODEL 1
REMARK minimizedAffinity 0.420678884
REMARK minimizedRMSD -1
REMARK  2 active torsions:
REMARK  status: ('A' for Active; 'I' for Inactive)
REMARK    1  A    between atoms: C1_2  and  C2_3 
REMARK    2  A    between atoms: C2_3  and  C3_4 
ROOT
ATOM      1  C3  UNL d   1       2.674  -4.178  -2.168  0.00  0.00    -0.075 A 
ATOM      2  C4  UNL d   1       3.319  -4.198  -0.923  0.00  0.00     0.002 A 
ATOM      3  C5  UNL d   1       3.359  -3.053  -0.127  0.00  0.00     0.002 A 
ATOM      4  C6  UNL d   1       2.766  -1.873  -0.569  0.00  0.00    -0.004 A 
ATOM      5  C7  UNL d   1       2.138  -1.836  -1.812  0.00  0.00     0.002 A 
ATOM      6  C8  UNL d   1       2.092  -2.982  -2.608  0.00  0.00     0.002 A 
ENDROOT
BRANCH   1   7
ATOM      7  C2  UNL d   1       2.601  -5.422  -3.021  0.00  0.00     0.056 C 
BRANCH   7   8
ATOM      8  C1  UNL d   1       3.406  -5.334  -4.322  0.00  0.00     0.007 C 
ATOM      9  C   UNL d   1       4.771  -4.685  -4.141  0.00  0.00     0.009 C 
ENDBRANCH   7   8
ENDBRANCH   1   7
TORSDOF 2
ENDMDL
