MODEL 1
REMARK minimizedAffinity 1.83360314
REMARK minimizedRMSD -1
REMARK  2 active torsions:
REMARK  status: ('A' for Active; 'I' for Inactive)
REMARK    1  A    between atoms: C1_2  and  C2_3 
REMARK    2  A    between atoms: C2_3  and  C3_4 
ROOT
ATOM      1  C3  UNL d   1       2.088  -3.205  -1.344  0.00  0.00    -0.075 A 
ATOM      2  C4  UNL d   1       3.008  -4.234  -1.588  0.00  0.00     0.002 A 
ATOM      3  C5  UNL d   1       3.305  -4.625  -2.894  0.00  0.00     0.002 A 
ATOM      4  C6  UNL d   1       2.678  -4.001  -3.970  0.00  0.00    -0.004 A 
ATOM      5  C7  UNL d   1       1.749  -2.989  -3.740  0.00  0.00     0.002 A 
ATOM      6  C8  UNL d   1       1.454  -2.592  -2.434  0.00  0.00     0.002 A 
ENDROOT
BRANCH   1   7
ATOM      7  C2  UNL d   1       1.784  -2.756   0.065  0.00  0.00     0.056 C 
BRANCH   7   8
ATOM      8  C1  UNL d   1       1.468  -1.262   0.190  0.00  0.00     0.007 C 
ATOM      9  C   UNL d   1       0.342  -0.967   1.172  0.00  0.00     0.009 C 
ENDBRANCH   7   8
ENDBRANCH   1   7
TORSDOF 2
ENDMDL
