MODEL 1
REMARK minimizedAffinity 9.38257122
REMARK minimizedRMSD -1
REMARK  2 active torsions:
REMARK  status: ('A' for Active; 'I' for Inactive)
REMARK    1  A    between atoms: C1_2  and  C2_3 
REMARK    2  A    between atoms: C2_3  and  C3_4 
ROOT
ATOM      1  C3  UNL d   1       1.951  -2.306  -2.010  0.00  0.00    -0.075 A 
ATOM      2  C4  UNL d   1       2.838  -2.795  -1.039  0.00  0.00     0.002 A 
ATOM      3  C5  UNL d   1       3.484  -1.920  -0.166  0.00  0.00     0.002 A 
ATOM      4  C6  UNL d   1       3.260  -0.548  -0.257  0.00  0.00    -0.004 A 
ATOM      5  C7  UNL d   1       2.394  -0.050  -1.228  0.00  0.00     0.002 A 
ATOM      6  C8  UNL d   1       1.743  -0.924  -2.101  0.00  0.00     0.002 A 
ENDROOT
BRANCH   1   7
ATOM      7  C2  UNL d   1       1.227  -3.250  -2.939  0.00  0.00     0.056 C 
BRANCH   7   8
ATOM      8  C1  UNL d   1       1.009  -4.652  -2.359  0.00  0.00     0.007 C 
ATOM      9  C   UNL d   1      -0.365  -5.226  -2.676  0.00  0.00     0.009 C 
ENDBRANCH   7   8
ENDBRANCH   1   7
TORSDOF 2
ENDMDL
