MODEL 1
REMARK minimizedAffinity -1.15706837
REMARK minimizedRMSD -1
REMARK  2 active torsions:
REMARK  status: ('A' for Active; 'I' for Inactive)
REMARK    1  A    between atoms: C1_2  and  C2_3 
REMARK    2  A    between atoms: C2_3  and  C3_4 
ROOT
ATOM      1  C3  UNL d   1       2.842  -3.629  -1.747  0.00  0.00    -0.075 A 
ATOM      2  C4  UNL d   1       3.764  -4.229  -2.618  0.00  0.00     0.002 A 
ATOM      3  C5  UNL d   1       3.707  -3.980  -3.990  0.00  0.00     0.002 A 
ATOM      4  C6  UNL d   1       2.726  -3.138  -4.508  0.00  0.00    -0.004 A 
ATOM      5  C7  UNL d   1       1.795  -2.550  -3.654  0.00  0.00     0.002 A 
ATOM      6  C8  UNL d   1       1.852  -2.794  -2.281  0.00  0.00     0.002 A 
ENDROOT
BRANCH   1   7
ATOM      7  C2  UNL d   1       2.916  -3.870  -0.258  0.00  0.00     0.056 C 
BRANCH   7   8
ATOM      8  C1  UNL d   1       4.186  -4.599   0.193  0.00  0.00     0.007 C 
ATOM      9  C   UNL d   1       5.341  -3.656   0.505  0.00  0.00     0.009 C 
ENDBRANCH   7   8
ENDBRANCH   1   7
TORSDOF 2
ENDMDL
