MODEL 1
REMARK minimizedAffinity 2.03542066
REMARK minimizedRMSD -1
REMARK  2 active torsions:
REMARK  status: ('A' for Active; 'I' for Inactive)
REMARK    1  A    between atoms: C1_2  and  C2_3 
REMARK    2  A    between atoms: C2_3  and  C3_4 
ROOT
ATOM      1  C3  UNL d   1       2.868  -4.038  -1.833  0.00  0.00    -0.075 A 
ATOM      2  C4  UNL d   1       2.994  -5.359  -2.285  0.00  0.00     0.002 A 
ATOM      3  C5  UNL d   1       2.917  -5.652  -3.647  0.00  0.00     0.002 A 
ATOM      4  C6  UNL d   1       2.703  -4.631  -4.571  0.00  0.00    -0.004 A 
ATOM      5  C7  UNL d   1       2.559  -3.317  -4.131  0.00  0.00     0.002 A 
ATOM      6  C8  UNL d   1       2.640  -3.021  -2.769  0.00  0.00     0.002 A 
ENDROOT
BRANCH   1   7
ATOM      7  C2  UNL d   1       2.980  -3.711  -0.363  0.00  0.00     0.056 C 
BRANCH   7   8
ATOM      8  C1  UNL d   1       4.231  -4.284   0.311  0.00  0.00     0.007 C 
ATOM      9  C   UNL d   1       5.307  -3.238   0.568  0.00  0.00     0.009 C 
ENDBRANCH   7   8
ENDBRANCH   1   7
TORSDOF 2
ENDMDL
