MODEL 1
REMARK minimizedAffinity 11.7098703
REMARK minimizedRMSD -1
REMARK  2 active torsions:
REMARK  status: ('A' for Active; 'I' for Inactive)
REMARK    1  A    between atoms: C1_2  and  C2_3 
REMARK    2  A    between atoms: C2_3  and  C3_4 
ROOT
ATOM      1  C3  UNL d   1       3.427  -3.932  -1.435  0.00  0.00    -0.075 A 
ATOM      2  C4  UNL d   1       4.398  -4.448  -2.305  0.00  0.00     0.002 A 
ATOM      3  C5  UNL d   1       4.203  -4.411  -3.686  0.00  0.00     0.002 A 
ATOM      4  C6  UNL d   1       3.034  -3.869  -4.214  0.00  0.00    -0.004 A 
ATOM      5  C7  UNL d   1       2.055  -3.368  -3.358  0.00  0.00     0.002 A 
ATOM      6  C8  UNL d   1       2.249  -3.399  -1.976  0.00  0.00     0.002 A 
ENDROOT
BRANCH   1   7
ATOM      7  C2  UNL d   1       3.645  -3.942   0.059  0.00  0.00     0.056 C 
BRANCH   7   8
ATOM      8  C1  UNL d   1       5.045  -4.400   0.482  0.00  0.00     0.007 C 
ATOM      9  C   UNL d   1       5.984  -3.245   0.803  0.00  0.00     0.009 C 
ENDBRANCH   7   8
ENDBRANCH   1   7
TORSDOF 2
ENDMDL
