MODEL 1
REMARK minimizedAffinity 11.3913355
REMARK minimizedRMSD -1
REMARK  2 active torsions:
REMARK  status: ('A' for Active; 'I' for Inactive)
REMARK    1  A    between atoms: C1_2  and  C2_3 
REMARK    2  A    between atoms: C2_3  and  C3_4 
ROOT
ATOM      1  C3  UNL d   1       0.527   1.105   3.501  0.00  0.00    -0.075 A 
ATOM      2  C4  UNL d   1       1.330   0.755   4.597  0.00  0.00     0.002 A 
ATOM      3  C5  UNL d   1       1.161   1.386   5.829  0.00  0.00     0.002 A 
ATOM      4  C6  UNL d   1       0.197   2.380   5.980  0.00  0.00    -0.004 A 
ATOM      5  C7  UNL d   1      -0.595   2.748   4.894  0.00  0.00     0.002 A 
ATOM      6  C8  UNL d   1      -0.431   2.115   3.660  0.00  0.00     0.002 A 
ENDROOT
BRANCH   1   7
ATOM      7  C2  UNL d   1       0.685   0.404   2.173  0.00  0.00     0.056 C 
BRANCH   7   8
ATOM      8  C1  UNL d   1       1.983   0.751   1.435  0.00  0.00     0.007 C 
ATOM      9  C   UNL d   1       2.137   0.013   0.113  0.00  0.00     0.009 C 
ENDBRANCH   7   8
ENDBRANCH   1   7
TORSDOF 2
ENDMDL
