MODEL 1
REMARK minimizedAffinity 13.2349548
REMARK minimizedRMSD -1
REMARK  2 active torsions:
REMARK  status: ('A' for Active; 'I' for Inactive)
REMARK    1  A    between atoms: C1_2  and  C2_3 
REMARK    2  A    between atoms: C2_3  and  C3_4 
ROOT
ATOM      1  C3  UNL d   1      -4.103  -1.632   3.825  0.00  0.00    -0.075 A 
ATOM      2  C4  UNL d   1      -3.742  -1.506   5.174  0.00  0.00     0.002 A 
ATOM      3  C5  UNL d   1      -3.360  -0.268   5.692  0.00  0.00     0.002 A 
ATOM      4  C6  UNL d   1      -3.324   0.855   4.867  0.00  0.00    -0.004 A 
ATOM      5  C7  UNL d   1      -3.666   0.737   3.522  0.00  0.00     0.002 A 
ATOM      6  C8  UNL d   1      -4.052  -0.499   3.002  0.00  0.00     0.002 A 
ENDROOT
BRANCH   1   7
ATOM      7  C2  UNL d   1      -4.546  -2.963   3.265  0.00  0.00     0.056 C 
BRANCH   7   8
ATOM      8  C1  UNL d   1      -5.895  -2.917   2.539  0.00  0.00     0.007 C 
ATOM      9  C   UNL d   1      -5.999  -3.925   1.403  0.00  0.00     0.009 C 
ENDBRANCH   7   8
ENDBRANCH   1   7
TORSDOF 2
ENDMDL
