MODEL 1
REMARK minimizedAffinity 16.565115
REMARK minimizedRMSD -1
REMARK  2 active torsions:
REMARK  status: ('A' for Active; 'I' for Inactive)
REMARK    1  A    between atoms: C1_2  and  C2_3 
REMARK    2  A    between atoms: C2_3  and  C3_4 
ROOT
ATOM      1  C3  UNL d   1       2.098   0.264  -2.447  0.00  0.00    -0.075 A 
ATOM      2  C4  UNL d   1       2.320   1.592  -2.054  0.00  0.00     0.002 A 
ATOM      3  C5  UNL d   1       3.168   1.882  -0.985  0.00  0.00     0.002 A 
ATOM      4  C6  UNL d   1       3.796   0.850  -0.290  0.00  0.00    -0.004 A 
ATOM      5  C7  UNL d   1       3.570  -0.473  -0.662  0.00  0.00     0.002 A 
ATOM      6  C8  UNL d   1       2.726  -0.766  -1.734  0.00  0.00     0.002 A 
ENDROOT
BRANCH   1   7
ATOM      7  C2  UNL d   1       1.205  -0.055  -3.622  0.00  0.00     0.056 C 
BRANCH   7   8
ATOM      8  C1  UNL d   1       1.572  -1.352  -4.351  0.00  0.00     0.007 C 
ATOM      9  C   UNL d   1       2.559  -1.140  -5.492  0.00  0.00     0.009 C 
ENDBRANCH   7   8
ENDBRANCH   1   7
TORSDOF 2
ENDMDL
