MODEL 1
REMARK minimizedAffinity 16.9266052
REMARK minimizedRMSD -1
REMARK  2 active torsions:
REMARK  status: ('A' for Active; 'I' for Inactive)
REMARK    1  A    between atoms: C1_2  and  C2_3 
REMARK    2  A    between atoms: C2_3  and  C3_4 
ROOT
ATOM      1  C3  UNL d   1      -3.429   3.391  -5.983  0.00  0.00    -0.075 A 
ATOM      2  C4  UNL d   1      -2.869   4.676  -5.989  0.00  0.00     0.002 A 
ATOM      3  C5  UNL d   1      -3.688   5.806  -5.986  0.00  0.00     0.002 A 
ATOM      4  C6  UNL d   1      -5.074   5.665  -5.988  0.00  0.00    -0.004 A 
ATOM      5  C7  UNL d   1      -5.642   4.393  -5.999  0.00  0.00     0.002 A 
ATOM      6  C8  UNL d   1      -4.825   3.261  -5.997  0.00  0.00     0.002 A 
ENDROOT
BRANCH   1   7
ATOM      7  C2  UNL d   1      -2.549   2.164  -5.956  0.00  0.00     0.056 C 
BRANCH   7   8
ATOM      8  C1  UNL d   1      -1.781   1.976  -4.644  0.00  0.00     0.007 C 
ATOM      9  C   UNL d   1      -2.687   1.693  -3.453  0.00  0.00     0.009 C 
ENDBRANCH   7   8
ENDBRANCH   1   7
TORSDOF 2
ENDMDL
