MODEL 1
REMARK minimizedAffinity 14.8860397
REMARK minimizedRMSD -1
REMARK  2 active torsions:
REMARK  status: ('A' for Active; 'I' for Inactive)
REMARK    1  A    between atoms: C1_2  and  C2_3 
REMARK    2  A    between atoms: C2_3  and  C3_4 
ROOT
ATOM      1  C3  UNL d   1      -0.918   1.704   3.245  0.00  0.00    -0.075 A 
ATOM      2  C4  UNL d   1       0.096   1.274   2.377  0.00  0.00     0.002 A 
ATOM      3  C5  UNL d   1       1.417   1.190   2.818  0.00  0.00     0.002 A 
ATOM      4  C6  UNL d   1       1.742   1.542   4.126  0.00  0.00    -0.004 A 
ATOM      5  C7  UNL d   1       0.745   1.986   4.992  0.00  0.00     0.002 A 
ATOM      6  C8  UNL d   1      -0.579   2.067   4.555  0.00  0.00     0.002 A 
ENDROOT
BRANCH   1   7
ATOM      7  C2  UNL d   1      -2.354   1.769   2.782  0.00  0.00     0.056 C 
BRANCH   7   8
ATOM      8  C1  UNL d   1      -3.380   1.562   3.901  0.00  0.00     0.007 C 
ATOM      9  C   UNL d   1      -4.118   0.233   3.801  0.00  0.00     0.009 C 
ENDBRANCH   7   8
ENDBRANCH   1   7
TORSDOF 2
ENDMDL
