MODEL 1
REMARK minimizedAffinity 12.1123934
REMARK minimizedRMSD -1
REMARK  2 active torsions:
REMARK  status: ('A' for Active; 'I' for Inactive)
REMARK    1  A    between atoms: C1_2  and  C2_3 
REMARK    2  A    between atoms: C2_3  and  C3_4 
ROOT
ATOM      1  C3  UNL d   1      -3.707   1.546   4.115  0.00  0.00    -0.075 A 
ATOM      2  C4  UNL d   1      -5.016   1.609   3.616  0.00  0.00     0.002 A 
ATOM      3  C5  UNL d   1      -5.999   2.330   4.295  0.00  0.00     0.002 A 
ATOM      4  C6  UNL d   1      -5.689   2.987   5.484  0.00  0.00    -0.004 A 
ATOM      5  C7  UNL d   1      -4.396   2.918   5.997  0.00  0.00     0.002 A 
ATOM      6  C8  UNL d   1      -3.409   2.201   5.318  0.00  0.00     0.002 A 
ENDROOT
BRANCH   1   7
ATOM      7  C2  UNL d   1      -2.632   0.792   3.370  0.00  0.00     0.056 C 
BRANCH   7   8
ATOM      8  C1  UNL d   1      -1.367   1.614   3.098  0.00  0.00     0.007 C 
ATOM      9  C   UNL d   1      -0.090   0.915   3.543  0.00  0.00     0.009 C 
ENDBRANCH   7   8
ENDBRANCH   1   7
TORSDOF 2
ENDMDL
