MODEL 1
REMARK minimizedAffinity 15.8757973
REMARK minimizedRMSD -1
REMARK  2 active torsions:
REMARK  status: ('A' for Active; 'I' for Inactive)
REMARK    1  A    between atoms: C1_2  and  C2_3 
REMARK    2  A    between atoms: C2_3  and  C3_4 
ROOT
ATOM      1  C3  UNL d   1      -4.363   1.056   4.485  0.00  0.00    -0.075 A 
ATOM      2  C4  UNL d   1      -3.595   1.686   5.475  0.00  0.00     0.002 A 
ATOM      3  C5  UNL d   1      -3.980   2.925   5.989  0.00  0.00     0.002 A 
ATOM      4  C6  UNL d   1      -5.129   3.553   5.513  0.00  0.00    -0.004 A 
ATOM      5  C7  UNL d   1      -5.891   2.943   4.518  0.00  0.00     0.002 A 
ATOM      6  C8  UNL d   1      -5.510   1.702   4.006  0.00  0.00     0.002 A 
ENDROOT
BRANCH   1   7
ATOM      7  C2  UNL d   1      -3.968  -0.299   3.947  0.00  0.00     0.056 C 
BRANCH   7   8
ATOM      8  C1  UNL d   1      -4.924  -1.430   4.340  0.00  0.00     0.007 C 
ATOM      9  C   UNL d   1      -4.550  -2.102   5.654  0.00  0.00     0.009 C 
ENDBRANCH   7   8
ENDBRANCH   1   7
TORSDOF 2
ENDMDL
