MODEL 1
REMARK minimizedAffinity 8.51419353
REMARK minimizedRMSD -1
REMARK  2 active torsions:
REMARK  status: ('A' for Active; 'I' for Inactive)
REMARK    1  A    between atoms: C1_2  and  C2_3 
REMARK    2  A    between atoms: C2_3  and  C3_4 
ROOT
ATOM      1  C3  UNL d   1      -0.750  -3.854  -3.334  0.00  0.00    -0.075 A 
ATOM      2  C4  UNL d   1      -0.472  -4.477  -4.559  0.00  0.00     0.002 A 
ATOM      3  C5  UNL d   1      -1.382  -4.401  -5.614  0.00  0.00     0.002 A 
ATOM      4  C6  UNL d   1      -2.583  -3.713  -5.454  0.00  0.00    -0.004 A 
ATOM      5  C7  UNL d   1      -2.876  -3.105  -4.236  0.00  0.00     0.002 A 
ATOM      6  C8  UNL d   1      -1.966  -3.175  -3.180  0.00  0.00     0.002 A 
ENDROOT
BRANCH   1   7
ATOM      7  C2  UNL d   1       0.244  -3.906  -2.198  0.00  0.00     0.056 C 
BRANCH   7   8
ATOM      8  C1  UNL d   1       1.053  -2.618  -2.017  0.00  0.00     0.007 C 
ATOM      9  C   UNL d   1       1.951  -2.641  -0.787  0.00  0.00     0.009 C 
ENDBRANCH   7   8
ENDBRANCH   1   7
TORSDOF 2
ENDMDL
