MODEL 1
REMARK minimizedAffinity -1.43811262
REMARK minimizedRMSD -1
REMARK  0 active torsions:
REMARK  status: ('A' for Active; 'I' for Inactive)
ROOT
ATOM      1  C   UNL d   1       0.081  -0.162   0.350  0.00  0.00     0.078 C 
ATOM      2  C1  UNL d   1       0.480  -1.093  -0.755  0.00  0.00    -0.077 A 
ATOM      3  C2  UNL d   1       0.018  -0.900  -2.063  0.00  0.00    -0.001 A 
ATOM      4  C3  UNL d   1       0.390  -1.781  -3.080  0.00  0.00     0.003 A 
ATOM      5  C4  UNL d   1       1.225  -2.861  -2.800  0.00  0.00    -0.005 A 
ATOM      6  C5  UNL d   1       1.688  -3.062  -1.502  0.00  0.00     0.003 A 
ATOM      7  C6  UNL d   1       1.317  -2.183  -0.483  0.00  0.00    -0.001 A 
ENDROOT
TORSDOF 0
ENDMDL
