MODEL 1
REMARK minimizedAffinity -4.28318596
REMARK minimizedRMSD -1
REMARK  0 active torsions:
REMARK  status: ('A' for Active; 'I' for Inactive)
ROOT
ATOM      1  C   UNL d   1       0.573  -2.657  -2.204  0.00  0.00     0.078 C 
ATOM      2  C1  UNL d   1       0.073  -2.003  -0.951  0.00  0.00    -0.077 A 
ATOM      3  C2  UNL d   1       0.808  -0.990  -0.323  0.00  0.00    -0.001 A 
ATOM      4  C3  UNL d   1       0.334  -0.396   0.848  0.00  0.00     0.003 A 
ATOM      5  C4  UNL d   1      -0.876  -0.809   1.402  0.00  0.00    -0.005 A 
ATOM      6  C5  UNL d   1      -1.613  -1.818   0.785  0.00  0.00     0.003 A 
ATOM      7  C6  UNL d   1      -1.141  -2.413  -0.386  0.00  0.00    -0.001 A 
ENDROOT
TORSDOF 0
ENDMDL
