MODEL 1
REMARK minimizedAffinity -1.94131565
REMARK minimizedRMSD -1
REMARK  0 active torsions:
REMARK  status: ('A' for Active; 'I' for Inactive)
ROOT
ATOM      1  C   UNL d   1       0.681  -0.366   0.269  0.00  0.00     0.078 C 
ATOM      2  C1  UNL d   1       0.805  -1.551  -0.642  0.00  0.00    -0.077 A 
ATOM      3  C2  UNL d   1      -0.240  -1.913  -1.500  0.00  0.00    -0.001 A 
ATOM      4  C3  UNL d   1      -0.114  -3.024  -2.336  0.00  0.00     0.003 A 
ATOM      5  C4  UNL d   1       1.054  -3.783  -2.320  0.00  0.00    -0.005 A 
ATOM      6  C5  UNL d   1       2.098  -3.432  -1.467  0.00  0.00     0.003 A 
ATOM      7  C6  UNL d   1       1.975  -2.321  -0.631  0.00  0.00    -0.001 A 
ENDROOT
TORSDOF 0
ENDMDL
