MODEL 1
REMARK minimizedAffinity -3.78599215
REMARK minimizedRMSD -1
REMARK  0 active torsions:
REMARK  status: ('A' for Active; 'I' for Inactive)
ROOT
ATOM      1  C   UNL d   1      -0.686  -0.490   1.051  0.00  0.00     0.078 C 
ATOM      2  C1  UNL d   1       0.175  -1.082  -0.024  0.00  0.00    -0.077 A 
ATOM      3  C2  UNL d   1       1.176  -0.325  -0.645  0.00  0.00    -0.001 A 
ATOM      4  C3  UNL d   1       1.964  -0.886  -1.651  0.00  0.00     0.003 A 
ATOM      5  C4  UNL d   1       1.757  -2.206  -2.048  0.00  0.00    -0.005 A 
ATOM      6  C5  UNL d   1       0.761  -2.967  -1.438  0.00  0.00     0.003 A 
ATOM      7  C6  UNL d   1      -0.027  -2.407  -0.431  0.00  0.00    -0.001 A 
ENDROOT
TORSDOF 0
ENDMDL
