MODEL 1
REMARK minimizedAffinity -1.78110588
REMARK minimizedRMSD -1
REMARK  0 active torsions:
REMARK  status: ('A' for Active; 'I' for Inactive)
ROOT
ATOM      1  C   UNL d   1       1.388  -0.632  -0.396  0.00  0.00     0.078 C 
ATOM      2  C1  UNL d   1       0.165  -0.262   0.390  0.00  0.00    -0.077 A 
ATOM      3  C2  UNL d   1       0.224   0.702   1.404  0.00  0.00    -0.001 A 
ATOM      4  C3  UNL d   1      -0.920   1.030   2.133  0.00  0.00     0.003 A 
ATOM      5  C4  UNL d   1      -2.130   0.397   1.858  0.00  0.00    -0.005 A 
ATOM      6  C5  UNL d   1      -2.198  -0.566   0.853  0.00  0.00     0.003 A 
ATOM      7  C6  UNL d   1      -1.055  -0.895   0.122  0.00  0.00    -0.001 A 
ENDROOT
TORSDOF 0
ENDMDL
