MODEL 1
REMARK minimizedAffinity -2.03969955
REMARK minimizedRMSD -1
REMARK  0 active torsions:
REMARK  status: ('A' for Active; 'I' for Inactive)
ROOT
ATOM      1  C   UNL d   1      -1.447   0.989   1.962  0.00  0.00     0.078 C 
ATOM      2  C1  UNL d   1      -0.824   0.005   1.018  0.00  0.00    -0.077 A 
ATOM      3  C2  UNL d   1      -1.191  -1.346   1.038  0.00  0.00    -0.001 A 
ATOM      4  C3  UNL d   1      -0.595  -2.253   0.160  0.00  0.00     0.003 A 
ATOM      5  C4  UNL d   1       0.372  -1.819  -0.744  0.00  0.00    -0.005 A 
ATOM      6  C5  UNL d   1       0.745  -0.477  -0.771  0.00  0.00     0.003 A 
ATOM      7  C6  UNL d   1       0.151   0.431   0.106  0.00  0.00    -0.001 A 
ENDROOT
TORSDOF 0
ENDMDL
