MODEL 1
REMARK minimizedAffinity -0.592587173
REMARK minimizedRMSD -1
REMARK  0 active torsions:
REMARK  status: ('A' for Active; 'I' for Inactive)
ROOT
ATOM      1  C   UNL d   1       0.409  -1.697  -1.048  0.00  0.00     0.078 C 
ATOM      2  C1  UNL d   1      -0.042  -0.745   0.019  0.00  0.00    -0.077 A 
ATOM      3  C2  UNL d   1       0.171   0.634  -0.109  0.00  0.00    -0.001 A 
ATOM      4  C3  UNL d   1      -0.245   1.508   0.896  0.00  0.00     0.003 A 
ATOM      5  C4  UNL d   1      -0.874   1.014   2.037  0.00  0.00    -0.005 A 
ATOM      6  C5  UNL d   1      -1.088  -0.356   2.174  0.00  0.00     0.003 A 
ATOM      7  C6  UNL d   1      -0.673  -1.232   1.170  0.00  0.00    -0.001 A 
ENDROOT
TORSDOF 0
ENDMDL
