MODEL 1
REMARK minimizedAffinity -3.48060012
REMARK minimizedRMSD -1
REMARK  0 active torsions:
REMARK  status: ('A' for Active; 'I' for Inactive)
ROOT
ATOM      1  C   UNL d   1       0.148  -3.274  -2.382  0.00  0.00     0.078 C 
ATOM      2  C1  UNL d   1       0.025  -2.304  -1.245  0.00  0.00    -0.077 A 
ATOM      3  C2  UNL d   1      -1.132  -2.259  -0.457  0.00  0.00    -0.001 A 
ATOM      4  C3  UNL d   1      -1.237  -1.344   0.592  0.00  0.00     0.003 A 
ATOM      5  C4  UNL d   1      -0.188  -0.467   0.862  0.00  0.00    -0.005 A 
ATOM      6  C5  UNL d   1       0.966  -0.503   0.083  0.00  0.00     0.003 A 
ATOM      7  C6  UNL d   1       1.072  -1.417  -0.967  0.00  0.00    -0.001 A 
ENDROOT
TORSDOF 0
ENDMDL
