MODEL 1
REMARK minimizedAffinity -3.95625305
REMARK minimizedRMSD -1
REMARK  0 active torsions:
REMARK  status: ('A' for Active; 'I' for Inactive)
ROOT
ATOM      1  C   UNL d   1       0.361  -3.560  -1.965  0.00  0.00     0.078 C 
ATOM      2  C1  UNL d   1       0.429  -2.256  -1.227  0.00  0.00    -0.077 A 
ATOM      3  C2  UNL d   1       1.586  -1.469  -1.259  0.00  0.00    -0.001 A 
ATOM      4  C3  UNL d   1       1.638  -0.262  -0.560  0.00  0.00     0.003 A 
ATOM      5  C4  UNL d   1       0.536   0.167   0.178  0.00  0.00    -0.005 A 
ATOM      6  C5  UNL d   1      -0.619  -0.610   0.217  0.00  0.00     0.003 A 
ATOM      7  C6  UNL d   1      -0.673  -1.818  -0.482  0.00  0.00    -0.001 A 
ENDROOT
TORSDOF 0
ENDMDL
