MODEL 1
REMARK minimizedAffinity -5.69138956
REMARK minimizedRMSD -1
REMARK  0 active torsions:
REMARK  status: ('A' for Active; 'I' for Inactive)
ROOT
ATOM      1  C   UNL d   1       0.401   4.418   0.270  0.00  0.00     0.078 C 
ATOM      2  C1  UNL d   1      -0.018   2.985   0.138  0.00  0.00    -0.077 A 
ATOM      3  C2  UNL d   1       0.307   2.240  -1.002  0.00  0.00    -0.001 A 
ATOM      4  C3  UNL d   1      -0.098   0.909  -1.115  0.00  0.00     0.003 A 
ATOM      5  C4  UNL d   1      -0.831   0.311  -0.092  0.00  0.00    -0.005 A 
ATOM      6  C5  UNL d   1      -1.161   1.045   1.046  0.00  0.00     0.003 A 
ATOM      7  C6  UNL d   1      -0.757   2.376   1.161  0.00  0.00    -0.001 A 
ENDROOT
TORSDOF 0
ENDMDL
