MODEL 1
REMARK minimizedAffinity -2.75167513
REMARK minimizedRMSD -1
REMARK  0 active torsions:
REMARK  status: ('A' for Active; 'I' for Inactive)
ROOT
ATOM      1  C   UNL d   1       0.556   0.589  -1.034  0.00  0.00     0.078 C 
ATOM      2  C1  UNL d   1       0.735  -0.816  -1.525  0.00  0.00    -0.077 A 
ATOM      3  C2  UNL d   1       0.331  -1.187  -2.813  0.00  0.00    -0.001 A 
ATOM      4  C3  UNL d   1       0.495  -2.502  -3.253  0.00  0.00     0.003 A 
ATOM      5  C4  UNL d   1       1.062  -3.456  -2.411  0.00  0.00    -0.005 A 
ATOM      6  C5  UNL d   1       1.465  -3.097  -1.126  0.00  0.00     0.003 A 
ATOM      7  C6  UNL d   1       1.302  -1.783  -0.684  0.00  0.00    -0.001 A 
ENDROOT
TORSDOF 0
ENDMDL
