MODEL 1
REMARK minimizedAffinity -2.62755036
REMARK minimizedRMSD -1
REMARK  0 active torsions:
REMARK  status: ('A' for Active; 'I' for Inactive)
ROOT
ATOM      1  C   UNL d   1      -1.076   1.524   2.357  0.00  0.00     0.078 C 
ATOM      2  C1  UNL d   1      -0.376   0.651   1.359  0.00  0.00    -0.077 A 
ATOM      3  C2  UNL d   1      -0.278  -0.733   1.554  0.00  0.00    -0.001 A 
ATOM      4  C3  UNL d   1       0.385  -1.532   0.621  0.00  0.00     0.003 A 
ATOM      5  C4  UNL d   1       0.955  -0.957  -0.513  0.00  0.00    -0.005 A 
ATOM      6  C5  UNL d   1       0.864   0.418  -0.715  0.00  0.00     0.003 A 
ATOM      7  C6  UNL d   1       0.202   1.219   0.217  0.00  0.00    -0.001 A 
ENDROOT
TORSDOF 0
ENDMDL
