MODEL 1
REMARK minimizedAffinity -2.9937675
REMARK minimizedRMSD -1
REMARK  0 active torsions:
REMARK  status: ('A' for Active; 'I' for Inactive)
ROOT
ATOM      1  C   UNL d   1       0.125  -2.945  -1.674  0.00  0.00     0.078 C 
ATOM      2  C1  UNL d   1      -0.017  -1.782  -0.738  0.00  0.00    -0.077 A 
ATOM      3  C2  UNL d   1       0.897  -0.721  -0.762  0.00  0.00    -0.001 A 
ATOM      4  C3  UNL d   1       0.758   0.350   0.122  0.00  0.00     0.003 A 
ATOM      5  C4  UNL d   1      -0.292   0.370   1.038  0.00  0.00    -0.005 A 
ATOM      6  C5  UNL d   1      -1.205  -0.682   1.071  0.00  0.00     0.003 A 
ATOM      7  C6  UNL d   1      -1.068  -1.754   0.187  0.00  0.00    -0.001 A 
ENDROOT
TORSDOF 0
ENDMDL
