MODEL 1
REMARK minimizedAffinity -3.09878993
REMARK minimizedRMSD -1
REMARK  0 active torsions:
REMARK  status: ('A' for Active; 'I' for Inactive)
ROOT
ATOM      1  C   UNL d   1       0.387   2.386  -1.267  0.00  0.00     0.078 C 
ATOM      2  C1  UNL d   1       0.156   1.039  -0.650  0.00  0.00    -0.077 A 
ATOM      3  C2  UNL d   1      -0.338   0.919   0.655  0.00  0.00    -0.001 A 
ATOM      4  C3  UNL d   1      -0.539  -0.341   1.220  0.00  0.00     0.003 A 
ATOM      5  C4  UNL d   1      -0.248  -1.491   0.488  0.00  0.00    -0.005 A 
ATOM      6  C5  UNL d   1       0.247  -1.381  -0.810  0.00  0.00     0.003 A 
ATOM      7  C6  UNL d   1       0.448  -0.122  -1.377  0.00  0.00    -0.001 A 
ENDROOT
TORSDOF 0
ENDMDL
