MODEL 1
REMARK minimizedAffinity -2.99402905
REMARK minimizedRMSD -1
REMARK  1 active torsions:
REMARK  status: ('A' for Active; 'I' for Inactive)
REMARK    1  A    between atoms: C1_2  and  C2_3 
ROOT
ATOM      1  C2  UNL d   1       1.517   0.016   0.342  0.00  0.00    -0.073 A 
ATOM      2  C3  UNL d   1       0.879   1.261   0.380  0.00  0.00    -0.002 A 
ATOM      3  C4  UNL d   1      -0.461   1.378   0.009  0.00  0.00     0.004 A 
ATOM      4  C5  UNL d   1      -1.178   0.252  -0.398  0.00  0.00    -0.004 A 
ATOM      5  C6  UNL d   1      -0.561  -1.003  -0.431  0.00  0.00    -0.075 A 
ATOM      6  C7  UNL d   1      -1.317  -2.223  -0.868  0.00  0.00     0.076 C 
ATOM      7  C8  UNL d   1       0.786  -1.112  -0.059  0.00  0.00     0.001 A 
ENDROOT
BRANCH   1   8
ATOM      8  C1  UNL d   1       2.962  -0.116   0.749  0.00  0.00     0.053 C 
ATOM      9  C   UNL d   1       3.414  -1.568   0.783  0.00  0.00     0.018 C 
ENDBRANCH   1   8
TORSDOF 1
ENDMDL
