MODEL 1
REMARK minimizedAffinity -6.14236832
REMARK minimizedRMSD -1
REMARK  1 active torsions:
REMARK  status: ('A' for Active; 'I' for Inactive)
REMARK    1  A    between atoms: C1_2  and  C2_3 
ROOT
ATOM      1  C2  UNL d   1       3.152   0.943   0.472  0.00  0.00    -0.073 A 
ATOM      2  C3  UNL d   1       3.623  -0.309   0.883  0.00  0.00    -0.002 A 
ATOM      3  C4  UNL d   1       2.729  -1.349   1.139  0.00  0.00     0.004 A 
ATOM      4  C5  UNL d   1       1.357  -1.151   0.980  0.00  0.00    -0.004 A 
ATOM      5  C6  UNL d   1       0.868   0.089   0.559  0.00  0.00    -0.075 A 
ATOM      6  C7  UNL d   1      -0.604   0.319   0.385  0.00  0.00     0.076 C 
ATOM      7  C8  UNL d   1       1.772   1.130   0.306  0.00  0.00     0.001 A 
ENDROOT
BRANCH   1   8
ATOM      8  C1  UNL d   1       4.114   2.067   0.188  0.00  0.00     0.053 C 
ATOM      9  C   UNL d   1       4.964   1.793  -1.043  0.00  0.00     0.018 C 
ENDBRANCH   1   8
TORSDOF 1
ENDMDL
