MODEL 1
REMARK minimizedAffinity -5.46487188
REMARK minimizedRMSD -1
REMARK  1 active torsions:
REMARK  status: ('A' for Active; 'I' for Inactive)
REMARK    1  A    between atoms: C1_2  and  C2_3 
ROOT
ATOM      1  C2  UNL d   1      -0.482   0.727  -0.139  0.00  0.00    -0.073 A 
ATOM      2  C3  UNL d   1       0.157   1.970  -0.055  0.00  0.00    -0.002 A 
ATOM      3  C4  UNL d   1       1.541   2.041   0.101  0.00  0.00     0.004 A 
ATOM      4  C5  UNL d   1       2.302   0.874   0.168  0.00  0.00    -0.004 A 
ATOM      5  C6  UNL d   1       1.683  -0.377   0.074  0.00  0.00    -0.075 A 
ATOM      6  C7  UNL d   1       2.486  -1.642   0.146  0.00  0.00     0.076 C 
ATOM      7  C8  UNL d   1       0.292  -0.441  -0.080  0.00  0.00     0.001 A 
ENDROOT
BRANCH   1   8
ATOM      8  C1  UNL d   1      -1.976   0.645  -0.314  0.00  0.00     0.053 C 
ATOM      9  C   UNL d   1      -2.723   1.171   0.902  0.00  0.00     0.018 C 
ENDBRANCH   1   8
TORSDOF 1
ENDMDL
