MODEL 1
REMARK minimizedAffinity -3.96588612
REMARK minimizedRMSD -1
REMARK  1 active torsions:
REMARK  status: ('A' for Active; 'I' for Inactive)
REMARK    1  A    between atoms: C1_2  and  C2_3 
ROOT
ATOM      1  C2  UNL d   1       0.949  -1.008   0.228  0.00  0.00    -0.073 A 
ATOM      2  C3  UNL d   1       2.313  -1.295   0.352  0.00  0.00    -0.002 A 
ATOM      3  C4  UNL d   1       3.257  -0.268   0.299  0.00  0.00     0.004 A 
ATOM      4  C5  UNL d   1       2.847   1.054   0.130  0.00  0.00    -0.004 A 
ATOM      5  C6  UNL d   1       1.488   1.362   0.017  0.00  0.00    -0.075 A 
ATOM      6  C7  UNL d   1       1.031   2.779  -0.168  0.00  0.00     0.076 C 
ATOM      7  C8  UNL d   1       0.546   0.326   0.068  0.00  0.00     0.001 A 
ENDROOT
BRANCH   1   8
ATOM      8  C1  UNL d   1      -0.074  -2.112   0.291  0.00  0.00     0.053 C 
ATOM      9  C   UNL d   1       0.292  -3.280  -0.612  0.00  0.00     0.018 C 
ENDBRANCH   1   8
TORSDOF 1
ENDMDL
