MODEL 1
REMARK minimizedAffinity -4.93585491
REMARK minimizedRMSD -1
REMARK  1 active torsions:
REMARK  status: ('A' for Active; 'I' for Inactive)
REMARK    1  A    between atoms: C1_2  and  C2_3 
ROOT
ATOM      1  C2  UNL d   1       0.011   0.100   0.038  0.00  0.00    -0.073 A 
ATOM      2  C3  UNL d   1       0.448  -1.220   0.192  0.00  0.00    -0.002 A 
ATOM      3  C4  UNL d   1       1.796  -1.494   0.425  0.00  0.00     0.004 A 
ATOM      4  C5  UNL d   1       2.719  -0.452   0.513  0.00  0.00    -0.004 A 
ATOM      5  C6  UNL d   1       2.300   0.875   0.374  0.00  0.00    -0.075 A 
ATOM      6  C7  UNL d   1       3.281   2.007   0.463  0.00  0.00     0.076 C 
ATOM      7  C8  UNL d   1       0.945   1.142   0.137  0.00  0.00     0.001 A 
ENDROOT
BRANCH   1   8
ATOM      8  C1  UNL d   1      -1.445   0.401  -0.208  0.00  0.00     0.053 C 
ATOM      9  C   UNL d   1      -2.168   0.798   1.069  0.00  0.00     0.018 C 
ENDBRANCH   1   8
TORSDOF 1
ENDMDL
