MODEL 1
REMARK minimizedAffinity -5.33331251
REMARK minimizedRMSD -1
REMARK  1 active torsions:
REMARK  status: ('A' for Active; 'I' for Inactive)
REMARK    1  A    between atoms: C1_2  and  C2_3 
ROOT
ATOM      1  C2  UNL d   1      -0.514   0.273   0.109  0.00  0.00    -0.073 A 
ATOM      2  C3  UNL d   1      -0.766  -0.688  -0.877  0.00  0.00    -0.002 A 
ATOM      3  C4  UNL d   1       0.176  -1.680  -1.151  0.00  0.00     0.004 A 
ATOM      4  C5  UNL d   1       1.375  -1.726  -0.439  0.00  0.00    -0.004 A 
ATOM      5  C6  UNL d   1       1.639  -0.782   0.558  0.00  0.00    -0.075 A 
ATOM      6  C7  UNL d   1       2.925  -0.817   1.332  0.00  0.00     0.076 C 
ATOM      7  C8  UNL d   1       0.690   0.213   0.826  0.00  0.00     0.001 A 
ENDROOT
BRANCH   1   8
ATOM      8  C1  UNL d   1      -1.531   1.342   0.412  0.00  0.00     0.053 C 
ATOM      9  C   UNL d   1      -2.950   0.797   0.410  0.00  0.00     0.018 C 
ENDBRANCH   1   8
TORSDOF 1
ENDMDL
