MODEL 1
REMARK minimizedAffinity -3.02095699
REMARK minimizedRMSD -1
REMARK  0 active torsions:
REMARK  status: ('A' for Active; 'I' for Inactive)
ROOT
ATOM      1  C   UNL d   1       2.061   2.741   1.498  0.00  0.00     0.172 C 
ATOM      2  N   UNL d   1       1.134   1.750   1.004  0.00  0.00    -0.070 N 
ATOM      3  C1  UNL d   1       1.085   0.438   1.393  0.00  0.00    -0.004 A 
ATOM      4  C2  UNL d   1       0.067  -0.172   0.693  0.00  0.00    -0.047 A 
ATOM      5  C3  UNL d   1      -0.516   0.807  -0.146  0.00  0.00    -0.047 A 
ATOM      6  C4  UNL d   1       0.164   1.988   0.067  0.00  0.00    -0.004 A 
ENDROOT
TORSDOF 0
ENDMDL
