MODEL 1
REMARK minimizedAffinity -1.41139603
REMARK minimizedRMSD -1
REMARK  0 active torsions:
REMARK  status: ('A' for Active; 'I' for Inactive)
ROOT
ATOM      1  C   UNL d   1      -1.265  -1.254   1.470  0.00  0.00     0.172 C 
ATOM      2  N   UNL d   1      -0.765  -0.690   0.239  0.00  0.00    -0.070 N 
ATOM      3  C1  UNL d   1      -0.487   0.633   0.022  0.00  0.00    -0.004 A 
ATOM      4  C2  UNL d   1      -0.033   0.762  -1.273  0.00  0.00    -0.047 A 
ATOM      5  C3  UNL d   1      -0.040  -0.528  -1.855  0.00  0.00    -0.047 A 
ATOM      6  C4  UNL d   1      -0.497  -1.408  -0.897  0.00  0.00    -0.004 A 
ENDROOT
TORSDOF 0
ENDMDL
