MODEL 1
REMARK minimizedAffinity -2.56786633
REMARK minimizedRMSD -1
REMARK  0 active torsions:
REMARK  status: ('A' for Active; 'I' for Inactive)
ROOT
ATOM      1  C   UNL d   1      -0.490   1.192  -0.713  0.00  0.00     0.172 C 
ATOM      2  N   UNL d   1       0.410   2.109  -0.056  0.00  0.00    -0.070 N 
ATOM      3  C1  UNL d   1       0.149   3.425   0.220  0.00  0.00    -0.004 A 
ATOM      4  C2  UNL d   1       1.255   3.952   0.850  0.00  0.00    -0.047 A 
ATOM      5  C3  UNL d   1       2.215   2.917   0.957  0.00  0.00    -0.047 A 
ATOM      6  C4  UNL d   1       1.666   1.788   0.388  0.00  0.00    -0.004 A 
ENDROOT
TORSDOF 0
ENDMDL
