MODEL 1
REMARK minimizedAffinity -2.87717986
REMARK minimizedRMSD -1
REMARK  0 active torsions:
REMARK  status: ('A' for Active; 'I' for Inactive)
ROOT
ATOM      1  C   UNL d   1       0.218   1.149  -0.036  0.00  0.00     0.172 C 
ATOM      2  N   UNL d   1      -0.277  -0.167   0.291  0.00  0.00    -0.070 N 
ATOM      3  C1  UNL d   1      -0.606  -0.607   1.546  0.00  0.00    -0.004 A 
ATOM      4  C2  UNL d   1      -1.036  -1.912   1.436  0.00  0.00    -0.047 A 
ATOM      5  C3  UNL d   1      -0.963  -2.269   0.069  0.00  0.00    -0.047 A 
ATOM      6  C4  UNL d   1      -0.490  -1.170  -0.617  0.00  0.00    -0.004 A 
ENDROOT
TORSDOF 0
ENDMDL
