MODEL 1
REMARK minimizedAffinity -2.44480944
REMARK minimizedRMSD -1
REMARK  0 active torsions:
REMARK  status: ('A' for Active; 'I' for Inactive)
ROOT
ATOM      1  C   UNL d   1      -0.653  -2.262   0.827  0.00  0.00     0.172 C 
ATOM      2  N   UNL d   1       0.023  -0.993   0.685  0.00  0.00    -0.070 N 
ATOM      3  C1  UNL d   1      -0.182  -0.087  -0.321  0.00  0.00    -0.004 A 
ATOM      4  C2  UNL d   1       0.650   0.988  -0.097  0.00  0.00    -0.047 A 
ATOM      5  C3  UNL d   1       1.381   0.719   1.084  0.00  0.00    -0.047 A 
ATOM      6  C4  UNL d   1       0.973  -0.514   1.548  0.00  0.00    -0.004 A 
ENDROOT
TORSDOF 0
ENDMDL
