MODEL 1
REMARK minimizedAffinity -2.29679418
REMARK minimizedRMSD -1
REMARK  0 active torsions:
REMARK  status: ('A' for Active; 'I' for Inactive)
ROOT
ATOM      1  C   UNL d   1      -0.014   1.274  -1.045  0.00  0.00     0.172 C 
ATOM      2  N   UNL d   1      -0.034   0.562   0.211  0.00  0.00    -0.070 N 
ATOM      3  C1  UNL d   1       0.921   0.641   1.189  0.00  0.00    -0.004 A 
ATOM      4  C2  UNL d   1       0.536  -0.185   2.223  0.00  0.00    -0.047 A 
ATOM      5  C3  UNL d   1      -0.692  -0.783   1.853  0.00  0.00    -0.047 A 
ATOM      6  C4  UNL d   1      -1.022  -0.303   0.603  0.00  0.00    -0.004 A 
ENDROOT
TORSDOF 0
ENDMDL
