MODEL 1
REMARK minimizedAffinity -2.46840811
REMARK minimizedRMSD -1
REMARK  0 active torsions:
REMARK  status: ('A' for Active; 'I' for Inactive)
ROOT
ATOM      1  C   UNL d   1      -0.142   1.088  -0.007  0.00  0.00     0.172 C 
ATOM      2  N   UNL d   1      -0.543  -0.270   0.278  0.00  0.00    -0.070 N 
ATOM      3  C1  UNL d   1      -0.670  -1.275  -0.643  0.00  0.00    -0.004 A 
ATOM      4  C2  UNL d   1      -1.070  -2.412   0.025  0.00  0.00    -0.047 A 
ATOM      5  C3  UNL d   1      -1.188  -2.079   1.395  0.00  0.00    -0.047 A 
ATOM      6  C4  UNL d   1      -0.857  -0.746   1.524  0.00  0.00    -0.004 A 
ENDROOT
TORSDOF 0
ENDMDL
