MODEL 1
REMARK minimizedAffinity -2.99536657
REMARK minimizedRMSD -1
REMARK  0 active torsions:
REMARK  status: ('A' for Active; 'I' for Inactive)
ROOT
ATOM      1  C   UNL d   1       0.135   0.897  -0.266  0.00  0.00     0.172 C 
ATOM      2  N   UNL d   1       1.152   1.698   0.375  0.00  0.00    -0.070 N 
ATOM      3  C1  UNL d   1       2.322   1.227   0.907  0.00  0.00    -0.004 A 
ATOM      4  C2  UNL d   1       3.015   2.301   1.422  0.00  0.00    -0.047 A 
ATOM      5  C3  UNL d   1       2.233   3.458   1.193  0.00  0.00    -0.047 A 
ATOM      6  C4  UNL d   1       1.085   3.056   0.543  0.00  0.00    -0.004 A 
ENDROOT
TORSDOF 0
ENDMDL
