MODEL 1
REMARK minimizedAffinity -1.98062682
REMARK minimizedRMSD -1
REMARK  0 active torsions:
REMARK  status: ('A' for Active; 'I' for Inactive)
ROOT
ATOM      1  C   UNL d   1       1.317   2.849   0.132  0.00  0.00     0.172 C 
ATOM      2  N   UNL d   1       0.575   1.618   0.268  0.00  0.00    -0.070 N 
ATOM      3  C1  UNL d   1       0.878   0.593   1.124  0.00  0.00    -0.004 A 
ATOM      4  C2  UNL d   1      -0.067  -0.395   0.952  0.00  0.00    -0.047 A 
ATOM      5  C3  UNL d   1      -0.969   0.051  -0.044  0.00  0.00    -0.047 A 
ATOM      6  C4  UNL d   1      -0.548   1.299  -0.450  0.00  0.00    -0.004 A 
ENDROOT
TORSDOF 0
ENDMDL
