MODEL 1
REMARK minimizedAffinity -0.605122685
REMARK minimizedRMSD -1
REMARK  0 active torsions:
REMARK  status: ('A' for Active; 'I' for Inactive)
ROOT
ATOM      1  C   UNL d   1       0.263  -1.442  -2.392  0.00  0.00     0.172 C 
ATOM      2  N   UNL d   1       0.098  -0.490  -1.319  0.00  0.00    -0.070 N 
ATOM      3  C1  UNL d   1      -0.008   0.867  -1.465  0.00  0.00    -0.004 A 
ATOM      4  C2  UNL d   1      -0.153   1.417  -0.210  0.00  0.00    -0.047 A 
ATOM      5  C3  UNL d   1      -0.133   0.353   0.723  0.00  0.00    -0.047 A 
ATOM      6  C4  UNL d   1       0.024  -0.816   0.010  0.00  0.00    -0.004 A 
ENDROOT
TORSDOF 0
ENDMDL
