MODEL 1
REMARK minimizedAffinity -2.94728279
REMARK minimizedRMSD -1
REMARK  0 active torsions:
REMARK  status: ('A' for Active; 'I' for Inactive)
ROOT
ATOM      1  C   UNL d   1      -0.379   0.833  -0.657  0.00  0.00     0.172 C 
ATOM      2  N   UNL d   1      -0.535  -0.551  -0.272  0.00  0.00    -0.070 N 
ATOM      3  C1  UNL d   1      -0.391  -1.631  -1.101  0.00  0.00    -0.004 A 
ATOM      4  C2  UNL d   1      -0.620  -2.768  -0.356  0.00  0.00    -0.047 A 
ATOM      5  C3  UNL d   1      -0.912  -2.356   0.966  0.00  0.00    -0.047 A 
ATOM      6  C4  UNL d   1      -0.853  -0.979   0.990  0.00  0.00    -0.004 A 
ENDROOT
TORSDOF 0
ENDMDL
