MODEL 1
REMARK minimizedAffinity -2.17072463
REMARK minimizedRMSD -1
REMARK  0 active torsions:
REMARK  status: ('A' for Active; 'I' for Inactive)
ROOT
ATOM      1  C   UNL d   1      -0.610  -2.431   0.612  0.00  0.00     0.172 C 
ATOM      2  N   UNL d   1      -0.407  -1.002   0.573  0.00  0.00    -0.070 N 
ATOM      3  C1  UNL d   1      -1.200  -0.066   1.184  0.00  0.00    -0.004 A 
ATOM      4  C2  UNL d   1      -0.673   1.177   0.910  0.00  0.00    -0.047 A 
ATOM      5  C3  UNL d   1       0.476   0.982   0.106  0.00  0.00    -0.047 A 
ATOM      6  C4  UNL d   1       0.617  -0.376  -0.087  0.00  0.00    -0.004 A 
ENDROOT
TORSDOF 0
ENDMDL
