MODEL 1
REMARK minimizedAffinity -3.54502416
REMARK minimizedRMSD -1
REMARK  0 active torsions:
REMARK  status: ('A' for Active; 'I' for Inactive)
ROOT
ATOM      1  C   UNL d   1      -0.060   1.074  -0.264  0.00  0.00     0.172 C 
ATOM      2  N   UNL d   1      -0.370  -0.290   0.094  0.00  0.00    -0.070 N 
ATOM      3  C1  UNL d   1       0.089  -1.408  -0.549  0.00  0.00    -0.004 A 
ATOM      4  C2  UNL d   1      -0.432  -2.509   0.096  0.00  0.00    -0.047 A 
ATOM      5  C3  UNL d   1      -1.232  -2.036   1.163  0.00  0.00    -0.047 A 
ATOM      6  C4  UNL d   1      -1.176  -0.658   1.139  0.00  0.00    -0.004 A 
ENDROOT
TORSDOF 0
ENDMDL
