MODEL 1
REMARK minimizedAffinity -1.77691662
REMARK minimizedRMSD -1
REMARK  0 active torsions:
REMARK  status: ('A' for Active; 'I' for Inactive)
ROOT
ATOM      1  C   UNL d   1      -0.182   0.246  -2.147  0.00  0.00     0.172 C 
ATOM      2  N   UNL d   1      -0.288  -0.042  -0.736  0.00  0.00    -0.070 N 
ATOM      3  C1  UNL d   1      -1.299  -0.749  -0.140  0.00  0.00    -0.004 A 
ATOM      4  C2  UNL d   1      -1.034  -0.803   1.212  0.00  0.00    -0.047 A 
ATOM      5  C3  UNL d   1       0.176  -0.105   1.435  0.00  0.00    -0.047 A 
ATOM      6  C4  UNL d   1       0.616   0.356   0.212  0.00  0.00    -0.004 A 
ENDROOT
TORSDOF 0
ENDMDL
