MODEL 1
REMARK minimizedAffinity -2.93322849
REMARK minimizedRMSD -1
REMARK  0 active torsions:
REMARK  status: ('A' for Active; 'I' for Inactive)
ROOT
ATOM      1  C   UNL d   1       2.155   2.430   0.291  0.00  0.00     0.172 C 
ATOM      2  N   UNL d   1       1.147   1.403   0.402  0.00  0.00    -0.070 N 
ATOM      3  C1  UNL d   1       1.276   0.230   1.098  0.00  0.00    -0.004 A 
ATOM      4  C2  UNL d   1       0.099  -0.474   0.960  0.00  0.00    -0.047 A 
ATOM      5  C3  UNL d   1      -0.767   0.302   0.152  0.00  0.00    -0.047 A 
ATOM      6  C4  UNL d   1      -0.093   1.458  -0.178  0.00  0.00    -0.004 A 
ENDROOT
TORSDOF 0
ENDMDL
