MODEL 1
REMARK minimizedAffinity -2.25150394
REMARK minimizedRMSD -1
REMARK  0 active torsions:
REMARK  status: ('A' for Active; 'I' for Inactive)
ROOT
ATOM      1  C   UNL d   1       0.348   1.022  -0.290  0.00  0.00     0.172 C 
ATOM      2  N   UNL d   1      -0.123  -0.305   0.031  0.00  0.00    -0.070 N 
ATOM      3  C1  UNL d   1      -0.088  -1.389  -0.806  0.00  0.00    -0.004 A 
ATOM      4  C2  UNL d   1      -0.627  -2.462  -0.129  0.00  0.00    -0.047 A 
ATOM      5  C3  UNL d   1      -0.999  -2.007   1.158  0.00  0.00    -0.047 A 
ATOM      6  C4  UNL d   1      -0.676  -0.669   1.230  0.00  0.00    -0.004 A 
ENDROOT
TORSDOF 0
ENDMDL
