MODEL 1
REMARK minimizedAffinity -2.69386411
REMARK minimizedRMSD -1
REMARK  0 active torsions:
REMARK  status: ('A' for Active; 'I' for Inactive)
ROOT
ATOM      1  C   UNL d   1       0.020   1.192   0.298  0.00  0.00     0.172 C 
ATOM      2  N   UNL d   1      -0.203  -0.228   0.439  0.00  0.00    -0.070 N 
ATOM      3  C1  UNL d   1      -0.296  -1.128  -0.588  0.00  0.00    -0.004 A 
ATOM      4  C2  UNL d   1      -0.510  -2.374  -0.040  0.00  0.00    -0.047 A 
ATOM      5  C3  UNL d   1      -0.548  -2.217   1.366  0.00  0.00    -0.047 A 
ATOM      6  C4  UNL d   1      -0.355  -0.879   1.635  0.00  0.00    -0.004 A 
ENDROOT
TORSDOF 0
ENDMDL
