MODEL 1
REMARK minimizedAffinity -2.15614295
REMARK minimizedRMSD -1
REMARK  0 active torsions:
REMARK  status: ('A' for Active; 'I' for Inactive)
ROOT
ATOM      1  C   UNL d   1       0.743   2.294   0.333  0.00  0.00     0.172 C 
ATOM      2  N   UNL d   1       0.158   1.072   0.832  0.00  0.00    -0.070 N 
ATOM      3  C1  UNL d   1       0.315   0.569   2.096  0.00  0.00    -0.004 A 
ATOM      4  C2  UNL d   1      -0.399  -0.607   2.175  0.00  0.00    -0.047 A 
ATOM      5  C3  UNL d   1      -1.006  -0.819   0.914  0.00  0.00    -0.047 A 
ATOM      6  C4  UNL d   1      -0.645   0.235   0.102  0.00  0.00    -0.004 A 
ENDROOT
TORSDOF 0
ENDMDL
