MODEL 1
REMARK minimizedAffinity -3.62978983
REMARK minimizedRMSD -1
REMARK  1 active torsions:
REMARK  status: ('A' for Active; 'I' for Inactive)
REMARK    1  A    between atoms: C1_2  and  C2_3 
ROOT
ATOM      1  C2  UNL d   1      -2.346   3.696  -2.177  0.00  0.00    -0.077 A 
ATOM      2  C3  UNL d   1      -1.038   3.205  -2.291  0.00  0.00     0.002 A 
ATOM      3  C4  UNL d   1      -0.249   3.028  -1.153  0.00  0.00     0.002 A 
ATOM      4  C5  UNL d   1      -0.760   3.335   0.106  0.00  0.00    -0.004 A 
ATOM      5  C6  UNL d   1      -2.060   3.825   0.230  0.00  0.00     0.002 A 
ATOM      6  C7  UNL d   1      -2.849   4.004  -0.907  0.00  0.00     0.002 A 
ENDROOT
BRANCH   1   7
ATOM      7  C1  UNL d   1      -3.216   3.841  -3.399  0.00  0.00     0.055 C 
ATOM      8  C   UNL d   1      -3.752   5.259  -3.531  0.00  0.00     0.019 C 
ENDBRANCH   1   7
TORSDOF 1
ENDMDL
