MODEL 1
REMARK minimizedAffinity 4.27714729
REMARK minimizedRMSD -1
REMARK  1 active torsions:
REMARK  status: ('A' for Active; 'I' for Inactive)
REMARK    1  A    between atoms: C1_2  and  C2_3 
ROOT
ATOM      1  C2  UNL d   1      -2.071   2.403  -2.295  0.00  0.00    -0.077 A 
ATOM      2  C3  UNL d   1      -2.179   3.699  -2.820  0.00  0.00     0.002 A 
ATOM      3  C4  UNL d   1      -3.388   4.393  -2.746  0.00  0.00     0.002 A 
ATOM      4  C5  UNL d   1      -4.497   3.801  -2.146  0.00  0.00    -0.004 A 
ATOM      5  C6  UNL d   1      -4.401   2.512  -1.623  0.00  0.00     0.002 A 
ATOM      6  C7  UNL d   1      -3.194   1.817  -1.697  0.00  0.00     0.002 A 
ENDROOT
BRANCH   1   7
ATOM      7  C1  UNL d   1      -0.755   1.672  -2.330  0.00  0.00     0.055 C 
ATOM      8  C   UNL d   1      -0.457   1.134  -3.722  0.00  0.00     0.019 C 
ENDBRANCH   1   7
TORSDOF 1
ENDMDL
