MODEL 1
REMARK minimizedAffinity 3.85450268
REMARK minimizedRMSD -1
REMARK  1 active torsions:
REMARK  status: ('A' for Active; 'I' for Inactive)
REMARK    1  A    between atoms: C1_2  and  C2_3 
ROOT
ATOM      1  C2  UNL d   1      -2.185   3.836   1.163  0.00  0.00    -0.077 A 
ATOM      2  C3  UNL d   1      -1.421   3.181   0.188  0.00  0.00     0.002 A 
ATOM      3  C4  UNL d   1      -0.777   1.979   0.486  0.00  0.00     0.002 A 
ATOM      4  C5  UNL d   1      -0.894   1.419   1.756  0.00  0.00    -0.004 A 
ATOM      5  C6  UNL d   1      -1.650   2.064   2.734  0.00  0.00     0.002 A 
ATOM      6  C7  UNL d   1      -2.294   3.267   2.439  0.00  0.00     0.002 A 
ENDROOT
BRANCH   1   7
ATOM      7  C1  UNL d   1      -2.921   5.108   0.830  0.00  0.00     0.055 C 
ATOM      8  C   UNL d   1      -3.673   5.645   2.038  0.00  0.00     0.019 C 
ENDBRANCH   1   7
TORSDOF 1
ENDMDL
