MODEL 1
REMARK minimizedAffinity 1.49157
REMARK minimizedRMSD -1
REMARK  1 active torsions:
REMARK  status: ('A' for Active; 'I' for Inactive)
REMARK    1  A    between atoms: C1_2  and  C2_3 
ROOT
ATOM      1  C2  UNL d   1       4.079  -3.694  -1.412  0.00  0.00    -0.077 A 
ATOM      2  C3  UNL d   1       5.112  -4.314  -0.696  0.00  0.00     0.002 A 
ATOM      3  C4  UNL d   1       5.917  -5.277  -1.307  0.00  0.00     0.002 A 
ATOM      4  C5  UNL d   1       5.700  -5.624  -2.639  0.00  0.00    -0.004 A 
ATOM      5  C6  UNL d   1       4.674  -5.014  -3.360  0.00  0.00     0.002 A 
ATOM      6  C7  UNL d   1       3.868  -4.053  -2.750  0.00  0.00     0.002 A 
ENDROOT
BRANCH   1   7
ATOM      7  C1  UNL d   1       3.241  -2.620  -0.769  0.00  0.00     0.055 C 
ATOM      8  C   UNL d   1       3.656  -1.235  -1.244  0.00  0.00     0.019 C 
ENDBRANCH   1   7
TORSDOF 1
ENDMDL
