MODEL 1
REMARK minimizedAffinity 7.30323935
REMARK minimizedRMSD -1
REMARK  1 active torsions:
REMARK  status: ('A' for Active; 'I' for Inactive)
REMARK    1  A    between atoms: C1_2  and  C2_3 
ROOT
ATOM      1  C2  UNL d   1       0.566   0.702   1.821  0.00  0.00    -0.077 A 
ATOM      2  C3  UNL d   1      -0.203   1.112   0.723  0.00  0.00     0.002 A 
ATOM      3  C4  UNL d   1       0.141   0.712  -0.570  0.00  0.00     0.002 A 
ATOM      4  C5  UNL d   1       1.253  -0.102  -0.776  0.00  0.00    -0.004 A 
ATOM      5  C6  UNL d   1       2.025  -0.514   0.310  0.00  0.00     0.002 A 
ATOM      6  C7  UNL d   1       1.683  -0.114   1.602  0.00  0.00     0.002 A 
ENDROOT
BRANCH   1   7
ATOM      7  C1  UNL d   1       0.167   1.092   3.220  0.00  0.00     0.055 C 
ATOM      8  C   UNL d   1       0.498  -0.009   4.217  0.00  0.00     0.019 C 
ENDBRANCH   1   7
TORSDOF 1
ENDMDL
