MODEL 1
REMARK minimizedAffinity -1.01662397
REMARK minimizedRMSD -1
REMARK  2 active torsions:
REMARK  status: ('A' for Active; 'I' for Inactive)
REMARK    1  A    between atoms: C1_2  and  C2_3 
REMARK    2  A    between atoms: C2_3  and  C3_4 
ROOT
ATOM      1  C3  UNL d   1       0.808  -1.286   3.823  0.00  0.00    -0.075 A 
ATOM      2  C4  UNL d   1       1.686  -1.210   2.731  0.00  0.00     0.002 A 
ATOM      3  C5  UNL d   1       1.293  -0.583   1.549  0.00  0.00     0.002 A 
ATOM      4  C6  UNL d   1       0.017  -0.035   1.438  0.00  0.00    -0.004 A 
ATOM      5  C7  UNL d   1      -0.869  -0.120   2.510  0.00  0.00     0.002 A 
ATOM      6  C8  UNL d   1      -0.477  -0.742   3.696  0.00  0.00     0.002 A 
ENDROOT
BRANCH   1   7
ATOM      7  C2  UNL d   1       1.238  -1.937   5.116  0.00  0.00     0.056 C 
BRANCH   7   8
ATOM      8  C1  UNL d   1       2.702  -2.390   5.130  0.00  0.00     0.007 C 
ATOM      9  C   UNL d   1       3.593  -1.513   5.999  0.00  0.00     0.009 C 
ENDBRANCH   7   8
ENDBRANCH   1   7
TORSDOF 2
ENDMDL
