MODEL 1
REMARK minimizedAffinity 0.537744164
REMARK minimizedRMSD -1
REMARK  2 active torsions:
REMARK  status: ('A' for Active; 'I' for Inactive)
REMARK    1  A    between atoms: C1_2  and  C2_3 
REMARK    2  A    between atoms: C2_3  and  C3_4 
ROOT
ATOM      1  C3  UNL d   1       1.416  -2.189   4.138  0.00  0.00    -0.075 A 
ATOM      2  C4  UNL d   1       0.072  -2.587   4.117  0.00  0.00     0.002 A 
ATOM      3  C5  UNL d   1      -0.855  -1.909   3.324  0.00  0.00     0.002 A 
ATOM      4  C6  UNL d   1      -0.453  -0.822   2.552  0.00  0.00    -0.004 A 
ATOM      5  C7  UNL d   1       0.877  -0.407   2.578  0.00  0.00     0.002 A 
ATOM      6  C8  UNL d   1       1.808  -1.086   3.367  0.00  0.00     0.002 A 
ENDROOT
BRANCH   1   7
ATOM      7  C2  UNL d   1       2.430  -2.936   4.971  0.00  0.00     0.056 C 
BRANCH   7   8
ATOM      8  C1  UNL d   1       3.780  -2.222   5.100  0.00  0.00     0.007 C 
ATOM      9  C   UNL d   1       3.726  -0.994   6.000  0.00  0.00     0.009 C 
ENDBRANCH   7   8
ENDBRANCH   1   7
TORSDOF 2
ENDMDL
