MODEL 1
REMARK minimizedAffinity -0.108557619
REMARK minimizedRMSD -1
REMARK  2 active torsions:
REMARK  status: ('A' for Active; 'I' for Inactive)
REMARK    1  A    between atoms: C1_2  and  C2_3 
REMARK    2  A    between atoms: C2_3  and  C3_4 
ROOT
ATOM      1  C3  UNL d   1      -0.528  -0.250   1.906  0.00  0.00    -0.075 A 
ATOM      2  C4  UNL d   1       0.773   0.134   1.550  0.00  0.00     0.002 A 
ATOM      3  C5  UNL d   1       1.871  -0.327   2.275  0.00  0.00     0.002 A 
ATOM      4  C6  UNL d   1       1.684  -1.168   3.370  0.00  0.00    -0.004 A 
ATOM      5  C7  UNL d   1       0.395  -1.543   3.743  0.00  0.00     0.002 A 
ATOM      6  C8  UNL d   1      -0.706  -1.087   3.016  0.00  0.00     0.002 A 
ENDROOT
BRANCH   1   7
ATOM      7  C2  UNL d   1      -1.719   0.222   1.107  0.00  0.00     0.056 C 
BRANCH   7   8
ATOM      8  C1  UNL d   1      -1.480   0.258  -0.406  0.00  0.00     0.007 C 
ATOM      9  C   UNL d   1      -2.018  -0.971  -1.128  0.00  0.00     0.009 C 
ENDBRANCH   7   8
ENDBRANCH   1   7
TORSDOF 2
ENDMDL
