MODEL 1
REMARK minimizedAffinity -0.375825018
REMARK minimizedRMSD -1
REMARK  2 active torsions:
REMARK  status: ('A' for Active; 'I' for Inactive)
REMARK    1  A    between atoms: C1_2  and  C2_3 
REMARK    2  A    between atoms: C2_3  and  C3_4 
ROOT
ATOM      1  C3  UNL d   1       0.324  -0.855   2.822  0.00  0.00    -0.075 A 
ATOM      2  C4  UNL d   1       0.909   0.256   2.196  0.00  0.00     0.002 A 
ATOM      3  C5  UNL d   1       0.139   1.111   1.407  0.00  0.00     0.002 A 
ATOM      4  C6  UNL d   1      -1.219   0.862   1.225  0.00  0.00    -0.004 A 
ATOM      5  C7  UNL d   1      -1.807  -0.248   1.828  0.00  0.00     0.002 A 
ATOM      6  C8  UNL d   1      -1.040  -1.103   2.622  0.00  0.00     0.002 A 
ENDROOT
BRANCH   1   7
ATOM      7  C2  UNL d   1       1.146  -1.767   3.701  0.00  0.00     0.056 C 
BRANCH   7   8
ATOM      8  C1  UNL d   1       2.103  -1.030   4.643  0.00  0.00     0.007 C 
ATOM      9  C   UNL d   1       1.486  -0.716   6.000  0.00  0.00     0.009 C 
ENDBRANCH   7   8
ENDBRANCH   1   7
TORSDOF 2
ENDMDL
