MODEL 1
REMARK minimizedAffinity 5.43961716
REMARK minimizedRMSD -1
REMARK  2 active torsions:
REMARK  status: ('A' for Active; 'I' for Inactive)
REMARK    1  A    between atoms: C1_2  and  C2_3 
REMARK    2  A    between atoms: C2_3  and  C3_4 
ROOT
ATOM      1  C3  UNL d   1      -1.188   0.143   1.285  0.00  0.00    -0.075 A 
ATOM      2  C4  UNL d   1       0.185   0.152   1.570  0.00  0.00     0.002 A 
ATOM      3  C5  UNL d   1       0.709  -0.681   2.558  0.00  0.00     0.002 A 
ATOM      4  C6  UNL d   1      -0.132  -1.525   3.280  0.00  0.00    -0.004 A 
ATOM      5  C7  UNL d   1      -1.500  -1.530   3.017  0.00  0.00     0.002 A 
ATOM      6  C8  UNL d   1      -2.027  -0.700   2.025  0.00  0.00     0.002 A 
ENDROOT
BRANCH   1   7
ATOM      7  C2  UNL d   1      -1.757   1.021   0.196  0.00  0.00     0.056 C 
BRANCH   7   8
ATOM      8  C1  UNL d   1      -2.235   0.251  -1.040  0.00  0.00     0.007 C 
ATOM      9  C   UNL d   1      -1.997   1.001  -2.344  0.00  0.00     0.009 C 
ENDBRANCH   7   8
ENDBRANCH   1   7
TORSDOF 2
ENDMDL
