MODEL 1
REMARK minimizedAffinity 1.78426695
REMARK minimizedRMSD -1
REMARK  2 active torsions:
REMARK  status: ('A' for Active; 'I' for Inactive)
REMARK    1  A    between atoms: C1_2  and  C2_3 
REMARK    2  A    between atoms: C2_3  and  C3_4 
ROOT
ATOM      1  C3  UNL d   1      -2.275   0.851  -4.412  0.00  0.00    -0.075 A 
ATOM      2  C4  UNL d   1      -2.677   0.400  -3.147  0.00  0.00     0.002 A 
ATOM      3  C5  UNL d   1      -3.946  -0.148  -2.960  0.00  0.00     0.002 A 
ATOM      4  C6  UNL d   1      -4.832  -0.242  -4.031  0.00  0.00    -0.004 A 
ATOM      5  C7  UNL d   1      -4.450   0.218  -5.289  0.00  0.00     0.002 A 
ATOM      6  C8  UNL d   1      -3.179   0.763  -5.480  0.00  0.00     0.002 A 
ENDROOT
BRANCH   1   7
ATOM      7  C2  UNL d   1      -0.893   1.419  -4.627  0.00  0.00     0.056 C 
BRANCH   7   8
ATOM      8  C1  UNL d   1       0.124   0.401  -5.155  0.00  0.00     0.007 C 
ATOM      9  C   UNL d   1      -0.470  -0.985  -5.370  0.00  0.00     0.009 C 
ENDBRANCH   7   8
ENDBRANCH   1   7
TORSDOF 2
ENDMDL
