MODEL 1
REMARK minimizedAffinity -1.81280529
REMARK minimizedRMSD -1
REMARK  1 active torsions:
REMARK  status: ('A' for Active; 'I' for Inactive)
REMARK    1  A    between atoms: C1_2  and  C2_3 
ROOT
ATOM      1  C2  UNL d   1       0.934   0.307  -0.228  0.00  0.00    -0.081 A 
ATOM      2  C3  UNL d   1       0.860  -0.076  -1.572  0.00  0.00     0.006 A 
ATOM      3  C4  UNL d   1      -0.282  -0.711  -2.066  0.00  0.00     0.002 A 
ATOM      4  C5  UNL d   1      -1.371  -0.967  -1.225  0.00  0.00    -0.080 A 
ATOM      5  C6  UNL d   1      -2.615  -1.621  -1.750  0.00  0.00     0.076 C 
ATOM      6  C7  UNL d   1      -1.290  -0.601   0.122  0.00  0.00     0.002 A 
ATOM      7  C8  UNL d   1      -0.148   0.034   0.616  0.00  0.00     0.006 A 
ENDROOT
BRANCH   1   8
ATOM      8  C1  UNL d   1       2.138   1.050   0.292  0.00  0.00     0.054 C 
ATOM      9  C   UNL d   1       2.117   2.509  -0.140  0.00  0.00     0.018 C 
ENDBRANCH   1   8
TORSDOF 1
ENDMDL
