MODEL 1
REMARK minimizedAffinity -3.75735736
REMARK minimizedRMSD -1
REMARK  1 active torsions:
REMARK  status: ('A' for Active; 'I' for Inactive)
REMARK    1  A    between atoms: C1_2  and  C2_3 
ROOT
ATOM      1  C2  UNL d   1       2.046   0.556   0.791  0.00  0.00    -0.081 A 
ATOM      2  C3  UNL d   1       2.017   1.736   1.545  0.00  0.00     0.006 A 
ATOM      3  C4  UNL d   1       2.683   2.879   1.097  0.00  0.00     0.002 A 
ATOM      4  C5  UNL d   1       3.382   2.865  -0.114  0.00  0.00    -0.080 A 
ATOM      5  C6  UNL d   1       4.077   4.094  -0.621  0.00  0.00     0.076 C 
ATOM      6  C7  UNL d   1       3.426   1.681  -0.859  0.00  0.00     0.002 A 
ATOM      7  C8  UNL d   1       2.760   0.538  -0.412  0.00  0.00     0.006 A 
ENDROOT
BRANCH   1   8
ATOM      8  C1  UNL d   1       1.274  -0.659   1.238  0.00  0.00     0.054 C 
ATOM      9  C   UNL d   1      -0.200  -0.541   0.880  0.00  0.00     0.018 C 
ENDBRANCH   1   8
TORSDOF 1
ENDMDL
