MODEL 1
REMARK minimizedAffinity -5.45541143
REMARK minimizedRMSD -1
REMARK  1 active torsions:
REMARK  status: ('A' for Active; 'I' for Inactive)
REMARK    1  A    between atoms: C1_2  and  C2_3 
ROOT
ATOM      1  C2  UNL d   1       2.746   0.049  -1.303  0.00  0.00    -0.081 A 
ATOM      2  C3  UNL d   1       3.597   1.160  -1.355  0.00  0.00     0.006 A 
ATOM      3  C4  UNL d   1       3.643   2.068  -0.294  0.00  0.00     0.002 A 
ATOM      4  C5  UNL d   1       2.845   1.876   0.839  0.00  0.00    -0.080 A 
ATOM      5  C6  UNL d   1       2.906   2.826   1.998  0.00  0.00     0.076 C 
ATOM      6  C7  UNL d   1       1.982   0.776   0.884  0.00  0.00     0.002 A 
ATOM      7  C8  UNL d   1       1.935  -0.132  -0.177  0.00  0.00     0.006 A 
ENDROOT
BRANCH   1   8
ATOM      8  C1  UNL d   1       2.742  -0.966  -2.417  0.00  0.00     0.054 C 
ATOM      9  C   UNL d   1       2.215  -0.365  -3.712  0.00  0.00     0.018 C 
ENDBRANCH   1   8
TORSDOF 1
ENDMDL
