MODEL 1
REMARK minimizedAffinity -4.36654663
REMARK minimizedRMSD -1
REMARK  1 active torsions:
REMARK  status: ('A' for Active; 'I' for Inactive)
REMARK    1  A    between atoms: C1_2  and  C2_3 
ROOT
ATOM      1  C2  UNL d   1       0.791  -0.141  -1.503  0.00  0.00    -0.081 A 
ATOM      2  C3  UNL d   1       0.761  -0.221  -0.105  0.00  0.00     0.006 A 
ATOM      3  C4  UNL d   1      -0.458  -0.273   0.576  0.00  0.00     0.002 A 
ATOM      4  C5  UNL d   1      -1.666  -0.254  -0.129  0.00  0.00    -0.080 A 
ATOM      5  C6  UNL d   1      -2.980  -0.340   0.587  0.00  0.00     0.076 C 
ATOM      6  C7  UNL d   1      -1.636  -0.156  -1.525  0.00  0.00     0.002 A 
ATOM      7  C8  UNL d   1      -0.418  -0.103  -2.206  0.00  0.00     0.006 A 
ENDROOT
BRANCH   1   8
ATOM      8  C1  UNL d   1       2.104  -0.150  -2.243  0.00  0.00     0.054 C 
ATOM      9  C   UNL d   1       1.938  -0.689  -3.657  0.00  0.00     0.018 C 
ENDBRANCH   1   8
TORSDOF 1
ENDMDL
