MODEL 1
REMARK minimizedAffinity -3.70709944
REMARK minimizedRMSD -1
REMARK  1 active torsions:
REMARK  status: ('A' for Active; 'I' for Inactive)
REMARK    1  A    between atoms: C1_2  and  C2_3 
ROOT
ATOM      1  C2  UNL d   1       2.741   0.273  -1.349  0.00  0.00    -0.081 A 
ATOM      2  C3  UNL d   1       3.572   1.367  -1.623  0.00  0.00     0.006 A 
ATOM      3  C4  UNL d   1       3.625   2.453  -0.746  0.00  0.00     0.002 A 
ATOM      4  C5  UNL d   1       2.856   2.460   0.423  0.00  0.00    -0.080 A 
ATOM      5  C6  UNL d   1       2.927   3.605   1.388  0.00  0.00     0.076 C 
ATOM      6  C7  UNL d   1       2.013   1.375   0.688  0.00  0.00     0.002 A 
ATOM      7  C8  UNL d   1       1.958   0.290  -0.190  0.00  0.00     0.006 A 
ENDROOT
BRANCH   1   8
ATOM      8  C1  UNL d   1       2.730  -0.928  -2.260  0.00  0.00     0.054 C 
ATOM      9  C   UNL d   1       2.273  -0.554  -3.663  0.00  0.00     0.018 C 
ENDBRANCH   1   8
TORSDOF 1
ENDMDL
