MODEL 1
REMARK minimizedAffinity -2.96623755
REMARK minimizedRMSD -1
REMARK  1 active torsions:
REMARK  status: ('A' for Active; 'I' for Inactive)
REMARK    1  A    between atoms: C1_2  and  C2_3 
ROOT
ATOM      1  C2  UNL d   1       1.523   0.203   0.769  0.00  0.00    -0.081 A 
ATOM      2  C3  UNL d   1       1.798   1.291   1.606  0.00  0.00     0.006 A 
ATOM      3  C4  UNL d   1       2.448   2.422   1.107  0.00  0.00     0.002 A 
ATOM      4  C5  UNL d   1       2.827   2.487  -0.238  0.00  0.00    -0.080 A 
ATOM      5  C6  UNL d   1       3.498   3.708  -0.794  0.00  0.00     0.076 C 
ATOM      6  C7  UNL d   1       2.568   1.393  -1.071  0.00  0.00     0.002 A 
ATOM      7  C8  UNL d   1       1.919   0.261  -0.572  0.00  0.00     0.006 A 
ENDROOT
BRANCH   1   8
ATOM      8  C1  UNL d   1       0.765  -0.992   1.289  0.00  0.00     0.054 C 
ATOM      9  C   UNL d   1      -0.721  -0.884   0.974  0.00  0.00     0.018 C 
ENDBRANCH   1   8
TORSDOF 1
ENDMDL
