MODEL 1
REMARK minimizedAffinity -5.4838748
REMARK minimizedRMSD -1
REMARK  1 active torsions:
REMARK  status: ('A' for Active; 'I' for Inactive)
REMARK    1  A    between atoms: C1_2  and  C2_3 
ROOT
ATOM      1  C2  UNL d   1       1.405  -0.233  -1.404  0.00  0.00    -0.081 A 
ATOM      2  C3  UNL d   1       1.507  -0.424  -0.021  0.00  0.00     0.006 A 
ATOM      3  C4  UNL d   1       0.362  -0.424   0.780  0.00  0.00     0.002 A 
ATOM      4  C5  UNL d   1      -0.903  -0.241   0.211  0.00  0.00    -0.080 A 
ATOM      5  C6  UNL d   1      -2.142  -0.269   1.056  0.00  0.00     0.076 C 
ATOM      6  C7  UNL d   1      -1.003  -0.033  -1.169  0.00  0.00     0.002 A 
ATOM      7  C8  UNL d   1       0.141  -0.032  -1.970  0.00  0.00     0.006 A 
ENDROOT
BRANCH   1   8
ATOM      8  C1  UNL d   1       2.631  -0.297  -2.279  0.00  0.00     0.054 C 
ATOM      9  C   UNL d   1       2.285  -0.773  -3.682  0.00  0.00     0.018 C 
ENDBRANCH   1   8
TORSDOF 1
ENDMDL
