MODEL 1
REMARK minimizedAffinity 0.247163296
REMARK minimizedRMSD -1
REMARK  1 active torsions:
REMARK  status: ('A' for Active; 'I' for Inactive)
REMARK    1  A    between atoms: C1_2  and  C2_3 
ROOT
ATOM      1  C2  UNL d   1      -1.656  -0.934  -1.343  0.00  0.00    -0.081 A 
ATOM      2  C3  UNL d   1      -0.455  -0.426  -1.851  0.00  0.00     0.006 A 
ATOM      3  C4  UNL d   1       0.504   0.118  -0.993  0.00  0.00     0.002 A 
ATOM      4  C5  UNL d   1       0.280   0.156   0.387  0.00  0.00    -0.080 A 
ATOM      5  C6  UNL d   1       1.314   0.710   1.323  0.00  0.00     0.076 C 
ATOM      6  C7  UNL d   1      -0.928  -0.336   0.894  0.00  0.00     0.002 A 
ATOM      7  C8  UNL d   1      -1.887  -0.879   0.036  0.00  0.00     0.006 A 
ENDROOT
BRANCH   1   8
ATOM      8  C1  UNL d   1      -2.664  -1.581  -2.259  0.00  0.00     0.054 C 
ATOM      9  C   UNL d   1      -2.077  -2.801  -2.954  0.00  0.00     0.018 C 
ENDBRANCH   1   8
TORSDOF 1
ENDMDL
