MODEL 1
REMARK minimizedAffinity -0.608120024
REMARK minimizedRMSD -1
REMARK  1 active torsions:
REMARK  status: ('A' for Active; 'I' for Inactive)
REMARK    1  A    between atoms: C1_2  and  C2_3 
ROOT
ATOM      1  C2  UNL d   1       1.113  -0.143   1.473  0.00  0.00    -0.081 A 
ATOM      2  C3  UNL d   1       1.590   0.669   2.509  0.00  0.00     0.006 A 
ATOM      3  C4  UNL d   1       2.324   1.823   2.225  0.00  0.00     0.002 A 
ATOM      4  C5  UNL d   1       2.585   2.189   0.900  0.00  0.00    -0.080 A 
ATOM      5  C6  UNL d   1       3.345   3.442   0.580  0.00  0.00     0.076 C 
ATOM      6  C7  UNL d   1       2.124   1.369  -0.135  0.00  0.00     0.002 A 
ATOM      7  C8  UNL d   1       1.391   0.215   0.149  0.00  0.00     0.006 A 
ENDROOT
BRANCH   1   8
ATOM      8  C1  UNL d   1       0.267  -1.353   1.774  0.00  0.00     0.054 C 
ATOM      9  C   UNL d   1      -1.214  -1.048   1.606  0.00  0.00     0.018 C 
ENDBRANCH   1   8
TORSDOF 1
ENDMDL
