MODEL 1
REMARK minimizedAffinity -5.21772385
REMARK minimizedRMSD -1
REMARK  1 active torsions:
REMARK  status: ('A' for Active; 'I' for Inactive)
REMARK    1  A    between atoms: C1_2  and  C2_3 
ROOT
ATOM      1  C2  UNL d   1       2.348   2.181   0.208  0.00  0.00    -0.081 A 
ATOM      2  C3  UNL d   1       1.642   0.973   0.282  0.00  0.00     0.006 A 
ATOM      3  C4  UNL d   1       1.799   0.000  -0.708  0.00  0.00     0.002 A 
ATOM      4  C5  UNL d   1       2.668   0.215  -1.783  0.00  0.00    -0.080 A 
ATOM      5  C6  UNL d   1       2.868  -0.834  -2.836  0.00  0.00     0.076 C 
ATOM      6  C7  UNL d   1       3.360   1.428  -1.866  0.00  0.00     0.002 A 
ATOM      7  C8  UNL d   1       3.203   2.401  -0.877  0.00  0.00     0.006 A 
ENDROOT
BRANCH   1   8
ATOM      8  C1  UNL d   1       2.231   3.205   1.308  0.00  0.00     0.054 C 
ATOM      9  C   UNL d   1       1.851   2.555   2.631  0.00  0.00     0.018 C 
ENDBRANCH   1   8
TORSDOF 1
ENDMDL
