MODEL 1
REMARK minimizedAffinity -5.35891199
REMARK minimizedRMSD -1
REMARK  1 active torsions:
REMARK  status: ('A' for Active; 'I' for Inactive)
REMARK    1  A    between atoms: C1_2  and  C2_3 
ROOT
ATOM      1  C2  UNL d   1      -1.012  -0.081  -0.300  0.00  0.00    -0.081 A 
ATOM      2  C3  UNL d   1      -0.792  -0.231  -1.675  0.00  0.00     0.006 A 
ATOM      3  C4  UNL d   1       0.508  -0.253  -2.186  0.00  0.00     0.002 A 
ATOM      4  C5  UNL d   1       1.609  -0.134  -1.331  0.00  0.00    -0.080 A 
ATOM      5  C6  UNL d   1       3.010  -0.187  -1.863  0.00  0.00     0.076 C 
ATOM      6  C7  UNL d   1       1.389   0.032   0.041  0.00  0.00     0.002 A 
ATOM      7  C8  UNL d   1       0.090   0.055   0.552  0.00  0.00     0.006 A 
ENDROOT
BRANCH   1   8
ATOM      8  C1  UNL d   1      -2.410  -0.122   0.262  0.00  0.00     0.054 C 
ATOM      9  C   UNL d   1      -3.073  -1.467  -0.001  0.00  0.00     0.018 C 
ENDBRANCH   1   8
TORSDOF 1
ENDMDL
