MODEL 1
REMARK minimizedAffinity -0.23046191
REMARK minimizedRMSD -1
REMARK  1 active torsions:
REMARK  status: ('A' for Active; 'I' for Inactive)
REMARK    1  A    between atoms: C1_2  and  C2_3 
ROOT
ATOM      1  C2  UNL d   1       1.872  -0.480  -3.578  0.00  0.00    -0.081 A 
ATOM      2  C3  UNL d   1       2.932  -0.534  -2.666  0.00  0.00     0.006 A 
ATOM      3  C4  UNL d   1       2.713  -0.282  -1.309  0.00  0.00     0.002 A 
ATOM      4  C5  UNL d   1       1.430   0.020  -0.842  0.00  0.00    -0.080 A 
ATOM      5  C6  UNL d   1       1.175   0.262   0.616  0.00  0.00     0.076 C 
ATOM      6  C7  UNL d   1       0.373   0.091  -1.756  0.00  0.00     0.002 A 
ATOM      7  C8  UNL d   1       0.592  -0.160  -3.113  0.00  0.00     0.006 A 
ENDROOT
BRANCH   1   8
ATOM      8  C1  UNL d   1       2.093  -0.814  -5.031  0.00  0.00     0.054 C 
ATOM      9  C   UNL d   1       1.717   0.354  -5.932  0.00  0.00     0.018 C 
ENDBRANCH   1   8
TORSDOF 1
ENDMDL
