MODEL 1
REMARK minimizedAffinity -0.930455148
REMARK minimizedRMSD -1
REMARK  1 active torsions:
REMARK  status: ('A' for Active; 'I' for Inactive)
REMARK    1  A    between atoms: C1_2  and  C2_3 
ROOT
ATOM      1  C2  UNL d   1       3.002   2.871   1.327  0.00  0.00    -0.081 A 
ATOM      2  C3  UNL d   1       3.205   4.234   1.083  0.00  0.00     0.006 A 
ATOM      3  C4  UNL d   1       3.838   4.657  -0.089  0.00  0.00     0.002 A 
ATOM      4  C5  UNL d   1       4.271   3.725  -1.038  0.00  0.00    -0.080 A 
ATOM      5  C6  UNL d   1       4.925   4.168  -2.313  0.00  0.00     0.076 C 
ATOM      6  C7  UNL d   1       4.085   2.362  -0.785  0.00  0.00     0.002 A 
ATOM      7  C8  UNL d   1       3.453   1.939   0.386  0.00  0.00     0.006 A 
ENDROOT
BRANCH   1   8
ATOM      8  C1  UNL d   1       2.263   2.415   2.559  0.00  0.00     0.054 C 
ATOM      9  C   UNL d   1       3.057   1.367   3.325  0.00  0.00     0.018 C 
ENDBRANCH   1   8
TORSDOF 1
ENDMDL
