MODEL 1
REMARK minimizedAffinity -3.99003911
REMARK minimizedRMSD -1
REMARK  0 active torsions:
REMARK  status: ('A' for Active; 'I' for Inactive)
ROOT
ATOM      1  C4' PXY d   1      -0.261  -2.534  -1.076  0.00  0.00     0.077 C 
ATOM      2  C1' PXY d   1      -0.358   2.927   0.815  0.00  0.00     0.077 C 
ATOM      3  C1  PXY d   1      -0.320   1.496   0.317  0.00  0.00    -0.082 A 
ATOM      4  C2  PXY d   1      -1.429   0.928  -0.128  0.00  0.00     0.003 A 
ATOM      5  C3  PXY d   1      -1.419  -0.375  -0.553  0.00  0.00     0.003 A 
ATOM      6  C4  PXY d   1      -0.251  -1.089  -0.572  0.00  0.00    -0.082 A 
ATOM      7  C5  PXY d   1       0.888  -0.513  -0.130  0.00  0.00     0.003 A 
ATOM      8  C6  PXY d   1       0.848   0.798   0.336  0.00  0.00     0.003 A 
ENDROOT
TORSDOF 0
ENDMDL
