MODEL 1
REMARK minimizedAffinity -3.53682804
REMARK minimizedRMSD -1
REMARK  0 active torsions:
REMARK  status: ('A' for Active; 'I' for Inactive)
ROOT
ATOM      1  C4' PXY d   1      -0.773   2.654   1.777  0.00  0.00     0.077 C 
ATOM      2  C1' PXY d   1      -0.367  -1.977  -1.658  0.00  0.00     0.077 C 
ATOM      3  C1  PXY d   1      -0.462  -0.758  -0.762  0.00  0.00    -0.082 A 
ATOM      4  C2  PXY d   1      -1.189  -0.813   0.342  0.00  0.00     0.003 A 
ATOM      5  C3  PXY d   1      -1.312   0.290   1.147  0.00  0.00     0.003 A 
ATOM      6  C4  PXY d   1      -0.641   1.445   0.847  0.00  0.00    -0.082 A 
ATOM      7  C5  PXY d   1       0.112   1.506  -0.272  0.00  0.00     0.003 A 
ATOM      8  C6  PXY d   1       0.190   0.388  -1.097  0.00  0.00     0.003 A 
ENDROOT
TORSDOF 0
ENDMDL
