MODEL 1
REMARK minimizedAffinity -3.43926668
REMARK minimizedRMSD -1
REMARK  0 active torsions:
REMARK  status: ('A' for Active; 'I' for Inactive)
ROOT
ATOM      1  C4' PXY d   1      -1.133   3.958   3.376  0.00  0.00     0.077 C 
ATOM      2  C1' PXY d   1      -0.612   0.264  -1.039  0.00  0.00     0.077 C 
ATOM      3  C1  PXY d   1      -0.737   1.238   0.116  0.00  0.00    -0.082 A 
ATOM      4  C2  PXY d   1      -1.536   0.950   1.131  0.00  0.00     0.003 A 
ATOM      5  C3  PXY d   1      -1.686   1.834   2.168  0.00  0.00     0.003 A 
ATOM      6  C4  PXY d   1      -0.969   3.000   2.193  0.00  0.00    -0.082 A 
ATOM      7  C5  PXY d   1      -0.144   3.297   1.167  0.00  0.00     0.003 A 
ATOM      8  C6  PXY d   1      -0.038   2.405   0.103  0.00  0.00     0.003 A 
ENDROOT
TORSDOF 0
ENDMDL
