MODEL 1
REMARK minimizedAffinity -0.619727075
REMARK minimizedRMSD -1
REMARK  0 active torsions:
REMARK  status: ('A' for Active; 'I' for Inactive)
ROOT
ATOM      1  C4' PXY d   1      -0.793  -1.404   1.437  0.00  0.00     0.077 C 
ATOM      2  C1' PXY d   1       0.154   4.138   0.094  0.00  0.00     0.077 C 
ATOM      3  C1  PXY d   1      -0.086   2.681   0.437  0.00  0.00    -0.082 A 
ATOM      4  C2  PXY d   1      -1.231   2.320   0.993  0.00  0.00     0.003 A 
ATOM      5  C3  PXY d   1      -1.452   1.012   1.339  0.00  0.00     0.003 A 
ATOM      6  C4  PXY d   1      -0.512   0.055   1.065  0.00  0.00    -0.082 A 
ATOM      7  C5  PXY d   1       0.655   0.414   0.489  0.00  0.00     0.003 A 
ATOM      8  C6  PXY d   1       0.876   1.753   0.183  0.00  0.00     0.003 A 
ENDROOT
TORSDOF 0
ENDMDL
