MODEL 1
REMARK minimizedAffinity -4.42292261
REMARK minimizedRMSD -1
REMARK  0 active torsions:
REMARK  status: ('A' for Active; 'I' for Inactive)
ROOT
ATOM      1  C4' PXY d   1      -0.102  -2.354  -0.016  0.00  0.00     0.077 C 
ATOM      2  C1' PXY d   1       0.379   3.403   0.179  0.00  0.00     0.077 C 
ATOM      3  C1  PXY d   1       0.244   1.893   0.137  0.00  0.00    -0.082 A 
ATOM      4  C2  PXY d   1       1.267   1.156  -0.260  0.00  0.00     0.003 A 
ATOM      5  C3  PXY d   1       1.151  -0.209  -0.335  0.00  0.00     0.003 A 
ATOM      6  C4  PXY d   1      -0.007  -0.828   0.052  0.00  0.00    -0.082 A 
ATOM      7  C5  PXY d   1      -1.052  -0.083   0.469  0.00  0.00     0.003 A 
ATOM      8  C6  PXY d   1      -0.928   1.303   0.498  0.00  0.00     0.003 A 
ENDROOT
TORSDOF 0
ENDMDL
