MODEL 1
REMARK minimizedAffinity -2.47305155
REMARK minimizedRMSD -1
REMARK  0 active torsions:
REMARK  status: ('A' for Active; 'I' for Inactive)
ROOT
ATOM      1  C4' PXY d   1       0.066  -2.107   1.837  0.00  0.00     0.077 C 
ATOM      2  C1' PXY d   1       0.533   2.781  -1.214  0.00  0.00     0.077 C 
ATOM      3  C1  PXY d   1       0.419   1.493  -0.422  0.00  0.00    -0.082 A 
ATOM      4  C2  PXY d   1      -0.665   1.264   0.302  0.00  0.00     0.003 A 
ATOM      5  C3  PXY d   1      -0.770   0.120   1.049  0.00  0.00     0.003 A 
ATOM      6  C4  PXY d   1       0.220  -0.825   1.014  0.00  0.00    -0.082 A 
ATOM      7  C5  PXY d   1       1.324  -0.603   0.269  0.00  0.00     0.003 A 
ATOM      8  C6  PXY d   1       1.430   0.583  -0.450  0.00  0.00     0.003 A 
ENDROOT
TORSDOF 0
ENDMDL
