MODEL 1
REMARK minimizedAffinity -4.17069769
REMARK minimizedRMSD -1
REMARK  0 active torsions:
REMARK  status: ('A' for Active; 'I' for Inactive)
ROOT
ATOM      1  C4' PXY d   1      -0.665  -2.462  -0.579  0.00  0.00     0.077 C 
ATOM      2  C1' PXY d   1       0.729   3.066   0.379  0.00  0.00     0.077 C 
ATOM      3  C1  PXY d   1       0.374   1.613   0.135  0.00  0.00    -0.082 A 
ATOM      4  C2  PXY d   1      -0.375   1.288  -0.907  0.00  0.00     0.003 A 
ATOM      5  C3  PXY d   1      -0.732  -0.017  -1.125  0.00  0.00     0.003 A 
ATOM      6  C4  PXY d   1      -0.274  -1.008  -0.299  0.00  0.00    -0.082 A 
ATOM      7  C5  PXY d   1       0.499  -0.687   0.760  0.00  0.00     0.003 A 
ATOM      8  C6  PXY d   1       0.816   0.649   0.988  0.00  0.00     0.003 A 
ENDROOT
TORSDOF 0
ENDMDL
