MODEL 1
REMARK minimizedAffinity -5.16795397
REMARK minimizedRMSD -1
REMARK  0 active torsions:
REMARK  status: ('A' for Active; 'I' for Inactive)
ROOT
ATOM      1  C4' PXY d   1      -3.295   1.167   1.067  0.00  0.00     0.077 C 
ATOM      2  C1' PXY d   1       2.365   1.501  -0.057  0.00  0.00     0.077 C 
ATOM      3  C1  PXY d   1       0.882   1.424   0.246  0.00  0.00    -0.082 A 
ATOM      4  C2  PXY d   1       0.237   0.282   0.069  0.00  0.00     0.003 A 
ATOM      5  C3  PXY d   1      -1.111   0.203   0.308  0.00  0.00     0.003 A 
ATOM      6  C4  PXY d   1      -1.795   1.289   0.783  0.00  0.00    -0.082 A 
ATOM      7  C5  PXY d   1      -1.142   2.455   0.976  0.00  0.00     0.003 A 
ATOM      8  C6  PXY d   1       0.218   2.526   0.689  0.00  0.00     0.003 A 
ENDROOT
TORSDOF 0
ENDMDL
