MODEL 1
REMARK minimizedAffinity -5.11858845
REMARK minimizedRMSD -1
REMARK  0 active torsions:
REMARK  status: ('A' for Active; 'I' for Inactive)
ROOT
ATOM      1  C4' PXY d   1       0.728   3.421   0.052  0.00  0.00     0.077 C 
ATOM      2  C1' PXY d   1      -0.071  -2.290   0.448  0.00  0.00     0.077 C 
ATOM      3  C1  PXY d   1       0.150  -0.794   0.349  0.00  0.00    -0.082 A 
ATOM      4  C2  PXY d   1      -0.892   0.018   0.272  0.00  0.00     0.003 A 
ATOM      5  C3  PXY d   1      -0.710   1.371   0.150  0.00  0.00     0.003 A 
ATOM      6  C4  PXY d   1       0.552   1.904   0.162  0.00  0.00    -0.082 A 
ATOM      7  C5  PXY d   1       1.620   1.083   0.251  0.00  0.00     0.003 A 
ATOM      8  C6  PXY d   1       1.414  -0.291   0.333  0.00  0.00     0.003 A 
ENDROOT
TORSDOF 0
ENDMDL
