MODEL 1
REMARK minimizedAffinity -4.63972473
REMARK minimizedRMSD -1
REMARK  0 active torsions:
REMARK  status: ('A' for Active; 'I' for Inactive)
ROOT
ATOM      1  C4' PXY d   1      -0.479  -1.515  -0.888  0.00  0.00     0.077 C 
ATOM      2  C1' PXY d   1       0.650   4.063   0.123  0.00  0.00     0.077 C 
ATOM      3  C1  PXY d   1       0.343   2.601  -0.134  0.00  0.00    -0.082 A 
ATOM      4  C2  PXY d   1       1.310   1.791  -0.535  0.00  0.00     0.003 A 
ATOM      5  C3  PXY d   1       1.043   0.473  -0.803  0.00  0.00     0.003 A 
ATOM      6  C4  PXY d   1      -0.214  -0.034  -0.607  0.00  0.00    -0.082 A 
ATOM      7  C5  PXY d   1      -1.203   0.784  -0.188  0.00  0.00     0.003 A 
ATOM      8  C6  PXY d   1      -0.921   2.128   0.039  0.00  0.00     0.003 A 
ENDROOT
TORSDOF 0
ENDMDL
