MODEL 1
REMARK minimizedAffinity -2.97468638
REMARK minimizedRMSD -1
REMARK  0 active torsions:
REMARK  status: ('A' for Active; 'I' for Inactive)
ROOT
ATOM      1  C4' PXY d   1       0.047   3.110   0.382  0.00  0.00     0.077 C 
ATOM      2  C1' PXY d   1      -0.201  -2.649  -0.052  0.00  0.00     0.077 C 
ATOM      3  C1  PXY d   1      -0.149  -1.138   0.063  0.00  0.00    -0.082 A 
ATOM      4  C2  PXY d   1       0.897  -0.481  -0.412  0.00  0.00     0.003 A 
ATOM      5  C3  PXY d   1       0.975   0.882  -0.288  0.00  0.00     0.003 A 
ATOM      6  C4  PXY d   1      -0.053   1.586   0.280  0.00  0.00    -0.082 A 
ATOM      7  C5  PXY d   1      -1.128   0.924   0.757  0.00  0.00     0.003 A 
ATOM      8  C6  PXY d   1      -1.169  -0.463   0.659  0.00  0.00     0.003 A 
ENDROOT
TORSDOF 0
ENDMDL
