MODEL 1
REMARK minimizedAffinity -2.67346311
REMARK minimizedRMSD -1
REMARK  0 active torsions:
REMARK  status: ('A' for Active; 'I' for Inactive)
ROOT
ATOM      1  C4' PXY d   1      -1.023   2.794   0.815  0.00  0.00     0.077 C 
ATOM      2  C1' PXY d   1       0.163  -2.725  -0.429  0.00  0.00     0.077 C 
ATOM      3  C1  PXY d   1      -0.139  -1.278  -0.093  0.00  0.00    -0.082 A 
ATOM      4  C2  PXY d   1      -1.321  -0.769  -0.397  0.00  0.00     0.003 A 
ATOM      5  C3  PXY d   1      -1.600   0.547  -0.130  0.00  0.00     0.003 A 
ATOM      6  C4  PXY d   1      -0.677   1.335   0.503  0.00  0.00    -0.082 A 
ATOM      7  C5  PXY d   1       0.528   0.821   0.827  0.00  0.00     0.003 A 
ATOM      8  C6  PXY d   1       0.806  -0.506   0.510  0.00  0.00     0.003 A 
ENDROOT
TORSDOF 0
ENDMDL
