MODEL 1
REMARK minimizedAffinity -4.00282001
REMARK minimizedRMSD -1
REMARK  0 active torsions:
REMARK  status: ('A' for Active; 'I' for Inactive)
ROOT
ATOM      1  C4' PXY d   1      -2.708   1.124   1.279  0.00  0.00     0.077 C 
ATOM      2  C1' PXY d   1       2.789   1.369  -0.490  0.00  0.00     0.077 C 
ATOM      3  C1  PXY d   1       1.349   1.316  -0.020  0.00  0.00    -0.082 A 
ATOM      4  C2  PXY d   1       0.733   0.149   0.069  0.00  0.00     0.003 A 
ATOM      5  C3  PXY d   1      -0.579   0.086   0.462  0.00  0.00     0.003 A 
ATOM      6  C4  PXY d   1      -1.252   1.224   0.818  0.00  0.00    -0.082 A 
ATOM      7  C5  PXY d   1      -0.626   2.418   0.740  0.00  0.00     0.003 A 
ATOM      8  C6  PXY d   1       0.693   2.465   0.299  0.00  0.00     0.003 A 
ENDROOT
TORSDOF 0
ENDMDL
