MODEL 1
REMARK minimizedAffinity -3.44598961
REMARK minimizedRMSD -1
REMARK  0 active torsions:
REMARK  status: ('A' for Active; 'I' for Inactive)
ROOT
ATOM      1  C4' PXY d   1      -0.957  -0.963   1.288  0.00  0.00     0.077 C 
ATOM      2  C1' PXY d   1       0.446   4.341  -0.531  0.00  0.00     0.077 C 
ATOM      3  C1  PXY d   1       0.070   2.955  -0.045  0.00  0.00    -0.082 A 
ATOM      4  C2  PXY d   1       0.877   1.936  -0.289  0.00  0.00     0.003 A 
ATOM      5  C3  PXY d   1       0.538   0.670   0.116  0.00  0.00     0.003 A 
ATOM      6  C4  PXY d   1      -0.614   0.455   0.824  0.00  0.00    -0.082 A 
ATOM      7  C5  PXY d   1      -1.438   1.492   1.086  0.00  0.00     0.003 A 
ATOM      8  C6  PXY d   1      -1.095   2.762   0.631  0.00  0.00     0.003 A 
ENDROOT
TORSDOF 0
ENDMDL
