MODEL 1
REMARK minimizedAffinity -4.93532658
REMARK minimizedRMSD -1
REMARK  0 active torsions:
REMARK  status: ('A' for Active; 'I' for Inactive)
ROOT
ATOM      1  C4' PXY d   1      -0.144  -2.120  -0.545  0.00  0.00     0.077 C 
ATOM      2  C1' PXY d   1       0.902   3.406   0.790  0.00  0.00     0.077 C 
ATOM      3  C1  PXY d   1       0.640   1.955   0.438  0.00  0.00    -0.082 A 
ATOM      4  C2  PXY d   1      -0.566   1.586   0.036  0.00  0.00     0.003 A 
ATOM      5  C3  PXY d   1      -0.828   0.272  -0.256  0.00  0.00     0.003 A 
ATOM      6  C4  PXY d   1       0.168  -0.665  -0.187  0.00  0.00    -0.082 A 
ATOM      7  C5  PXY d   1       1.404  -0.294   0.211  0.00  0.00     0.003 A 
ATOM      8  C6  PXY d   1       1.639   1.037   0.542  0.00  0.00     0.003 A 
ENDROOT
TORSDOF 0
ENDMDL
