MODEL 1
REMARK minimizedAffinity -3.95300317
REMARK minimizedRMSD -1
REMARK  0 active torsions:
REMARK  status: ('A' for Active; 'I' for Inactive)
ROOT
ATOM      1  C4' PXY d   1      -1.526   3.134   3.227  0.00  0.00     0.077 C 
ATOM      2  C1' PXY d   1      -0.261   0.023  -1.477  0.00  0.00     0.077 C 
ATOM      3  C1  PXY d   1      -0.581   0.844  -0.243  0.00  0.00    -0.082 A 
ATOM      4  C2  PXY d   1      -1.576   0.476   0.547  0.00  0.00     0.003 A 
ATOM      5  C3  PXY d   1      -1.899   1.224   1.650  0.00  0.00     0.003 A 
ATOM      6  C4  PXY d   1      -1.162   2.331   1.976  0.00  0.00    -0.082 A 
ATOM      7  C5  PXY d   1      -0.138   2.707   1.181  0.00  0.00     0.003 A 
ATOM      8  C6  PXY d   1       0.148   1.957   0.043  0.00  0.00     0.003 A 
ENDROOT
TORSDOF 0
ENDMDL
