MODEL 1
REMARK minimizedAffinity -2.59835267
REMARK minimizedRMSD -1
REMARK  0 active torsions:
REMARK  status: ('A' for Active; 'I' for Inactive)
ROOT
ATOM      1  C4' PXY d   1      -3.018   1.530   0.832  0.00  0.00     0.077 C 
ATOM      2  C1' PXY d   1       2.583   0.156   0.423  0.00  0.00     0.077 C 
ATOM      3  C1  PXY d   1       1.117   0.527   0.538  0.00  0.00    -0.082 A 
ATOM      4  C2  PXY d   1       0.191  -0.396   0.332  0.00  0.00     0.003 A 
ATOM      5  C3  PXY d   1      -1.139  -0.071   0.400  0.00  0.00     0.003 A 
ATOM      6  C4  PXY d   1      -1.526   1.199   0.736  0.00  0.00    -0.082 A 
ATOM      7  C5  PXY d   1      -0.587   2.143   0.958  0.00  0.00     0.003 A 
ATOM      8  C6  PXY d   1       0.758   1.803   0.843  0.00  0.00     0.003 A 
ENDROOT
TORSDOF 0
ENDMDL
