MODEL 1
REMARK minimizedAffinity -2.49823236
REMARK minimizedRMSD -1
REMARK  0 active torsions:
REMARK  status: ('A' for Active; 'I' for Inactive)
ROOT
ATOM      1  C4' PXY d   1      -0.951  -1.838   0.756  0.00  0.00     0.077 C 
ATOM      2  C1' PXY d   1       0.387   3.742   0.056  0.00  0.00     0.077 C 
ATOM      3  C1  PXY d   1       0.041   2.276   0.228  0.00  0.00    -0.082 A 
ATOM      4  C2  PXY d   1      -0.968   1.929   1.011  0.00  0.00     0.003 A 
ATOM      5  C3  PXY d   1      -1.273   0.606   1.203  0.00  0.00     0.003 A 
ATOM      6  C4  PXY d   1      -0.573  -0.369   0.546  0.00  0.00    -0.082 A 
ATOM      7  C5  PXY d   1       0.451  -0.023  -0.263  0.00  0.00     0.003 A 
ATOM      8  C6  PXY d   1       0.772   1.323  -0.412  0.00  0.00     0.003 A 
ENDROOT
TORSDOF 0
ENDMDL
