MODEL 1
REMARK minimizedAffinity -2.80899954
REMARK minimizedRMSD -1
REMARK  0 active torsions:
REMARK  status: ('A' for Active; 'I' for Inactive)
ROOT
ATOM      1  C4' PXY d   1      -0.439  -2.148  -1.175  0.00  0.00     0.077 C 
ATOM      2  C1' PXY d   1       0.369   3.059   1.203  0.00  0.00     0.077 C 
ATOM      3  C1  PXY d   1       0.170   1.691   0.580  0.00  0.00    -0.082 A 
ATOM      4  C2  PXY d   1      -0.887   1.468  -0.184  0.00  0.00     0.003 A 
ATOM      5  C3  PXY d   1      -1.099   0.228  -0.729  0.00  0.00     0.003 A 
ATOM      6  C4  PXY d   1      -0.193  -0.780  -0.533  0.00  0.00    -0.082 A 
ATOM      7  C5  PXY d   1       0.894  -0.557   0.236  0.00  0.00     0.003 A 
ATOM      8  C6  PXY d   1       1.070   0.697   0.814  0.00  0.00     0.003 A 
ENDROOT
TORSDOF 0
ENDMDL
