MODEL 1
REMARK minimizedAffinity -3.44676852
REMARK minimizedRMSD -1
REMARK  0 active torsions:
REMARK  status: ('A' for Active; 'I' for Inactive)
ROOT
ATOM      1  C4' PXY d   1      -2.803  -0.051   1.030  0.00  0.00     0.077 C 
ATOM      2  C1' PXY d   1       2.966  -0.139   0.677  0.00  0.00     0.077 C 
ATOM      3  C1  PXY d   1       1.453  -0.127   0.763  0.00  0.00    -0.082 A 
ATOM      4  C2  PXY d   1       0.815   1.023   0.911  0.00  0.00     0.003 A 
ATOM      5  C3  PXY d   1      -0.551   1.048   1.023  0.00  0.00     0.003 A 
ATOM      6  C4  PXY d   1      -1.276  -0.110   0.929  0.00  0.00    -0.082 A 
ATOM      7  C5  PXY d   1      -0.633  -1.286   0.767  0.00  0.00     0.003 A 
ATOM      8  C6  PXY d   1       0.757  -1.294   0.698  0.00  0.00     0.003 A 
ENDROOT
TORSDOF 0
ENDMDL
