MODEL 1
REMARK minimizedAffinity -2.53122759
REMARK minimizedRMSD -1
REMARK  1 active torsions:
REMARK  status: ('A' for Active; 'I' for Inactive)
REMARK    1  A    between atoms: C1_2  and  C2_3 
ROOT
ATOM      1  C2  UNL d   1       0.267   0.789   0.501  0.00  0.00    -0.077 A 
ATOM      2  C3  UNL d   1      -0.347   0.219  -0.623  0.00  0.00     0.002 A 
ATOM      3  C4  UNL d   1      -0.952  -1.036  -0.536  0.00  0.00     0.002 A 
ATOM      4  C5  UNL d   1      -0.953  -1.729   0.672  0.00  0.00    -0.004 A 
ATOM      5  C6  UNL d   1      -0.343  -1.172   1.795  0.00  0.00     0.002 A 
ATOM      6  C7  UNL d   1       0.263   0.082   1.710  0.00  0.00     0.002 A 
ENDROOT
BRANCH   1   7
ATOM      7  C1  UNL d   1       0.877   2.164   0.422  0.00  0.00     0.055 C 
ATOM      8  C   UNL d   1      -0.194   3.239   0.304  0.00  0.00     0.019 C 
ENDBRANCH   1   7
TORSDOF 1
ENDMDL
