MODEL 1
REMARK minimizedAffinity 0.426535398
REMARK minimizedRMSD -1
REMARK  1 active torsions:
REMARK  status: ('A' for Active; 'I' for Inactive)
REMARK    1  A    between atoms: C1_2  and  C2_3 
ROOT
ATOM      1  C2  UNL d   1      -0.841  -0.016  -0.039  0.00  0.00    -0.077 A 
ATOM      2  C3  UNL d   1      -1.275   0.684   1.096  0.00  0.00     0.002 A 
ATOM      3  C4  UNL d   1      -1.908   0.011   2.142  0.00  0.00     0.002 A 
ATOM      4  C5  UNL d   1      -2.110  -1.366   2.066  0.00  0.00    -0.004 A 
ATOM      5  C6  UNL d   1      -1.683  -2.071   0.941  0.00  0.00     0.002 A 
ATOM      6  C7  UNL d   1      -1.051  -1.399  -0.106  0.00  0.00     0.002 A 
ENDROOT
BRANCH   1   7
ATOM      7  C1  UNL d   1      -0.113   0.700  -1.146  0.00  0.00     0.055 C 
ATOM      8  C   UNL d   1       0.399  -0.277  -2.194  0.00  0.00     0.019 C 
ENDBRANCH   1   7
TORSDOF 1
ENDMDL
