MODEL 1
REMARK minimizedAffinity -4.61832094
REMARK minimizedRMSD -1
REMARK  1 active torsions:
REMARK  status: ('A' for Active; 'I' for Inactive)
REMARK    1  A    between atoms: C1_2  and  C2_3 
ROOT
ATOM      1  C2  UNL d   1       0.230  -1.785  -0.282  0.00  0.00    -0.077 A 
ATOM      2  C3  UNL d   1      -0.046  -0.669   0.520  0.00  0.00     0.002 A 
ATOM      3  C4  UNL d   1      -0.294   0.575  -0.062  0.00  0.00     0.002 A 
ATOM      4  C5  UNL d   1      -0.274   0.714  -1.448  0.00  0.00    -0.004 A 
ATOM      5  C6  UNL d   1       0.002  -0.389  -2.255  0.00  0.00     0.002 A 
ATOM      6  C7  UNL d   1       0.252  -1.633  -1.674  0.00  0.00     0.002 A 
ENDROOT
BRANCH   1   7
ATOM      7  C1  UNL d   1       0.450  -3.138   0.342  0.00  0.00     0.055 C 
ATOM      8  C   UNL d   1      -0.008  -4.256  -0.584  0.00  0.00     0.019 C 
ENDBRANCH   1   7
TORSDOF 1
ENDMDL
