MODEL 1
REMARK minimizedAffinity -3.69101167
REMARK minimizedRMSD -1
REMARK  1 active torsions:
REMARK  status: ('A' for Active; 'I' for Inactive)
REMARK    1  A    between atoms: C1_2  and  C2_3 
ROOT
ATOM      1  C2  UNL d   1       0.594   1.041   0.074  0.00  0.00    -0.077 A 
ATOM      2  C3  UNL d   1       1.337   1.078   1.262  0.00  0.00     0.002 A 
ATOM      3  C4  UNL d   1       2.097   2.203   1.586  0.00  0.00     0.002 A 
ATOM      4  C5  UNL d   1       2.119   3.301   0.728  0.00  0.00    -0.004 A 
ATOM      5  C6  UNL d   1       1.385   3.274  -0.457  0.00  0.00     0.002 A 
ATOM      6  C7  UNL d   1       0.626   2.149  -0.783  0.00  0.00     0.002 A 
ENDROOT
BRANCH   1   7
ATOM      7  C1  UNL d   1      -0.265  -0.152  -0.253  0.00  0.00     0.055 C 
ATOM      8  C   UNL d   1      -0.965  -0.687   0.988  0.00  0.00     0.019 C 
ENDBRANCH   1   7
TORSDOF 1
ENDMDL
