MODEL 1
REMARK minimizedAffinity -4.19370937
REMARK minimizedRMSD -1
REMARK  1 active torsions:
REMARK  status: ('A' for Active; 'I' for Inactive)
REMARK    1  A    between atoms: C1_2  and  C2_3 
ROOT
ATOM      1  C2  UNL d   1       0.060   0.265  -0.754  0.00  0.00    -0.077 A 
ATOM      2  C3  UNL d   1       0.080  -0.765  -1.705  0.00  0.00     0.002 A 
ATOM      3  C4  UNL d   1      -0.340  -2.052  -1.360  0.00  0.00     0.002 A 
ATOM      4  C5  UNL d   1      -0.787  -2.318  -0.068  0.00  0.00    -0.004 A 
ATOM      5  C6  UNL d   1      -0.808  -1.300   0.885  0.00  0.00     0.002 A 
ATOM      6  C7  UNL d   1      -0.388  -0.014   0.543  0.00  0.00     0.002 A 
ENDROOT
BRANCH   1   7
ATOM      7  C1  UNL d   1       0.466   1.664  -1.137  0.00  0.00     0.055 C 
ATOM      8  C   UNL d   1       0.767   2.509   0.092  0.00  0.00     0.019 C 
ENDBRANCH   1   7
TORSDOF 1
ENDMDL
