MODEL 1
REMARK minimizedAffinity -3.08505011
REMARK minimizedRMSD -1
REMARK  1 active torsions:
REMARK  status: ('A' for Active; 'I' for Inactive)
REMARK    1  A    between atoms: C1_2  and  C2_3 
ROOT
ATOM      1  C2  UNL d   1      -0.318  -1.911  -1.099  0.00  0.00    -0.077 A 
ATOM      2  C3  UNL d   1      -0.902  -2.604  -0.029  0.00  0.00     0.002 A 
ATOM      3  C4  UNL d   1      -1.048  -1.989   1.216  0.00  0.00     0.002 A 
ATOM      4  C5  UNL d   1      -0.617  -0.677   1.401  0.00  0.00    -0.004 A 
ATOM      5  C6  UNL d   1      -0.033   0.020   0.344  0.00  0.00     0.002 A 
ATOM      6  C7  UNL d   1       0.115  -0.593  -0.900  0.00  0.00     0.002 A 
ENDROOT
BRANCH   1   7
ATOM      7  C1  UNL d   1      -0.204  -2.555  -2.455  0.00  0.00     0.055 C 
ATOM      8  C   UNL d   1      -0.886  -3.916  -2.481  0.00  0.00     0.019 C 
ENDBRANCH   1   7
TORSDOF 1
ENDMDL
