MODEL 1
REMARK minimizedAffinity -2.85209846
REMARK minimizedRMSD -1
REMARK  1 active torsions:
REMARK  status: ('A' for Active; 'I' for Inactive)
REMARK    1  A    between atoms: C1_2  and  C2_3 
ROOT
ATOM      1  C2  UNL d   1      -0.252   0.082   0.077  0.00  0.00    -0.077 A 
ATOM      2  C3  UNL d   1      -0.414  -0.076   1.460  0.00  0.00     0.002 A 
ATOM      3  C4  UNL d   1      -0.907  -1.274   1.982  0.00  0.00     0.002 A 
ATOM      4  C5  UNL d   1      -1.237  -2.324   1.128  0.00  0.00    -0.004 A 
ATOM      5  C6  UNL d   1      -1.081  -2.177  -0.250  0.00  0.00     0.002 A 
ATOM      6  C7  UNL d   1      -0.590  -0.980  -0.773  0.00  0.00     0.002 A 
ENDROOT
BRANCH   1   7
ATOM      7  C1  UNL d   1       0.325   1.355  -0.484  0.00  0.00     0.055 C 
ATOM      8  C   UNL d   1       1.249   2.033   0.518  0.00  0.00     0.019 C 
ENDBRANCH   1   7
TORSDOF 1
ENDMDL
