MODEL 1
REMARK minimizedAffinity 6.07883072
REMARK minimizedRMSD -1
REMARK  0 active torsions:
REMARK  status: ('A' for Active; 'I' for Inactive)
ROOT
ATOM      1  C   UNL d   1       6.000   2.588   3.401  0.00  0.00     0.077 C 
ATOM      2  C1  UNL d   1       5.572   3.780   2.597  0.00  0.00    -0.074 A 
ATOM      3  C2  UNL d   1       4.994   4.894   3.214  0.00  0.00    -0.005 A 
ATOM      4  C3  UNL d   1       4.610   5.998   2.453  0.00  0.00     0.006 A 
ATOM      5  C4  UNL d   1       4.800   6.000   1.071  0.00  0.00    -0.005 A 
ATOM      6  C5  UNL d   1       5.376   4.895   0.437  0.00  0.00    -0.074 A 
ATOM      7  C6  UNL d   1       5.596   4.884  -1.047  0.00  0.00     0.077 C 
ATOM      8  C7  UNL d   1       5.766   3.792   1.208  0.00  0.00    -0.001 A 
ENDROOT
TORSDOF 0
ENDMDL
