MODEL 1
REMARK minimizedAffinity 4.42752743
REMARK minimizedRMSD -1
REMARK  0 active torsions:
REMARK  status: ('A' for Active; 'I' for Inactive)
ROOT
ATOM      1  C   UNL d   1       5.705   5.866  -5.897  0.00  0.00     0.077 C 
ATOM      2  C1  UNL d   1       4.415   5.101  -5.937  0.00  0.00    -0.074 A 
ATOM      3  C2  UNL d   1       4.409   3.702  -5.943  0.00  0.00    -0.005 A 
ATOM      4  C3  UNL d   1       3.201   3.005  -5.971  0.00  0.00     0.006 A 
ATOM      5  C4  UNL d   1       1.990   3.697  -5.992  0.00  0.00    -0.005 A 
ATOM      6  C5  UNL d   1       1.977   5.095  -5.985  0.00  0.00    -0.074 A 
ATOM      7  C6  UNL d   1       0.683   5.855  -5.998  0.00  0.00     0.077 C 
ATOM      8  C7  UNL d   1       3.194   5.789  -5.950  0.00  0.00    -0.001 A 
ENDROOT
TORSDOF 0
ENDMDL
