MODEL 1
REMARK minimizedAffinity 6.61418772
REMARK minimizedRMSD -1
REMARK  0 active torsions:
REMARK  status: ('A' for Active; 'I' for Inactive)
ROOT
ATOM      1  C   UNL d   1       1.948  -0.540   0.447  0.00  0.00     0.077 C 
ATOM      2  C1  UNL d   1       1.656   0.492  -0.601  0.00  0.00    -0.074 A 
ATOM      3  C2  UNL d   1       0.777   1.549  -0.344  0.00  0.00    -0.005 A 
ATOM      4  C3  UNL d   1       0.523   2.508  -1.325  0.00  0.00     0.006 A 
ATOM      5  C4  UNL d   1       1.145   2.419  -2.571  0.00  0.00    -0.005 A 
ATOM      6  C5  UNL d   1       2.028   1.370  -2.846  0.00  0.00    -0.074 A 
ATOM      7  C6  UNL d   1       2.712   1.266  -4.177  0.00  0.00     0.077 C 
ATOM      8  C7  UNL d   1       2.283   0.415  -1.853  0.00  0.00    -0.001 A 
ENDROOT
TORSDOF 0
ENDMDL
