MODEL 1
REMARK minimizedAffinity 16.4860535
REMARK minimizedRMSD -1
REMARK  0 active torsions:
REMARK  status: ('A' for Active; 'I' for Inactive)
ROOT
ATOM      1  C   UNL d   1       5.579   6.000  -0.023  0.00  0.00     0.077 C 
ATOM      2  C1  UNL d   1       5.103   4.809  -0.800  0.00  0.00    -0.074 A 
ATOM      3  C2  UNL d   1       6.000   4.018  -1.525  0.00  0.00    -0.005 A 
ATOM      4  C3  UNL d   1       5.543   2.907  -2.235  0.00  0.00     0.006 A 
ATOM      5  C4  UNL d   1       4.188   2.577  -2.226  0.00  0.00    -0.005 A 
ATOM      6  C5  UNL d   1       3.276   3.355  -1.506  0.00  0.00    -0.074 A 
ATOM      7  C6  UNL d   1       1.817   3.008  -1.479  0.00  0.00     0.077 C 
ATOM      8  C7  UNL d   1       3.744   4.466  -0.790  0.00  0.00    -0.001 A 
ENDROOT
TORSDOF 0
ENDMDL
