MODEL 1
REMARK minimizedAffinity 3.87001967
REMARK minimizedRMSD -1
REMARK  0 active torsions:
REMARK  status: ('A' for Active; 'I' for Inactive)
ROOT
ATOM      1  C   UNL d   1       1.644   1.756  -3.699  0.00  0.00     0.077 C 
ATOM      2  C1  UNL d   1       0.633   2.517  -4.503  0.00  0.00    -0.074 A 
ATOM      3  C2  UNL d   1      -0.577   1.925  -4.882  0.00  0.00    -0.005 A 
ATOM      4  C3  UNL d   1      -1.512   2.648  -5.621  0.00  0.00     0.006 A 
ATOM      5  C4  UNL d   1      -1.248   3.968  -5.990  0.00  0.00    -0.005 A 
ATOM      6  C5  UNL d   1      -0.045   4.577  -5.619  0.00  0.00    -0.074 A 
ATOM      7  C6  UNL d   1       0.250   5.998  -5.998  0.00  0.00     0.077 C 
ATOM      8  C7  UNL d   1       0.887   3.846  -4.870  0.00  0.00    -0.001 A 
ENDROOT
TORSDOF 0
ENDMDL
