MODEL 1
REMARK minimizedAffinity 5.4476037
REMARK minimizedRMSD -1
REMARK  0 active torsions:
REMARK  status: ('A' for Active; 'I' for Inactive)
ROOT
ATOM      1  C   UNL d   1      -0.336   5.989  -5.999  0.00  0.00     0.077 C 
ATOM      2  C1  UNL d   1      -0.658   4.566  -5.649  0.00  0.00    -0.074 A 
ATOM      3  C2  UNL d   1      -1.887   4.000  -6.000  0.00  0.00    -0.005 A 
ATOM      4  C3  UNL d   1      -2.169   2.673  -5.675  0.00  0.00     0.006 A 
ATOM      5  C4  UNL d   1      -1.225   1.900  -4.997  0.00  0.00    -0.005 A 
ATOM      6  C5  UNL d   1       0.010   2.449  -4.639  0.00  0.00    -0.074 A 
ATOM      7  C6  UNL d   1       1.040   1.629  -3.919  0.00  0.00     0.077 C 
ATOM      8  C7  UNL d   1       0.288   3.781  -4.975  0.00  0.00    -0.001 A 
ENDROOT
TORSDOF 0
ENDMDL
