MODEL 1
REMARK minimizedAffinity 7.44798565
REMARK minimizedRMSD -1
REMARK  0 active torsions:
REMARK  status: ('A' for Active; 'I' for Inactive)
ROOT
ATOM      1  C   UNL d   1      -1.863   1.784  -4.930  0.00  0.00     0.077 C 
ATOM      2  C1  UNL d   1      -1.845   3.235  -5.307  0.00  0.00    -0.074 A 
ATOM      3  C2  UNL d   1      -3.036   3.948  -5.479  0.00  0.00    -0.005 A 
ATOM      4  C3  UNL d   1      -3.004   5.300  -5.821  0.00  0.00     0.006 A 
ATOM      5  C4  UNL d   1      -1.782   5.952  -5.993  0.00  0.00    -0.005 A 
ATOM      6  C5  UNL d   1      -0.581   5.256  -5.825  0.00  0.00    -0.074 A 
ATOM      7  C6  UNL d   1       0.740   5.944  -5.997  0.00  0.00     0.077 C 
ATOM      8  C7  UNL d   1      -0.622   3.899  -5.475  0.00  0.00    -0.001 A 
ENDROOT
TORSDOF 0
ENDMDL
