MODEL 1
REMARK minimizedAffinity 4.54459476
REMARK minimizedRMSD -1
REMARK  0 active torsions:
REMARK  status: ('A' for Active; 'I' for Inactive)
ROOT
ATOM      1  C   UNL d   1      -5.979   5.998  -5.979  0.00  0.00     0.077 C 
ATOM      2  C1  UNL d   1      -5.293   4.859  -5.286  0.00  0.00    -0.074 A 
ATOM      3  C2  UNL d   1      -5.716   4.425  -4.025  0.00  0.00    -0.005 A 
ATOM      4  C3  UNL d   1      -5.074   3.357  -3.397  0.00  0.00     0.006 A 
ATOM      5  C4  UNL d   1      -4.005   2.714  -4.022  0.00  0.00    -0.005 A 
ATOM      6  C5  UNL d   1      -3.569   3.133  -5.283  0.00  0.00    -0.074 A 
ATOM      7  C6  UNL d   1      -2.428   2.446  -5.973  0.00  0.00     0.077 C 
ATOM      8  C7  UNL d   1      -4.223   4.202  -5.910  0.00  0.00    -0.001 A 
ENDROOT
TORSDOF 0
ENDMDL
