MODEL 1
REMARK minimizedAffinity 6.12168741
REMARK minimizedRMSD -1
REMARK  0 active torsions:
REMARK  status: ('A' for Active; 'I' for Inactive)
ROOT
ATOM      1  C   UNL d   1      -6.000  -5.975   0.751  0.00  0.00     0.077 C 
ATOM      2  C1  UNL d   1      -4.826  -5.221   0.200  0.00  0.00    -0.074 A 
ATOM      3  C2  UNL d   1      -4.754  -3.828   0.302  0.00  0.00    -0.005 A 
ATOM      4  C3  UNL d   1      -3.652  -3.142  -0.208  0.00  0.00     0.006 A 
ATOM      5  C4  UNL d   1      -2.613  -3.840  -0.823  0.00  0.00    -0.005 A 
ATOM      6  C5  UNL d   1      -2.667  -5.233  -0.934  0.00  0.00    -0.074 A 
ATOM      7  C6  UNL d   1      -1.553  -6.000  -1.584  0.00  0.00     0.077 C 
ATOM      8  C7  UNL d   1      -3.774  -5.916  -0.413  0.00  0.00    -0.001 A 
ENDROOT
TORSDOF 0
ENDMDL
