MODEL 1
REMARK minimizedAffinity 15.5992517
REMARK minimizedRMSD -1
REMARK  0 active torsions:
REMARK  status: ('A' for Active; 'I' for Inactive)
ROOT
ATOM      1  C   UNL d   1      -1.114   3.189  -1.117  0.00  0.00     0.077 C 
ATOM      2  C1  UNL d   1      -2.348   2.594  -0.507  0.00  0.00    -0.074 A 
ATOM      3  C2  UNL d   1      -3.615   2.879  -1.025  0.00  0.00    -0.005 A 
ATOM      4  C3  UNL d   1      -4.753   2.311  -0.452  0.00  0.00     0.006 A 
ATOM      5  C4  UNL d   1      -4.635   1.452   0.642  0.00  0.00    -0.005 A 
ATOM      6  C5  UNL d   1      -3.376   1.155   1.172  0.00  0.00    -0.074 A 
ATOM      7  C6  UNL d   1      -3.231   0.226   2.341  0.00  0.00     0.077 C 
ATOM      8  C7  UNL d   1      -2.237   1.724   0.587  0.00  0.00    -0.001 A 
ENDROOT
TORSDOF 0
ENDMDL
