MODEL 1
REMARK minimizedAffinity 5.84332132
REMARK minimizedRMSD -1
REMARK  0 active torsions:
REMARK  status: ('A' for Active; 'I' for Inactive)
ROOT
ATOM      1  C   UNL d   1       0.327  -4.473   2.838  0.00  0.00     0.077 C 
ATOM      2  C1  UNL d   1      -0.903  -3.675   3.153  0.00  0.00    -0.074 A 
ATOM      3  C2  UNL d   1      -1.299  -2.612   2.336  0.00  0.00    -0.005 A 
ATOM      4  C3  UNL d   1      -2.451  -1.884   2.637  0.00  0.00     0.006 A 
ATOM      5  C4  UNL d   1      -3.217  -2.213   3.756  0.00  0.00    -0.005 A 
ATOM      6  C5  UNL d   1      -2.837  -3.274   4.584  0.00  0.00    -0.074 A 
ATOM      7  C6  UNL d   1      -3.655  -3.646   5.786  0.00  0.00     0.077 C 
ATOM      8  C7  UNL d   1      -1.682  -4.004   4.272  0.00  0.00    -0.001 A 
ENDROOT
TORSDOF 0
ENDMDL
