MODEL 1
REMARK minimizedAffinity 15.094779
REMARK minimizedRMSD -1
REMARK  0 active torsions:
REMARK  status: ('A' for Active; 'I' for Inactive)
ROOT
ATOM      1  C   UNL d   1       0.872   1.108   0.836  0.00  0.00     0.077 C 
ATOM      2  C1  UNL d   1       1.329   1.425  -0.557  0.00  0.00    -0.074 A 
ATOM      3  C2  UNL d   1       1.327   2.741  -1.032  0.00  0.00    -0.005 A 
ATOM      4  C3  UNL d   1       1.763   3.022  -2.326  0.00  0.00     0.006 A 
ATOM      5  C4  UNL d   1       2.205   1.992  -3.158  0.00  0.00    -0.005 A 
ATOM      6  C5  UNL d   1       2.214   0.670  -2.700  0.00  0.00    -0.074 A 
ATOM      7  C6  UNL d   1       2.695  -0.447  -3.578  0.00  0.00     0.077 C 
ATOM      8  C7  UNL d   1       1.781   0.397  -1.396  0.00  0.00    -0.001 A 
ENDROOT
TORSDOF 0
ENDMDL
