MODEL 1
REMARK minimizedAffinity 8.12339783
REMARK minimizedRMSD -1
REMARK  0 active torsions:
REMARK  status: ('A' for Active; 'I' for Inactive)
ROOT
ATOM      1  C   UNL d   1       0.429  -4.586   3.030  0.00  0.00     0.077 C 
ATOM      2  C1  UNL d   1      -0.736  -3.715   3.396  0.00  0.00    -0.074 A 
ATOM      3  C2  UNL d   1      -1.033  -2.564   2.659  0.00  0.00    -0.005 A 
ATOM      4  C3  UNL d   1      -2.125  -1.769   3.005  0.00  0.00     0.006 A 
ATOM      5  C4  UNL d   1      -2.932  -2.117   4.090  0.00  0.00    -0.005 A 
ATOM      6  C5  UNL d   1      -2.651  -3.265   4.837  0.00  0.00    -0.074 A 
ATOM      7  C6  UNL d   1      -3.514  -3.658   6.000  0.00  0.00     0.077 C 
ATOM      8  C7  UNL d   1      -1.556  -4.062   4.479  0.00  0.00    -0.001 A 
ENDROOT
TORSDOF 0
ENDMDL
