MODEL 1
REMARK minimizedAffinity -0.517768323
REMARK minimizedRMSD -1
REMARK  0 active torsions:
REMARK  status: ('A' for Active; 'I' for Inactive)
ROOT
ATOM      1  C   UNL d   1       4.619   5.132  -1.822  0.00  0.00     0.077 C 
ATOM      2  C1  UNL d   1       3.544   4.303  -2.459  0.00  0.00    -0.074 A 
ATOM      3  C2  UNL d   1       3.205   3.047  -1.945  0.00  0.00    -0.005 A 
ATOM      4  C3  UNL d   1       2.197   2.292  -2.543  0.00  0.00     0.006 A 
ATOM      5  C4  UNL d   1       1.518   2.783  -3.659  0.00  0.00    -0.005 A 
ATOM      6  C5  UNL d   1       1.842   4.037  -4.186  0.00  0.00    -0.074 A 
ATOM      7  C6  UNL d   1       1.116   4.585  -5.378  0.00  0.00     0.077 C 
ATOM      8  C7  UNL d   1       2.852   4.794  -3.575  0.00  0.00    -0.001 A 
ENDROOT
TORSDOF 0
ENDMDL
