MODEL 1
REMARK minimizedAffinity 0.0302490387
REMARK minimizedRMSD -1
REMARK  0 active torsions:
REMARK  status: ('A' for Active; 'I' for Inactive)
ROOT
ATOM      1  C   UNL d   1       2.066   4.541  -5.999  0.00  0.00     0.077 C 
ATOM      2  C1  UNL d   1       0.610   4.184  -5.982  0.00  0.00    -0.074 A 
ATOM      3  C2  UNL d   1       0.197   2.849  -5.933  0.00  0.00    -0.005 A 
ATOM      4  C3  UNL d   1      -1.161   2.533  -5.908  0.00  0.00     0.006 A 
ATOM      5  C4  UNL d   1      -2.119   3.547  -5.933  0.00  0.00    -0.005 A 
ATOM      6  C5  UNL d   1      -1.725   4.888  -5.981  0.00  0.00    -0.074 A 
ATOM      7  C6  UNL d   1      -2.742   5.991  -5.998  0.00  0.00     0.077 C 
ATOM      8  C7  UNL d   1      -0.359   5.198  -5.998  0.00  0.00    -0.001 A 
ENDROOT
TORSDOF 0
ENDMDL
