MODEL 1
REMARK minimizedAffinity 4.05928946
REMARK minimizedRMSD -1
REMARK  0 active torsions:
REMARK  status: ('A' for Active; 'I' for Inactive)
ROOT
ATOM      1  C   UNL d   1      -3.435   6.000  -5.790  0.00  0.00     0.077 C 
ATOM      2  C1  UNL d   1      -2.142   5.242  -5.738  0.00  0.00    -0.074 A 
ATOM      3  C2  UNL d   1      -2.129   3.854  -5.563  0.00  0.00    -0.005 A 
ATOM      4  C3  UNL d   1      -0.919   3.161  -5.526  0.00  0.00     0.006 A 
ATOM      5  C4  UNL d   1       0.288   3.848  -5.664  0.00  0.00    -0.005 A 
ATOM      6  C5  UNL d   1       0.295   5.235  -5.840  0.00  0.00    -0.074 A 
ATOM      7  C6  UNL d   1       1.582   5.987  -5.999  0.00  0.00     0.077 C 
ATOM      8  C7  UNL d   1      -0.926   5.923  -5.883  0.00  0.00    -0.001 A 
ENDROOT
TORSDOF 0
ENDMDL
