MODEL 1
REMARK minimizedAffinity -0.366335511
REMARK minimizedRMSD -1
REMARK  0 active torsions:
REMARK  status: ('A' for Active; 'I' for Inactive)
ROOT
ATOM      1  C   UNL d   1      -0.003   5.748  -6.000  0.00  0.00     0.077 C 
ATOM      2  C1  UNL d   1      -1.231   4.904  -5.828  0.00  0.00    -0.074 A 
ATOM      3  C2  UNL d   1      -1.131   3.550  -5.495  0.00  0.00    -0.005 A 
ATOM      4  C3  UNL d   1      -2.282   2.780  -5.329  0.00  0.00     0.006 A 
ATOM      5  C4  UNL d   1      -3.543   3.355  -5.495  0.00  0.00    -0.005 A 
ATOM      6  C5  UNL d   1      -3.662   4.708  -5.827  0.00  0.00    -0.074 A 
ATOM      7  C6  UNL d   1      -5.009   5.345  -5.999  0.00  0.00     0.077 C 
ATOM      8  C7  UNL d   1      -2.501   5.477  -5.985  0.00  0.00    -0.001 A 
ENDROOT
TORSDOF 0
ENDMDL
