MODEL 1
REMARK minimizedAffinity 7.19022608
REMARK minimizedRMSD -1
REMARK  0 active torsions:
REMARK  status: ('A' for Active; 'I' for Inactive)
ROOT
ATOM      1  C   UNL d   1       1.878   4.203  -5.984  0.00  0.00     0.077 C 
ATOM      2  C1  UNL d   1       0.401   4.464  -5.981  0.00  0.00    -0.074 A 
ATOM      3  C2  UNL d   1      -0.098   5.770  -5.993  0.00  0.00    -0.005 A 
ATOM      4  C3  UNL d   1      -1.475   5.998  -5.999  0.00  0.00     0.006 A 
ATOM      5  C4  UNL d   1      -2.364   4.923  -5.993  0.00  0.00    -0.005 A 
ATOM      6  C5  UNL d   1      -1.884   3.609  -5.982  0.00  0.00    -0.074 A 
ATOM      7  C6  UNL d   1      -2.826   2.442  -5.986  0.00  0.00     0.077 C 
ATOM      8  C7  UNL d   1      -0.499   3.389  -5.983  0.00  0.00    -0.001 A 
ENDROOT
TORSDOF 0
ENDMDL
