MODEL 1
REMARK minimizedAffinity -3.74604106
REMARK minimizedRMSD -1
REMARK  2 active torsions:
REMARK  status: ('A' for Active; 'I' for Inactive)
REMARK    1  A    between atoms: C2'_3  and  C1'_4 
REMARK    2  A    between atoms: C1'_4  and  C1_5 
ROOT
ATOM      1  C1  I4B d   1      -0.182  -0.884   0.044  0.00  0.00    -0.075 A 
ATOM      2  C2  I4B d   1       0.240  -1.002  -1.257  0.00  0.00     0.003 A 
ATOM      3  C3  I4B d   1       0.311   0.141  -2.089  0.00  0.00     0.002 A 
ATOM      4  C4  I4B d   1      -0.094   1.366  -1.598  0.00  0.00    -0.004 A 
ATOM      5  C5  I4B d   1      -0.499   1.487  -0.272  0.00  0.00     0.002 A 
ATOM      6  C6  I4B d   1      -0.532   0.357   0.558  0.00  0.00     0.003 A 
ENDROOT
BRANCH   1   7
ATOM      7  C1' I4B d   1      -0.277  -2.118   0.885  0.00  0.00     0.060 C 
BRANCH   7   8
ATOM      8  C2' I4B d   1      -1.024  -3.169   0.090  0.00  0.00    -0.013 C 
ATOM      9  C4' I4B d   1      -0.366  -4.517   0.215  0.00  0.00     0.013 C 
ATOM     10  C3' I4B d   1      -2.438  -3.208   0.589  0.00  0.00     0.013 C 
ENDBRANCH   7   8
ENDBRANCH   1   7
TORSDOF 2
ENDMDL
