MODEL 1
REMARK minimizedAffinity -2.13602209
REMARK minimizedRMSD -1
REMARK  2 active torsions:
REMARK  status: ('A' for Active; 'I' for Inactive)
REMARK    1  A    between atoms: C2'_3  and  C1'_4 
REMARK    2  A    between atoms: C1'_4  and  C1_5 
ROOT
ATOM      1  C1  I4B d   1       0.956   1.331   0.035  0.00  0.00    -0.075 A 
ATOM      2  C2  I4B d   1       0.235   2.499   0.017  0.00  0.00     0.003 A 
ATOM      3  C3  I4B d   1       0.900   3.748   0.059  0.00  0.00     0.002 A 
ATOM      4  C4  I4B d   1       2.275   3.783   0.170  0.00  0.00    -0.004 A 
ATOM      5  C5  I4B d   1       3.006   2.598   0.166  0.00  0.00     0.002 A 
ATOM      6  C6  I4B d   1       2.344   1.365   0.086  0.00  0.00     0.003 A 
ENDROOT
BRANCH   1   7
ATOM      7  C1' I4B d   1       0.220   0.029   0.022  0.00  0.00     0.060 C 
BRANCH   7   8
ATOM      8  C2' I4B d   1       1.169  -1.039  -0.482  0.00  0.00    -0.013 C 
ATOM      9  C4' I4B d   1       0.930  -2.353   0.214  0.00  0.00     0.013 C 
ATOM     10  C3' I4B d   1       0.977  -1.167  -1.963  0.00  0.00     0.013 C 
ENDBRANCH   7   8
ENDBRANCH   1   7
TORSDOF 2
ENDMDL
