MODEL 1
REMARK minimizedAffinity -5.01717663
REMARK minimizedRMSD -1
REMARK  2 active torsions:
REMARK  status: ('A' for Active; 'I' for Inactive)
REMARK    1  A    between atoms: C2'_3  and  C1'_4 
REMARK    2  A    between atoms: C1'_4  and  C1_5 
ROOT
ATOM      1  C1  I4B d   1       0.059   0.267  -0.490  0.00  0.00    -0.075 A 
ATOM      2  C2  I4B d   1      -0.582   0.004   0.695  0.00  0.00     0.003 A 
ATOM      3  C3  I4B d   1      -0.741  -1.331   1.139  0.00  0.00     0.002 A 
ATOM      4  C4  I4B d   1      -0.292  -2.368   0.347  0.00  0.00    -0.004 A 
ATOM      5  C5  I4B d   1       0.377  -2.099  -0.843  0.00  0.00     0.002 A 
ATOM      6  C6  I4B d   1       0.565  -0.773  -1.259  0.00  0.00     0.003 A 
ENDROOT
BRANCH   1   7
ATOM      7  C1' I4B d   1       0.181   1.687  -0.944  0.00  0.00     0.060 C 
BRANCH   7   8
ATOM      8  C2' I4B d   1       1.011   2.434   0.080  0.00  0.00    -0.013 C 
ATOM      9  C4' I4B d   1       2.348   2.832  -0.489  0.00  0.00     0.013 C 
ATOM     10  C3' I4B d   1       0.231   3.637   0.520  0.00  0.00     0.013 C 
ENDBRANCH   7   8
ENDBRANCH   1   7
TORSDOF 2
ENDMDL
