MODEL 1
REMARK minimizedAffinity -4.06091452
REMARK minimizedRMSD -1
REMARK  2 active torsions:
REMARK  status: ('A' for Active; 'I' for Inactive)
REMARK    1  A    between atoms: C2'_3  and  C1'_4 
REMARK    2  A    between atoms: C1'_4  and  C1_5 
ROOT
ATOM      1  C1  I4B d   1       0.112  -0.583  -0.088  0.00  0.00    -0.075 A 
ATOM      2  C2  I4B d   1       0.666  -1.614  -0.805  0.00  0.00     0.003 A 
ATOM      3  C3  I4B d   1       0.726  -1.547  -2.218  0.00  0.00     0.002 A 
ATOM      4  C4  I4B d   1       0.178  -0.462  -2.872  0.00  0.00    -0.004 A 
ATOM      5  C5  I4B d   1      -0.362   0.593  -2.141  0.00  0.00     0.002 A 
ATOM      6  C6  I4B d   1      -0.384   0.538  -0.740  0.00  0.00     0.003 A 
ENDROOT
BRANCH   1   7
ATOM      7  C1' I4B d   1       0.036  -0.701   1.401  0.00  0.00     0.060 C 
BRANCH   7   8
ATOM      8  C2' I4B d   1      -1.337  -1.234   1.757  0.00  0.00    -0.013 C 
ATOM      9  C4' I4B d   1      -2.370  -0.138   1.740  0.00  0.00     0.013 C 
ATOM     10  C3' I4B d   1      -1.681  -2.318   0.779  0.00  0.00     0.013 C 
ENDBRANCH   7   8
ENDBRANCH   1   7
TORSDOF 2
ENDMDL
