MODEL 1
REMARK minimizedAffinity -2.49915886
REMARK minimizedRMSD -1
REMARK  2 active torsions:
REMARK  status: ('A' for Active; 'I' for Inactive)
REMARK    1  A    between atoms: C2'_3  and  C1'_4 
REMARK    2  A    between atoms: C1'_4  and  C1_5 
ROOT
ATOM      1  C1  I4B d   1       0.239  -0.911  -0.280  0.00  0.00    -0.075 A 
ATOM      2  C2  I4B d   1      -0.840  -1.214   0.513  0.00  0.00     0.003 A 
ATOM      3  C3  I4B d   1      -0.926  -2.477   1.147  0.00  0.00     0.002 A 
ATOM      4  C4  I4B d   1       0.056  -3.419   0.921  0.00  0.00    -0.004 A 
ATOM      5  C5  I4B d   1       1.160  -3.103   0.135  0.00  0.00     0.002 A 
ATOM      6  C6  I4B d   1       1.259  -1.836  -0.460  0.00  0.00     0.003 A 
ENDROOT
BRANCH   1   7
ATOM      7  C1' I4B d   1       0.282   0.420  -0.961  0.00  0.00     0.060 C 
BRANCH   7   8
ATOM      8  C2' I4B d   1       0.256   1.493   0.110  0.00  0.00    -0.013 C 
ATOM      9  C4' I4B d   1       1.561   2.242   0.162  0.00  0.00     0.013 C 
ATOM     10  C3' I4B d   1      -0.888   2.416  -0.188  0.00  0.00     0.013 C 
ENDBRANCH   7   8
ENDBRANCH   1   7
TORSDOF 2
ENDMDL
