MODEL 1
REMARK minimizedAffinity -3.15034556
REMARK minimizedRMSD -1
REMARK  2 active torsions:
REMARK  status: ('A' for Active; 'I' for Inactive)
REMARK    1  A    between atoms: C2'_3  and  C1'_4 
REMARK    2  A    between atoms: C1'_4  and  C1_5 
ROOT
ATOM      1  C1  I4B d   1       0.473   1.450   0.345  0.00  0.00    -0.075 A 
ATOM      2  C2  I4B d   1       0.021   2.671  -0.090  0.00  0.00     0.003 A 
ATOM      3  C3  I4B d   1       0.854   3.813  -0.001  0.00  0.00     0.002 A 
ATOM      4  C4  I4B d   1       2.104   3.698   0.573  0.00  0.00    -0.004 A 
ATOM      5  C5  I4B d   1       2.569   2.455   0.992  0.00  0.00     0.002 A 
ATOM      6  C6  I4B d   1       1.753   1.321   0.866  0.00  0.00     0.003 A 
ENDROOT
BRANCH   1   7
ATOM      7  C1' I4B d   1      -0.446   0.272   0.266  0.00  0.00     0.060 C 
BRANCH   7   8
ATOM      8  C2' I4B d   1       0.350  -0.906  -0.258  0.00  0.00    -0.013 C 
ATOM      9  C4' I4B d   1      -0.196  -2.208   0.266  0.00  0.00     0.013 C 
ATOM     10  C3' I4B d   1       0.307  -0.864  -1.756  0.00  0.00     0.013 C 
ENDBRANCH   7   8
ENDBRANCH   1   7
TORSDOF 2
ENDMDL
