MODEL 1
REMARK minimizedAffinity -2.54370379
REMARK minimizedRMSD -1
REMARK  2 active torsions:
REMARK  status: ('A' for Active; 'I' for Inactive)
REMARK    1  A    between atoms: C2'_3  and  C1'_4 
REMARK    2  A    between atoms: C1'_4  and  C1_5 
ROOT
ATOM      1  C1  I4B d   1       0.034   0.601   0.325  0.00  0.00    -0.075 A 
ATOM      2  C2  I4B d   1       0.615  -0.061  -0.728  0.00  0.00     0.003 A 
ATOM      3  C3  I4B d   1       0.491  -1.466  -0.842  0.00  0.00     0.002 A 
ATOM      4  C4  I4B d   1      -0.175  -2.172   0.140  0.00  0.00    -0.004 A 
ATOM      5  C5  I4B d   1      -0.782  -1.497   1.194  0.00  0.00     0.002 A 
ATOM      6  C6  I4B d   1      -0.688  -0.100   1.282  0.00  0.00     0.003 A 
ENDROOT
BRANCH   1   7
ATOM      7  C1' I4B d   1       0.213   2.082   0.433  0.00  0.00     0.060 C 
BRANCH   7   8
ATOM      8  C2' I4B d   1       1.581   2.346   1.030  0.00  0.00    -0.013 C 
ATOM      9  C4' I4B d   1       2.654   2.306  -0.026  0.00  0.00     0.013 C 
ATOM     10  C3' I4B d   1       1.539   3.681   1.710  0.00  0.00     0.013 C 
ENDBRANCH   7   8
ENDBRANCH   1   7
TORSDOF 2
ENDMDL
