MODEL 1
REMARK minimizedAffinity -3.61727595
REMARK minimizedRMSD -1
REMARK  2 active torsions:
REMARK  status: ('A' for Active; 'I' for Inactive)
REMARK    1  A    between atoms: C2'_3  and  C1'_4 
REMARK    2  A    between atoms: C1'_4  and  C1_5 
ROOT
ATOM      1  C1  I4B d   1      -0.172   0.377   0.161  0.00  0.00    -0.075 A 
ATOM      2  C2  I4B d   1       0.357  -0.783  -0.347  0.00  0.00     0.003 A 
ATOM      3  C3  I4B d   1       0.036  -2.031   0.242  0.00  0.00     0.002 A 
ATOM      4  C4  I4B d   1      -0.772  -2.066   1.360  0.00  0.00    -0.004 A 
ATOM      5  C5  I4B d   1      -1.325  -0.891   1.860  0.00  0.00     0.002 A 
ATOM      6  C6  I4B d   1      -1.034   0.337   1.249  0.00  0.00     0.003 A 
ENDROOT
BRANCH   1   7
ATOM      7  C1' I4B d   1       0.214   1.679  -0.465  0.00  0.00     0.060 C 
BRANCH   7   8
ATOM      8  C2' I4B d   1       1.006   2.471   0.555  0.00  0.00    -0.013 C 
ATOM      9  C4' I4B d   1       2.468   2.512   0.197  0.00  0.00     0.013 C 
ATOM     10  C3' I4B d   1       0.426   3.853   0.621  0.00  0.00     0.013 C 
ENDBRANCH   7   8
ENDBRANCH   1   7
TORSDOF 2
ENDMDL
