MODEL 1
REMARK minimizedAffinity -1.83180296
REMARK minimizedRMSD -1
REMARK  2 active torsions:
REMARK  status: ('A' for Active; 'I' for Inactive)
REMARK    1  A    between atoms: C2'_3  and  C1'_4 
REMARK    2  A    between atoms: C1'_4  and  C1_5 
ROOT
ATOM      1  C1  I4B d   1       0.357  -0.524   0.858  0.00  0.00    -0.075 A 
ATOM      2  C2  I4B d   1      -0.860  -0.520   1.493  0.00  0.00     0.003 A 
ATOM      3  C3  I4B d   1      -1.665  -1.685   1.499  0.00  0.00     0.002 A 
ATOM      4  C4  I4B d   1      -1.241  -2.808   0.818  0.00  0.00    -0.004 A 
ATOM      5  C5  I4B d   1       0.004  -2.817   0.195  0.00  0.00     0.002 A 
ATOM      6  C6  I4B d   1       0.813  -1.673   0.225  0.00  0.00     0.003 A 
ENDROOT
BRANCH   1   7
ATOM      7  C1' I4B d   1       1.167   0.733   0.844  0.00  0.00     0.060 C 
BRANCH   7   8
ATOM      8  C2' I4B d   1       0.370   1.793   0.111  0.00  0.00    -0.013 C 
ATOM      9  C4' I4B d   1       1.071   3.126   0.150  0.00  0.00     0.013 C 
ATOM     10  C3' I4B d   1       0.169   1.328  -1.300  0.00  0.00     0.013 C 
ENDBRANCH   7   8
ENDBRANCH   1   7
TORSDOF 2
ENDMDL
