MODEL 1
REMARK minimizedAffinity -6.0723238
REMARK minimizedRMSD -1
REMARK  2 active torsions:
REMARK  status: ('A' for Active; 'I' for Inactive)
REMARK    1  A    between atoms: C2'_3  and  C1'_4 
REMARK    2  A    between atoms: C1'_4  and  C1_5 
ROOT
ATOM      1  C1  I4B d   1      -0.199   0.408  -0.194  0.00  0.00    -0.075 A 
ATOM      2  C2  I4B d   1       0.509  -0.711  -0.554  0.00  0.00     0.003 A 
ATOM      3  C3  I4B d   1       0.268  -1.946   0.095  0.00  0.00     0.002 A 
ATOM      4  C4  I4B d   1      -0.647  -2.005   1.127  0.00  0.00    -0.004 A 
ATOM      5  C5  I4B d   1      -1.380  -0.874   1.475  0.00  0.00     0.002 A 
ATOM      6  C6  I4B d   1      -1.164   0.337   0.802  0.00  0.00     0.003 A 
ENDROOT
BRANCH   1   7
ATOM      7  C1' I4B d   1       0.104   1.703  -0.879  0.00  0.00     0.060 C 
BRANCH   7   8
ATOM      8  C2' I4B d   1       1.104   2.458  -0.028  0.00  0.00    -0.013 C 
ATOM      9  C4' I4B d   1       2.391   2.690  -0.775  0.00  0.00     0.013 C 
ATOM     10  C3' I4B d   1       0.476   3.756   0.385  0.00  0.00     0.013 C 
ENDBRANCH   7   8
ENDBRANCH   1   7
TORSDOF 2
ENDMDL
