MODEL 1
REMARK minimizedAffinity 5.18552208
REMARK minimizedRMSD -1
REMARK  0 active torsions:
REMARK  status: ('A' for Active; 'I' for Inactive)
ROOT
ATOM      1  C4' PXY d   1       5.989  -6.000  -6.000  0.00  0.00     0.077 C 
ATOM      2  C1' PXY d   1       2.638  -2.257  -3.139  0.00  0.00     0.077 C 
ATOM      3  C1  PXY d   1       3.510  -3.249  -3.885  0.00  0.00    -0.082 A 
ATOM      4  C2  PXY d   1       4.756  -2.925  -4.188  0.00  0.00     0.003 A 
ATOM      5  C3  PXY d   1       5.548  -3.797  -4.891  0.00  0.00     0.003 A 
ATOM      6  C4  PXY d   1       5.076  -5.034  -5.240  0.00  0.00    -0.082 A 
ATOM      7  C5  PXY d   1       3.809  -5.376  -4.924  0.00  0.00     0.003 A 
ATOM      8  C6  PXY d   1       3.008  -4.460  -4.247  0.00  0.00     0.003 A 
ENDROOT
TORSDOF 0
ENDMDL
