MODEL 1
REMARK minimizedAffinity 3.80283284
REMARK minimizedRMSD -1
REMARK  0 active torsions:
REMARK  status: ('A' for Active; 'I' for Inactive)
ROOT
ATOM      1  C4' PXY d   1       1.744   2.837   0.022  0.00  0.00     0.077 C 
ATOM      2  C1' PXY d   1      -1.509   3.000   4.798  0.00  0.00     0.077 C 
ATOM      3  C1  PXY d   1      -0.658   2.944   3.544  0.00  0.00    -0.082 A 
ATOM      4  C2  PXY d   1       0.266   3.869   3.339  0.00  0.00     0.003 A 
ATOM      5  C3  PXY d   1       1.023   3.852   2.196  0.00  0.00     0.003 A 
ATOM      6  C4  PXY d   1       0.868   2.848   1.278  0.00  0.00    -0.082 A 
ATOM      7  C5  PXY d   1      -0.065   1.895   1.485  0.00  0.00     0.003 A 
ATOM      8  C6  PXY d   1      -0.851   1.953   2.632  0.00  0.00     0.003 A 
ENDROOT
TORSDOF 0
ENDMDL
