MODEL 1
REMARK minimizedAffinity 13.5988932
REMARK minimizedRMSD -1
REMARK  0 active torsions:
REMARK  status: ('A' for Active; 'I' for Inactive)
ROOT
ATOM      1  C4' PXY d   1       0.338   1.872   1.001  0.00  0.00     0.077 C 
ATOM      2  C1' PXY d   1      -2.040   3.622   5.971  0.00  0.00     0.077 C 
ATOM      3  C1  PXY d   1      -1.424   3.152   4.668  0.00  0.00    -0.082 A 
ATOM      4  C2  PXY d   1      -0.244   3.622   4.295  0.00  0.00     0.003 A 
ATOM      5  C3  PXY d   1       0.313   3.233   3.105  0.00  0.00     0.003 A 
ATOM      6  C4  PXY d   1      -0.319   2.311   2.313  0.00  0.00    -0.082 A 
ATOM      7  C5  PXY d   1      -1.517   1.819   2.691  0.00  0.00     0.003 A 
ATOM      8  C6  PXY d   1      -2.085   2.258   3.884  0.00  0.00     0.003 A 
ENDROOT
TORSDOF 0
ENDMDL
