MODEL 1
REMARK minimizedAffinity -0.37259087
REMARK minimizedRMSD -1
REMARK  0 active torsions:
REMARK  status: ('A' for Active; 'I' for Inactive)
ROOT
ATOM      1  C4' PXY d   1       1.259  -5.736  -5.996  0.00  0.00     0.077 C 
ATOM      2  C1' PXY d   1       5.999  -5.556  -2.692  0.00  0.00     0.077 C 
ATOM      3  C1  PXY d   1       4.749  -5.605  -3.548  0.00  0.00    -0.082 A 
ATOM      4  C2  PXY d   1       4.837  -5.981  -4.813  0.00  0.00     0.003 A 
ATOM      5  C3  PXY d   1       3.721  -6.000  -5.610  0.00  0.00     0.003 A 
ATOM      6  C4  PXY d   1       2.494  -5.681  -5.092  0.00  0.00    -0.082 A 
ATOM      7  C5  PXY d   1       2.395  -5.306  -3.799  0.00  0.00     0.003 A 
ATOM      8  C6  PXY d   1       3.546  -5.254  -3.018  0.00  0.00     0.003 A 
ENDROOT
TORSDOF 0
ENDMDL
