MODEL 1
REMARK minimizedAffinity 3.54369283
REMARK minimizedRMSD -1
REMARK  0 active torsions:
REMARK  status: ('A' for Active; 'I' for Inactive)
ROOT
ATOM      1  C4' PXY d   1       1.330   3.749   3.601  0.00  0.00     0.077 C 
ATOM      2  C1' PXY d   1      -2.969   0.680   1.253  0.00  0.00     0.077 C 
ATOM      3  C1  PXY d   1      -1.851   1.493   1.874  0.00  0.00    -0.082 A 
ATOM      4  C2  PXY d   1      -0.648   1.480   1.322  0.00  0.00     0.003 A 
ATOM      5  C3  PXY d   1       0.383   2.184   1.889  0.00  0.00     0.003 A 
ATOM      6  C4  PXY d   1       0.168   2.951   3.003  0.00  0.00    -0.082 A 
ATOM      7  C5  PXY d   1      -1.058   2.977   3.566  0.00  0.00     0.003 A 
ATOM      8  C6  PXY d   1      -2.081   2.223   2.999  0.00  0.00     0.003 A 
ENDROOT
TORSDOF 0
ENDMDL
