MODEL 1
REMARK minimizedAffinity 18.9093399
REMARK minimizedRMSD -1
REMARK  0 active torsions:
REMARK  status: ('A' for Active; 'I' for Inactive)
ROOT
ATOM      1  C4' PXY d   1       4.980  -6.000  -5.999  0.00  0.00     0.077 C 
ATOM      2  C1' PXY d   1       0.426  -3.876  -3.143  0.00  0.00     0.077 C 
ATOM      3  C1  PXY d   1       1.626  -4.421  -3.891  0.00  0.00    -0.082 A 
ATOM      4  C2  PXY d   1       1.482  -5.474  -4.679  0.00  0.00     0.003 A 
ATOM      5  C3  PXY d   1       2.564  -6.000  -5.338  0.00  0.00     0.003 A 
ATOM      6  C4  PXY d   1       3.794  -5.410  -5.232  0.00  0.00    -0.082 A 
ATOM      7  C5  PXY d   1       3.947  -4.328  -4.438  0.00  0.00     0.003 A 
ATOM      8  C6  PXY d   1       2.845  -3.835  -3.745  0.00  0.00     0.003 A 
ENDROOT
TORSDOF 0
ENDMDL
