MODEL 1
REMARK minimizedAffinity -3.26110983
REMARK minimizedRMSD -1
REMARK  0 active torsions:
REMARK  status: ('A' for Active; 'I' for Inactive)
ROOT
ATOM      1  C4' PXY d   1      -5.529  -0.127   3.725  0.00  0.00     0.077 C 
ATOM      2  C1' PXY d   1      -0.623  -1.146   0.843  0.00  0.00     0.077 C 
ATOM      3  C1  PXY d   1      -1.909  -0.866   1.596  0.00  0.00    -0.082 A 
ATOM      4  C2  PXY d   1      -2.299  -1.692   2.554  0.00  0.00     0.003 A 
ATOM      5  C3  PXY d   1      -3.475  -1.471   3.223  0.00  0.00     0.003 A 
ATOM      6  C4  PXY d   1      -4.233  -0.365   2.945  0.00  0.00    -0.082 A 
ATOM      7  C5  PXY d   1      -3.836   0.488   1.977  0.00  0.00     0.003 A 
ATOM      8  C6  PXY d   1      -2.660   0.223   1.281  0.00  0.00     0.003 A 
ENDROOT
TORSDOF 0
ENDMDL
