MODEL 1
REMARK minimizedAffinity 8.83949375
REMARK minimizedRMSD -1
REMARK  0 active torsions:
REMARK  status: ('A' for Active; 'I' for Inactive)
ROOT
ATOM      1  C4' PXY d   1      -0.082  -0.191   0.329  0.00  0.00     0.077 C 
ATOM      2  C1' PXY d   1      -3.464  -4.780  -0.627  0.00  0.00     0.077 C 
ATOM      3  C1  PXY d   1      -2.581  -3.576  -0.364  0.00  0.00    -0.082 A 
ATOM      4  C2  PXY d   1      -2.236  -2.786  -1.367  0.00  0.00     0.003 A 
ATOM      5  C3  PXY d   1      -1.412  -1.711  -1.152  0.00  0.00     0.003 A 
ATOM      6  C4  PXY d   1      -0.980  -1.412   0.112  0.00  0.00    -0.082 A 
ATOM      7  C5  PXY d   1      -1.335  -2.208   1.143  0.00  0.00     0.003 A 
ATOM      8  C6  PXY d   1      -2.139  -3.317   0.897  0.00  0.00     0.003 A 
ENDROOT
TORSDOF 0
ENDMDL
