MODEL 1
REMARK minimizedAffinity -2.06741691
REMARK minimizedRMSD -1
REMARK  0 active torsions:
REMARK  status: ('A' for Active; 'I' for Inactive)
ROOT
ATOM      1  C4' PXY d   1       2.930   2.554   0.826  0.00  0.00     0.077 C 
ATOM      2  C1' PXY d   1      -1.911   3.850   3.707  0.00  0.00     0.077 C 
ATOM      3  C1  PXY d   1      -0.647   3.500   2.946  0.00  0.00    -0.082 A 
ATOM      4  C2  PXY d   1       0.524   3.918   3.396  0.00  0.00     0.003 A 
ATOM      5  C3  PXY d   1       1.674   3.638   2.703  0.00  0.00     0.003 A 
ATOM      6  C4  PXY d   1       1.629   2.876   1.567  0.00  0.00    -0.082 A 
ATOM      7  C5  PXY d   1       0.439   2.436   1.107  0.00  0.00     0.003 A 
ATOM      8  C6  PXY d   1      -0.721   2.766   1.802  0.00  0.00     0.003 A 
ENDROOT
TORSDOF 0
ENDMDL
