MODEL 1
REMARK minimizedAffinity 5.70921707
REMARK minimizedRMSD -1
REMARK  0 active torsions:
REMARK  status: ('A' for Active; 'I' for Inactive)
ROOT
ATOM      1  C4' PXY d   1       0.371   0.719   0.214  0.00  0.00     0.077 C 
ATOM      2  C1' PXY d   1      -0.957   4.712   4.176  0.00  0.00     0.077 C 
ATOM      3  C1  PXY d   1      -0.607   3.674   3.128  0.00  0.00    -0.082 A 
ATOM      4  C2  PXY d   1      -1.084   2.446   3.239  0.00  0.00     0.003 A 
ATOM      5  C3  PXY d   1      -0.751   1.486   2.318  0.00  0.00     0.003 A 
ATOM      6  C4  PXY d   1       0.036   1.801   1.243  0.00  0.00    -0.082 A 
ATOM      7  C5  PXY d   1       0.518   3.056   1.117  0.00  0.00     0.003 A 
ATOM      8  C6  PXY d   1       0.202   4.004   2.085  0.00  0.00     0.003 A 
ENDROOT
TORSDOF 0
ENDMDL
