MODEL 1
REMARK minimizedAffinity 1.84568834
REMARK minimizedRMSD -1
REMARK  0 active torsions:
REMARK  status: ('A' for Active; 'I' for Inactive)
ROOT
ATOM      1  C4' PXY d   1      -1.399   0.538   0.596  0.00  0.00     0.077 C 
ATOM      2  C1' PXY d   1      -3.260  -1.854   5.518  0.00  0.00     0.077 C 
ATOM      3  C1  PXY d   1      -2.760  -1.233   4.228  0.00  0.00    -0.082 A 
ATOM      4  C2  PXY d   1      -3.277  -0.089   3.810  0.00  0.00     0.003 A 
ATOM      5  C3  PXY d   1      -2.860   0.470   2.630  0.00  0.00     0.003 A 
ATOM      6  C4  PXY d   1      -1.866  -0.121   1.897  0.00  0.00    -0.082 A 
ATOM      7  C5  PXY d   1      -1.326  -1.282   2.322  0.00  0.00     0.003 A 
ATOM      8  C6  PXY d   1      -1.792  -1.855   3.502  0.00  0.00     0.003 A 
ENDROOT
TORSDOF 0
ENDMDL
