MODEL 1
REMARK minimizedAffinity -0.0563059226
REMARK minimizedRMSD -1
REMARK  0 active torsions:
REMARK  status: ('A' for Active; 'I' for Inactive)
ROOT
ATOM      1  C4' PXY d   1      -4.352  -1.417   4.054  0.00  0.00     0.077 C 
ATOM      2  C1' PXY d   1      -0.107   0.232   0.494  0.00  0.00     0.077 C 
ATOM      3  C1  PXY d   1      -1.216  -0.213   1.427  0.00  0.00    -0.082 A 
ATOM      4  C2  PXY d   1      -2.319   0.512   1.525  0.00  0.00     0.003 A 
ATOM      5  C3  PXY d   1      -3.318   0.142   2.387  0.00  0.00     0.003 A 
ATOM      6  C4  PXY d   1      -3.211  -1.011   3.118  0.00  0.00    -0.082 A 
ATOM      7  C5  PXY d   1      -2.093  -1.762   3.016  0.00  0.00     0.003 A 
ATOM      8  C6  PXY d   1      -1.073  -1.347   2.166  0.00  0.00     0.003 A 
ENDROOT
TORSDOF 0
ENDMDL
