MODEL 1
REMARK minimizedAffinity 1.89946103
REMARK minimizedRMSD -1
REMARK  0 active torsions:
REMARK  status: ('A' for Active; 'I' for Inactive)
ROOT
ATOM      1  C4' PXY d   1       6.000   2.892  -1.882  0.00  0.00     0.077 C 
ATOM      2  C1' PXY d   1       1.985   2.314  -6.000  0.00  0.00     0.077 C 
ATOM      3  C1  PXY d   1       3.028   2.467  -4.911  0.00  0.00    -0.082 A 
ATOM      4  C2  PXY d   1       4.242   2.892  -5.223  0.00  0.00     0.003 A 
ATOM      5  C3  PXY d   1       5.207   3.005  -4.255  0.00  0.00     0.003 A 
ATOM      6  C4  PXY d   1       4.912   2.732  -2.947  0.00  0.00    -0.082 A 
ATOM      7  C5  PXY d   1       3.673   2.308  -2.619  0.00  0.00     0.003 A 
ATOM      8  C6  PXY d   1       2.719   2.160  -3.622  0.00  0.00     0.003 A 
ENDROOT
TORSDOF 0
ENDMDL
