MODEL 1
REMARK minimizedAffinity -3.22544503
REMARK minimizedRMSD -1
REMARK  0 active torsions:
REMARK  status: ('A' for Active; 'I' for Inactive)
ROOT
ATOM      1  C4' PXY d   1       0.936   4.509  -6.000  0.00  0.00     0.077 C 
ATOM      2  C1' PXY d   1       6.000   2.922  -3.706  0.00  0.00     0.077 C 
ATOM      3  C1  PXY d   1       4.678   3.349  -4.314  0.00  0.00    -0.082 A 
ATOM      4  C2  PXY d   1       3.544   2.975  -3.741  0.00  0.00     0.003 A 
ATOM      5  C3  PXY d   1       2.340   3.325  -4.295  0.00  0.00     0.003 A 
ATOM      6  C4  PXY d   1       2.294   4.110  -5.416  0.00  0.00    -0.082 A 
ATOM      7  C5  PXY d   1       3.446   4.504  -6.000  0.00  0.00     0.003 A 
ATOM      8  C6  PXY d   1       4.659   4.103  -5.445  0.00  0.00     0.003 A 
ENDROOT
TORSDOF 0
ENDMDL
