MODEL 1
REMARK minimizedAffinity -2.50811005
REMARK minimizedRMSD -1
REMARK  0 active torsions:
REMARK  status: ('A' for Active; 'I' for Inactive)
ROOT
ATOM      1  C4' PXY d   1       1.373   2.668  -5.904  0.00  0.00     0.077 C 
ATOM      2  C1' PXY d   1       6.000   3.367  -2.511  0.00  0.00     0.077 C 
ATOM      3  C1  PXY d   1       4.793   3.190  -3.411  0.00  0.00    -0.082 A 
ATOM      4  C2  PXY d   1       3.598   3.004  -2.873  0.00  0.00     0.003 A 
ATOM      5  C3  PXY d   1       2.500   2.811  -3.672  0.00  0.00     0.003 A 
ATOM      6  C4  PXY d   1       2.618   2.861  -5.035  0.00  0.00    -0.082 A 
ATOM      7  C5  PXY d   1       3.832   3.060  -5.591  0.00  0.00     0.003 A 
ATOM      8  C6  PXY d   1       4.940   3.214  -4.763  0.00  0.00     0.003 A 
ENDROOT
TORSDOF 0
ENDMDL
