MODEL 1
REMARK minimizedAffinity -1.26226151
REMARK minimizedRMSD -1
REMARK  0 active torsions:
REMARK  status: ('A' for Active; 'I' for Inactive)
ROOT
ATOM      1  C4' PXY d   1       6.000   2.487  -3.400  0.00  0.00     0.077 C 
ATOM      2  C1' PXY d   1       0.917   3.407  -5.995  0.00  0.00     0.077 C 
ATOM      3  C1  PXY d   1       2.245   3.169  -5.303  0.00  0.00    -0.082 A 
ATOM      4  C2  PXY d   1       3.367   3.240  -6.000  0.00  0.00     0.003 A 
ATOM      5  C3  PXY d   1       4.574   2.996  -5.396  0.00  0.00     0.003 A 
ATOM      6  C4  PXY d   1       4.637   2.729  -4.055  0.00  0.00    -0.082 A 
ATOM      7  C5  PXY d   1       3.497   2.666  -3.335  0.00  0.00     0.003 A 
ATOM      8  C6  PXY d   1       2.279   2.876  -3.975  0.00  0.00     0.003 A 
ENDROOT
TORSDOF 0
ENDMDL
