MODEL 1
REMARK minimizedAffinity 2.73984313
REMARK minimizedRMSD -1
REMARK  0 active torsions:
REMARK  status: ('A' for Active; 'I' for Inactive)
ROOT
ATOM      1  C4' PXY d   1       0.030   0.573  -0.179  0.00  0.00     0.077 C 
ATOM      2  C1' PXY d   1       0.470   4.443   4.092  0.00  0.00     0.077 C 
ATOM      3  C1  PXY d   1       0.342   3.427   2.975  0.00  0.00    -0.082 A 
ATOM      4  C2  PXY d   1       1.418   2.787   2.546  0.00  0.00     0.003 A 
ATOM      5  C3  PXY d   1       1.326   1.888   1.515  0.00  0.00     0.003 A 
ATOM      6  C4  PXY d   1       0.110   1.601   0.953  0.00  0.00    -0.082 A 
ATOM      7  C5  PXY d   1      -0.994   2.241   1.393  0.00  0.00     0.003 A 
ATOM      8  C6  PXY d   1      -0.872   3.181   2.412  0.00  0.00     0.003 A 
ENDROOT
TORSDOF 0
ENDMDL
