MODEL 1
REMARK minimizedAffinity 4.32128859
REMARK minimizedRMSD -1
REMARK  0 active torsions:
REMARK  status: ('A' for Active; 'I' for Inactive)
ROOT
ATOM      1  C4' PXY d   1      -2.093   4.157   3.949  0.00  0.00     0.077 C 
ATOM      2  C1' PXY d   1       3.493   3.694   2.533  0.00  0.00     0.077 C 
ATOM      3  C1  PXY d   1       2.025   3.820   2.892  0.00  0.00    -0.082 A 
ATOM      4  C2  PXY d   1       1.673   3.984   4.157  0.00  0.00     0.003 A 
ATOM      5  C3  PXY d   1       0.349   4.067   4.503  0.00  0.00     0.003 A 
ATOM      6  C4  PXY d   1      -0.623   4.035   3.539  0.00  0.00    -0.082 A 
ATOM      7  C5  PXY d   1      -0.271   3.879   2.245  0.00  0.00     0.003 A 
ATOM      8  C6  PXY d   1       1.077   3.755   1.919  0.00  0.00     0.003 A 
ENDROOT
TORSDOF 0
ENDMDL
