MODEL 1
REMARK minimizedAffinity 7.63242626
REMARK minimizedRMSD -1
REMARK  0 active torsions:
REMARK  status: ('A' for Active; 'I' for Inactive)
ROOT
ATOM      1  C4' PXY d   1      -3.367  -4.410  -1.479  0.00  0.00     0.077 C 
ATOM      2  C1' PXY d   1       2.097  -3.412  -3.082  0.00  0.00     0.077 C 
ATOM      3  C1  PXY d   1       0.667  -3.671  -2.650  0.00  0.00    -0.082 A 
ATOM      4  C2  PXY d   1      -0.118  -4.425  -3.403  0.00  0.00     0.003 A 
ATOM      5  C3  PXY d   1      -1.422  -4.643  -3.042  0.00  0.00     0.003 A 
ATOM      6  C4  PXY d   1      -1.914  -4.129  -1.872  0.00  0.00    -0.082 A 
ATOM      7  C5  PXY d   1      -1.116  -3.368  -1.093  0.00  0.00     0.003 A 
ATOM      8  C6  PXY d   1       0.194  -3.124  -1.497  0.00  0.00     0.003 A 
ENDROOT
TORSDOF 0
ENDMDL
