MODEL 1
REMARK minimizedAffinity 3.01489496
REMARK minimizedRMSD -1
REMARK  2 active torsions:
REMARK  status: ('A' for Active; 'I' for Inactive)
REMARK    1  A    between atoms: C1_2  and  C2_3 
REMARK    2  A    between atoms: C2_3  and  C3_4 
ROOT
ATOM      1  C3  UNL d   1      -2.802  -5.258  -5.863  0.00  0.00    -0.075 A 
ATOM      2  C4  UNL d   1      -2.882  -3.858  -5.814  0.00  0.00     0.002 A 
ATOM      3  C5  UNL d   1      -4.121  -3.218  -5.844  0.00  0.00     0.002 A 
ATOM      4  C6  UNL d   1      -5.293  -3.966  -5.934  0.00  0.00    -0.004 A 
ATOM      5  C7  UNL d   1      -5.224  -5.356  -5.999  0.00  0.00     0.002 A 
ATOM      6  C8  UNL d   1      -3.986  -5.999  -5.965  0.00  0.00     0.002 A 
ENDROOT
BRANCH   1   7
ATOM      7  C2  UNL d   1      -1.465  -5.958  -5.801  0.00  0.00     0.056 C 
BRANCH   7   8
ATOM      8  C1  UNL d   1      -0.837  -5.981  -4.404  0.00  0.00     0.007 C 
ATOM      9  C   UNL d   1      -1.712  -5.328  -3.342  0.00  0.00     0.009 C 
ENDBRANCH   7   8
ENDBRANCH   1   7
TORSDOF 2
ENDMDL
