MODEL 1
REMARK minimizedAffinity -2.84307218
REMARK minimizedRMSD -1
REMARK  2 active torsions:
REMARK  status: ('A' for Active; 'I' for Inactive)
REMARK    1  A    between atoms: C1_2  and  C2_3 
REMARK    2  A    between atoms: C2_3  and  C3_4 
ROOT
ATOM      1  C3  UNL d   1      -3.834  -4.486  -5.073  0.00  0.00    -0.075 A 
ATOM      2  C4  UNL d   1      -3.647  -4.655  -3.693  0.00  0.00     0.002 A 
ATOM      3  C5  UNL d   1      -2.487  -5.256  -3.203  0.00  0.00     0.002 A 
ATOM      4  C6  UNL d   1      -1.505  -5.703  -4.085  0.00  0.00    -0.004 A 
ATOM      5  C7  UNL d   1      -1.688  -5.556  -5.458  0.00  0.00     0.002 A 
ATOM      6  C8  UNL d   1      -2.846  -4.951  -5.951  0.00  0.00     0.002 A 
ENDROOT
BRANCH   1   7
ATOM      7  C2  UNL d   1      -5.074  -3.811  -5.607  0.00  0.00     0.056 C 
BRANCH   7   8
ATOM      8  C1  UNL d   1      -5.987  -3.234  -4.521  0.00  0.00     0.007 C 
ATOM      9  C   UNL d   1      -6.000  -1.711  -4.493  0.00  0.00     0.009 C 
ENDBRANCH   7   8
ENDBRANCH   1   7
TORSDOF 2
ENDMDL
