MODEL 1
REMARK minimizedAffinity -0.799066424
REMARK minimizedRMSD -1
REMARK  2 active torsions:
REMARK  status: ('A' for Active; 'I' for Inactive)
REMARK    1  A    between atoms: C1_2  and  C2_3 
REMARK    2  A    between atoms: C2_3  and  C3_4 
ROOT
ATOM      1  C3  UNL d   1      -3.582  -5.142  -5.752  0.00  0.00    -0.075 A 
ATOM      2  C4  UNL d   1      -3.593  -3.754  -5.552  0.00  0.00     0.002 A 
ATOM      3  C5  UNL d   1      -4.796  -3.047  -5.559  0.00  0.00     0.002 A 
ATOM      4  C6  UNL d   1      -5.999  -3.715  -5.776  0.00  0.00    -0.004 A 
ATOM      5  C7  UNL d   1      -5.998  -5.091  -5.993  0.00  0.00     0.002 A 
ATOM      6  C8  UNL d   1      -4.796  -5.802  -5.982  0.00  0.00     0.002 A 
ENDROOT
BRANCH   1   7
ATOM      7  C2  UNL d   1      -2.287  -5.917  -5.716  0.00  0.00     0.056 C 
BRANCH   7   8
ATOM      8  C1  UNL d   1      -1.485  -5.732  -4.423  0.00  0.00     0.007 C 
ATOM      9  C   UNL d   1      -2.305  -5.991  -3.166  0.00  0.00     0.009 C 
ENDBRANCH   7   8
ENDBRANCH   1   7
TORSDOF 2
ENDMDL
