MODEL 1
REMARK minimizedAffinity 3.85939145
REMARK minimizedRMSD -1
REMARK  2 active torsions:
REMARK  status: ('A' for Active; 'I' for Inactive)
REMARK    1  A    between atoms: C1_2  and  C2_3 
REMARK    2  A    between atoms: C2_3  and  C3_4 
ROOT
ATOM      1  C3  UNL d   1      -0.791  -2.106   1.786  0.00  0.00    -0.075 A 
ATOM      2  C4  UNL d   1      -1.698  -1.470   2.646  0.00  0.00     0.002 A 
ATOM      3  C5  UNL d   1      -2.360  -0.310   2.244  0.00  0.00     0.002 A 
ATOM      4  C6  UNL d   1      -2.117   0.234   0.984  0.00  0.00    -0.004 A 
ATOM      5  C7  UNL d   1      -1.206  -0.381   0.129  0.00  0.00     0.002 A 
ATOM      6  C8  UNL d   1      -0.545  -1.544   0.527  0.00  0.00     0.002 A 
ENDROOT
BRANCH   1   7
ATOM      7  C2  UNL d   1      -0.093  -3.378   2.204  0.00  0.00     0.056 C 
BRANCH   7   8
ATOM      8  C1  UNL d   1       1.297  -3.157   2.811  0.00  0.00     0.007 C 
ATOM      9  C   UNL d   1       1.488  -3.865   4.146  0.00  0.00     0.009 C 
ENDBRANCH   7   8
ENDBRANCH   1   7
TORSDOF 2
ENDMDL
