MODEL 1
REMARK minimizedAffinity -0.0328307152
REMARK minimizedRMSD -1
REMARK  2 active torsions:
REMARK  status: ('A' for Active; 'I' for Inactive)
REMARK    1  A    between atoms: C1_2  and  C2_3 
REMARK    2  A    between atoms: C2_3  and  C3_4 
ROOT
ATOM      1  C3  UNL d   1      -3.460  -4.105  -4.628  0.00  0.00    -0.075 A 
ATOM      2  C4  UNL d   1      -2.681  -4.411  -3.502  0.00  0.00     0.002 A 
ATOM      3  C5  UNL d   1      -1.530  -5.189  -3.628  0.00  0.00     0.002 A 
ATOM      4  C6  UNL d   1      -1.148  -5.678  -4.875  0.00  0.00    -0.004 A 
ATOM      5  C7  UNL d   1      -1.923  -5.394  -5.998  0.00  0.00     0.002 A 
ATOM      6  C8  UNL d   1      -3.074  -4.612  -5.876  0.00  0.00     0.002 A 
ENDROOT
BRANCH   1   7
ATOM      7  C2  UNL d   1      -4.691  -3.240  -4.503  0.00  0.00     0.056 C 
BRANCH   7   8
ATOM      8  C1  UNL d   1      -5.255  -2.760  -5.845  0.00  0.00     0.007 C 
ATOM      9  C   UNL d   1      -5.995  -1.433  -5.746  0.00  0.00     0.009 C 
ENDBRANCH   7   8
ENDBRANCH   1   7
TORSDOF 2
ENDMDL
