MODEL 1
REMARK minimizedAffinity -1.67099798
REMARK minimizedRMSD -1
REMARK  2 active torsions:
REMARK  status: ('A' for Active; 'I' for Inactive)
REMARK    1  A    between atoms: C1_2  and  C2_3 
REMARK    2  A    between atoms: C2_3  and  C3_4 
ROOT
ATOM      1  C3  UNL d   1      -4.294  -4.717  -4.874  0.00  0.00    -0.075 A 
ATOM      2  C4  UNL d   1      -3.438  -4.559  -3.775  0.00  0.00     0.002 A 
ATOM      3  C5  UNL d   1      -2.152  -5.099  -3.795  0.00  0.00     0.002 A 
ATOM      4  C6  UNL d   1      -1.710  -5.811  -4.909  0.00  0.00    -0.004 A 
ATOM      5  C7  UNL d   1      -2.558  -5.987  -6.000  0.00  0.00     0.002 A 
ATOM      6  C8  UNL d   1      -3.844  -5.444  -5.984  0.00  0.00     0.002 A 
ENDROOT
BRANCH   1   7
ATOM      7  C2  UNL d   1      -5.677  -4.109  -4.870  0.00  0.00     0.056 C 
BRANCH   7   8
ATOM      8  C1  UNL d   1      -5.920  -3.103  -5.999  0.00  0.00     0.007 C 
ATOM      9  C   UNL d   1      -4.965  -1.917  -5.962  0.00  0.00     0.009 C 
ENDBRANCH   7   8
ENDBRANCH   1   7
TORSDOF 2
ENDMDL
