MODEL 1
REMARK minimizedAffinity -1.19614756
REMARK minimizedRMSD -1
REMARK  2 active torsions:
REMARK  status: ('A' for Active; 'I' for Inactive)
REMARK    1  A    between atoms: C1_2  and  C2_3 
REMARK    2  A    between atoms: C2_3  and  C3_4 
ROOT
ATOM      1  C3  UNL d   1      -4.002  -4.787  -5.241  0.00  0.00    -0.075 A 
ATOM      2  C4  UNL d   1      -3.690  -4.464  -3.913  0.00  0.00     0.002 A 
ATOM      3  C5  UNL d   1      -2.467  -4.846  -3.360  0.00  0.00     0.002 A 
ATOM      4  C6  UNL d   1      -1.548  -5.562  -4.122  0.00  0.00    -0.004 A 
ATOM      5  C7  UNL d   1      -1.854  -5.903  -5.438  0.00  0.00     0.002 A 
ATOM      6  C8  UNL d   1      -3.075  -5.519  -5.995  0.00  0.00     0.002 A 
ENDROOT
BRANCH   1   7
ATOM      7  C2  UNL d   1      -5.311  -4.351  -5.855  0.00  0.00     0.056 C 
BRANCH   7   8
ATOM      8  C1  UNL d   1      -5.999  -3.204  -5.108  0.00  0.00     0.007 C 
ATOM      9  C   UNL d   1      -5.980  -1.890  -5.876  0.00  0.00     0.009 C 
ENDBRANCH   7   8
ENDBRANCH   1   7
TORSDOF 2
ENDMDL
