MODEL 1
REMARK minimizedAffinity 2.42984056
REMARK minimizedRMSD -1
REMARK  2 active torsions:
REMARK  status: ('A' for Active; 'I' for Inactive)
REMARK    1  A    between atoms: C1_2  and  C2_3 
REMARK    2  A    between atoms: C2_3  and  C3_4 
ROOT
ATOM      1  C3  UNL d   1      -1.510  -1.091   2.075  0.00  0.00    -0.075 A 
ATOM      2  C4  UNL d   1      -0.468  -0.285   1.596  0.00  0.00     0.002 A 
ATOM      3  C5  UNL d   1       0.071  -0.503   0.328  0.00  0.00     0.002 A 
ATOM      4  C6  UNL d   1      -0.418  -1.534  -0.472  0.00  0.00    -0.004 A 
ATOM      5  C7  UNL d   1      -1.442  -2.352   0.001  0.00  0.00     0.002 A 
ATOM      6  C8  UNL d   1      -1.986  -2.132   1.268  0.00  0.00     0.002 A 
ENDROOT
BRANCH   1   7
ATOM      7  C2  UNL d   1      -2.117  -0.840   3.435  0.00  0.00     0.056 C 
BRANCH   7   8
ATOM      8  C1  UNL d   1      -3.589  -0.416   3.393  0.00  0.00     0.007 C 
ATOM      9  C   UNL d   1      -3.929   0.674   4.400  0.00  0.00     0.009 C 
ENDBRANCH   7   8
ENDBRANCH   1   7
TORSDOF 2
ENDMDL
