MODEL 1
REMARK minimizedAffinity 10.730135
REMARK minimizedRMSD -1
REMARK  2 active torsions:
REMARK  status: ('A' for Active; 'I' for Inactive)
REMARK    1  A    between atoms: C1_2  and  C2_3 
REMARK    2  A    between atoms: C2_3  and  C3_4 
ROOT
ATOM      1  C3  UNL d   1       0.904   0.688  -2.084  0.00  0.00    -0.075 A 
ATOM      2  C4  UNL d   1       2.178   1.232  -2.299  0.00  0.00     0.002 A 
ATOM      3  C5  UNL d   1       2.369   2.235  -3.251  0.00  0.00     0.002 A 
ATOM      4  C6  UNL d   1       1.293   2.698  -4.004  0.00  0.00    -0.004 A 
ATOM      5  C7  UNL d   1       0.026   2.154  -3.811  0.00  0.00     0.002 A 
ATOM      6  C8  UNL d   1      -0.169   1.153  -2.856  0.00  0.00     0.002 A 
ENDROOT
BRANCH   1   7
ATOM      7  C2  UNL d   1       0.685  -0.376  -1.036  0.00  0.00     0.056 C 
BRANCH   7   8
ATOM      8  C1  UNL d   1       0.444   0.176   0.373  0.00  0.00     0.007 C 
ATOM      9  C   UNL d   1      -0.915  -0.207   0.944  0.00  0.00     0.009 C 
ENDBRANCH   7   8
ENDBRANCH   1   7
TORSDOF 2
ENDMDL
