MODEL 1
REMARK minimizedAffinity -1.76475525
REMARK minimizedRMSD -1
REMARK  2 active torsions:
REMARK  status: ('A' for Active; 'I' for Inactive)
REMARK    1  A    between atoms: C1_2  and  C2_3 
REMARK    2  A    between atoms: C2_3  and  C3_4 
ROOT
ATOM      1  C3  UNL d   1      -5.080  -3.682  -5.213  0.00  0.00    -0.075 A 
ATOM      2  C4  UNL d   1      -5.412  -4.797  -5.995  0.00  0.00     0.002 A 
ATOM      3  C5  UNL d   1      -4.628  -5.950  -5.954  0.00  0.00     0.002 A 
ATOM      4  C6  UNL d   1      -3.499  -6.000  -5.140  0.00  0.00    -0.004 A 
ATOM      5  C7  UNL d   1      -3.150  -4.892  -4.371  0.00  0.00     0.002 A 
ATOM      6  C8  UNL d   1      -3.935  -3.738  -4.407  0.00  0.00     0.002 A 
ENDROOT
BRANCH   1   7
ATOM      7  C2  UNL d   1      -5.940  -2.441  -5.230  0.00  0.00     0.056 C 
BRANCH   7   8
ATOM      8  C1  UNL d   1      -5.993  -1.700  -3.890  0.00  0.00     0.007 C 
ATOM      9  C   UNL d   1      -5.991  -0.184  -4.042  0.00  0.00     0.009 C 
ENDBRANCH   7   8
ENDBRANCH   1   7
TORSDOF 2
ENDMDL
