MODEL 1
REMARK minimizedAffinity -3.17392254
REMARK minimizedRMSD -1
REMARK  2 active torsions:
REMARK  status: ('A' for Active; 'I' for Inactive)
REMARK    1  A    between atoms: C1_2  and  C2_3 
REMARK    2  A    between atoms: C2_3  and  C3_4 
ROOT
ATOM      1  C3  UNL d   1      -4.197  -4.019  -5.776  0.00  0.00    -0.075 A 
ATOM      2  C4  UNL d   1      -3.083  -3.249  -5.413  0.00  0.00     0.002 A 
ATOM      3  C5  UNL d   1      -1.836  -3.847  -5.235  0.00  0.00     0.002 A 
ATOM      4  C6  UNL d   1      -1.689  -5.222  -5.406  0.00  0.00    -0.004 A 
ATOM      5  C7  UNL d   1      -2.792  -6.000  -5.751  0.00  0.00     0.002 A 
ATOM      6  C8  UNL d   1      -4.041  -5.403  -5.934  0.00  0.00     0.002 A 
ENDROOT
BRANCH   1   7
ATOM      7  C2  UNL d   1      -5.544  -3.373  -5.999  0.00  0.00     0.056 C 
BRANCH   7   8
ATOM      8  C1  UNL d   1      -5.853  -2.225  -5.032  0.00  0.00     0.007 C 
ATOM      9  C   UNL d   1      -5.999  -2.681  -3.587  0.00  0.00     0.009 C 
ENDBRANCH   7   8
ENDBRANCH   1   7
TORSDOF 2
ENDMDL
