MODEL 1
REMARK minimizedAffinity -2.79055142
REMARK minimizedRMSD -1
REMARK  1 active torsions:
REMARK  status: ('A' for Active; 'I' for Inactive)
REMARK    1  A    between atoms: C1_2  and  C2_3 
ROOT
ATOM      1  C2  UNL d   1       4.767  -1.542   4.262  0.00  0.00    -0.077 A 
ATOM      2  C3  UNL d   1       5.871  -1.643   5.121  0.00  0.00     0.002 A 
ATOM      3  C4  UNL d   1       5.994  -2.732   5.986  0.00  0.00     0.002 A 
ATOM      4  C5  UNL d   1       5.020  -3.728   5.999  0.00  0.00    -0.004 A 
ATOM      5  C6  UNL d   1       3.918  -3.635   5.151  0.00  0.00     0.002 A 
ATOM      6  C7  UNL d   1       3.792  -2.547   4.286  0.00  0.00     0.002 A 
ENDROOT
BRANCH   1   7
ATOM      7  C1  UNL d   1       4.657  -0.394   3.293  0.00  0.00     0.055 C 
ATOM      8  C   UNL d   1       5.993  -0.102   2.626  0.00  0.00     0.019 C 
ENDBRANCH   1   7
TORSDOF 1
ENDMDL
