MODEL 1
REMARK minimizedAffinity -3.03812957
REMARK minimizedRMSD -1
REMARK  1 active torsions:
REMARK  status: ('A' for Active; 'I' for Inactive)
REMARK    1  A    between atoms: C1_2  and  C2_3 
ROOT
ATOM      1  C2  UNL d   1       5.376  -0.508   4.796  0.00  0.00    -0.077 A 
ATOM      2  C3  UNL d   1       5.307   0.208   5.999  0.00  0.00     0.002 A 
ATOM      3  C4  UNL d   1       5.409   1.600   5.999  0.00  0.00     0.002 A 
ATOM      4  C5  UNL d   1       5.575   2.288   4.799  0.00  0.00    -0.004 A 
ATOM      5  C6  UNL d   1       5.646   1.585   3.597  0.00  0.00     0.002 A 
ATOM      6  C7  UNL d   1       5.546   0.193   3.595  0.00  0.00     0.002 A 
ENDROOT
BRANCH   1   7
ATOM      7  C1  UNL d   1       5.217  -2.006   4.789  0.00  0.00     0.055 C 
ATOM      8  C   UNL d   1       5.890  -2.640   5.997  0.00  0.00     0.019 C 
ENDBRANCH   1   7
TORSDOF 1
ENDMDL
