MODEL 1
REMARK minimizedAffinity 1.04656255
REMARK minimizedRMSD -1
REMARK  1 active torsions:
REMARK  status: ('A' for Active; 'I' for Inactive)
REMARK    1  A    between atoms: C1_2  and  C2_3 
ROOT
ATOM      1  C2  UNL d   1       5.762  -0.537   4.783  0.00  0.00    -0.077 A 
ATOM      2  C3  UNL d   1       5.993  -1.253   5.966  0.00  0.00     0.002 A 
ATOM      3  C4  UNL d   1       5.817  -2.638   5.999  0.00  0.00     0.002 A 
ATOM      4  C5  UNL d   1       5.414  -3.318   4.852  0.00  0.00    -0.004 A 
ATOM      5  C6  UNL d   1       5.179  -2.614   3.671  0.00  0.00     0.002 A 
ATOM      6  C7  UNL d   1       5.353  -1.230   3.637  0.00  0.00     0.002 A 
ENDROOT
BRANCH   1   7
ATOM      7  C1  UNL d   1       5.998   0.950   4.733  0.00  0.00     0.055 C 
ATOM      8  C   UNL d   1       5.501   1.633   5.999  0.00  0.00     0.019 C 
ENDBRANCH   1   7
TORSDOF 1
ENDMDL
