MODEL 1
REMARK minimizedAffinity -2.60226846
REMARK minimizedRMSD -1
REMARK  1 active torsions:
REMARK  status: ('A' for Active; 'I' for Inactive)
REMARK    1  A    between atoms: C1_2  and  C2_3 
ROOT
ATOM      1  C2  UNL d   1       5.519   2.006   4.404  0.00  0.00    -0.077 A 
ATOM      2  C3  UNL d   1       5.963   1.594   5.668  0.00  0.00     0.002 A 
ATOM      3  C4  UNL d   1       5.990   0.238   6.000  0.00  0.00     0.002 A 
ATOM      4  C5  UNL d   1       5.580  -0.717   5.071  0.00  0.00    -0.004 A 
ATOM      5  C6  UNL d   1       5.136  -0.317   3.812  0.00  0.00     0.002 A 
ATOM      6  C7  UNL d   1       5.106   1.038   3.479  0.00  0.00     0.002 A 
ENDROOT
BRANCH   1   7
ATOM      7  C1  UNL d   1       5.535   3.464   4.027  0.00  0.00     0.055 C 
ATOM      8  C   UNL d   1       6.000   4.331   5.188  0.00  0.00     0.019 C 
ENDBRANCH   1   7
TORSDOF 1
ENDMDL
