MODEL 1
REMARK minimizedAffinity -0.83640188
REMARK minimizedRMSD -1
REMARK  1 active torsions:
REMARK  status: ('A' for Active; 'I' for Inactive)
REMARK    1  A    between atoms: C1_2  and  C2_3 
ROOT
ATOM      1  C2  UNL d   1       5.030   1.521   4.488  0.00  0.00    -0.077 A 
ATOM      2  C3  UNL d   1       4.555   0.475   3.685  0.00  0.00     0.002 A 
ATOM      3  C4  UNL d   1       4.801  -0.854   4.037  0.00  0.00     0.002 A 
ATOM      4  C5  UNL d   1       5.518  -1.149   5.194  0.00  0.00    -0.004 A 
ATOM      5  C6  UNL d   1       5.997  -0.115   5.998  0.00  0.00     0.002 A 
ATOM      6  C7  UNL d   1       5.753   1.213   5.648  0.00  0.00     0.002 A 
ENDROOT
BRANCH   1   7
ATOM      7  C1  UNL d   1       4.724   2.953   4.137  0.00  0.00     0.055 C 
ATOM      8  C   UNL d   1       5.999   3.753   3.915  0.00  0.00     0.019 C 
ENDBRANCH   1   7
TORSDOF 1
ENDMDL
