MODEL 1
REMARK minimizedAffinity 8.36227226
REMARK minimizedRMSD -1
REMARK  1 active torsions:
REMARK  status: ('A' for Active; 'I' for Inactive)
REMARK    1  A    between atoms: C1_2  and  C2_3 
ROOT
ATOM      1  C2  UNL d   1       1.171   0.208  -0.643  0.00  0.00    -0.077 A 
ATOM      2  C3  UNL d   1       2.446  -0.370  -0.710  0.00  0.00     0.002 A 
ATOM      3  C4  UNL d   1       2.603  -1.751  -0.573  0.00  0.00     0.002 A 
ATOM      4  C5  UNL d   1       1.490  -2.564  -0.371  0.00  0.00    -0.004 A 
ATOM      5  C6  UNL d   1       0.218  -1.998  -0.300  0.00  0.00     0.002 A 
ATOM      6  C7  UNL d   1       0.059  -0.618  -0.436  0.00  0.00     0.002 A 
ENDROOT
BRANCH   1   7
ATOM      7  C1  UNL d   1       0.994   1.691  -0.840  0.00  0.00     0.055 C 
ATOM      8  C   UNL d   1       0.916   2.422   0.492  0.00  0.00     0.019 C 
ENDBRANCH   1   7
TORSDOF 1
ENDMDL
