MODEL 1
REMARK minimizedAffinity 6.13264942
REMARK minimizedRMSD -1
REMARK  1 active torsions:
REMARK  status: ('A' for Active; 'I' for Inactive)
REMARK    1  A    between atoms: C1_2  and  C2_3 
ROOT
ATOM      1  C2  UNL d   1       0.996   0.215  -0.334  0.00  0.00    -0.077 A 
ATOM      2  C3  UNL d   1       2.323  -0.227  -0.230  0.00  0.00     0.002 A 
ATOM      3  C4  UNL d   1       2.601  -1.552   0.110  0.00  0.00     0.002 A 
ATOM      4  C5  UNL d   1       1.559  -2.447   0.342  0.00  0.00    -0.004 A 
ATOM      5  C6  UNL d   1       0.237  -2.017   0.243  0.00  0.00     0.002 A 
ATOM      6  C7  UNL d   1      -0.044  -0.693  -0.095  0.00  0.00     0.002 A 
ENDROOT
BRANCH   1   7
ATOM      7  C1  UNL d   1       0.694   1.631  -0.748  0.00  0.00     0.055 C 
ATOM      8  C   UNL d   1       0.485   2.529   0.463  0.00  0.00     0.019 C 
ENDBRANCH   1   7
TORSDOF 1
ENDMDL
