MODEL 1
REMARK minimizedAffinity -1.06263745
REMARK minimizedRMSD -1
REMARK  1 active torsions:
REMARK  status: ('A' for Active; 'I' for Inactive)
REMARK    1  A    between atoms: C1_2  and  C2_3 
ROOT
ATOM      1  C2  UNL d   1       5.768  -0.883   4.687  0.00  0.00    -0.077 A 
ATOM      2  C3  UNL d   1       5.817  -0.107   3.521  0.00  0.00     0.002 A 
ATOM      3  C4  UNL d   1       5.752   1.286   3.596  0.00  0.00     0.002 A 
ATOM      4  C5  UNL d   1       5.642   1.914   4.834  0.00  0.00    -0.004 A 
ATOM      5  C6  UNL d   1       5.590   1.151   6.000  0.00  0.00     0.002 A 
ATOM      6  C7  UNL d   1       5.653  -0.241   5.927  0.00  0.00     0.002 A 
ENDROOT
BRANCH   1   7
ATOM      7  C1  UNL d   1       5.888  -2.383   4.612  0.00  0.00     0.055 C 
ATOM      8  C   UNL d   1       5.976  -3.001   6.000  0.00  0.00     0.019 C 
ENDBRANCH   1   7
TORSDOF 1
ENDMDL
