MODEL 1
REMARK minimizedAffinity -2.25191951
REMARK minimizedRMSD -1
REMARK  1 active torsions:
REMARK  status: ('A' for Active; 'I' for Inactive)
REMARK    1  A    between atoms: C1_2  and  C2_3 
ROOT
ATOM      1  C2  UNL d   1       5.461   0.023   4.750  0.00  0.00    -0.077 A 
ATOM      2  C3  UNL d   1       5.873   0.646   5.936  0.00  0.00     0.002 A 
ATOM      3  C4  UNL d   1       5.990   2.036   6.000  0.00  0.00     0.002 A 
ATOM      4  C5  UNL d   1       5.692   2.814   4.883  0.00  0.00    -0.004 A 
ATOM      5  C6  UNL d   1       5.283   2.203   3.698  0.00  0.00     0.002 A 
ATOM      6  C7  UNL d   1       5.168   0.814   3.632  0.00  0.00     0.002 A 
ENDROOT
BRANCH   1   7
ATOM      7  C1  UNL d   1       5.288  -1.473   4.694  0.00  0.00     0.055 C 
ATOM      8  C   UNL d   1       6.000  -2.156   5.852  0.00  0.00     0.019 C 
ENDBRANCH   1   7
TORSDOF 1
ENDMDL
