MODEL 1
REMARK minimizedAffinity 3.44563818
REMARK minimizedRMSD -1
REMARK  1 active torsions:
REMARK  status: ('A' for Active; 'I' for Inactive)
REMARK    1  A    between atoms: C1_2  and  C2_3 
ROOT
ATOM      1  C2  UNL d   1       0.077   1.777   0.059  0.00  0.00    -0.077 A 
ATOM      2  C3  UNL d   1      -0.633   1.044   1.020  0.00  0.00     0.002 A 
ATOM      3  C4  UNL d   1      -0.631  -0.352   0.987  0.00  0.00     0.002 A 
ATOM      4  C5  UNL d   1       0.082  -1.026  -0.002  0.00  0.00    -0.004 A 
ATOM      5  C6  UNL d   1       0.789  -0.306  -0.964  0.00  0.00     0.002 A 
ATOM      6  C7  UNL d   1       0.788   1.090  -0.933  0.00  0.00     0.002 A 
ENDROOT
BRANCH   1   7
ATOM      7  C1  UNL d   1       0.116   3.282   0.122  0.00  0.00     0.055 C 
ATOM      8  C   UNL d   1       1.391   3.775   0.791  0.00  0.00     0.019 C 
ENDBRANCH   1   7
TORSDOF 1
ENDMDL
