MODEL 1
REMARK minimizedAffinity -2.49806356
REMARK minimizedRMSD -1
REMARK  1 active torsions:
REMARK  status: ('A' for Active; 'I' for Inactive)
REMARK    1  A    between atoms: C1_2  and  C2_3 
ROOT
ATOM      1  C2  UNL d   1       5.889  -0.537   5.268  0.00  0.00    -0.077 A 
ATOM      2  C3  UNL d   1       5.948  -0.596   3.868  0.00  0.00     0.002 A 
ATOM      3  C4  UNL d   1       6.000  -1.828   3.215  0.00  0.00     0.002 A 
ATOM      4  C5  UNL d   1       5.990  -3.010   3.952  0.00  0.00    -0.004 A 
ATOM      5  C6  UNL d   1       5.935  -2.962   5.345  0.00  0.00     0.002 A 
ATOM      6  C7  UNL d   1       5.884  -1.731   6.000  0.00  0.00     0.002 A 
ENDROOT
BRANCH   1   7
ATOM      7  C1  UNL d   1       5.783   0.791   5.972  0.00  0.00     0.055 C 
ATOM      8  C   UNL d   1       5.977   1.948   5.004  0.00  0.00     0.019 C 
ENDBRANCH   1   7
TORSDOF 1
ENDMDL
