MODEL 1
REMARK minimizedAffinity -2.39636421
REMARK minimizedRMSD -1
REMARK  1 active torsions:
REMARK  status: ('A' for Active; 'I' for Inactive)
REMARK    1  A    between atoms: C1_2  and  C2_3 
ROOT
ATOM      1  C2  UNL d   1       5.795   1.879   4.697  0.00  0.00    -0.077 A 
ATOM      2  C3  UNL d   1       5.907   1.224   5.931  0.00  0.00     0.002 A 
ATOM      3  C4  UNL d   1       5.840  -0.169   6.000  0.00  0.00     0.002 A 
ATOM      4  C5  UNL d   1       5.666  -0.918   4.838  0.00  0.00    -0.004 A 
ATOM      5  C6  UNL d   1       5.552  -0.276   3.606  0.00  0.00     0.002 A 
ATOM      6  C7  UNL d   1       5.617   1.116   3.535  0.00  0.00     0.002 A 
ENDROOT
BRANCH   1   7
ATOM      7  C1  UNL d   1       5.916   3.378   4.615  0.00  0.00     0.055 C 
ATOM      8  C   UNL d   1       6.000   4.003   6.000  0.00  0.00     0.019 C 
ENDBRANCH   1   7
TORSDOF 1
ENDMDL
