MODEL 1
REMARK minimizedAffinity 3.11326551
REMARK minimizedRMSD -1
REMARK  1 active torsions:
REMARK  status: ('A' for Active; 'I' for Inactive)
REMARK    1  A    between atoms: C1_2  and  C2_3 
ROOT
ATOM      1  C2  UNL d   1       0.882  -1.809  -1.278  0.00  0.00    -0.077 A 
ATOM      2  C3  UNL d   1      -0.028  -2.428  -0.409  0.00  0.00     0.002 A 
ATOM      3  C4  UNL d   1      -1.060  -1.690   0.174  0.00  0.00     0.002 A 
ATOM      4  C5  UNL d   1      -1.194  -0.333  -0.108  0.00  0.00    -0.004 A 
ATOM      5  C6  UNL d   1      -0.294   0.292  -0.970  0.00  0.00     0.002 A 
ATOM      6  C7  UNL d   1       0.739  -0.443  -1.553  0.00  0.00     0.002 A 
ENDROOT
BRANCH   1   7
ATOM      7  C1  UNL d   1       1.966  -2.613  -1.947  0.00  0.00     0.055 C 
ATOM      8  C   UNL d   1       3.334  -1.979  -1.739  0.00  0.00     0.019 C 
ENDBRANCH   1   7
TORSDOF 1
ENDMDL
