MODEL 1
REMARK minimizedAffinity -2.40698934
REMARK minimizedRMSD -1
REMARK  1 active torsions:
REMARK  status: ('A' for Active; 'I' for Inactive)
REMARK    1  A    between atoms: C1_2  and  C2_3 
ROOT
ATOM      1  C2  UNL d   1       5.807   0.885   4.678  0.00  0.00    -0.077 A 
ATOM      2  C3  UNL d   1       5.799   0.241   5.923  0.00  0.00     0.002 A 
ATOM      3  C4  UNL d   1       5.865  -1.152   5.998  0.00  0.00     0.002 A 
ATOM      4  C5  UNL d   1       5.944  -1.912   4.833  0.00  0.00    -0.004 A 
ATOM      5  C6  UNL d   1       5.950  -1.281   3.590  0.00  0.00     0.002 A 
ATOM      6  C7  UNL d   1       5.883   0.111   3.512  0.00  0.00     0.002 A 
ENDROOT
BRANCH   1   7
ATOM      7  C1  UNL d   1       5.786   2.389   4.596  0.00  0.00     0.055 C 
ATOM      8  C   UNL d   1       5.974   3.020   5.967  0.00  0.00     0.019 C 
ENDBRANCH   1   7
TORSDOF 1
ENDMDL
