MODEL 1
REMARK minimizedAffinity 9.27783108
REMARK minimizedRMSD -1
REMARK  1 active torsions:
REMARK  status: ('A' for Active; 'I' for Inactive)
REMARK    1  A    between atoms: N_2  and  C1_3 
ROOT
ATOM      1  C1  UNL d   1       2.021  -5.243  -1.640  0.00  0.00     0.143 A 
ATOM      2  C2  UNL d   1       1.163  -4.471  -0.849  0.00  0.00    -0.057 A 
ATOM      3  C3  UNL d   1       0.159  -3.682  -1.424  0.00  0.00     0.033 A 
ATOM      4  C4  UNL d   1       0.013  -3.629  -2.806  0.00  0.00    -0.042 A 
ATOM      5  C5  UNL d   1       0.871  -4.369  -3.613  0.00  0.00     0.033 A 
ATOM      6  C6  UNL d   1       1.867  -5.160  -3.033  0.00  0.00    -0.057 A 
ENDROOT
BRANCH   1   7
ATOM      7  N   UNL d   1       3.101  -5.970  -1.135  0.00  0.00    -0.732 N 
ATOM      8  C   UNL d   1       4.365  -5.999  -1.839  0.00  0.00     0.284 C 
ATOM      9  H3  UNL d   1       3.190  -5.882  -0.125  0.00  0.00     0.395 HD
ENDBRANCH   1   7
TORSDOF 1
ENDMDL
