MODEL 1
REMARK minimizedAffinity 2.29842758
REMARK minimizedRMSD -1
REMARK  1 active torsions:
REMARK  status: ('A' for Active; 'I' for Inactive)
REMARK    1  A    between atoms: N_2  and  C1_3 
ROOT
ATOM      1  C1  UNL d   1       0.618   2.981   0.688  0.00  0.00     0.143 A 
ATOM      2  C2  UNL d   1       1.523   3.613  -0.172  0.00  0.00    -0.057 A 
ATOM      3  C3  UNL d   1       1.148   4.000  -1.465  0.00  0.00     0.033 A 
ATOM      4  C4  UNL d   1      -0.135   3.734  -1.932  0.00  0.00    -0.042 A 
ATOM      5  C5  UNL d   1      -1.044   3.084  -1.103  0.00  0.00     0.033 A 
ATOM      6  C6  UNL d   1      -0.665   2.707   0.189  0.00  0.00    -0.057 A 
ENDROOT
BRANCH   1   7
ATOM      7  N   UNL d   1       0.959   2.485   1.948  0.00  0.00    -0.732 N 
ATOM      8  C   UNL d   1       2.229   2.824   2.554  0.00  0.00     0.284 C 
ATOM      9  H3  UNL d   1       0.174   2.494   2.595  0.00  0.00     0.395 HD
ENDBRANCH   1   7
TORSDOF 1
ENDMDL
