MODEL 1
REMARK minimizedAffinity 3.97939229
REMARK minimizedRMSD -1
REMARK  1 active torsions:
REMARK  status: ('A' for Active; 'I' for Inactive)
REMARK    1  A    between atoms: N_2  and  C1_3 
ROOT
ATOM      1  C1  UNL d   1       1.617  -4.331  -2.266  0.00  0.00     0.143 A 
ATOM      2  C2  UNL d   1       2.960  -4.693  -2.115  0.00  0.00    -0.057 A 
ATOM      3  C3  UNL d   1       3.598  -4.617  -0.871  0.00  0.00     0.033 A 
ATOM      4  C4  UNL d   1       2.908  -4.148   0.243  0.00  0.00    -0.042 A 
ATOM      5  C5  UNL d   1       1.580  -3.758   0.111  0.00  0.00     0.033 A 
ATOM      6  C6  UNL d   1       0.947  -3.843  -1.133  0.00  0.00    -0.057 A 
ENDROOT
BRANCH   1   7
ATOM      7  N   UNL d   1       0.956  -4.291  -3.496  0.00  0.00    -0.732 N 
ATOM      8  C   UNL d   1       1.663  -3.916  -4.701  0.00  0.00     0.284 C 
ATOM      9  H3  UNL d   1       0.313  -5.070  -3.616  0.00  0.00     0.395 HD
ENDBRANCH   1   7
TORSDOF 1
ENDMDL
