MODEL 1
REMARK minimizedAffinity 14.1208773
REMARK minimizedRMSD -1
REMARK  1 active torsions:
REMARK  status: ('A' for Active; 'I' for Inactive)
REMARK    1  A    between atoms: N_2  and  C1_3 
ROOT
ATOM      1  C1  UNL d   1       0.709  -0.611   4.173  0.00  0.00     0.143 A 
ATOM      2  C2  UNL d   1       0.320  -1.420   5.246  0.00  0.00    -0.057 A 
ATOM      3  C3  UNL d   1       0.928  -2.660   5.478  0.00  0.00     0.033 A 
ATOM      4  C4  UNL d   1       1.919  -3.127   4.622  0.00  0.00    -0.042 A 
ATOM      5  C5  UNL d   1       2.305  -2.351   3.535  0.00  0.00     0.033 A 
ATOM      6  C6  UNL d   1       1.699  -1.111   3.311  0.00  0.00    -0.057 A 
ENDROOT
BRANCH   1   7
ATOM      7  N   UNL d   1       0.076   0.586   3.831  0.00  0.00    -0.732 N 
ATOM      8  C   UNL d   1       0.790   1.618   3.111  0.00  0.00     0.284 C 
ATOM      9  H3  UNL d   1      -0.880   0.443   3.513  0.00  0.00     0.395 HD
ENDBRANCH   1   7
TORSDOF 1
ENDMDL
