MODEL 1
REMARK minimizedAffinity 11.4942455
REMARK minimizedRMSD -1
REMARK  1 active torsions:
REMARK  status: ('A' for Active; 'I' for Inactive)
REMARK    1  A    between atoms: N_2  and  C1_3 
ROOT
ATOM      1  C1  UNL d   1       2.318   5.247  -3.392  0.00  0.00     0.143 A 
ATOM      2  C2  UNL d   1       3.156   5.989  -2.553  0.00  0.00    -0.057 A 
ATOM      3  C3  UNL d   1       3.378   5.606  -1.224  0.00  0.00     0.033 A 
ATOM      4  C4  UNL d   1       2.740   4.486  -0.702  0.00  0.00    -0.042 A 
ATOM      5  C5  UNL d   1       1.884   3.747  -1.510  0.00  0.00     0.033 A 
ATOM      6  C6  UNL d   1       1.671   4.131  -2.838  0.00  0.00    -0.057 A 
ENDROOT
BRANCH   1   7
ATOM      7  N   UNL d   1       1.980   5.631  -4.692  0.00  0.00    -0.732 N 
ATOM      8  C   UNL d   1       3.007   5.999  -5.642  0.00  0.00     0.284 C 
ATOM      9  H3  UNL d   1       1.236   5.060  -5.085  0.00  0.00     0.395 HD
ENDBRANCH   1   7
TORSDOF 1
ENDMDL
