MODEL 1
REMARK minimizedAffinity 11.2648544
REMARK minimizedRMSD -1
REMARK  1 active torsions:
REMARK  status: ('A' for Active; 'I' for Inactive)
REMARK    1  A    between atoms: N_2  and  C1_3 
ROOT
ATOM      1  C1  UNL d   1       0.472   3.063  -0.908  0.00  0.00     0.143 A 
ATOM      2  C2  UNL d   1       1.016   2.229   0.075  0.00  0.00    -0.057 A 
ATOM      3  C3  UNL d   1       0.257   1.812   1.175  0.00  0.00     0.033 A 
ATOM      4  C4  UNL d   1      -1.055   2.248   1.328  0.00  0.00    -0.042 A 
ATOM      5  C5  UNL d   1      -1.608   3.098   0.377  0.00  0.00     0.033 A 
ATOM      6  C6  UNL d   1      -0.848   3.505  -0.723  0.00  0.00    -0.057 A 
ENDROOT
BRANCH   1   7
ATOM      7  N   UNL d   1       1.205   3.591  -1.973  0.00  0.00    -0.732 N 
ATOM      8  C   UNL d   1       1.988   4.797  -1.804  0.00  0.00     0.284 C 
ATOM      9  H3  UNL d   1       1.667   2.870  -2.522  0.00  0.00     0.395 HD
ENDBRANCH   1   7
TORSDOF 1
ENDMDL
