MODEL 1
REMARK minimizedAffinity 20.9948158
REMARK minimizedRMSD -1
REMARK  1 active torsions:
REMARK  status: ('A' for Active; 'I' for Inactive)
REMARK    1  A    between atoms: N_2  and  C1_3 
ROOT
ATOM      1  C1  UNL d   1      -2.182  -1.595   3.845  0.00  0.00     0.143 A 
ATOM      2  C2  UNL d   1      -2.402  -2.459   4.923  0.00  0.00    -0.057 A 
ATOM      3  C3  UNL d   1      -1.507  -2.521   5.998  0.00  0.00     0.033 A 
ATOM      4  C4  UNL d   1      -0.357  -1.738   5.999  0.00  0.00    -0.042 A 
ATOM      5  C5  UNL d   1      -0.105  -0.891   4.926  0.00  0.00     0.033 A 
ATOM      6  C6  UNL d   1      -1.006  -0.829   3.859  0.00  0.00    -0.057 A 
ENDROOT
BRANCH   1   7
ATOM      7  N   UNL d   1      -2.983  -1.560   2.701  0.00  0.00    -0.732 N 
ATOM      8  C   UNL d   1      -2.985  -0.399   1.837  0.00  0.00     0.284 C 
ATOM      9  H3  UNL d   1      -2.990  -2.448   2.204  0.00  0.00     0.395 HD
ENDBRANCH   1   7
TORSDOF 1
ENDMDL
