MODEL 1
REMARK minimizedAffinity 11.6621332
REMARK minimizedRMSD -1
REMARK  1 active torsions:
REMARK  status: ('A' for Active; 'I' for Inactive)
REMARK    1  A    between atoms: N_2  and  C1_3 
ROOT
ATOM      1  C1  UNL d   1       0.293   2.675  -0.424  0.00  0.00     0.143 A 
ATOM      2  C2  UNL d   1       0.746   1.936   0.673  0.00  0.00    -0.057 A 
ATOM      3  C3  UNL d   1      -0.144   1.450   1.639  0.00  0.00     0.033 A 
ATOM      4  C4  UNL d   1      -1.504   1.721   1.539  0.00  0.00    -0.042 A 
ATOM      5  C5  UNL d   1      -1.974   2.475   0.469  0.00  0.00     0.033 A 
ATOM      6  C6  UNL d   1      -1.082   2.952  -0.495  0.00  0.00    -0.057 A 
ENDROOT
BRANCH   1   7
ATOM      7  N   UNL d   1       1.138   3.269  -1.365  0.00  0.00    -0.732 N 
ATOM      8  C   UNL d   1       0.621   3.724  -2.638  0.00  0.00     0.284 C 
ATOM      9  H3  UNL d   1       1.809   3.904  -0.938  0.00  0.00     0.395 HD
ENDBRANCH   1   7
TORSDOF 1
ENDMDL
