MODEL 1
REMARK minimizedAffinity 8.76902294
REMARK minimizedRMSD -1
REMARK  0 active torsions:
REMARK  status: ('A' for Active; 'I' for Inactive)
ROOT
ATOM      1  C   UNL d   1      -0.278  -0.201   0.308  0.00  0.00     0.023 A 
ATOM      2  C1  UNL d   1      -0.937  -1.411   0.090  0.00  0.00     0.003 A 
ATOM      3  C2  UNL d   1      -2.188  -1.424  -0.530  0.00  0.00     0.048 A 
ATOM      4  C3  UNL d   1      -2.773  -0.224  -0.931  0.00  0.00     0.023 A 
ATOM      5  C4  UNL d   1      -2.118   0.989  -0.715  0.00  0.00     0.048 A 
ATOM      6  C5  UNL d   1      -0.867   0.997  -0.094  0.00  0.00     0.003 A 
ATOM      7  I   UNL d   1      -4.635  -0.241  -1.854  0.00  0.00    -0.146 I 
ENDROOT
TORSDOF 0
ENDMDL
