MODEL 1
REMARK minimizedAffinity 6.78501606
REMARK minimizedRMSD -1
REMARK  0 active torsions:
REMARK  status: ('A' for Active; 'I' for Inactive)
ROOT
ATOM      1  C   UNL d   1       0.478  -3.404   5.010  0.00  0.00     0.023 A 
ATOM      2  C1  UNL d   1      -0.874  -3.271   4.696  0.00  0.00     0.003 A 
ATOM      3  C2  UNL d   1      -1.259  -2.606   3.530  0.00  0.00     0.048 A 
ATOM      4  C3  UNL d   1      -0.286  -2.077   2.682  0.00  0.00     0.023 A 
ATOM      5  C4  UNL d   1       1.069  -2.209   2.993  0.00  0.00     0.048 A 
ATOM      6  C5  UNL d   1       1.449  -2.874   4.160  0.00  0.00     0.003 A 
ATOM      7  I   UNL d   1      -0.855  -1.087   0.946  0.00  0.00    -0.146 I 
ENDROOT
TORSDOF 0
ENDMDL
