MODEL 1
REMARK minimizedAffinity 11.2517023
REMARK minimizedRMSD -1
REMARK  0 active torsions:
REMARK  status: ('A' for Active; 'I' for Inactive)
ROOT
ATOM      1  C   UNL d   1       6.000  -1.877   1.738  0.00  0.00     0.023 A 
ATOM      2  C1  UNL d   1       5.415  -0.708   2.226  0.00  0.00     0.003 A 
ATOM      3  C2  UNL d   1       4.089  -0.405   1.908  0.00  0.00     0.048 A 
ATOM      4  C3  UNL d   1       3.354  -1.275   1.104  0.00  0.00     0.023 A 
ATOM      5  C4  UNL d   1       3.935  -2.446   0.614  0.00  0.00     0.048 A 
ATOM      6  C5  UNL d   1       5.261  -2.744   0.933  0.00  0.00     0.003 A 
ATOM      7  I   UNL d   1       1.381  -0.825   0.630  0.00  0.00    -0.146 I 
ENDROOT
TORSDOF 0
ENDMDL
