MODEL 1
REMARK minimizedAffinity 1.73886597
REMARK minimizedRMSD -1
REMARK  0 active torsions:
REMARK  status: ('A' for Active; 'I' for Inactive)
ROOT
ATOM      1  C   UNL d   1      -2.319   4.351  -3.302  0.00  0.00     0.023 A 
ATOM      2  C1  UNL d   1      -3.045   3.898  -2.200  0.00  0.00     0.003 A 
ATOM      3  C2  UNL d   1      -2.464   3.004  -1.299  0.00  0.00     0.048 A 
ATOM      4  C3  UNL d   1      -1.156   2.567  -1.505  0.00  0.00     0.023 A 
ATOM      5  C4  UNL d   1      -0.425   3.018  -2.605  0.00  0.00     0.048 A 
ATOM      6  C5  UNL d   1      -1.010   3.911  -3.504  0.00  0.00     0.003 A 
ATOM      7  I   UNL d   1      -0.288   1.236  -0.164  0.00  0.00    -0.146 I 
ENDROOT
TORSDOF 0
ENDMDL
