MODEL 1
REMARK minimizedAffinity 1.6680156
REMARK minimizedRMSD -1
REMARK  0 active torsions:
REMARK  status: ('A' for Active; 'I' for Inactive)
ROOT
ATOM      1  C   UNL d   1      -4.551  -4.023  -5.989  0.00  0.00     0.023 A 
ATOM      2  C1  UNL d   1      -3.423  -3.202  -5.988  0.00  0.00     0.003 A 
ATOM      3  C2  UNL d   1      -2.146  -3.767  -5.989  0.00  0.00     0.048 A 
ATOM      4  C3  UNL d   1      -2.004  -5.154  -5.993  0.00  0.00     0.023 A 
ATOM      5  C4  UNL d   1      -3.130  -5.980  -5.995  0.00  0.00     0.048 A 
ATOM      6  C5  UNL d   1      -4.404  -5.410  -5.993  0.00  0.00     0.003 A 
ATOM      7  I   UNL d   1      -0.105  -5.998  -5.995  0.00  0.00    -0.146 I 
ENDROOT
TORSDOF 0
ENDMDL
