MODEL 1
REMARK minimizedAffinity 1.44220221
REMARK minimizedRMSD -1
REMARK  0 active torsions:
REMARK  status: ('A' for Active; 'I' for Inactive)
ROOT
ATOM      1  C   UNL d   1       0.000  -5.469  -3.981  0.00  0.00     0.023 A 
ATOM      2  C1  UNL d   1      -0.129  -5.512  -5.370  0.00  0.00     0.003 A 
ATOM      3  C2  UNL d   1      -1.389  -5.665  -5.951  0.00  0.00     0.048 A 
ATOM      4  C3  UNL d   1      -2.517  -5.773  -5.137  0.00  0.00     0.023 A 
ATOM      5  C4  UNL d   1      -2.393  -5.729  -3.748  0.00  0.00     0.048 A 
ATOM      6  C5  UNL d   1      -1.130  -5.577  -3.171  0.00  0.00     0.003 A 
ATOM      7  I   UNL d   1      -4.394  -6.000  -6.000  0.00  0.00    -0.146 I 
ENDROOT
TORSDOF 0
ENDMDL
