MODEL 1
REMARK minimizedAffinity 8.99474621
REMARK minimizedRMSD -1
REMARK  0 active torsions:
REMARK  status: ('A' for Active; 'I' for Inactive)
ROOT
ATOM      1  C   UNL d   1      -0.804  -4.969  -4.094  0.00  0.00     0.023 A 
ATOM      2  C1  UNL d   1      -1.792  -5.550  -3.299  0.00  0.00     0.003 A 
ATOM      3  C2  UNL d   1      -3.044  -5.846  -3.844  0.00  0.00     0.048 A 
ATOM      4  C3  UNL d   1      -3.300  -5.558  -5.184  0.00  0.00     0.023 A 
ATOM      5  C4  UNL d   1      -2.313  -4.977  -5.983  0.00  0.00     0.048 A 
ATOM      6  C5  UNL d   1      -1.064  -4.682  -5.434  0.00  0.00     0.003 A 
ATOM      7  I   UNL d   1      -5.161  -5.997  -5.997  0.00  0.00    -0.146 I 
ENDROOT
TORSDOF 0
ENDMDL
