MODEL 1
REMARK minimizedAffinity 0.169706926
REMARK minimizedRMSD -1
REMARK  0 active torsions:
REMARK  status: ('A' for Active; 'I' for Inactive)
ROOT
ATOM      1  C   UNL d   1      -0.022  -5.997  -3.877  0.00  0.00     0.023 A 
ATOM      2  C1  UNL d   1      -0.124  -5.991  -5.268  0.00  0.00     0.003 A 
ATOM      3  C2  UNL d   1      -1.329  -5.635  -5.879  0.00  0.00     0.048 A 
ATOM      4  C3  UNL d   1      -2.426  -5.285  -5.093  0.00  0.00     0.023 A 
ATOM      5  C4  UNL d   1      -2.327  -5.289  -3.700  0.00  0.00     0.048 A 
ATOM      6  C5  UNL d   1      -1.122  -5.646  -3.094  0.00  0.00     0.003 A 
ATOM      7  I   UNL d   1      -4.219  -4.755  -6.000  0.00  0.00    -0.146 I 
ENDROOT
TORSDOF 0
ENDMDL
