MODEL 1
REMARK minimizedAffinity 2.06686378
REMARK minimizedRMSD -1
REMARK  0 active torsions:
REMARK  status: ('A' for Active; 'I' for Inactive)
ROOT
ATOM      1  C   UNL d   1      -4.382  -4.073  -5.987  0.00  0.00     0.023 A 
ATOM      2  C1  UNL d   1      -3.260  -3.258  -5.833  0.00  0.00     0.003 A 
ATOM      3  C2  UNL d   1      -2.050  -3.807  -5.404  0.00  0.00     0.048 A 
ATOM      4  C3  UNL d   1      -1.968  -5.172  -5.132  0.00  0.00     0.023 A 
ATOM      5  C4  UNL d   1      -3.087  -5.992  -5.286  0.00  0.00     0.048 A 
ATOM      6  C5  UNL d   1      -4.295  -5.439  -5.714  0.00  0.00     0.003 A 
ATOM      7  I   UNL d   1      -0.168  -5.991  -4.494  0.00  0.00    -0.146 I 
ENDROOT
TORSDOF 0
ENDMDL
