MODEL 1
REMARK minimizedAffinity 0.988984823
REMARK minimizedRMSD -1
REMARK  0 active torsions:
REMARK  status: ('A' for Active; 'I' for Inactive)
ROOT
ATOM      1  C   UNL d   1      -0.692  -5.722  -3.705  0.00  0.00     0.023 A 
ATOM      2  C1  UNL d   1      -1.879  -5.660  -2.975  0.00  0.00     0.003 A 
ATOM      3  C2  UNL d   1      -3.109  -5.738  -3.632  0.00  0.00     0.048 A 
ATOM      4  C3  UNL d   1      -3.144  -5.878  -5.019  0.00  0.00     0.023 A 
ATOM      5  C4  UNL d   1      -1.959  -5.942  -5.753  0.00  0.00     0.048 A 
ATOM      6  C5  UNL d   1      -0.731  -5.862  -5.092  0.00  0.00     0.003 A 
ATOM      7  I   UNL d   1      -4.973  -5.995  -5.999  0.00  0.00    -0.146 I 
ENDROOT
TORSDOF 0
ENDMDL
