MODEL 1
REMARK minimizedAffinity 7.13790894
REMARK minimizedRMSD -1
REMARK  0 active torsions:
REMARK  status: ('A' for Active; 'I' for Inactive)
ROOT
ATOM      1  C   UNL d   1      -0.950  -4.488  -4.703  0.00  0.00     0.023 A 
ATOM      2  C1  UNL d   1      -1.100  -5.557  -5.586  0.00  0.00     0.003 A 
ATOM      3  C2  UNL d   1      -2.377  -5.984  -5.957  0.00  0.00     0.048 A 
ATOM      4  C3  UNL d   1      -3.499  -5.337  -5.442  0.00  0.00     0.023 A 
ATOM      5  C4  UNL d   1      -3.354  -4.266  -4.558  0.00  0.00     0.048 A 
ATOM      6  C5  UNL d   1      -2.075  -3.843  -4.190  0.00  0.00     0.003 A 
ATOM      7  I   UNL d   1      -5.401  -5.970  -5.992  0.00  0.00    -0.146 I 
ENDROOT
TORSDOF 0
ENDMDL
