MODEL 1
REMARK minimizedAffinity -0.0404559374
REMARK minimizedRMSD -1
REMARK  0 active torsions:
REMARK  status: ('A' for Active; 'I' for Inactive)
ROOT
ATOM      1  C   UNL d   1      -2.068  -4.443  -5.254  0.00  0.00     0.023 A 
ATOM      2  C1  UNL d   1      -2.046  -4.334  -3.863  0.00  0.00     0.003 A 
ATOM      3  C2  UNL d   1      -2.934  -3.474  -3.214  0.00  0.00     0.048 A 
ATOM      4  C3  UNL d   1      -3.843  -2.726  -3.962  0.00  0.00     0.023 A 
ATOM      5  C4  UNL d   1      -3.870  -2.832  -5.354  0.00  0.00     0.048 A 
ATOM      6  C5  UNL d   1      -2.979  -3.693  -5.998  0.00  0.00     0.003 A 
ATOM      7  I   UNL d   1      -5.166  -1.445  -2.998  0.00  0.00    -0.146 I 
ENDROOT
TORSDOF 0
ENDMDL
