MODEL 1
REMARK minimizedAffinity -1.40170717
REMARK minimizedRMSD -1
REMARK  0 active torsions:
REMARK  status: ('A' for Active; 'I' for Inactive)
ROOT
ATOM      1  C   UNL d   1      -5.242  -4.208  -5.999  0.00  0.00     0.023 A 
ATOM      2  C1  UNL d   1      -5.025  -5.551  -5.691  0.00  0.00     0.003 A 
ATOM      3  C2  UNL d   1      -3.739  -6.000  -5.384  0.00  0.00     0.048 A 
ATOM      4  C3  UNL d   1      -2.674  -5.099  -5.386  0.00  0.00     0.023 A 
ATOM      5  C4  UNL d   1      -2.887  -3.754  -5.693  0.00  0.00     0.048 A 
ATOM      6  C5  UNL d   1      -4.174  -3.311  -5.999  0.00  0.00     0.003 A 
ATOM      7  I   UNL d   1      -0.759  -5.764  -4.930  0.00  0.00    -0.146 I 
ENDROOT
TORSDOF 0
ENDMDL
