MODEL 1
REMARK minimizedAffinity -0.0306061283
REMARK minimizedRMSD -1
REMARK  0 active torsions:
REMARK  status: ('A' for Active; 'I' for Inactive)
ROOT
ATOM      1  C   UNL d   1      -2.619  -5.725  -5.756  0.00  0.00     0.023 A 
ATOM      2  C1  UNL d   1      -2.181  -4.404  -5.656  0.00  0.00     0.003 A 
ATOM      3  C2  UNL d   1      -3.100  -3.355  -5.726  0.00  0.00     0.048 A 
ATOM      4  C3  UNL d   1      -4.456  -3.634  -5.894  0.00  0.00     0.023 A 
ATOM      5  C4  UNL d   1      -4.899  -4.954  -5.993  0.00  0.00     0.048 A 
ATOM      6  C5  UNL d   1      -3.976  -6.000  -5.924  0.00  0.00     0.003 A 
ATOM      7  I   UNL d   1      -5.826  -2.075  -5.997  0.00  0.00    -0.146 I 
ENDROOT
TORSDOF 0
ENDMDL
