MODEL 1
REMARK minimizedAffinity -0.42215234
REMARK minimizedRMSD -1
REMARK  0 active torsions:
REMARK  status: ('A' for Active; 'I' for Inactive)
ROOT
ATOM      1  C   UNL d   1      -5.999  -0.733  -2.925  0.00  0.00     0.023 A 
ATOM      2  C1  UNL d   1      -5.176  -1.541  -2.140  0.00  0.00     0.003 A 
ATOM      3  C2  UNL d   1      -4.326  -2.469  -2.744  0.00  0.00     0.048 A 
ATOM      4  C3  UNL d   1      -4.304  -2.584  -4.134  0.00  0.00     0.023 A 
ATOM      5  C4  UNL d   1      -5.125  -1.777  -4.923  0.00  0.00     0.048 A 
ATOM      6  C5  UNL d   1      -5.974  -0.851  -4.314  0.00  0.00     0.003 A 
ATOM      7  I   UNL d   1      -3.039  -3.965  -5.036  0.00  0.00    -0.146 I 
ENDROOT
TORSDOF 0
ENDMDL
