MODEL 1
REMARK minimizedAffinity 0.781420708
REMARK minimizedRMSD -1
REMARK  0 active torsions:
REMARK  status: ('A' for Active; 'I' for Inactive)
ROOT
ATOM      1  C   UNL d   1      -5.953  -0.634  -6.000  0.00  0.00     0.023 A 
ATOM      2  C1  UNL d   1      -5.983   0.622  -5.393  0.00  0.00     0.003 A 
ATOM      3  C2  UNL d   1      -5.996   0.726  -4.001  0.00  0.00     0.048 A 
ATOM      4  C3  UNL d   1      -5.978  -0.430  -3.221  0.00  0.00     0.023 A 
ATOM      5  C4  UNL d   1      -5.947  -1.689  -3.824  0.00  0.00     0.048 A 
ATOM      6  C5  UNL d   1      -5.935  -1.788  -5.216  0.00  0.00     0.003 A 
ATOM      7  I   UNL d   1      -5.997  -0.278  -1.148  0.00  0.00    -0.146 I 
ENDROOT
TORSDOF 0
ENDMDL
