MODEL 1
REMARK minimizedAffinity 2.96765757
REMARK minimizedRMSD -1
REMARK  0 active torsions:
REMARK  status: ('A' for Active; 'I' for Inactive)
ROOT
ATOM      1  C   UNL d   1       0.521  -1.869   0.426  0.00  0.00     0.023 A 
ATOM      2  C1  UNL d   1       0.439  -2.990   1.253  0.00  0.00     0.003 A 
ATOM      3  C2  UNL d   1      -0.348  -2.952   2.406  0.00  0.00     0.048 A 
ATOM      4  C3  UNL d   1      -1.051  -1.791   2.726  0.00  0.00     0.023 A 
ATOM      5  C4  UNL d   1      -0.973  -0.668   1.900  0.00  0.00     0.048 A 
ATOM      6  C5  UNL d   1      -0.185  -0.710   0.749  0.00  0.00     0.003 A 
ATOM      7  I   UNL d   1      -2.223  -1.733   4.441  0.00  0.00    -0.146 I 
ENDROOT
TORSDOF 0
ENDMDL
