MODEL 1
REMARK minimizedAffinity 9.16466713
REMARK minimizedRMSD -1
REMARK  0 active torsions:
REMARK  status: ('A' for Active; 'I' for Inactive)
ROOT
ATOM      1  C   UNL d   1      -0.362   0.357   0.353  0.00  0.00     0.023 A 
ATOM      2  C1  UNL d   1      -1.158   1.437  -0.029  0.00  0.00     0.003 A 
ATOM      3  C2  UNL d   1      -2.390   1.213  -0.647  0.00  0.00     0.048 A 
ATOM      4  C3  UNL d   1      -2.820  -0.093  -0.879  0.00  0.00     0.023 A 
ATOM      5  C4  UNL d   1      -2.027  -1.176  -0.498  0.00  0.00     0.048 A 
ATOM      6  C5  UNL d   1      -0.796  -0.948   0.119  0.00  0.00     0.003 A 
ATOM      7  I   UNL d   1      -4.653  -0.428  -1.799  0.00  0.00    -0.146 I 
ENDROOT
TORSDOF 0
ENDMDL
