MODEL 1
REMARK minimizedAffinity 1.82248902
REMARK minimizedRMSD -1
REMARK  0 active torsions:
REMARK  status: ('A' for Active; 'I' for Inactive)
ROOT
ATOM      1  C   UNL d   1       0.732   0.569   0.123  0.00  0.00     0.023 A 
ATOM      2  C1  UNL d   1       0.976  -0.794  -0.042  0.00  0.00     0.003 A 
ATOM      3  C2  UNL d   1       2.179  -1.348   0.402  0.00  0.00     0.048 A 
ATOM      4  C3  UNL d   1       3.132  -0.533   1.012  0.00  0.00     0.023 A 
ATOM      5  C4  UNL d   1       2.891   0.831   1.180  0.00  0.00     0.048 A 
ATOM      6  C5  UNL d   1       1.688   1.381   0.734  0.00  0.00     0.003 A 
ATOM      7  I   UNL d   1       4.922  -1.355   1.674  0.00  0.00    -0.146 I 
ENDROOT
TORSDOF 0
ENDMDL
