MODEL 1
REMARK minimizedAffinity -5.21442556
REMARK minimizedRMSD -1
REMARK  0 active torsions:
REMARK  status: ('A' for Active; 'I' for Inactive)
ROOT
ATOM      1  C4' PXY d   1      -2.579   1.011   1.020  0.00  0.00     0.077 C 
ATOM      2  C1' PXY d   1       3.088   0.811  -0.104  0.00  0.00     0.077 C 
ATOM      3  C1  PXY d   1       1.603   0.876   0.194  0.00  0.00    -0.082 A 
ATOM      4  C2  PXY d   1       0.949  -0.231   0.507  0.00  0.00     0.003 A 
ATOM      5  C3  PXY d   1      -0.400  -0.195   0.748  0.00  0.00     0.003 A 
ATOM      6  C4  PXY d   1      -1.077   0.994   0.721  0.00  0.00    -0.082 A 
ATOM      7  C5  PXY d   1      -0.415   2.130   0.413  0.00  0.00     0.003 A 
ATOM      8  C6  PXY d   1       0.946   2.066   0.131  0.00  0.00     0.003 A 
ENDROOT
TORSDOF 0
ENDMDL
