MODEL 1
REMARK minimizedAffinity 0.796685338
REMARK minimizedRMSD -1
REMARK  0 active torsions:
REMARK  status: ('A' for Active; 'I' for Inactive)
ROOT
ATOM      1  C4' PXY d   1       0.157   3.091   1.003  0.00  0.00     0.077 C 
ATOM      2  C1' PXY d   1      -0.017  -2.509  -0.419  0.00  0.00     0.077 C 
ATOM      3  C1  PXY d   1       0.017  -1.039  -0.050  0.00  0.00    -0.082 A 
ATOM      4  C2  PXY d   1       1.180  -0.418   0.058  0.00  0.00     0.003 A 
ATOM      5  C3  PXY d   1       1.230   0.903   0.422  0.00  0.00     0.003 A 
ATOM      6  C4  PXY d   1       0.075   1.610   0.624  0.00  0.00    -0.082 A 
ATOM      7  C5  PXY d   1      -1.116   0.986   0.505  0.00  0.00     0.003 A 
ATOM      8  C6  PXY d   1      -1.144  -0.366   0.175  0.00  0.00     0.003 A 
ENDROOT
TORSDOF 0
ENDMDL
