MODEL 1
REMARK minimizedAffinity -2.07654357
REMARK minimizedRMSD -1
REMARK  0 active torsions:
REMARK  status: ('A' for Active; 'I' for Inactive)
ROOT
ATOM      1  C4' PXY d   1      -0.281  -1.512  -0.423  0.00  0.00     0.077 C 
ATOM      2  C1' PXY d   1       2.428   3.200   1.547  0.00  0.00     0.077 C 
ATOM      3  C1  PXY d   1       1.706   1.968   1.036  0.00  0.00    -0.082 A 
ATOM      4  C2  PXY d   1       2.397   0.876   0.754  0.00  0.00     0.003 A 
ATOM      5  C3  PXY d   1       1.765  -0.236   0.260  0.00  0.00     0.003 A 
ATOM      6  C4  PXY d   1       0.404  -0.248   0.105  0.00  0.00    -0.082 A 
ATOM      7  C5  PXY d   1      -0.309   0.859   0.401  0.00  0.00     0.003 A 
ATOM      8  C6  PXY d   1       0.357   1.992   0.861  0.00  0.00     0.003 A 
ENDROOT
TORSDOF 0
ENDMDL
