MODEL 1
REMARK minimizedAffinity -4.38570595
REMARK minimizedRMSD -1
REMARK  0 active torsions:
REMARK  status: ('A' for Active; 'I' for Inactive)
ROOT
ATOM      1  C4' PXY d   1      -0.178  -2.911  -1.011  0.00  0.00     0.077 C 
ATOM      2  C1' PXY d   1      -0.274   2.710   0.335  0.00  0.00     0.077 C 
ATOM      3  C1  PXY d   1      -0.236   1.236  -0.018  0.00  0.00    -0.082 A 
ATOM      4  C2  PXY d   1      -1.256   0.690  -0.659  0.00  0.00     0.003 A 
ATOM      5  C3  PXY d   1      -1.252  -0.648  -0.957  0.00  0.00     0.003 A 
ATOM      6  C4  PXY d   1      -0.169  -1.424  -0.643  0.00  0.00    -0.082 A 
ATOM      7  C5  PXY d   1       0.881  -0.873   0.002  0.00  0.00     0.003 A 
ATOM      8  C6  PXY d   1       0.839   0.479   0.332  0.00  0.00     0.003 A 
ENDROOT
TORSDOF 0
ENDMDL
