MODEL 1
REMARK minimizedAffinity -4.70613527
REMARK minimizedRMSD -1
REMARK  0 active torsions:
REMARK  status: ('A' for Active; 'I' for Inactive)
ROOT
ATOM      1  C4' PXY d   1      -0.556   1.878   0.199  0.00  0.00     0.077 C 
ATOM      2  C1' PXY d   1       0.158  -3.690  -1.180  0.00  0.00     0.077 C 
ATOM      3  C1  PXY d   1      -0.027  -2.226  -0.831  0.00  0.00    -0.082 A 
ATOM      4  C2  PXY d   1       0.184  -1.818   0.410  0.00  0.00     0.003 A 
ATOM      5  C3  PXY d   1      -0.009  -0.504   0.750  0.00  0.00     0.003 A 
ATOM      6  C4  PXY d   1      -0.372   0.412  -0.201  0.00  0.00    -0.082 A 
ATOM      7  C5  PXY d   1      -0.579   0.005  -1.471  0.00  0.00     0.003 A 
ATOM      8  C6  PXY d   1      -0.417  -1.341  -1.787  0.00  0.00     0.003 A 
ENDROOT
TORSDOF 0
ENDMDL
