MODEL 1
REMARK minimizedAffinity -3.06505728
REMARK minimizedRMSD -1
REMARK  0 active torsions:
REMARK  status: ('A' for Active; 'I' for Inactive)
ROOT
ATOM      1  C4' PXY d   1       0.004  -3.390  -1.868  0.00  0.00     0.077 C 
ATOM      2  C1' PXY d   1      -1.046   1.591   0.872  0.00  0.00     0.077 C 
ATOM      3  C1  PXY d   1      -0.758   0.285   0.158  0.00  0.00    -0.082 A 
ATOM      4  C2  PXY d   1      -1.475  -0.053  -0.901  0.00  0.00     0.003 A 
ATOM      5  C3  PXY d   1      -1.250  -1.246  -1.540  0.00  0.00     0.003 A 
ATOM      6  C4  PXY d   1      -0.245  -2.076  -1.122  0.00  0.00    -0.082 A 
ATOM      7  C5  PXY d   1       0.498  -1.734  -0.048  0.00  0.00     0.003 A 
ATOM      8  C6  PXY d   1       0.226  -0.538   0.611  0.00  0.00     0.003 A 
ENDROOT
TORSDOF 0
ENDMDL
