MODEL 1
REMARK minimizedAffinity -2.84583783
REMARK minimizedRMSD -1
REMARK  0 active torsions:
REMARK  status: ('A' for Active; 'I' for Inactive)
ROOT
ATOM      1  C4' PXY d   1       2.774   1.172   0.662  0.00  0.00     0.077 C 
ATOM      2  C1' PXY d   1      -0.700  -3.231  -0.740  0.00  0.00     0.077 C 
ATOM      3  C1  PXY d   1       0.205  -2.069  -0.381  0.00  0.00    -0.082 A 
ATOM      4  C2  PXY d   1       1.376  -2.303   0.190  0.00  0.00     0.003 A 
ATOM      5  C3  PXY d   1       2.193  -1.263   0.550  0.00  0.00     0.003 A 
ATOM      6  C4  PXY d   1       1.832   0.029   0.274  0.00  0.00    -0.082 A 
ATOM      7  C5  PXY d   1       0.644   0.276  -0.318  0.00  0.00     0.003 A 
ATOM      8  C6  PXY d   1      -0.189  -0.792  -0.638  0.00  0.00     0.003 A 
ENDROOT
TORSDOF 0
ENDMDL
