MODEL 1
REMARK minimizedAffinity -3.82818294
REMARK minimizedRMSD -1
REMARK  0 active torsions:
REMARK  status: ('A' for Active; 'I' for Inactive)
ROOT
ATOM      1  C4' PXY d   1      -0.134  -2.751  -1.097  0.00  0.00     0.077 C 
ATOM      2  C1' PXY d   1      -1.273   2.637   0.659  0.00  0.00     0.077 C 
ATOM      3  C1  PXY d   1      -0.979   1.227   0.186  0.00  0.00    -0.082 A 
ATOM      4  C2  PXY d   1      -0.946   0.237   1.063  0.00  0.00     0.003 A 
ATOM      5  C3  PXY d   1      -0.650  -1.039   0.658  0.00  0.00     0.003 A 
ATOM      6  C4  PXY d   1      -0.437  -1.313  -0.667  0.00  0.00    -0.082 A 
ATOM      7  C5  PXY d   1      -0.479  -0.310  -1.569  0.00  0.00     0.003 A 
ATOM      8  C6  PXY d   1      -0.741   0.985  -1.131  0.00  0.00     0.003 A 
ENDROOT
TORSDOF 0
ENDMDL
