MODEL 1
REMARK minimizedAffinity -2.82506537
REMARK minimizedRMSD -1
REMARK  0 active torsions:
REMARK  status: ('A' for Active; 'I' for Inactive)
ROOT
ATOM      1  C4' PXY d   1      -0.050   1.794   0.835  0.00  0.00     0.077 C 
ATOM      2  C1' PXY d   1      -0.375  -3.232  -2.002  0.00  0.00     0.077 C 
ATOM      3  C1  PXY d   1      -0.290  -1.921  -1.247  0.00  0.00    -0.082 A 
ATOM      4  C2  PXY d   1      -0.719  -0.807  -1.819  0.00  0.00     0.003 A 
ATOM      5  C3  PXY d   1      -0.620   0.392  -1.162  0.00  0.00     0.003 A 
ATOM      6  C4  PXY d   1      -0.125   0.445   0.113  0.00  0.00    -0.082 A 
ATOM      7  C5  PXY d   1       0.304  -0.688   0.708  0.00  0.00     0.003 A 
ATOM      8  C6  PXY d   1       0.233  -1.889   0.009  0.00  0.00     0.003 A 
ENDROOT
TORSDOF 0
ENDMDL
