MODEL 1
REMARK minimizedAffinity -2.65391779
REMARK minimizedRMSD -1
REMARK  0 active torsions:
REMARK  status: ('A' for Active; 'I' for Inactive)
ROOT
ATOM      1  C4' PXY d   1       0.003  -3.351  -1.780  0.00  0.00     0.077 C 
ATOM      2  C1' PXY d   1      -0.203   1.774   0.887  0.00  0.00     0.077 C 
ATOM      3  C1  PXY d   1      -0.142   0.425   0.198  0.00  0.00    -0.082 A 
ATOM      4  C2  PXY d   1      -0.304   0.353  -1.113  0.00  0.00     0.003 A 
ATOM      5  C3  PXY d   1      -0.283  -0.862  -1.749  0.00  0.00     0.003 A 
ATOM      6  C4  PXY d   1      -0.042  -2.010  -1.043  0.00  0.00    -0.082 A 
ATOM      7  C5  PXY d   1       0.135  -1.943   0.294  0.00  0.00     0.003 A 
ATOM      8  C6  PXY d   1       0.070  -0.705   0.926  0.00  0.00     0.003 A 
ENDROOT
TORSDOF 0
ENDMDL
