MODEL 1
REMARK minimizedAffinity -5.23383141
REMARK minimizedRMSD -1
REMARK  0 active torsions:
REMARK  status: ('A' for Active; 'I' for Inactive)
ROOT
ATOM      1  C4' PXY d   1      -4.310  -5.287   0.515  0.00  0.00     0.077 C 
ATOM      2  C1' PXY d   1       0.393  -3.078  -2.019  0.00  0.00     0.077 C 
ATOM      3  C1  PXY d   1      -0.848  -3.653  -1.365  0.00  0.00    -0.082 A 
ATOM      4  C2  PXY d   1      -0.890  -3.790  -0.049  0.00  0.00     0.003 A 
ATOM      5  C3  PXY d   1      -1.991  -4.338   0.556  0.00  0.00     0.003 A 
ATOM      6  C4  PXY d   1      -3.082  -4.701  -0.188  0.00  0.00    -0.082 A 
ATOM      7  C5  PXY d   1      -3.051  -4.555  -1.530  0.00  0.00     0.003 A 
ATOM      8  C6  PXY d   1      -1.907  -4.035  -2.129  0.00  0.00     0.003 A 
ENDROOT
TORSDOF 0
ENDMDL
