MODEL 1
REMARK minimizedAffinity -2.16283536
REMARK minimizedRMSD -1
REMARK  0 active torsions:
REMARK  status: ('A' for Active; 'I' for Inactive)
ROOT
ATOM      1  C4' PXY d   1      -0.299   2.643   1.620  0.00  0.00     0.077 C 
ATOM      2  C1' PXY d   1      -0.646  -2.508  -0.978  0.00  0.00     0.077 C 
ATOM      3  C1  PXY d   1      -0.564  -1.152  -0.305  0.00  0.00    -0.082 A 
ATOM      4  C2  PXY d   1       0.527  -0.820   0.365  0.00  0.00     0.003 A 
ATOM      5  C3  PXY d   1       0.606   0.389   1.007  0.00  0.00     0.003 A 
ATOM      6  C4  PXY d   1      -0.422   1.289   0.917  0.00  0.00    -0.082 A 
ATOM      7  C5  PXY d   1      -1.534   0.962   0.226  0.00  0.00     0.003 A 
ATOM      8  C6  PXY d   1      -1.611  -0.287  -0.384  0.00  0.00     0.003 A 
ENDROOT
TORSDOF 0
ENDMDL
