MODEL 1
REMARK minimizedAffinity -2.73904943
REMARK minimizedRMSD -1
REMARK  0 active torsions:
REMARK  status: ('A' for Active; 'I' for Inactive)
ROOT
ATOM      1  C4' PXY d   1      -0.650  -3.799  -2.565  0.00  0.00     0.077 C 
ATOM      2  C1' PXY d   1      -0.247   0.985   0.654  0.00  0.00     0.077 C 
ATOM      3  C1  PXY d   1      -0.360  -0.263  -0.199  0.00  0.00    -0.082 A 
ATOM      4  C2  PXY d   1      -0.197  -1.452   0.357  0.00  0.00     0.003 A 
ATOM      5  C3  PXY d   1      -0.264  -2.590  -0.405  0.00  0.00     0.003 A 
ATOM      6  C4  PXY d   1      -0.554  -2.512  -1.741  0.00  0.00    -0.082 A 
ATOM      7  C5  PXY d   1      -0.732  -1.303  -2.314  0.00  0.00     0.003 A 
ATOM      8  C6  PXY d   1      -0.619  -0.158  -1.531  0.00  0.00     0.003 A 
ENDROOT
TORSDOF 0
ENDMDL
