MODEL 1
REMARK minimizedAffinity -2.23099566
REMARK minimizedRMSD -1
REMARK  0 active torsions:
REMARK  status: ('A' for Active; 'I' for Inactive)
ROOT
ATOM      1  C4' PXY d   1       3.349   2.603   1.506  0.00  0.00     0.077 C 
ATOM      2  C1' PXY d   1      -1.945   1.162  -0.313  0.00  0.00     0.077 C 
ATOM      3  C1  PXY d   1      -0.554   1.527   0.165  0.00  0.00    -0.082 A 
ATOM      4  C2  PXY d   1      -0.355   2.682   0.780  0.00  0.00     0.003 A 
ATOM      5  C3  PXY d   1       0.903   3.042   1.189  0.00  0.00     0.003 A 
ATOM      6  C4  PXY d   1       1.959   2.189   1.016  0.00  0.00    -0.082 A 
ATOM      7  C5  PXY d   1       1.763   1.004   0.399  0.00  0.00     0.003 A 
ATOM      8  C6  PXY d   1       0.486   0.675  -0.047  0.00  0.00     0.003 A 
ENDROOT
TORSDOF 0
ENDMDL
