MODEL 1
REMARK minimizedAffinity -5.03625393
REMARK minimizedRMSD -1
REMARK  0 active torsions:
REMARK  status: ('A' for Active; 'I' for Inactive)
ROOT
ATOM      1  C4' PXY d   1      -0.736   2.346   1.144  0.00  0.00     0.077 C 
ATOM      2  C1' PXY d   1      -0.833  -2.960  -1.147  0.00  0.00     0.077 C 
ATOM      3  C1  PXY d   1      -0.817  -1.565  -0.554  0.00  0.00    -0.082 A 
ATOM      4  C2  PXY d   1       0.264  -1.135   0.076  0.00  0.00     0.003 A 
ATOM      5  C3  PXY d   1       0.284   0.113   0.646  0.00  0.00     0.003 A 
ATOM      6  C4  PXY d   1      -0.794   0.948   0.522  0.00  0.00    -0.082 A 
ATOM      7  C5  PXY d   1      -1.896   0.520  -0.129  0.00  0.00     0.003 A 
ATOM      8  C6  PXY d   1      -1.912  -0.764  -0.664  0.00  0.00     0.003 A 
ENDROOT
TORSDOF 0
ENDMDL
