MODEL 1
REMARK minimizedAffinity -2.5130775
REMARK minimizedRMSD -1
REMARK  0 active torsions:
REMARK  status: ('A' for Active; 'I' for Inactive)
ROOT
ATOM      1  C4' PXY d   1       0.095  -1.976  -0.358  0.00  0.00     0.077 C 
ATOM      2  C1' PXY d   1      -0.416   3.700   0.608  0.00  0.00     0.077 C 
ATOM      3  C1  PXY d   1      -0.269   2.213   0.355  0.00  0.00    -0.082 A 
ATOM      4  C2  PXY d   1      -1.257   1.546  -0.219  0.00  0.00     0.003 A 
ATOM      5  C3  PXY d   1      -1.154   0.195  -0.427  0.00  0.00     0.003 A 
ATOM      6  C4  PXY d   1      -0.005  -0.472  -0.091  0.00  0.00    -0.082 A 
ATOM      7  C5  PXY d   1       1.011   0.203   0.485  0.00  0.00     0.003 A 
ATOM      8  C6  PXY d   1       0.870   1.567   0.725  0.00  0.00     0.003 A 
ENDROOT
TORSDOF 0
ENDMDL
