MODEL 1
REMARK minimizedAffinity -4.94645166
REMARK minimizedRMSD -1
REMARK  0 active torsions:
REMARK  status: ('A' for Active; 'I' for Inactive)
ROOT
ATOM      1  C4' PXY d   1      -2.638   1.625   0.510  0.00  0.00     0.077 C 
ATOM      2  C1' PXY d   1       3.027   1.060  -0.491  0.00  0.00     0.077 C 
ATOM      3  C1  PXY d   1       1.543   1.221  -0.227  0.00  0.00    -0.082 A 
ATOM      4  C2  PXY d   1       0.840   0.187   0.207  0.00  0.00     0.003 A 
ATOM      5  C3  PXY d   1      -0.509   0.307   0.420  0.00  0.00     0.003 A 
ATOM      6  C4  PXY d   1      -1.135   1.511   0.239  0.00  0.00    -0.082 A 
ATOM      7  C5  PXY d   1      -0.422   2.573  -0.193  0.00  0.00     0.003 A 
ATOM      8  C6  PXY d   1       0.938   2.420  -0.444  0.00  0.00     0.003 A 
ENDROOT
TORSDOF 0
ENDMDL
