MODEL 1
REMARK minimizedAffinity -0.604210615
REMARK minimizedRMSD -1
REMARK  0 active torsions:
REMARK  status: ('A' for Active; 'I' for Inactive)
ROOT
ATOM      1  C4' PXY d   1       0.471  -3.245  -1.065  0.00  0.00     0.077 C 
ATOM      2  C1' PXY d   1      -1.143   1.899   1.022  0.00  0.00     0.077 C 
ATOM      3  C1  PXY d   1      -0.716   0.546   0.486  0.00  0.00    -0.082 A 
ATOM      4  C2  PXY d   1      -0.450   0.407  -0.802  0.00  0.00     0.003 A 
ATOM      5  C3  PXY d   1      -0.093  -0.816  -1.309  0.00  0.00     0.003 A 
ATOM      6  C4  PXY d   1       0.045  -1.896  -0.479  0.00  0.00    -0.082 A 
ATOM      7  C5  PXY d   1      -0.214  -1.760   0.839  0.00  0.00     0.003 A 
ATOM      8  C6  PXY d   1      -0.615  -0.519   1.326  0.00  0.00     0.003 A 
ENDROOT
TORSDOF 0
ENDMDL
