MODEL 1
REMARK minimizedAffinity -5.36457014
REMARK minimizedRMSD -1
REMARK  0 active torsions:
REMARK  status: ('A' for Active; 'I' for Inactive)
ROOT
ATOM      1  C4' PXY d   1      -0.395   2.562   0.164  0.00  0.00     0.077 C 
ATOM      2  C1' PXY d   1      -0.285  -3.079  -1.092  0.00  0.00     0.077 C 
ATOM      3  C1  PXY d   1      -0.309  -1.602  -0.750  0.00  0.00    -0.082 A 
ATOM      4  C2  PXY d   1      -1.144  -0.798  -1.387  0.00  0.00     0.003 A 
ATOM      5  C3  PXY d   1      -1.157   0.546  -1.113  0.00  0.00     0.003 A 
ATOM      6  C4  PXY d   1      -0.343   1.063  -0.141  0.00  0.00    -0.082 A 
ATOM      7  C5  PXY d   1       0.505   0.246   0.520  0.00  0.00     0.003 A 
ATOM      8  C6  PXY d   1       0.531  -1.108   0.199  0.00  0.00     0.003 A 
ENDROOT
TORSDOF 0
ENDMDL
