MODEL 1
REMARK minimizedAffinity 1.64587152
REMARK minimizedRMSD -1
REMARK  0 active torsions:
REMARK  status: ('A' for Active; 'I' for Inactive)
ROOT
ATOM      1  C   UNL d   1       1.543   5.332  -5.856  0.00  0.00     0.172 C 
ATOM      2  N   UNL d   1       2.961   5.079  -5.759  0.00  0.00    -0.070 N 
ATOM      3  C1  UNL d   1       3.953   5.999  -5.969  0.00  0.00    -0.004 A 
ATOM      4  C2  UNL d   1       5.163   5.367  -5.780  0.00  0.00    -0.047 A 
ATOM      5  C3  UNL d   1       4.889   4.020  -5.445  0.00  0.00    -0.047 A 
ATOM      6  C4  UNL d   1       3.518   3.869  -5.439  0.00  0.00    -0.004 A 
ENDROOT
TORSDOF 0
ENDMDL
