MODEL 1
REMARK minimizedAffinity -0.157821178
REMARK minimizedRMSD -1
REMARK  0 active torsions:
REMARK  status: ('A' for Active; 'I' for Inactive)
ROOT
ATOM      1  C   UNL d   1      -5.986   1.491   6.000  0.00  0.00     0.172 C 
ATOM      2  N   UNL d   1      -5.176   1.489   4.804  0.00  0.00    -0.070 N 
ATOM      3  C1  UNL d   1      -5.649   1.520   3.520  0.00  0.00    -0.004 A 
ATOM      4  C2  UNL d   1      -4.564   1.507   2.670  0.00  0.00    -0.047 A 
ATOM      5  C3  UNL d   1      -3.399   1.467   3.472  0.00  0.00    -0.047 A 
ATOM      6  C4  UNL d   1      -3.807   1.456   4.789  0.00  0.00    -0.004 A 
ENDROOT
TORSDOF 0
ENDMDL
