MODEL 1
REMARK minimizedAffinity 3.03554749
REMARK minimizedRMSD -1
REMARK  0 active torsions:
REMARK  status: ('A' for Active; 'I' for Inactive)
ROOT
ATOM      1  C   UNL d   1       5.351  -5.266   0.043  0.00  0.00     0.172 C 
ATOM      2  N   UNL d   1       4.327  -4.283   0.305  0.00  0.00    -0.070 N 
ATOM      3  C1  UNL d   1       4.532  -3.040   0.842  0.00  0.00    -0.004 A 
ATOM      4  C2  UNL d   1       3.309  -2.411   0.932  0.00  0.00    -0.047 A 
ATOM      5  C3  UNL d   1       2.335  -3.308   0.433  0.00  0.00    -0.047 A 
ATOM      6  C4  UNL d   1       2.992  -4.459   0.052  0.00  0.00    -0.004 A 
ENDROOT
TORSDOF 0
ENDMDL
