MODEL 1
REMARK minimizedAffinity 5.79843187
REMARK minimizedRMSD -1
REMARK  0 active torsions:
REMARK  status: ('A' for Active; 'I' for Inactive)
ROOT
ATOM      1  C   UNL d   1      -0.388  -1.897   2.070  0.00  0.00     0.172 C 
ATOM      2  N   UNL d   1       0.806  -2.421   1.449  0.00  0.00    -0.070 N 
ATOM      3  C1  UNL d   1       0.849  -3.441   0.538  0.00  0.00    -0.004 A 
ATOM      4  C2  UNL d   1       2.168  -3.639   0.188  0.00  0.00    -0.047 A 
ATOM      5  C3  UNL d   1       2.943  -2.706   0.916  0.00  0.00    -0.047 A 
ATOM      6  C4  UNL d   1       2.075  -1.964   1.689  0.00  0.00    -0.004 A 
ENDROOT
TORSDOF 0
ENDMDL
