MODEL 1
REMARK minimizedAffinity 4.3670783
REMARK minimizedRMSD -1
REMARK  0 active torsions:
REMARK  status: ('A' for Active; 'I' for Inactive)
ROOT
ATOM      1  C   UNL d   1      -0.783  -1.422   2.807  0.00  0.00     0.172 C 
ATOM      2  N   UNL d   1       0.387  -1.752   2.028  0.00  0.00    -0.070 N 
ATOM      3  C1  UNL d   1       1.663  -1.326   2.283  0.00  0.00    -0.004 A 
ATOM      4  C2  UNL d   1       2.487  -1.857   1.315  0.00  0.00    -0.047 A 
ATOM      5  C3  UNL d   1       1.679  -2.628   0.447  0.00  0.00    -0.047 A 
ATOM      6  C4  UNL d   1       0.383  -2.546   0.911  0.00  0.00    -0.004 A 
ENDROOT
TORSDOF 0
ENDMDL
