MODEL 1
REMARK minimizedAffinity 7.79099035
REMARK minimizedRMSD -1
REMARK  0 active torsions:
REMARK  status: ('A' for Active; 'I' for Inactive)
ROOT
ATOM      1  C   UNL d   1       1.930  -4.148  -0.042  0.00  0.00     0.172 C 
ATOM      2  N   UNL d   1       1.548  -2.885   0.544  0.00  0.00    -0.070 N 
ATOM      3  C1  UNL d   1       2.406  -1.958   1.074  0.00  0.00    -0.004 A 
ATOM      4  C2  UNL d   1       1.653  -0.897   1.529  0.00  0.00    -0.047 A 
ATOM      5  C3  UNL d   1       0.296  -1.196   1.263  0.00  0.00    -0.047 A 
ATOM      6  C4  UNL d   1       0.259  -2.433   0.653  0.00  0.00    -0.004 A 
ENDROOT
TORSDOF 0
ENDMDL
