MODEL 1
REMARK minimizedAffinity 6.25880098
REMARK minimizedRMSD -1
REMARK  0 active torsions:
REMARK  status: ('A' for Active; 'I' for Inactive)
ROOT
ATOM      1  C   UNL d   1      -4.807  -1.696  -3.606  0.00  0.00     0.172 C 
ATOM      2  N   UNL d   1      -4.091  -0.754  -2.777  0.00  0.00    -0.070 N 
ATOM      3  C1  UNL d   1      -3.465  -1.046  -1.595  0.00  0.00    -0.004 A 
ATOM      4  C2  UNL d   1      -2.901   0.117  -1.117  0.00  0.00    -0.047 A 
ATOM      5  C3  UNL d   1      -3.198   1.143  -2.045  0.00  0.00    -0.047 A 
ATOM      6  C4  UNL d   1      -3.935   0.576  -3.063  0.00  0.00    -0.004 A 
ENDROOT
TORSDOF 0
ENDMDL
