MODEL 1
REMARK minimizedAffinity 0.107337482
REMARK minimizedRMSD -1
REMARK  0 active torsions:
REMARK  status: ('A' for Active; 'I' for Inactive)
ROOT
ATOM      1  C   UNL d   1       5.474  -2.346   5.851  0.00  0.00     0.172 C 
ATOM      2  N   UNL d   1       5.241  -3.737   5.538  0.00  0.00    -0.070 N 
ATOM      3  C1  UNL d   1       5.990  -4.792   5.986  0.00  0.00    -0.004 A 
ATOM      4  C2  UNL d   1       5.445  -5.947   5.466  0.00  0.00    -0.047 A 
ATOM      5  C3  UNL d   1       4.331  -5.572   4.678  0.00  0.00    -0.047 A 
ATOM      6  C4  UNL d   1       4.228  -4.198   4.740  0.00  0.00    -0.004 A 
ENDROOT
TORSDOF 0
ENDMDL
