MODEL 1
REMARK minimizedAffinity 3.14641643
REMARK minimizedRMSD -1
REMARK  0 active torsions:
REMARK  status: ('A' for Active; 'I' for Inactive)
ROOT
ATOM      1  C   UNL d   1      -4.845   1.930  -4.918  0.00  0.00     0.172 C 
ATOM      2  N   UNL d   1      -3.458   2.117  -4.564  0.00  0.00    -0.070 N 
ATOM      3  C1  UNL d   1      -2.384   1.840  -5.367  0.00  0.00    -0.004 A 
ATOM      4  C2  UNL d   1      -1.240   2.155  -4.667  0.00  0.00    -0.047 A 
ATOM      5  C3  UNL d   1      -1.639   2.637  -3.398  0.00  0.00    -0.047 A 
ATOM      6  C4  UNL d   1      -3.017   2.603  -3.361  0.00  0.00    -0.004 A 
ENDROOT
TORSDOF 0
ENDMDL
