MODEL 1
REMARK minimizedAffinity 3.78757453
REMARK minimizedRMSD -1
REMARK  0 active torsions:
REMARK  status: ('A' for Active; 'I' for Inactive)
ROOT
ATOM      1  C   UNL d   1      -0.922  -2.470   1.682  0.00  0.00     0.172 C 
ATOM      2  N   UNL d   1       0.200  -3.024   0.961  0.00  0.00    -0.070 N 
ATOM      3  C1  UNL d   1       0.413  -4.355   0.715  0.00  0.00    -0.004 A 
ATOM      4  C2  UNL d   1       1.586  -4.470   0.002  0.00  0.00    -0.047 A 
ATOM      5  C3  UNL d   1       2.097  -3.164  -0.187  0.00  0.00    -0.047 A 
ATOM      6  C4  UNL d   1       1.219  -2.288   0.417  0.00  0.00    -0.004 A 
ENDROOT
TORSDOF 0
ENDMDL
