MODEL 1
REMARK minimizedAffinity 7.83271408
REMARK minimizedRMSD -1
REMARK  0 active torsions:
REMARK  status: ('A' for Active; 'I' for Inactive)
ROOT
ATOM      1  C   UNL d   1      -6.000   1.659  -5.621  0.00  0.00     0.172 C 
ATOM      2  N   UNL d   1      -5.999   0.316  -5.091  0.00  0.00    -0.070 N 
ATOM      3  C1  UNL d   1      -5.998  -0.836  -5.832  0.00  0.00    -0.004 A 
ATOM      4  C2  UNL d   1      -5.997  -1.901  -4.958  0.00  0.00    -0.047 A 
ATOM      5  C3  UNL d   1      -5.999  -1.371  -3.645  0.00  0.00    -0.047 A 
ATOM      6  C4  UNL d   1      -6.000   0.003  -3.757  0.00  0.00    -0.004 A 
ENDROOT
TORSDOF 0
ENDMDL
