MODEL 1
REMARK minimizedAffinity 4.35422564
REMARK minimizedRMSD -1
REMARK  0 active torsions:
REMARK  status: ('A' for Active; 'I' for Inactive)
ROOT
ATOM      1  C   UNL d   1       2.201  -5.510  -0.400  0.00  0.00     0.172 C 
ATOM      2  N   UNL d   1       2.056  -4.146   0.049  0.00  0.00    -0.070 N 
ATOM      3  C1  UNL d   1       0.875  -3.461   0.156  0.00  0.00    -0.004 A 
ATOM      4  C2  UNL d   1       1.161  -2.195   0.618  0.00  0.00    -0.047 A 
ATOM      5  C3  UNL d   1       2.563  -2.115   0.794  0.00  0.00    -0.047 A 
ATOM      6  C4  UNL d   1       3.092  -3.336   0.434  0.00  0.00    -0.004 A 
ENDROOT
TORSDOF 0
ENDMDL
