MODEL 1
REMARK minimizedAffinity -1.72829425
REMARK minimizedRMSD -1
REMARK  1 active torsions:
REMARK  status: ('A' for Active; 'I' for Inactive)
REMARK    1  A    between atoms: C3_4  and  O_7 
ROOT
ATOM      1  C   UNL d   1       1.196   0.105  -4.507  0.00  0.00    -0.033 A 
ATOM      2  C1  UNL d   1      -0.106  -0.031  -4.020  0.00  0.00     0.039 A 
ATOM      3  C2  UNL d   1      -0.321  -0.346  -2.677  0.00  0.00    -0.080 A 
ATOM      4  C3  UNL d   1       0.772  -0.521  -1.833  0.00  0.00     0.150 A 
ATOM      5  C4  UNL d   1       2.071  -0.383  -2.310  0.00  0.00    -0.007 A 
ATOM      6  C5  UNL d   1       2.284  -0.069  -3.652  0.00  0.00     0.039 A 
ENDROOT
BRANCH   4   7
ATOM      7  O   UNL d   1       0.612  -0.834  -0.516  0.00  0.00    -0.526 OA
ATOM      8  H5  UNL d   1      -0.339  -0.926  -0.334  0.00  0.00     0.418 HD
ENDBRANCH   4   7
TORSDOF 1
ENDMDL
