MODEL 1
REMARK minimizedAffinity -3.07037449
REMARK minimizedRMSD -1
REMARK  1 active torsions:
REMARK  status: ('A' for Active; 'I' for Inactive)
REMARK    1  A    between atoms: C3_4  and  O_7 
ROOT
ATOM      1  C   UNL d   1      -0.233  -0.704  -1.106  0.00  0.00    -0.033 A 
ATOM      2  C1  UNL d   1      -1.164  -1.441  -0.371  0.00  0.00     0.039 A 
ATOM      3  C2  UNL d   1      -1.538  -1.022   0.907  0.00  0.00    -0.080 A 
ATOM      4  C3  UNL d   1      -0.974   0.135   1.438  0.00  0.00     0.150 A 
ATOM      5  C4  UNL d   1      -0.048   0.876   0.711  0.00  0.00    -0.007 A 
ATOM      6  C5  UNL d   1       0.324   0.455  -0.565  0.00  0.00     0.039 A 
ENDROOT
BRANCH   4   7
ATOM      7  O   UNL d   1      -1.303   0.581   2.684  0.00  0.00    -0.526 OA
ATOM      8  H5  UNL d   1      -1.931  -0.046   3.079  0.00  0.00     0.418 HD
ENDBRANCH   4   7
TORSDOF 1
ENDMDL
