MODEL 1
REMARK minimizedAffinity -5.06525278
REMARK minimizedRMSD -1
REMARK  1 active torsions:
REMARK  status: ('A' for Active; 'I' for Inactive)
REMARK    1  A    between atoms: C3_4  and  O_7 
ROOT
ATOM      1  C   UNL d   1      -0.431   0.596   2.759  0.00  0.00    -0.033 A 
ATOM      2  C1  UNL d   1      -1.435   0.692   1.794  0.00  0.00     0.039 A 
ATOM      3  C2  UNL d   1      -1.162   0.360   0.465  0.00  0.00    -0.080 A 
ATOM      4  C3  UNL d   1       0.116  -0.067   0.116  0.00  0.00     0.150 A 
ATOM      5  C4  UNL d   1       1.120  -0.168   1.074  0.00  0.00    -0.007 A 
ATOM      6  C5  UNL d   1       0.846   0.165   2.400  0.00  0.00     0.039 A 
ENDROOT
BRANCH   4   7
ATOM      7  O   UNL d   1       0.431  -0.397  -1.168  0.00  0.00    -0.526 OA
ATOM      8  H5  UNL d   1      -0.352  -0.252  -1.724  0.00  0.00     0.418 HD
ENDBRANCH   4   7
TORSDOF 1
ENDMDL
