MODEL 1
REMARK minimizedAffinity -3.37047148
REMARK minimizedRMSD -1
REMARK  1 active torsions:
REMARK  status: ('A' for Active; 'I' for Inactive)
REMARK    1  A    between atoms: C3_4  and  O_7 
ROOT
ATOM      1  C   UNL d   1       1.124  -0.576  -0.136  0.00  0.00    -0.033 A 
ATOM      2  C1  UNL d   1      -0.168  -0.235  -0.540  0.00  0.00     0.039 A 
ATOM      3  C2  UNL d   1      -1.066   0.312   0.378  0.00  0.00    -0.080 A 
ATOM      4  C3  UNL d   1      -0.661   0.512   1.695  0.00  0.00     0.150 A 
ATOM      5  C4  UNL d   1       0.626   0.178   2.103  0.00  0.00    -0.007 A 
ATOM      6  C5  UNL d   1       1.522  -0.369   1.185  0.00  0.00     0.039 A 
ENDROOT
BRANCH   4   7
ATOM      7  O   UNL d   1      -1.504   1.038   2.628  0.00  0.00    -0.526 OA
ATOM      8  H5  UNL d   1      -2.367   1.193   2.210  0.00  0.00     0.418 HD
ENDBRANCH   4   7
TORSDOF 1
ENDMDL
