MODEL 1
REMARK minimizedAffinity -3.38009381
REMARK minimizedRMSD -1
REMARK  1 active torsions:
REMARK  status: ('A' for Active; 'I' for Inactive)
REMARK    1  A    between atoms: C3_4  and  O_7 
ROOT
ATOM      1  C   UNL d   1      -0.867   0.431   2.833  0.00  0.00    -0.033 A 
ATOM      2  C1  UNL d   1      -1.799   0.565   1.801  0.00  0.00     0.039 A 
ATOM      3  C2  UNL d   1      -1.431   0.281   0.485  0.00  0.00    -0.080 A 
ATOM      4  C3  UNL d   1      -0.131  -0.136   0.213  0.00  0.00     0.150 A 
ATOM      5  C4  UNL d   1       0.801  -0.275   1.236  0.00  0.00    -0.007 A 
ATOM      6  C5  UNL d   1       0.433   0.010   2.550  0.00  0.00     0.039 A 
ENDROOT
BRANCH   4   7
ATOM      7  O   UNL d   1       0.275  -0.421  -1.057  0.00  0.00    -0.526 OA
ATOM      8  H5  UNL d   1      -0.466  -0.253  -1.662  0.00  0.00     0.418 HD
ENDBRANCH   4   7
TORSDOF 1
ENDMDL
