MODEL 1
REMARK minimizedAffinity -4.81022358
REMARK minimizedRMSD -1
REMARK  1 active torsions:
REMARK  status: ('A' for Active; 'I' for Inactive)
REMARK    1  A    between atoms: C3_4  and  O_7 
ROOT
ATOM      1  C   UNL d   1      -1.774   0.412   0.962  0.00  0.00    -0.033 A 
ATOM      2  C1  UNL d   1      -0.790   0.241  -0.013  0.00  0.00     0.039 A 
ATOM      3  C2  UNL d   1       0.544   0.069   0.361  0.00  0.00    -0.080 A 
ATOM      4  C3  UNL d   1       0.880   0.069   1.712  0.00  0.00     0.150 A 
ATOM      5  C4  UNL d   1      -0.096   0.235   2.689  0.00  0.00    -0.007 A 
ATOM      6  C5  UNL d   1      -1.427   0.408   2.314  0.00  0.00     0.039 A 
ENDROOT
BRANCH   4   7
ATOM      7  O   UNL d   1       2.169  -0.091   2.125  0.00  0.00    -0.526 OA
ATOM      8  H5  UNL d   1       2.737  -0.166   1.340  0.00  0.00     0.418 HD
ENDBRANCH   4   7
TORSDOF 1
ENDMDL
