MODEL 1
REMARK minimizedAffinity -1.54127133
REMARK minimizedRMSD -1
REMARK  1 active torsions:
REMARK  status: ('A' for Active; 'I' for Inactive)
REMARK    1  A    between atoms: C3_4  and  O_7 
ROOT
ATOM      1  C   UNL d   1      -1.142   0.734   1.631  0.00  0.00    -0.033 A 
ATOM      2  C1  UNL d   1      -0.042   0.396   0.839  0.00  0.00     0.039 A 
ATOM      3  C2  UNL d   1       1.085  -0.189   1.420  0.00  0.00    -0.080 A 
ATOM      4  C3  UNL d   1       1.099  -0.431   2.791  0.00  0.00     0.150 A 
ATOM      5  C4  UNL d   1       0.006  -0.100   3.585  0.00  0.00    -0.007 A 
ATOM      6  C5  UNL d   1      -1.118   0.485   3.003  0.00  0.00     0.039 A 
ENDROOT
BRANCH   4   7
ATOM      7  O   UNL d   1       2.179  -0.996   3.403  0.00  0.00    -0.526 OA
ATOM      8  H5  UNL d   1       2.869  -1.144   2.735  0.00  0.00     0.418 HD
ENDBRANCH   4   7
TORSDOF 1
ENDMDL
