MODEL 1
REMARK minimizedAffinity -2.61910152
REMARK minimizedRMSD -1
REMARK  1 active torsions:
REMARK  status: ('A' for Active; 'I' for Inactive)
REMARK    1  A    between atoms: C3_4  and  O_7 
ROOT
ATOM      1  C   UNL d   1       0.812  -1.314  -1.813  0.00  0.00    -0.033 A 
ATOM      2  C1  UNL d   1       1.465  -1.320  -3.046  0.00  0.00     0.039 A 
ATOM      3  C2  UNL d   1       1.442  -0.182  -3.856  0.00  0.00    -0.080 A 
ATOM      4  C3  UNL d   1       0.764   0.953  -3.420  0.00  0.00     0.150 A 
ATOM      5  C4  UNL d   1       0.114   0.967  -2.190  0.00  0.00    -0.007 A 
ATOM      6  C5  UNL d   1       0.138  -0.170  -1.384  0.00  0.00     0.039 A 
ENDROOT
BRANCH   4   7
ATOM      7  O   UNL d   1       0.710   2.085  -4.178  0.00  0.00    -0.526 OA
ATOM      8  H5  UNL d   1       1.179   1.919  -5.013  0.00  0.00     0.418 HD
ENDBRANCH   4   7
TORSDOF 1
ENDMDL
