MODEL 1
REMARK minimizedAffinity -3.45792007
REMARK minimizedRMSD -1
REMARK  1 active torsions:
REMARK  status: ('A' for Active; 'I' for Inactive)
REMARK    1  A    between atoms: C3_4  and  O_7 
ROOT
ATOM      1  C   UNL d   1       1.847  -0.514   1.130  0.00  0.00    -0.033 A 
ATOM      2  C1  UNL d   1       1.669  -0.530   2.514  0.00  0.00     0.039 A 
ATOM      3  C2  UNL d   1       0.411  -0.270   3.061  0.00  0.00    -0.080 A 
ATOM      4  C3  UNL d   1      -0.659   0.003   2.214  0.00  0.00     0.150 A 
ATOM      5  C4  UNL d   1      -0.490   0.017   0.833  0.00  0.00    -0.007 A 
ATOM      6  C5  UNL d   1       0.767  -0.242   0.289  0.00  0.00     0.039 A 
ENDROOT
BRANCH   4   7
ATOM      7  O   UNL d   1      -1.905   0.268   2.701  0.00  0.00    -0.526 OA
ATOM      8  H5  UNL d   1      -1.865   0.252   3.672  0.00  0.00     0.418 HD
ENDBRANCH   4   7
TORSDOF 1
ENDMDL
