MODEL 1
REMARK minimizedAffinity -3.9642446
REMARK minimizedRMSD -1
REMARK  1 active torsions:
REMARK  status: ('A' for Active; 'I' for Inactive)
REMARK    1  A    between atoms: C3_4  and  O_7 
ROOT
ATOM      1  C   UNL d   1      -1.676   0.609   1.946  0.00  0.00    -0.033 A 
ATOM      2  C1  UNL d   1      -2.202   1.170   0.780  0.00  0.00     0.039 A 
ATOM      3  C2  UNL d   1      -1.501   1.067  -0.423  0.00  0.00    -0.080 A 
ATOM      4  C3  UNL d   1      -0.278   0.401  -0.447  0.00  0.00     0.150 A 
ATOM      5  C4  UNL d   1       0.249  -0.162   0.710  0.00  0.00    -0.007 A 
ATOM      6  C5  UNL d   1      -0.451  -0.058   1.911  0.00  0.00     0.039 A 
ENDROOT
BRANCH   4   7
ATOM      7  O   UNL d   1       0.444   0.280  -1.596  0.00  0.00    -0.526 OA
ATOM      8  H5  UNL d   1      -0.029   0.742  -2.308  0.00  0.00     0.418 HD
ENDBRANCH   4   7
TORSDOF 1
ENDMDL
