MODEL 1
REMARK minimizedAffinity -0.463297874
REMARK minimizedRMSD -1
REMARK  1 active torsions:
REMARK  status: ('A' for Active; 'I' for Inactive)
REMARK    1  A    between atoms: C3_4  and  O_7 
ROOT
ATOM      1  C   UNL d   1       5.306   2.526   5.053  0.00  0.00    -0.033 A 
ATOM      2  C1  UNL d   1       4.749   2.810   3.805  0.00  0.00     0.039 A 
ATOM      3  C2  UNL d   1       4.451   1.773   2.919  0.00  0.00    -0.080 A 
ATOM      4  C3  UNL d   1       4.713   0.458   3.293  0.00  0.00     0.150 A 
ATOM      5  C4  UNL d   1       5.265   0.167   4.536  0.00  0.00    -0.007 A 
ATOM      6  C5  UNL d   1       5.562   1.204   5.419  0.00  0.00     0.039 A 
ENDROOT
BRANCH   4   7
ATOM      7  O   UNL d   1       4.444  -0.587   2.460  0.00  0.00    -0.526 OA
ATOM      8  H5  UNL d   1       4.093  -0.234   1.626  0.00  0.00     0.418 HD
ENDBRANCH   4   7
TORSDOF 1
ENDMDL
