MODEL 1
REMARK minimizedAffinity 3.57358074
REMARK minimizedRMSD -1
REMARK  0 active torsions:
REMARK  status: ('A' for Active; 'I' for Inactive)
ROOT
ATOM      1  C2' OXE d   1       2.556   0.056   2.523  0.00  0.00     0.078 C 
ATOM      2  C1' OXE d   1       0.008  -0.003   3.699  0.00  0.00     0.078 C 
ATOM      3  C1  OXE d   1       0.139  -0.496   2.279  0.00  0.00    -0.078 A 
ATOM      4  C2  OXE d   1       1.381  -0.420   1.696  0.00  0.00    -0.078 A 
ATOM      5  C3  OXE d   1       1.569  -0.913   0.408  0.00  0.00     0.003 A 
ATOM      6  C4  OXE d   1       0.476  -1.342  -0.353  0.00  0.00    -0.002 A 
ATOM      7  C5  OXE d   1      -0.805  -1.390   0.208  0.00  0.00    -0.002 A 
ATOM      8  C6  OXE d   1      -0.982  -1.012   1.534  0.00  0.00     0.003 A 
ENDROOT
TORSDOF 0
ENDMDL
