MODEL 1
REMARK minimizedAffinity -1.12585628
REMARK minimizedRMSD -1
REMARK  0 active torsions:
REMARK  status: ('A' for Active; 'I' for Inactive)
ROOT
ATOM      1  C2' OXE d   1       0.660  -3.790  -0.702  0.00  0.00     0.078 C 
ATOM      2  C1' OXE d   1      -1.689  -2.379  -0.096  0.00  0.00     0.078 C 
ATOM      3  C1  OXE d   1      -0.374  -1.760   0.306  0.00  0.00    -0.078 A 
ATOM      4  C2  OXE d   1       0.768  -2.480   0.047  0.00  0.00    -0.078 A 
ATOM      5  C3  OXE d   1       2.012  -1.931   0.348  0.00  0.00     0.003 A 
ATOM      6  C4  OXE d   1       2.102  -0.723   1.050  0.00  0.00    -0.002 A 
ATOM      7  C5  OXE d   1       0.949   0.007   1.359  0.00  0.00    -0.002 A 
ATOM      8  C6  OXE d   1      -0.291  -0.476   0.957  0.00  0.00     0.003 A 
ENDROOT
TORSDOF 0
ENDMDL
