MODEL 1
REMARK minimizedAffinity -2.66763639
REMARK minimizedRMSD -1
REMARK  0 active torsions:
REMARK  status: ('A' for Active; 'I' for Inactive)
ROOT
ATOM      1  C2' OXE d   1       2.860  -3.754  -0.211  0.00  0.00     0.078 C 
ATOM      2  C1' OXE d   1       3.475  -1.079   0.375  0.00  0.00     0.078 C 
ATOM      3  C1  OXE d   1       2.029  -1.500   0.449  0.00  0.00    -0.078 A 
ATOM      4  C2  OXE d   1       1.731  -2.800   0.115  0.00  0.00    -0.078 A 
ATOM      5  C3  OXE d   1       0.420  -3.255   0.220  0.00  0.00     0.003 A 
ATOM      6  C4  OXE d   1      -0.619  -2.364   0.513  0.00  0.00    -0.002 A 
ATOM      7  C5  OXE d   1      -0.342  -1.026   0.817  0.00  0.00    -0.002 A 
ATOM      8  C6  OXE d   1       0.978  -0.590   0.831  0.00  0.00     0.003 A 
ENDROOT
TORSDOF 0
ENDMDL
