MODEL 1
REMARK minimizedAffinity 4.55671024
REMARK minimizedRMSD -1
REMARK  0 active torsions:
REMARK  status: ('A' for Active; 'I' for Inactive)
ROOT
ATOM      1  C2' OXE d   1       3.374  -1.871   0.347  0.00  0.00     0.078 C 
ATOM      2  C1' OXE d   1       1.401  -3.532  -0.762  0.00  0.00     0.078 C 
ATOM      3  C1  OXE d   1       0.947  -2.317   0.008  0.00  0.00    -0.078 A 
ATOM      4  C2  OXE d   1       1.918  -1.536   0.587  0.00  0.00    -0.078 A 
ATOM      5  C3  OXE d   1       1.556  -0.374   1.263  0.00  0.00     0.003 A 
ATOM      6  C4  OXE d   1       0.206  -0.077   1.489  0.00  0.00    -0.002 A 
ATOM      7  C5  OXE d   1      -0.799  -0.881   0.942  0.00  0.00    -0.002 A 
ATOM      8  C6  OXE d   1      -0.446  -1.979   0.165  0.00  0.00     0.003 A 
ENDROOT
TORSDOF 0
ENDMDL
