MODEL 1
REMARK minimizedAffinity 1.3084476
REMARK minimizedRMSD -1
REMARK  0 active torsions:
REMARK  status: ('A' for Active; 'I' for Inactive)
ROOT
ATOM      1  C2' OXE d   1       1.533  -3.502  -0.161  0.00  0.00     0.078 C 
ATOM      2  C1' OXE d   1       2.496  -0.989   0.638  0.00  0.00     0.078 C 
ATOM      3  C1  OXE d   1       1.029  -1.277   0.840  0.00  0.00    -0.078 A 
ATOM      4  C2  OXE d   1       0.557  -2.492   0.403  0.00  0.00    -0.078 A 
ATOM      5  C3  OXE d   1      -0.776  -2.829   0.614  0.00  0.00     0.003 A 
ATOM      6  C4  OXE d   1      -1.674  -1.885   1.128  0.00  0.00    -0.002 A 
ATOM      7  C5  OXE d   1      -1.222  -0.628   1.542  0.00  0.00    -0.002 A 
ATOM      8  C6  OXE d   1       0.132  -0.324   1.445  0.00  0.00     0.003 A 
ENDROOT
TORSDOF 0
ENDMDL
