MODEL 1
REMARK minimizedAffinity -1.48155785
REMARK minimizedRMSD -1
REMARK  0 active torsions:
REMARK  status: ('A' for Active; 'I' for Inactive)
ROOT
ATOM      1  C2' OXE d   1      -0.373   0.341   1.825  0.00  0.00     0.078 C 
ATOM      2  C1' OXE d   1      -1.801  -1.937   1.017  0.00  0.00     0.078 C 
ATOM      3  C1  OXE d   1      -0.362  -1.817   0.581  0.00  0.00    -0.078 A 
ATOM      4  C2  OXE d   1       0.315  -0.677   0.942  0.00  0.00    -0.078 A 
ATOM      5  C3  OXE d   1       1.660  -0.541   0.612  0.00  0.00     0.003 A 
ATOM      6  C4  OXE d   1       2.287  -1.483  -0.213  0.00  0.00    -0.002 A 
ATOM      7  C5  OXE d   1       1.604  -2.632  -0.625  0.00  0.00    -0.002 A 
ATOM      8  C6  OXE d   1       0.295  -2.835  -0.202  0.00  0.00     0.003 A 
ENDROOT
TORSDOF 0
ENDMDL
