MODEL 1
REMARK minimizedAffinity -3.40663314
REMARK minimizedRMSD -1
REMARK  0 active torsions:
REMARK  status: ('A' for Active; 'I' for Inactive)
ROOT
ATOM      1  C2' OXE d   1       1.768  -3.743  -0.333  0.00  0.00     0.078 C 
ATOM      2  C1' OXE d   1       2.611  -1.205   0.518  0.00  0.00     0.078 C 
ATOM      3  C1  OXE d   1       1.129  -1.481   0.491  0.00  0.00    -0.078 A 
ATOM      4  C2  OXE d   1       0.723  -2.710   0.029  0.00  0.00    -0.078 A 
ATOM      5  C3  OXE d   1      -0.630  -3.037   0.035  0.00  0.00     0.003 A 
ATOM      6  C4  OXE d   1      -1.590  -2.072   0.362  0.00  0.00    -0.002 A 
ATOM      7  C5  OXE d   1      -1.200  -0.801   0.798  0.00  0.00    -0.002 A 
ATOM      8  C6  OXE d   1       0.154  -0.504   0.908  0.00  0.00     0.003 A 
ENDROOT
TORSDOF 0
ENDMDL
