MODEL 1
REMARK minimizedAffinity -0.94842428
REMARK minimizedRMSD -1
REMARK  0 active torsions:
REMARK  status: ('A' for Active; 'I' for Inactive)
ROOT
ATOM      1  C2' OXE d   1      -0.541   0.152   1.235  0.00  0.00     0.078 C 
ATOM      2  C1' OXE d   1       2.188  -0.476   1.031  0.00  0.00     0.078 C 
ATOM      3  C1  OXE d   1       1.193  -1.486   0.517  0.00  0.00    -0.078 A 
ATOM      4  C2  OXE d   1      -0.141  -1.191   0.664  0.00  0.00    -0.078 A 
ATOM      5  C3  OXE d   1      -1.100  -2.064   0.158  0.00  0.00     0.003 A 
ATOM      6  C4  OXE d   1      -0.722  -3.309  -0.360  0.00  0.00    -0.002 A 
ATOM      7  C5  OXE d   1       0.630  -3.646  -0.482  0.00  0.00    -0.002 A 
ATOM      8  C6  OXE d   1       1.599  -2.731  -0.088  0.00  0.00     0.003 A 
ENDROOT
TORSDOF 0
ENDMDL
