MODEL 1
REMARK minimizedAffinity 3.51344466
REMARK minimizedRMSD -1
REMARK  0 active torsions:
REMARK  status: ('A' for Active; 'I' for Inactive)
ROOT
ATOM      1  C2' OXE d   1       1.158  -3.551   0.001  0.00  0.00     0.078 C 
ATOM      2  C1' OXE d   1       2.818  -1.496   0.951  0.00  0.00     0.078 C 
ATOM      3  C1  OXE d   1       1.329  -1.252   0.945  0.00  0.00    -0.078 A 
ATOM      4  C2  OXE d   1       0.528  -2.246   0.435  0.00  0.00    -0.078 A 
ATOM      5  C3  OXE d   1      -0.855  -2.094   0.457  0.00  0.00     0.003 A 
ATOM      6  C4  OXE d   1      -1.430  -0.880   0.850  0.00  0.00    -0.002 A 
ATOM      7  C5  OXE d   1      -0.629   0.160   1.336  0.00  0.00    -0.002 A 
ATOM      8  C6  OXE d   1       0.746  -0.026   1.430  0.00  0.00     0.003 A 
ENDROOT
TORSDOF 0
ENDMDL
