MODEL 1
REMARK minimizedAffinity 0.195801049
REMARK minimizedRMSD -1
REMARK  0 active torsions:
REMARK  status: ('A' for Active; 'I' for Inactive)
ROOT
ATOM      1  C2' OXE d   1       0.098  -1.768   0.196  0.00  0.00     0.078 C 
ATOM      2  C1' OXE d   1       1.085  -0.253   2.344  0.00  0.00     0.078 C 
ATOM      3  C1  OXE d   1      -0.279   0.098   1.804  0.00  0.00    -0.078 A 
ATOM      4  C2  OXE d   1      -0.734  -0.618   0.723  0.00  0.00    -0.078 A 
ATOM      5  C3  OXE d   1      -2.008  -0.372   0.220  0.00  0.00     0.003 A 
ATOM      6  C4  OXE d   1      -2.767   0.699   0.706  0.00  0.00    -0.002 A 
ATOM      7  C5  OXE d   1      -2.306   1.467   1.781  0.00  0.00    -0.002 A 
ATOM      8  C6  OXE d   1      -1.085   1.152   2.367  0.00  0.00     0.003 A 
ENDROOT
TORSDOF 0
ENDMDL
