MODEL 1
REMARK minimizedAffinity 4.13753986
REMARK minimizedRMSD -1
REMARK  0 active torsions:
REMARK  status: ('A' for Active; 'I' for Inactive)
ROOT
ATOM      1  C2' OXE d   1       0.346  -1.991   0.026  0.00  0.00     0.078 C 
ATOM      2  C1' OXE d   1       1.437  -0.343   2.020  0.00  0.00     0.078 C 
ATOM      3  C1  OXE d   1      -0.002  -0.115   1.628  0.00  0.00    -0.078 A 
ATOM      4  C2  OXE d   1      -0.513  -0.894   0.619  0.00  0.00    -0.078 A 
ATOM      5  C3  OXE d   1      -1.851  -0.762   0.256  0.00  0.00     0.003 A 
ATOM      6  C4  OXE d   1      -2.636   0.260   0.802  0.00  0.00    -0.002 A 
ATOM      7  C5  OXE d   1      -2.122   1.092   1.803  0.00  0.00    -0.002 A 
ATOM      8  C6  OXE d   1      -0.823   0.890   2.256  0.00  0.00     0.003 A 
ENDROOT
TORSDOF 0
ENDMDL
