MODEL 1
REMARK minimizedAffinity 2.58133125
REMARK minimizedRMSD -1
REMARK  0 active torsions:
REMARK  status: ('A' for Active; 'I' for Inactive)
ROOT
ATOM      1  C2' OXE d   1       2.634  -1.052  -0.736  0.00  0.00     0.078 C 
ATOM      2  C1' OXE d   1       0.433  -2.604  -1.528  0.00  0.00     0.078 C 
ATOM      3  C1  OXE d   1       0.375  -1.939  -0.175  0.00  0.00    -0.078 A 
ATOM      4  C2  OXE d   1       1.476  -1.220   0.224  0.00  0.00    -0.078 A 
ATOM      5  C3  OXE d   1       1.453  -0.542   1.439  0.00  0.00     0.003 A 
ATOM      6  C4  OXE d   1       0.382  -0.711   2.325  0.00  0.00    -0.002 A 
ATOM      7  C5  OXE d   1      -0.732  -1.471   1.955  0.00  0.00    -0.002 A 
ATOM      8  C6  OXE d   1      -0.770  -2.056   0.694  0.00  0.00     0.003 A 
ENDROOT
TORSDOF 0
ENDMDL
