MODEL 1
REMARK minimizedAffinity 4.16928577
REMARK minimizedRMSD -1
REMARK  0 active torsions:
REMARK  status: ('A' for Active; 'I' for Inactive)
ROOT
ATOM      1  C2' OXE d   1       1.883  -3.244  -0.781  0.00  0.00     0.078 C 
ATOM      2  C1' OXE d   1       2.481  -0.502  -0.725  0.00  0.00     0.078 C 
ATOM      3  C1  OXE d   1       1.225  -0.962  -0.029  0.00  0.00    -0.078 A 
ATOM      4  C2  OXE d   1       0.916  -2.299  -0.101  0.00  0.00    -0.078 A 
ATOM      5  C3  OXE d   1      -0.203  -2.785   0.570  0.00  0.00     0.003 A 
ATOM      6  C4  OXE d   1      -1.098  -1.903   1.187  0.00  0.00    -0.002 A 
ATOM      7  C5  OXE d   1      -0.822  -0.532   1.238  0.00  0.00    -0.002 A 
ATOM      8  C6  OXE d   1       0.354  -0.052   0.673  0.00  0.00     0.003 A 
ENDROOT
TORSDOF 0
ENDMDL
