MODEL 1
REMARK minimizedAffinity 2.911623
REMARK minimizedRMSD -1
REMARK  0 active torsions:
REMARK  status: ('A' for Active; 'I' for Inactive)
ROOT
ATOM      1  C2' OXE d   1       1.859  -3.617  -0.469  0.00  0.00     0.078 C 
ATOM      2  C1' OXE d   1       3.082  -1.211   0.302  0.00  0.00     0.078 C 
ATOM      3  C1  OXE d   1       1.577  -1.289   0.370  0.00  0.00    -0.078 A 
ATOM      4  C2  OXE d   1       0.984  -2.454  -0.054  0.00  0.00    -0.078 A 
ATOM      5  C3  OXE d   1      -0.397  -2.598   0.039  0.00  0.00     0.003 A 
ATOM      6  C4  OXE d   1      -1.199  -1.514   0.415  0.00  0.00    -0.002 A 
ATOM      7  C5  OXE d   1      -0.618  -0.305   0.813  0.00  0.00    -0.002 A 
ATOM      8  C6  OXE d   1       0.767  -0.190   0.836  0.00  0.00     0.003 A 
ENDROOT
TORSDOF 0
ENDMDL
