MODEL 1
REMARK minimizedAffinity 1.79445636
REMARK minimizedRMSD -1
REMARK  0 active torsions:
REMARK  status: ('A' for Active; 'I' for Inactive)
ROOT
ATOM      1  C2' OXE d   1      -5.138  -2.627   5.865  0.00  0.00     0.078 C 
ATOM      2  C1' OXE d   1      -5.896  -5.303   5.488  0.00  0.00     0.078 C 
ATOM      3  C1  OXE d   1      -5.545  -4.493   4.265  0.00  0.00    -0.078 A 
ATOM      4  C2  OXE d   1      -5.220  -3.171   4.455  0.00  0.00    -0.078 A 
ATOM      5  C3  OXE d   1      -4.836  -2.393   3.367  0.00  0.00     0.003 A 
ATOM      6  C4  OXE d   1      -4.924  -2.901   2.065  0.00  0.00    -0.002 A 
ATOM      7  C5  OXE d   1      -5.291  -4.233   1.847  0.00  0.00    -0.002 A 
ATOM      8  C6  OXE d   1      -5.563  -5.053   2.937  0.00  0.00     0.003 A 
ENDROOT
TORSDOF 0
ENDMDL
