MODEL 1
REMARK minimizedAffinity 2.29677701
REMARK minimizedRMSD -1
REMARK  0 active torsions:
REMARK  status: ('A' for Active; 'I' for Inactive)
ROOT
ATOM      1  C2' OXE d   1       1.869  -3.524  -0.767  0.00  0.00     0.078 C 
ATOM      2  C1' OXE d   1       2.919  -1.032  -0.013  0.00  0.00     0.078 C 
ATOM      3  C1  OXE d   1       1.507  -1.357   0.406  0.00  0.00    -0.078 A 
ATOM      4  C2  OXE d   1       0.985  -2.559  -0.007  0.00  0.00    -0.078 A 
ATOM      5  C3  OXE d   1      -0.294  -2.931   0.399  0.00  0.00     0.003 A 
ATOM      6  C4  OXE d   1      -1.108  -2.029   1.093  0.00  0.00    -0.002 A 
ATOM      7  C5  OXE d   1      -0.610  -0.783   1.490  0.00  0.00    -0.002 A 
ATOM      8  C6  OXE d   1       0.707  -0.450   1.192  0.00  0.00     0.003 A 
ENDROOT
TORSDOF 0
ENDMDL
