MODEL 1
REMARK minimizedAffinity -2.84525514
REMARK minimizedRMSD -1
REMARK  1 active torsions:
REMARK  status: ('A' for Active; 'I' for Inactive)
REMARK    1  A    between atoms: C1_2  and  C2_3 
ROOT
ATOM      1  C2  UNL d   1      -0.441  -0.471   0.421  0.00  0.00    -0.077 A 
ATOM      2  C3  UNL d   1      -0.295   0.237  -0.780  0.00  0.00     0.002 A 
ATOM      3  C4  UNL d   1       0.135  -0.417  -1.937  0.00  0.00     0.002 A 
ATOM      4  C5  UNL d   1       0.417  -1.781  -1.905  0.00  0.00    -0.004 A 
ATOM      5  C6  UNL d   1       0.276  -2.493  -0.715  0.00  0.00     0.002 A 
ATOM      6  C7  UNL d   1      -0.152  -1.841   0.443  0.00  0.00     0.002 A 
ENDROOT
BRANCH   1   7
ATOM      7  C1  UNL d   1      -0.951   0.221   1.658  0.00  0.00     0.055 C 
ATOM      8  C   UNL d   1      -2.469   0.326   1.647  0.00  0.00     0.019 C 
ENDBRANCH   1   7
TORSDOF 1
ENDMDL
