MODEL 1
REMARK minimizedAffinity -3.56573772
REMARK minimizedRMSD -1
REMARK  1 active torsions:
REMARK  status: ('A' for Active; 'I' for Inactive)
REMARK    1  A    between atoms: C1_2  and  C2_3 
ROOT
ATOM      1  C2  UNL d   1       0.157  -0.201   0.024  0.00  0.00    -0.077 A 
ATOM      2  C3  UNL d   1       0.679   0.781  -0.830  0.00  0.00     0.002 A 
ATOM      3  C4  UNL d   1       1.160   0.434  -2.094  0.00  0.00     0.002 A 
ATOM      4  C5  UNL d   1       1.121  -0.893  -2.516  0.00  0.00    -0.004 A 
ATOM      5  C6  UNL d   1       0.605  -1.877  -1.674  0.00  0.00     0.002 A 
ATOM      6  C7  UNL d   1       0.125  -1.533  -0.410  0.00  0.00     0.002 A 
ENDROOT
BRANCH   1   7
ATOM      7  C1  UNL d   1      -0.408   0.178   1.368  0.00  0.00     0.055 C 
ATOM      8  C   UNL d   1      -1.919   0.344   1.307  0.00  0.00     0.019 C 
ENDBRANCH   1   7
TORSDOF 1
ENDMDL
