MODEL 1
REMARK minimizedAffinity -6.17443132
REMARK minimizedRMSD -1
REMARK  1 active torsions:
REMARK  status: ('A' for Active; 'I' for Inactive)
REMARK    1  A    between atoms: C1_2  and  C2_3 
ROOT
ATOM      1  C2  UNL d   1       0.401  -0.152  -0.820  0.00  0.00    -0.077 A 
ATOM      2  C3  UNL d   1       0.333  -1.547  -0.694  0.00  0.00     0.002 A 
ATOM      3  C4  UNL d   1       1.091  -2.369  -1.530  0.00  0.00     0.002 A 
ATOM      4  C5  UNL d   1       1.924  -1.807  -2.494  0.00  0.00    -0.004 A 
ATOM      5  C6  UNL d   1       1.997  -0.421  -2.630  0.00  0.00     0.002 A 
ATOM      6  C7  UNL d   1       1.239   0.403  -1.796  0.00  0.00     0.002 A 
ENDROOT
BRANCH   1   7
ATOM      7  C1  UNL d   1      -0.378   0.738   0.113  0.00  0.00     0.055 C 
ATOM      8  C   UNL d   1      -0.983  -0.058   1.260  0.00  0.00     0.019 C 
ENDBRANCH   1   7
TORSDOF 1
ENDMDL
