MODEL 1
REMARK minimizedAffinity -4.56494379
REMARK minimizedRMSD -1
REMARK  1 active torsions:
REMARK  status: ('A' for Active; 'I' for Inactive)
REMARK    1  A    between atoms: C1_2  and  C2_3 
ROOT
ATOM      1  C2  UNL d   1       1.122   0.241  -1.508  0.00  0.00    -0.077 A 
ATOM      2  C3  UNL d   1       0.471  -0.822  -0.867  0.00  0.00     0.002 A 
ATOM      3  C4  UNL d   1       0.667  -2.135  -1.301  0.00  0.00     0.002 A 
ATOM      4  C5  UNL d   1       1.515  -2.396  -2.375  0.00  0.00    -0.004 A 
ATOM      5  C6  UNL d   1       2.166  -1.345  -3.020  0.00  0.00     0.002 A 
ATOM      6  C7  UNL d   1       1.971  -0.032  -2.588  0.00  0.00     0.002 A 
ENDROOT
BRANCH   1   7
ATOM      7  C1  UNL d   1       0.951   1.653  -1.010  0.00  0.00     0.055 C 
ATOM      8  C   UNL d   1       0.639   1.680   0.479  0.00  0.00     0.019 C 
ENDBRANCH   1   7
TORSDOF 1
ENDMDL
