MODEL 1
REMARK minimizedAffinity -4.35101748
REMARK minimizedRMSD -1
REMARK  1 active torsions:
REMARK  status: ('A' for Active; 'I' for Inactive)
REMARK    1  A    between atoms: C1_2  and  C2_3 
ROOT
ATOM      1  C2  UNL d   1       0.459  -0.214  -0.400  0.00  0.00    -0.077 A 
ATOM      2  C3  UNL d   1       0.030   0.128   0.890  0.00  0.00     0.002 A 
ATOM      3  C4  UNL d   1      -0.224  -0.867   1.837  0.00  0.00     0.002 A 
ATOM      4  C5  UNL d   1      -0.046  -2.208   1.505  0.00  0.00    -0.004 A 
ATOM      5  C6  UNL d   1       0.379  -2.558   0.224  0.00  0.00     0.002 A 
ATOM      6  C7  UNL d   1       0.631  -1.566  -0.724  0.00  0.00     0.002 A 
ENDROOT
BRANCH   1   7
ATOM      7  C1  UNL d   1       0.780   0.859  -1.407  0.00  0.00     0.055 C 
ATOM      8  C   UNL d   1       1.171   0.260  -2.750  0.00  0.00     0.019 C 
ENDBRANCH   1   7
TORSDOF 1
ENDMDL
