MODEL 1
REMARK minimizedAffinity -0.828746676
REMARK minimizedRMSD -1
REMARK  1 active torsions:
REMARK  status: ('A' for Active; 'I' for Inactive)
REMARK    1  A    between atoms: C1_2  and  C2_3 
ROOT
ATOM      1  C2  UNL d   1      -3.164   3.705  -5.978  0.00  0.00    -0.077 A 
ATOM      2  C3  UNL d   1      -3.406   5.083  -5.892  0.00  0.00     0.002 A 
ATOM      3  C4  UNL d   1      -4.714   5.568  -5.828  0.00  0.00     0.002 A 
ATOM      4  C5  UNL d   1      -5.788   4.681  -5.847  0.00  0.00    -0.004 A 
ATOM      5  C6  UNL d   1      -5.558   3.309  -5.935  0.00  0.00     0.002 A 
ATOM      6  C7  UNL d   1      -4.252   2.823  -6.000  0.00  0.00     0.002 A 
ENDROOT
BRANCH   1   7
ATOM      7  C1  UNL d   1      -1.753   3.177  -5.997  0.00  0.00     0.055 C 
ATOM      8  C   UNL d   1      -1.636   1.881  -5.209  0.00  0.00     0.019 C 
ENDBRANCH   1   7
TORSDOF 1
ENDMDL
