MODEL 1
REMARK minimizedAffinity -5.81759262
REMARK minimizedRMSD -1
REMARK  1 active torsions:
REMARK  status: ('A' for Active; 'I' for Inactive)
REMARK    1  A    between atoms: C1_2  and  C2_3 
ROOT
ATOM      1  C2  UNL d   1       0.261  -0.335   0.447  0.00  0.00    -0.077 A 
ATOM      2  C3  UNL d   1       0.370  -0.776  -0.879  0.00  0.00     0.002 A 
ATOM      3  C4  UNL d   1       1.037   0.001  -1.829  0.00  0.00     0.002 A 
ATOM      4  C5  UNL d   1       1.603   1.220  -1.461  0.00  0.00    -0.004 A 
ATOM      5  C6  UNL d   1       1.498   1.668  -0.145  0.00  0.00     0.002 A 
ATOM      6  C7  UNL d   1       0.831   0.894   0.805  0.00  0.00     0.002 A 
ENDROOT
BRANCH   1   7
ATOM      7  C1  UNL d   1      -0.415  -1.194   1.484  0.00  0.00     0.055 C 
ATOM      8  C   UNL d   1      -1.596  -0.473   2.116  0.00  0.00     0.019 C 
ENDBRANCH   1   7
TORSDOF 1
ENDMDL
