MODEL 1
REMARK minimizedAffinity -5.91716099
REMARK minimizedRMSD -1
REMARK  1 active torsions:
REMARK  status: ('A' for Active; 'I' for Inactive)
REMARK    1  A    between atoms: C1_2  and  C2_3 
ROOT
ATOM      1  C2  UNL d   1      -0.122   0.350  -0.470  0.00  0.00    -0.077 A 
ATOM      2  C3  UNL d   1       0.478   1.526  -0.942  0.00  0.00     0.002 A 
ATOM      3  C4  UNL d   1       1.373   1.481  -2.013  0.00  0.00     0.002 A 
ATOM      4  C5  UNL d   1       1.672   0.265  -2.623  0.00  0.00    -0.004 A 
ATOM      5  C6  UNL d   1       1.083  -0.911  -2.158  0.00  0.00     0.002 A 
ATOM      6  C7  UNL d   1       0.189  -0.868  -1.087  0.00  0.00     0.002 A 
ENDROOT
BRANCH   1   7
ATOM      7  C1  UNL d   1      -1.125   0.403   0.653  0.00  0.00     0.055 C 
ATOM      8  C   UNL d   1      -2.530   0.095   0.156  0.00  0.00     0.019 C 
ENDBRANCH   1   7
TORSDOF 1
ENDMDL
