MODEL 1
REMARK minimizedAffinity -2.63269901
REMARK minimizedRMSD -1
REMARK  1 active torsions:
REMARK  status: ('A' for Active; 'I' for Inactive)
REMARK    1  A    between atoms: C1_2  and  C2_3 
ROOT
ATOM      1  C2  UNL d   1       1.350   0.553  -0.706  0.00  0.00    -0.077 A 
ATOM      2  C3  UNL d   1       1.201   1.568   0.249  0.00  0.00     0.002 A 
ATOM      3  C4  UNL d   1       0.232   1.461   1.248  0.00  0.00     0.002 A 
ATOM      4  C5  UNL d   1      -0.591   0.339   1.305  0.00  0.00    -0.004 A 
ATOM      5  C6  UNL d   1      -0.452  -0.676   0.358  0.00  0.00     0.002 A 
ATOM      6  C7  UNL d   1       0.515  -0.570  -0.642  0.00  0.00     0.002 A 
ENDROOT
BRANCH   1   7
ATOM      7  C1  UNL d   1       2.428   0.644  -1.755  0.00  0.00     0.055 C 
ATOM      8  C   UNL d   1       2.672  -0.704  -2.417  0.00  0.00     0.019 C 
ENDBRANCH   1   7
TORSDOF 1
ENDMDL
