MODEL 1
REMARK minimizedAffinity -3.12563014
REMARK minimizedRMSD -1
REMARK  1 active torsions:
REMARK  status: ('A' for Active; 'I' for Inactive)
REMARK    1  A    between atoms: C1_2  and  C2_3 
ROOT
ATOM      1  C2  UNL d   1      -2.910   2.151   3.216  0.00  0.00    -0.077 A 
ATOM      2  C3  UNL d   1      -1.641   1.556   3.164  0.00  0.00     0.002 A 
ATOM      3  C4  UNL d   1      -1.376   0.536   2.249  0.00  0.00     0.002 A 
ATOM      4  C5  UNL d   1      -2.373   0.104   1.377  0.00  0.00    -0.004 A 
ATOM      5  C6  UNL d   1      -3.639   0.687   1.422  0.00  0.00     0.002 A 
ATOM      6  C7  UNL d   1      -3.906   1.707   2.337  0.00  0.00     0.002 A 
ENDROOT
BRANCH   1   7
ATOM      7  C1  UNL d   1      -3.183   3.286   4.168  0.00  0.00     0.055 C 
ATOM      8  C   UNL d   1      -2.055   3.445   5.178  0.00  0.00     0.019 C 
ENDBRANCH   1   7
TORSDOF 1
ENDMDL
