MODEL 1
REMARK minimizedAffinity -1.00295603
REMARK minimizedRMSD -1
REMARK  1 active torsions:
REMARK  status: ('A' for Active; 'I' for Inactive)
REMARK    1  A    between atoms: C1_2  and  C2_3 
ROOT
ATOM      1  C2  UNL d   1       2.441  -0.175  -1.380  0.00  0.00    -0.077 A 
ATOM      2  C3  UNL d   1       1.615  -0.281  -0.252  0.00  0.00     0.002 A 
ATOM      3  C4  UNL d   1       0.889   0.824   0.197  0.00  0.00     0.002 A 
ATOM      4  C5  UNL d   1       0.978   2.040  -0.478  0.00  0.00    -0.004 A 
ATOM      5  C6  UNL d   1       1.797   2.155  -1.599  0.00  0.00     0.002 A 
ATOM      6  C7  UNL d   1       2.525   1.053  -2.050  0.00  0.00     0.002 A 
ENDROOT
BRANCH   1   7
ATOM      7  C1  UNL d   1       3.187  -1.378  -1.896  0.00  0.00     0.055 C 
ATOM      8  C   UNL d   1       3.036  -2.567  -0.957  0.00  0.00     0.019 C 
ENDBRANCH   1   7
TORSDOF 1
ENDMDL
