MODEL 1
REMARK minimizedAffinity -3.3787632
REMARK minimizedRMSD -1
REMARK  1 active torsions:
REMARK  status: ('A' for Active; 'I' for Inactive)
REMARK    1  A    between atoms: C1_2  and  C2_3 
ROOT
ATOM      1  C2  UNL d   1       0.701  -0.076  -0.831  0.00  0.00    -0.077 A 
ATOM      2  C3  UNL d   1       0.621  -1.475  -0.829  0.00  0.00     0.002 A 
ATOM      3  C4  UNL d   1       1.317  -2.223  -1.781  0.00  0.00     0.002 A 
ATOM      4  C5  UNL d   1       2.100  -1.581  -2.738  0.00  0.00    -0.004 A 
ATOM      5  C6  UNL d   1       2.183  -0.189  -2.749  0.00  0.00     0.002 A 
ATOM      6  C7  UNL d   1       1.488   0.560  -1.799  0.00  0.00     0.002 A 
ENDROOT
BRANCH   1   7
ATOM      7  C1  UNL d   1      -0.010   0.731   0.225  0.00  0.00     0.055 C 
ATOM      8  C   UNL d   1      -0.939  -0.142   1.056  0.00  0.00     0.019 C 
ENDBRANCH   1   7
TORSDOF 1
ENDMDL
