MODEL 1
REMARK minimizedAffinity -4.85582781
REMARK minimizedRMSD -1
REMARK  1 active torsions:
REMARK  status: ('A' for Active; 'I' for Inactive)
REMARK    1  A    between atoms: C1_2  and  C2_3 
ROOT
ATOM      1  C2  UNL d   1       0.865   0.148  -0.626  0.00  0.00    -0.077 A 
ATOM      2  C3  UNL d   1       1.794   0.541  -1.600  0.00  0.00     0.002 A 
ATOM      3  C4  UNL d   1       1.990  -0.237  -2.743  0.00  0.00     0.002 A 
ATOM      4  C5  UNL d   1       1.259  -1.410  -2.924  0.00  0.00    -0.004 A 
ATOM      5  C6  UNL d   1       0.335  -1.809  -1.959  0.00  0.00     0.002 A 
ATOM      6  C7  UNL d   1       0.138  -1.034  -0.816  0.00  0.00     0.002 A 
ENDROOT
BRANCH   1   7
ATOM      7  C1  UNL d   1       0.616   1.011   0.583  0.00  0.00     0.055 C 
ATOM      8  C   UNL d   1      -0.397   0.372   1.521  0.00  0.00     0.019 C 
ENDBRANCH   1   7
TORSDOF 1
ENDMDL
