MODEL 1
REMARK minimizedAffinity -2.3735435
REMARK minimizedRMSD -1
REMARK  0 active torsions:
REMARK  status: ('A' for Active; 'I' for Inactive)
ROOT
ATOM      1  C   UNL d   1      -2.644  -2.591  -4.152  0.00  0.00     0.172 C 
ATOM      2  N   UNL d   1      -2.130  -2.119  -2.887  0.00  0.00    -0.070 N 
ATOM      3  C1  UNL d   1      -1.708  -0.844  -2.622  0.00  0.00    -0.004 A 
ATOM      4  C2  UNL d   1      -1.294  -0.801  -1.308  0.00  0.00    -0.047 A 
ATOM      5  C3  UNL d   1      -1.473  -2.095  -0.765  0.00  0.00    -0.047 A 
ATOM      6  C4  UNL d   1      -1.992  -2.892  -1.764  0.00  0.00    -0.004 A 
ENDROOT
TORSDOF 0
ENDMDL
