MODEL 1
REMARK minimizedAffinity -2.23789549
REMARK minimizedRMSD -1
REMARK  0 active torsions:
REMARK  status: ('A' for Active; 'I' for Inactive)
ROOT
ATOM      1  C   UNL d   1      -0.644  -0.240   1.177  0.00  0.00     0.172 C 
ATOM      2  N   UNL d   1      -1.127  -0.618  -0.131  0.00  0.00    -0.070 N 
ATOM      3  C1  UNL d   1      -0.816   0.008  -1.308  0.00  0.00    -0.004 A 
ATOM      4  C2  UNL d   1      -1.474  -0.652  -2.324  0.00  0.00    -0.047 A 
ATOM      5  C3  UNL d   1      -2.206  -1.711  -1.736  0.00  0.00    -0.047 A 
ATOM      6  C4  UNL d   1      -1.974  -1.667  -0.377  0.00  0.00    -0.004 A 
ENDROOT
TORSDOF 0
ENDMDL
