MODEL 1
REMARK minimizedAffinity -2.22904968
REMARK minimizedRMSD -1
REMARK  0 active torsions:
REMARK  status: ('A' for Active; 'I' for Inactive)
ROOT
ATOM      1  C   UNL d   1      -3.033  -2.738  -2.202  0.00  0.00     0.172 C 
ATOM      2  N   UNL d   1      -2.101  -1.898  -1.486  0.00  0.00    -0.070 N 
ATOM      3  C1  UNL d   1      -1.505  -2.205  -0.292  0.00  0.00    -0.004 A 
ATOM      4  C2  UNL d   1      -0.689  -1.149   0.056  0.00  0.00    -0.047 A 
ATOM      5  C3  UNL d   1      -0.801  -0.174  -0.964  0.00  0.00    -0.047 A 
ATOM      6  C4  UNL d   1      -1.681  -0.664  -1.906  0.00  0.00    -0.004 A 
ENDROOT
TORSDOF 0
ENDMDL
