MODEL 1
REMARK minimizedAffinity -1.59011602
REMARK minimizedRMSD -1
REMARK  0 active torsions:
REMARK  status: ('A' for Active; 'I' for Inactive)
ROOT
ATOM      1  C   UNL d   1      -4.474   4.654   0.002  0.00  0.00     0.172 C 
ATOM      2  N   UNL d   1      -4.762   5.170   1.320  0.00  0.00    -0.070 N 
ATOM      3  C1  UNL d   1      -3.851   5.336   2.329  0.00  0.00    -0.004 A 
ATOM      4  C2  UNL d   1      -4.518   5.851   3.419  0.00  0.00    -0.047 A 
ATOM      5  C3  UNL d   1      -5.877   6.000   3.053  0.00  0.00    -0.047 A 
ATOM      6  C4  UNL d   1      -6.000   5.571   1.748  0.00  0.00    -0.004 A 
ENDROOT
TORSDOF 0
ENDMDL
