MODEL 1
REMARK minimizedAffinity -1.03372979
REMARK minimizedRMSD -1
REMARK  0 active torsions:
REMARK  status: ('A' for Active; 'I' for Inactive)
ROOT
ATOM      1  C   UNL d   1      -3.750   4.087   3.876  0.00  0.00     0.172 C 
ATOM      2  N   UNL d   1      -4.467   4.791   2.838  0.00  0.00    -0.070 N 
ATOM      3  C1  UNL d   1      -5.645   5.470   3.001  0.00  0.00    -0.004 A 
ATOM      4  C2  UNL d   1      -6.000   6.000   1.779  0.00  0.00    -0.047 A 
ATOM      5  C3  UNL d   1      -5.001   5.626   0.850  0.00  0.00    -0.047 A 
ATOM      6  C4  UNL d   1      -4.064   4.878   1.532  0.00  0.00    -0.004 A 
ENDROOT
TORSDOF 0
ENDMDL
