MODEL 1
REMARK minimizedAffinity 1.1517781
REMARK minimizedRMSD -1
REMARK  0 active torsions:
REMARK  status: ('A' for Active; 'I' for Inactive)
ROOT
ATOM      1  C   UNL d   1      -0.762   2.525  -1.024  0.00  0.00     0.172 C 
ATOM      2  N   UNL d   1      -0.926   1.224  -0.420  0.00  0.00    -0.070 N 
ATOM      3  C1  UNL d   1      -1.885   0.885   0.497  0.00  0.00    -0.004 A 
ATOM      4  C2  UNL d   1      -1.706  -0.442   0.824  0.00  0.00    -0.047 A 
ATOM      5  C3  UNL d   1      -0.601  -0.916   0.078  0.00  0.00    -0.047 A 
ATOM      6  C4  UNL d   1      -0.137   0.135  -0.684  0.00  0.00    -0.004 A 
ENDROOT
TORSDOF 0
ENDMDL
