MODEL 1
REMARK minimizedAffinity 0.271161914
REMARK minimizedRMSD -1
REMARK  0 active torsions:
REMARK  status: ('A' for Active; 'I' for Inactive)
ROOT
ATOM      1  C   UNL d   1      -5.103  -4.454  -1.114  0.00  0.00     0.172 C 
ATOM      2  N   UNL d   1      -4.172  -3.740  -1.955  0.00  0.00    -0.070 N 
ATOM      3  C1  UNL d   1      -3.770  -2.443  -1.778  0.00  0.00    -0.004 A 
ATOM      4  C2  UNL d   1      -2.880  -2.136  -2.785  0.00  0.00    -0.047 A 
ATOM      5  C3  UNL d   1      -2.744  -3.288  -3.596  0.00  0.00    -0.047 A 
ATOM      6  C4  UNL d   1      -3.555  -4.266  -3.059  0.00  0.00    -0.004 A 
ENDROOT
TORSDOF 0
ENDMDL
