MODEL 1
REMARK minimizedAffinity 1.78042936
REMARK minimizedRMSD -1
REMARK  0 active torsions:
REMARK  status: ('A' for Active; 'I' for Inactive)
ROOT
ATOM      1  C   UNL d   1      -4.099   3.593   4.387  0.00  0.00     0.172 C 
ATOM      2  N   UNL d   1      -4.632   4.497   3.395  0.00  0.00    -0.070 N 
ATOM      3  C1  UNL d   1      -4.113   4.707   2.145  0.00  0.00    -0.004 A 
ATOM      4  C2  UNL d   1      -4.906   5.637   1.509  0.00  0.00    -0.047 A 
ATOM      5  C3  UNL d   1      -5.937   6.000   2.408  0.00  0.00    -0.047 A 
ATOM      6  C4  UNL d   1      -5.743   5.279   3.568  0.00  0.00    -0.004 A 
ENDROOT
TORSDOF 0
ENDMDL
