MODEL 1
REMARK minimizedAffinity -1.73537159
REMARK minimizedRMSD -1
REMARK  0 active torsions:
REMARK  status: ('A' for Active; 'I' for Inactive)
ROOT
ATOM      1  C   UNL d   1      -5.185   5.974   0.283  0.00  0.00     0.172 C 
ATOM      2  N   UNL d   1      -4.999   5.981   1.715  0.00  0.00    -0.070 N 
ATOM      3  C1  UNL d   1      -6.000   5.996   2.650  0.00  0.00    -0.004 A 
ATOM      4  C2  UNL d   1      -5.412   5.998   3.897  0.00  0.00    -0.047 A 
ATOM      5  C3  UNL d   1      -4.011   5.985   3.704  0.00  0.00    -0.047 A 
ATOM      6  C4  UNL d   1      -3.782   5.975   2.345  0.00  0.00    -0.004 A 
ENDROOT
TORSDOF 0
ENDMDL
