MODEL 1
REMARK minimizedAffinity 5.96310711
REMARK minimizedRMSD -1
REMARK  0 active torsions:
REMARK  status: ('A' for Active; 'I' for Inactive)
ROOT
ATOM      1  C   UNL d   1      -2.396  -2.200  -5.224  0.00  0.00     0.172 C 
ATOM      2  N   UNL d   1      -2.743  -2.794  -3.954  0.00  0.00    -0.070 N 
ATOM      3  C1  UNL d   1      -3.076  -4.107  -3.751  0.00  0.00    -0.004 A 
ATOM      4  C2  UNL d   1      -3.337  -4.273  -2.408  0.00  0.00    -0.047 A 
ATOM      5  C3  UNL d   1      -3.155  -3.017  -1.782  0.00  0.00    -0.047 A 
ATOM      6  C4  UNL d   1      -2.787  -2.119  -2.763  0.00  0.00    -0.004 A 
ENDROOT
TORSDOF 0
ENDMDL
