MODEL 1
REMARK minimizedAffinity -1.76423264
REMARK minimizedRMSD -1
REMARK  0 active torsions:
REMARK  status: ('A' for Active; 'I' for Inactive)
ROOT
ATOM      1  C   UNL d   1      -4.911   5.955   0.675  0.00  0.00     0.172 C 
ATOM      2  N   UNL d   1      -4.903   5.868   2.117  0.00  0.00    -0.070 N 
ATOM      3  C1  UNL d   1      -6.000   5.662   2.910  0.00  0.00    -0.004 A 
ATOM      4  C2  UNL d   1      -5.575   5.643   4.221  0.00  0.00    -0.047 A 
ATOM      5  C3  UNL d   1      -4.174   5.846   4.215  0.00  0.00    -0.047 A 
ATOM      6  C4  UNL d   1      -3.785   5.982   2.899  0.00  0.00    -0.004 A 
ENDROOT
TORSDOF 0
ENDMDL
