MODEL 1
REMARK minimizedAffinity -1.78805459
REMARK minimizedRMSD -1
REMARK  0 active torsions:
REMARK  status: ('A' for Active; 'I' for Inactive)
ROOT
ATOM      1  C   UNL d   1      -5.986   5.404   1.139  0.00  0.00     0.172 C 
ATOM      2  N   UNL d   1      -5.552   5.246   2.507  0.00  0.00    -0.070 N 
ATOM      3  C1  UNL d   1      -4.640   4.328   2.955  0.00  0.00    -0.004 A 
ATOM      4  C2  UNL d   1      -4.501   4.499   4.315  0.00  0.00    -0.047 A 
ATOM      5  C3  UNL d   1      -5.361   5.556   4.699  0.00  0.00    -0.047 A 
ATOM      6  C4  UNL d   1      -6.000   5.999   3.560  0.00  0.00    -0.004 A 
ENDROOT
TORSDOF 0
ENDMDL
