MODEL 1
REMARK minimizedAffinity -2.84391141
REMARK minimizedRMSD -1
REMARK  0 active torsions:
REMARK  status: ('A' for Active; 'I' for Inactive)
ROOT
ATOM      1  C   UNL d   1      -4.481   2.193   6.000  0.00  0.00     0.172 C 
ATOM      2  N   UNL d   1      -4.435   0.773   5.742  0.00  0.00    -0.070 N 
ATOM      3  C1  UNL d   1      -3.301   0.008   5.684  0.00  0.00    -0.004 A 
ATOM      4  C2  UNL d   1      -3.681  -1.290   5.418  0.00  0.00    -0.047 A 
ATOM      5  C3  UNL d   1      -5.092  -1.306   5.313  0.00  0.00    -0.047 A 
ATOM      6  C4  UNL d   1      -5.533  -0.015   5.518  0.00  0.00    -0.004 A 
ENDROOT
TORSDOF 0
ENDMDL
