MODEL 1
REMARK minimizedAffinity -3.31339359
REMARK minimizedRMSD -1
REMARK  0 active torsions:
REMARK  status: ('A' for Active; 'I' for Inactive)
ROOT
ATOM      1  C   UNL d   1      -5.023   1.969   4.657  0.00  0.00     0.172 C 
ATOM      2  N   UNL d   1      -4.948   0.539   4.846  0.00  0.00    -0.070 N 
ATOM      3  C1  UNL d   1      -4.008  -0.290   4.296  0.00  0.00    -0.004 A 
ATOM      4  C2  UNL d   1      -4.280  -1.574   4.716  0.00  0.00    -0.047 A 
ATOM      5  C3  UNL d   1      -5.425  -1.514   5.546  0.00  0.00    -0.047 A 
ATOM      6  C4  UNL d   1      -5.817  -0.194   5.610  0.00  0.00    -0.004 A 
ENDROOT
TORSDOF 0
ENDMDL
