MODEL 1
REMARK minimizedAffinity 0.398593873
REMARK minimizedRMSD -1
REMARK  0 active torsions:
REMARK  status: ('A' for Active; 'I' for Inactive)
ROOT
ATOM      1  C   UNL d   1      -4.859   5.365  -0.342  0.00  0.00     0.172 C 
ATOM      2  N   UNL d   1      -4.917   5.532   1.091  0.00  0.00    -0.070 N 
ATOM      3  C1  UNL d   1      -5.998   5.986   1.798  0.00  0.00    -0.004 A 
ATOM      4  C2  UNL d   1      -5.654   6.000   3.133  0.00  0.00    -0.047 A 
ATOM      5  C3  UNL d   1      -4.320   5.539   3.231  0.00  0.00    -0.047 A 
ATOM      6  C4  UNL d   1      -3.888   5.257   1.952  0.00  0.00    -0.004 A 
ENDROOT
TORSDOF 0
ENDMDL
