MODEL 1
REMARK minimizedAffinity -2.41925931
REMARK minimizedRMSD -1
REMARK  0 active torsions:
REMARK  status: ('A' for Active; 'I' for Inactive)
ROOT
ATOM      1  C   UNL d   1      -5.975   5.996   1.500  0.00  0.00     0.172 C 
ATOM      2  N   UNL d   1      -5.392   5.758   2.799  0.00  0.00    -0.070 N 
ATOM      3  C1  UNL d   1      -5.999   6.000   4.003  0.00  0.00    -0.004 A 
ATOM      4  C2  UNL d   1      -5.116   5.642   5.000  0.00  0.00    -0.047 A 
ATOM      5  C3  UNL d   1      -3.938   5.170   4.373  0.00  0.00    -0.047 A 
ATOM      6  C4  UNL d   1      -4.136   5.254   3.011  0.00  0.00    -0.004 A 
ENDROOT
TORSDOF 0
ENDMDL
