MODEL 1
REMARK minimizedAffinity -3.11154914
REMARK minimizedRMSD -1
REMARK  1 active torsions:
REMARK  status: ('A' for Active; 'I' for Inactive)
REMARK    1  A    between atoms: C1_2  and  C2_3 
ROOT
ATOM      1  C2  UNL d   1       0.130   0.008   0.172  0.00  0.00    -0.077 A 
ATOM      2  C3  UNL d   1       1.254   0.737  -0.241  0.00  0.00     0.002 A 
ATOM      3  C4  UNL d   1       1.663   1.867   0.471  0.00  0.00     0.002 A 
ATOM      4  C5  UNL d   1       0.957   2.275   1.600  0.00  0.00    -0.004 A 
ATOM      5  C6  UNL d   1      -0.163   1.558   2.018  0.00  0.00     0.002 A 
ATOM      6  C7  UNL d   1      -0.575   0.429   1.307  0.00  0.00     0.002 A 
ENDROOT
BRANCH   1   7
ATOM      7  C1  UNL d   1      -0.285  -1.238  -0.565  0.00  0.00     0.055 C 
ATOM      8  C   UNL d   1      -1.581  -1.023  -1.333  0.00  0.00     0.019 C 
ENDBRANCH   1   7
TORSDOF 1
ENDMDL
