MODEL 1
REMARK minimizedAffinity -4.81058931
REMARK minimizedRMSD -1
REMARK  1 active torsions:
REMARK  status: ('A' for Active; 'I' for Inactive)
REMARK    1  A    between atoms: C1_2  and  C2_3 
ROOT
ATOM      1  C2  UNL d   1       0.323  -0.601  -2.059  0.00  0.00    -0.077 A 
ATOM      2  C3  UNL d   1      -0.275  -1.235  -0.961  0.00  0.00     0.002 A 
ATOM      3  C4  UNL d   1      -1.545  -1.804  -1.080  0.00  0.00     0.002 A 
ATOM      4  C5  UNL d   1      -2.224  -1.748  -2.295  0.00  0.00    -0.004 A 
ATOM      5  C6  UNL d   1      -1.638  -1.118  -3.392  0.00  0.00     0.002 A 
ATOM      6  C7  UNL d   1      -0.370  -0.548  -3.275  0.00  0.00     0.002 A 
ENDROOT
BRANCH   1   7
ATOM      7  C1  UNL d   1       1.713  -0.031  -1.947  0.00  0.00     0.055 C 
ATOM      8  C   UNL d   1       2.024   0.392  -0.518  0.00  0.00     0.019 C 
ENDBRANCH   1   7
TORSDOF 1
ENDMDL
