MODEL 1
REMARK minimizedAffinity -5.08721113
REMARK minimizedRMSD -1
REMARK  1 active torsions:
REMARK  status: ('A' for Active; 'I' for Inactive)
REMARK    1  A    between atoms: C1_2  and  C2_3 
ROOT
ATOM      1  C2  UNL d   1       0.371   1.580   0.486  0.00  0.00    -0.077 A 
ATOM      2  C3  UNL d   1      -0.790   1.136   1.135  0.00  0.00     0.002 A 
ATOM      3  C4  UNL d   1      -1.385  -0.073   0.769  0.00  0.00     0.002 A 
ATOM      4  C5  UNL d   1      -0.824  -0.849  -0.243  0.00  0.00    -0.004 A 
ATOM      5  C6  UNL d   1       0.329  -0.415  -0.895  0.00  0.00     0.002 A 
ATOM      6  C7  UNL d   1       0.924   0.794  -0.532  0.00  0.00     0.002 A 
ENDROOT
BRANCH   1   7
ATOM      7  C1  UNL d   1       1.042   2.860   0.912  0.00  0.00     0.055 C 
ATOM      8  C   UNL d   1       1.492   2.792   2.364  0.00  0.00     0.019 C 
ENDBRANCH   1   7
TORSDOF 1
ENDMDL
