MODEL 1
REMARK minimizedAffinity -5.30160284
REMARK minimizedRMSD -1
REMARK  1 active torsions:
REMARK  status: ('A' for Active; 'I' for Inactive)
REMARK    1  A    between atoms: C1_2  and  C2_3 
ROOT
ATOM      1  C2  UNL d   1       0.212   1.592   0.492  0.00  0.00    -0.077 A 
ATOM      2  C3  UNL d   1      -0.891   0.886   0.993  0.00  0.00     0.002 A 
ATOM      3  C4  UNL d   1      -1.188  -0.392   0.515  0.00  0.00     0.002 A 
ATOM      4  C5  UNL d   1      -0.385  -0.977  -0.462  0.00  0.00    -0.004 A 
ATOM      5  C6  UNL d   1       0.713  -0.282  -0.967  0.00  0.00     0.002 A 
ATOM      6  C7  UNL d   1       1.011   0.996  -0.492  0.00  0.00     0.002 A 
ENDROOT
BRANCH   1   7
ATOM      7  C1  UNL d   1       0.562   2.950   1.041  0.00  0.00     0.055 C 
ATOM      8  C   UNL d   1       1.949   2.953   1.667  0.00  0.00     0.019 C 
ENDBRANCH   1   7
TORSDOF 1
ENDMDL
