MODEL 1
REMARK minimizedAffinity -5.26144409
REMARK minimizedRMSD -1
REMARK  1 active torsions:
REMARK  status: ('A' for Active; 'I' for Inactive)
REMARK    1  A    between atoms: C1_2  and  C2_3 
ROOT
ATOM      1  C2  UNL d   1       0.167   0.520   0.117  0.00  0.00    -0.077 A 
ATOM      2  C3  UNL d   1       1.366   1.246   0.099  0.00  0.00     0.002 A 
ATOM      3  C4  UNL d   1       1.644   2.175   1.104  0.00  0.00     0.002 A 
ATOM      4  C5  UNL d   1       0.730   2.384   2.135  0.00  0.00    -0.004 A 
ATOM      5  C6  UNL d   1      -0.466   1.668   2.160  0.00  0.00     0.002 A 
ATOM      6  C7  UNL d   1      -0.746   0.739   1.156  0.00  0.00     0.002 A 
ENDROOT
BRANCH   1   7
ATOM      7  C1  UNL d   1      -0.112  -0.518  -0.938  0.00  0.00     0.055 C 
ATOM      8  C   UNL d   1       0.916  -1.639  -0.898  0.00  0.00     0.019 C 
ENDBRANCH   1   7
TORSDOF 1
ENDMDL
