MODEL 1
REMARK minimizedAffinity -4.90868711
REMARK minimizedRMSD -1
REMARK  1 active torsions:
REMARK  status: ('A' for Active; 'I' for Inactive)
REMARK    1  A    between atoms: C1_2  and  C2_3 
ROOT
ATOM      1  C2  UNL d   1      -0.013  -0.167  -0.195  0.00  0.00    -0.077 A 
ATOM      2  C3  UNL d   1       1.187   0.531  -0.391  0.00  0.00     0.002 A 
ATOM      3  C4  UNL d   1       1.522   1.606   0.434  0.00  0.00     0.002 A 
ATOM      4  C5  UNL d   1       0.665   1.990   1.463  0.00  0.00    -0.004 A 
ATOM      5  C6  UNL d   1      -0.532   1.303   1.665  0.00  0.00     0.002 A 
ATOM      6  C7  UNL d   1      -0.869   0.229   0.841  0.00  0.00     0.002 A 
ENDROOT
BRANCH   1   7
ATOM      7  C1  UNL d   1      -0.353  -1.358  -1.053  0.00  0.00     0.055 C 
ATOM      8  C   UNL d   1      -1.655  -1.141  -1.810  0.00  0.00     0.019 C 
ENDBRANCH   1   7
TORSDOF 1
ENDMDL
