MODEL 1
REMARK minimizedAffinity -4.37085247
REMARK minimizedRMSD -1
REMARK  1 active torsions:
REMARK  status: ('A' for Active; 'I' for Inactive)
REMARK    1  A    between atoms: C1_2  and  C2_3 
ROOT
ATOM      1  C2  UNL d   1      -1.142  -1.351  -1.031  0.00  0.00    -0.077 A 
ATOM      2  C3  UNL d   1      -0.853  -0.810  -2.292  0.00  0.00     0.002 A 
ATOM      3  C4  UNL d   1      -1.742  -0.983  -3.354  0.00  0.00     0.002 A 
ATOM      4  C5  UNL d   1      -2.927  -1.692  -3.166  0.00  0.00    -0.004 A 
ATOM      5  C6  UNL d   1      -3.222  -2.235  -1.916  0.00  0.00     0.002 A 
ATOM      6  C7  UNL d   1      -2.334  -2.064  -0.853  0.00  0.00     0.002 A 
ENDROOT
BRANCH   1   7
ATOM      7  C1  UNL d   1      -0.208  -1.124   0.129  0.00  0.00     0.055 C 
ATOM      8  C   UNL d   1      -0.596   0.119   0.917  0.00  0.00     0.019 C 
ENDBRANCH   1   7
TORSDOF 1
ENDMDL
