MODEL 1
REMARK minimizedAffinity -3.10503983
REMARK minimizedRMSD -1
REMARK  1 active torsions:
REMARK  status: ('A' for Active; 'I' for Inactive)
REMARK    1  A    between atoms: C1_2  and  C2_3 
ROOT
ATOM      1  C2  UNL d   1      -0.358  -1.548  -1.502  0.00  0.00    -0.077 A 
ATOM      2  C3  UNL d   1      -0.517  -1.248  -2.862  0.00  0.00     0.002 A 
ATOM      3  C4  UNL d   1      -1.681  -1.624  -3.536  0.00  0.00     0.002 A 
ATOM      4  C5  UNL d   1      -2.695  -2.296  -2.858  0.00  0.00    -0.004 A 
ATOM      5  C6  UNL d   1      -2.545  -2.601  -1.505  0.00  0.00     0.002 A 
ATOM      6  C7  UNL d   1      -1.382  -2.228  -0.830  0.00  0.00     0.002 A 
ENDROOT
BRANCH   1   7
ATOM      7  C1  UNL d   1       0.875  -1.101  -0.761  0.00  0.00     0.055 C 
ATOM      8  C   UNL d   1       0.647   0.228  -0.057  0.00  0.00     0.019 C 
ENDBRANCH   1   7
TORSDOF 1
ENDMDL
