MODEL 1
REMARK minimizedAffinity -5.44518757
REMARK minimizedRMSD -1
REMARK  1 active torsions:
REMARK  status: ('A' for Active; 'I' for Inactive)
REMARK    1  A    between atoms: C1_2  and  C2_3 
ROOT
ATOM      1  C2  UNL d   1       3.590   1.324   2.054  0.00  0.00    -0.077 A 
ATOM      2  C3  UNL d   1       2.420   1.849   2.622  0.00  0.00     0.002 A 
ATOM      3  C4  UNL d   1       1.362   2.257   1.809  0.00  0.00     0.002 A 
ATOM      4  C5  UNL d   1       1.461   2.142   0.424  0.00  0.00    -0.004 A 
ATOM      5  C6  UNL d   1       2.621   1.624  -0.151  0.00  0.00     0.002 A 
ATOM      6  C7  UNL d   1       3.680   1.216   0.660  0.00  0.00     0.002 A 
ENDROOT
BRANCH   1   7
ATOM      7  C1  UNL d   1       4.713   0.837   2.932  0.00  0.00     0.055 C 
ATOM      8  C   UNL d   1       4.184   0.240   4.228  0.00  0.00     0.019 C 
ENDBRANCH   1   7
TORSDOF 1
ENDMDL
