MODEL 1
REMARK minimizedAffinity -1.84405529
REMARK minimizedRMSD -1
REMARK  1 active torsions:
REMARK  status: ('A' for Active; 'I' for Inactive)
REMARK    1  A    between atoms: C1_2  and  C2_3 
ROOT
ATOM      1  C2  UNL d   1       0.914   0.939   0.169  0.00  0.00    -0.077 A 
ATOM      2  C3  UNL d   1      -0.268   0.287   0.547  0.00  0.00     0.002 A 
ATOM      3  C4  UNL d   1      -0.610  -0.941  -0.023  0.00  0.00     0.002 A 
ATOM      4  C5  UNL d   1       0.225  -1.528  -0.971  0.00  0.00    -0.004 A 
ATOM      5  C6  UNL d   1       1.402  -0.886  -1.355  0.00  0.00     0.002 A 
ATOM      6  C7  UNL d   1       1.745   0.341  -0.787  0.00  0.00     0.002 A 
ENDROOT
BRANCH   1   7
ATOM      7  C1  UNL d   1       1.310   2.239   0.819  0.00  0.00     0.055 C 
ATOM      8  C   UNL d   1       1.445   2.086   2.327  0.00  0.00     0.019 C 
ENDBRANCH   1   7
TORSDOF 1
ENDMDL
