MODEL 1
REMARK minimizedAffinity -2.79221749
REMARK minimizedRMSD -1
REMARK  1 active torsions:
REMARK  status: ('A' for Active; 'I' for Inactive)
REMARK    1  A    between atoms: C1_2  and  C2_3 
ROOT
ATOM      1  C2  UNL d   1      -0.828  -1.251  -1.448  0.00  0.00    -0.077 A 
ATOM      2  C3  UNL d   1      -0.611  -0.710  -2.723  0.00  0.00     0.002 A 
ATOM      3  C4  UNL d   1      -1.455  -1.044  -3.785  0.00  0.00     0.002 A 
ATOM      4  C5  UNL d   1      -2.522  -1.916  -3.581  0.00  0.00    -0.004 A 
ATOM      5  C6  UNL d   1      -2.745  -2.461  -2.316  0.00  0.00     0.002 A 
ATOM      6  C7  UNL d   1      -1.902  -2.129  -1.255  0.00  0.00     0.002 A 
ENDROOT
BRANCH   1   7
ATOM      7  C1  UNL d   1       0.051  -0.853  -0.291  0.00  0.00     0.055 C 
ATOM      8  C   UNL d   1      -0.692   0.047   0.685  0.00  0.00     0.019 C 
ENDBRANCH   1   7
TORSDOF 1
ENDMDL
