MODEL 1
REMARK minimizedAffinity -4.98766232
REMARK minimizedRMSD -1
REMARK  1 active torsions:
REMARK  status: ('A' for Active; 'I' for Inactive)
REMARK    1  A    between atoms: C1_2  and  C2_3 
ROOT
ATOM      1  C2  UNL d   1      -0.435  -0.118  -0.108  0.00  0.00    -0.077 A 
ATOM      2  C3  UNL d   1       0.730   0.351  -0.731  0.00  0.00     0.002 A 
ATOM      3  C4  UNL d   1       1.430   1.435  -0.196  0.00  0.00     0.002 A 
ATOM      4  C5  UNL d   1       0.974   2.055   0.965  0.00  0.00    -0.004 A 
ATOM      5  C6  UNL d   1      -0.185   1.598   1.591  0.00  0.00     0.002 A 
ATOM      6  C7  UNL d   1      -0.886   0.516   1.057  0.00  0.00     0.002 A 
ENDROOT
BRANCH   1   7
ATOM      7  C1  UNL d   1      -1.163  -1.317  -0.656  0.00  0.00     0.055 C 
ATOM      8  C   UNL d   1      -1.281  -1.249  -2.171  0.00  0.00     0.019 C 
ENDBRANCH   1   7
TORSDOF 1
ENDMDL
