MODEL 1
REMARK minimizedAffinity -4.56314039
REMARK minimizedRMSD -1
REMARK  1 active torsions:
REMARK  status: ('A' for Active; 'I' for Inactive)
REMARK    1  A    between atoms: C1_2  and  C2_3 
ROOT
ATOM      1  C2  UNL d   1       1.160   0.661  -0.367  0.00  0.00    -0.077 A 
ATOM      2  C3  UNL d   1       0.477   1.523   0.503  0.00  0.00     0.002 A 
ATOM      3  C4  UNL d   1       1.179   2.454   1.271  0.00  0.00     0.002 A 
ATOM      4  C5  UNL d   1       2.567   2.534   1.174  0.00  0.00    -0.004 A 
ATOM      5  C6  UNL d   1       3.255   1.679   0.314  0.00  0.00     0.002 A 
ATOM      6  C7  UNL d   1       2.555   0.748  -0.454  0.00  0.00     0.002 A 
ENDROOT
BRANCH   1   7
ATOM      7  C1  UNL d   1       0.400  -0.309  -1.233  0.00  0.00     0.055 C 
ATOM      8  C   UNL d   1      -0.726  -0.978  -0.458  0.00  0.00     0.019 C 
ENDBRANCH   1   7
TORSDOF 1
ENDMDL
