MODEL 1
REMARK minimizedAffinity -1.30844903
REMARK minimizedRMSD -1
REMARK  0 active torsions:
REMARK  status: ('A' for Active; 'I' for Inactive)
ROOT
ATOM      1  C   UNL d   1      -0.370  -2.594   5.991  0.00  0.00     0.172 C 
ATOM      2  N   UNL d   1      -0.564  -3.979   5.630  0.00  0.00    -0.070 N 
ATOM      3  C1  UNL d   1       0.293  -4.734   4.874  0.00  0.00    -0.004 A 
ATOM      4  C2  UNL d   1      -0.248  -5.996   4.757  0.00  0.00    -0.047 A 
ATOM      5  C3  UNL d   1      -1.472  -6.000   5.467  0.00  0.00    -0.047 A 
ATOM      6  C4  UNL d   1      -1.643  -4.739   5.997  0.00  0.00    -0.004 A 
ENDROOT
TORSDOF 0
ENDMDL
