MODEL 1
REMARK minimizedAffinity 4.9279871
REMARK minimizedRMSD -1
REMARK  0 active torsions:
REMARK  status: ('A' for Active; 'I' for Inactive)
ROOT
ATOM      1  C   UNL d   1       2.042   2.445   5.867  0.00  0.00     0.172 C 
ATOM      2  N   UNL d   1       2.043   3.888   5.805  0.00  0.00    -0.070 N 
ATOM      3  C1  UNL d   1       0.952   4.676   5.553  0.00  0.00    -0.004 A 
ATOM      4  C2  UNL d   1       1.366   5.991   5.580  0.00  0.00    -0.047 A 
ATOM      5  C3  UNL d   1       2.754   5.992   5.857  0.00  0.00    -0.047 A 
ATOM      6  C4  UNL d   1       3.147   4.677   5.992  0.00  0.00    -0.004 A 
ENDROOT
TORSDOF 0
ENDMDL
