MODEL 1
REMARK minimizedAffinity -1.91993248
REMARK minimizedRMSD -1
REMARK  0 active torsions:
REMARK  status: ('A' for Active; 'I' for Inactive)
ROOT
ATOM      1  C   UNL d   1      -0.492  -2.405   5.998  0.00  0.00     0.172 C 
ATOM      2  N   UNL d   1      -0.510  -3.808   5.655  0.00  0.00    -0.070 N 
ATOM      3  C1  UNL d   1      -1.489  -4.702   5.999  0.00  0.00    -0.004 A 
ATOM      4  C2  UNL d   1      -1.138  -5.931   5.484  0.00  0.00    -0.047 A 
ATOM      5  C3  UNL d   1       0.095  -5.770   4.808  0.00  0.00    -0.047 A 
ATOM      6  C4  UNL d   1       0.460  -4.446   4.929  0.00  0.00    -0.004 A 
ENDROOT
TORSDOF 0
ENDMDL
