MODEL 1
REMARK minimizedAffinity 5.89473534
REMARK minimizedRMSD -1
REMARK  0 active torsions:
REMARK  status: ('A' for Active; 'I' for Inactive)
ROOT
ATOM      1  C   UNL d   1      -2.619  -0.606   1.480  0.00  0.00     0.172 C 
ATOM      2  N   UNL d   1      -1.288  -0.545   0.922  0.00  0.00    -0.070 N 
ATOM      3  C1  UNL d   1      -0.143  -0.265   1.618  0.00  0.00    -0.004 A 
ATOM      4  C2  UNL d   1       0.911  -0.303   0.731  0.00  0.00    -0.047 A 
ATOM      5  C3  UNL d   1       0.380  -0.615  -0.543  0.00  0.00    -0.047 A 
ATOM      6  C4  UNL d   1      -0.983  -0.760  -0.396  0.00  0.00    -0.004 A 
ENDROOT
TORSDOF 0
ENDMDL
