MODEL 1
REMARK minimizedAffinity 5.50370169
REMARK minimizedRMSD -1
REMARK  0 active torsions:
REMARK  status: ('A' for Active; 'I' for Inactive)
ROOT
ATOM      1  C   UNL d   1       5.336   5.699   5.760  0.00  0.00     0.172 C 
ATOM      2  N   UNL d   1       3.977   5.212   5.798  0.00  0.00    -0.070 N 
ATOM      3  C1  UNL d   1       3.592   3.907   5.646  0.00  0.00    -0.004 A 
ATOM      4  C2  UNL d   1       2.218   3.858   5.747  0.00  0.00    -0.047 A 
ATOM      5  C3  UNL d   1       1.762   5.180   5.966  0.00  0.00    -0.047 A 
ATOM      6  C4  UNL d   1       2.872   5.998   5.994  0.00  0.00    -0.004 A 
ENDROOT
TORSDOF 0
ENDMDL
