MODEL 1
REMARK minimizedAffinity 0.140509725
REMARK minimizedRMSD -1
REMARK  0 active torsions:
REMARK  status: ('A' for Active; 'I' for Inactive)
ROOT
ATOM      1  C   UNL d   1       1.167  -3.385   4.507  0.00  0.00     0.172 C 
ATOM      2  N   UNL d   1       0.024  -4.171   4.909  0.00  0.00    -0.070 N 
ATOM      3  C1  UNL d   1      -0.823  -3.876   5.944  0.00  0.00    -0.004 A 
ATOM      4  C2  UNL d   1      -1.780  -4.866   6.000  0.00  0.00    -0.047 A 
ATOM      5  C3  UNL d   1      -1.497  -5.788   4.964  0.00  0.00    -0.047 A 
ATOM      6  C4  UNL d   1      -0.375  -5.333   4.304  0.00  0.00    -0.004 A 
ENDROOT
TORSDOF 0
ENDMDL
