MODEL 1
REMARK minimizedAffinity 3.69344401
REMARK minimizedRMSD -1
REMARK  0 active torsions:
REMARK  status: ('A' for Active; 'I' for Inactive)
ROOT
ATOM      1  C   UNL d   1       4.626   5.957   5.620  0.00  0.00     0.172 C 
ATOM      2  N   UNL d   1       3.335   5.328   5.772  0.00  0.00    -0.070 N 
ATOM      3  C1  UNL d   1       3.108   3.980   5.846  0.00  0.00    -0.004 A 
ATOM      4  C2  UNL d   1       1.751   3.787   5.988  0.00  0.00    -0.047 A 
ATOM      5  C3  UNL d   1       1.141   5.064   6.000  0.00  0.00    -0.047 A 
ATOM      6  C4  UNL d   1       2.145   6.000   5.864  0.00  0.00    -0.004 A 
ENDROOT
TORSDOF 0
ENDMDL
