MODEL 1
REMARK minimizedAffinity -0.212451488
REMARK minimizedRMSD -1
REMARK  0 active torsions:
REMARK  status: ('A' for Active; 'I' for Inactive)
ROOT
ATOM      1  C1  BNZ d   1      -0.688  -4.707  -5.988  0.00  0.00     0.000 A 
ATOM      2  C2  BNZ d   1      -1.413  -3.545  -6.000  0.00  0.00     0.000 A 
ATOM      3  C3  BNZ d   1      -2.780  -3.574  -5.981  0.00  0.00     0.000 A 
ATOM      4  C4  BNZ d   1      -3.418  -4.761  -5.991  0.00  0.00     0.000 A 
ATOM      5  C5  BNZ d   1      -2.701  -5.941  -5.988  0.00  0.00     0.000 A 
ATOM      6  C6  BNZ d   1      -1.325  -5.908  -5.968  0.00  0.00     0.000 A 
ENDROOT
TORSDOF 0
ENDMDL
