MODEL 1
REMARK minimizedAffinity 1.00354242
REMARK minimizedRMSD -1
REMARK  0 active torsions:
REMARK  status: ('A' for Active; 'I' for Inactive)
ROOT
ATOM      1  C1  BNZ d   1      -3.773  -0.576   3.000  0.00  0.00     0.000 A 
ATOM      2  C2  BNZ d   1      -3.793  -1.857   3.484  0.00  0.00     0.000 A 
ATOM      3  C3  BNZ d   1      -4.914  -2.364   4.078  0.00  0.00     0.000 A 
ATOM      4  C4  BNZ d   1      -6.000  -1.577   4.225  0.00  0.00     0.000 A 
ATOM      5  C5  BNZ d   1      -5.993  -0.281   3.751  0.00  0.00     0.000 A 
ATOM      6  C6  BNZ d   1      -4.875   0.213   3.118  0.00  0.00     0.000 A 
ENDROOT
TORSDOF 0
ENDMDL
