MODEL 1
REMARK minimizedAffinity 1.19009399
REMARK minimizedRMSD -1
REMARK  0 active torsions:
REMARK  status: ('A' for Active; 'I' for Inactive)
ROOT
ATOM      1  C1  BNZ d   1      -4.153   0.986   2.951  0.00  0.00     0.000 A 
ATOM      2  C2  BNZ d   1      -3.408  -0.163   2.984  0.00  0.00     0.000 A 
ATOM      3  C3  BNZ d   1      -3.945  -1.332   3.444  0.00  0.00     0.000 A 
ATOM      4  C4  BNZ d   1      -5.212  -1.343   3.907  0.00  0.00     0.000 A 
ATOM      5  C5  BNZ d   1      -5.973  -0.191   3.889  0.00  0.00     0.000 A 
ATOM      6  C6  BNZ d   1      -5.441   0.975   3.389  0.00  0.00     0.000 A 
ENDROOT
TORSDOF 0
ENDMDL
