MODEL 1
REMARK minimizedAffinity -2.5617125
REMARK minimizedRMSD -1
REMARK  0 active torsions:
REMARK  status: ('A' for Active; 'I' for Inactive)
ROOT
ATOM      1  C1  BNZ d   1      -2.755  -3.582  -6.000  0.00  0.00     0.000 A 
ATOM      2  C2  BNZ d   1      -1.387  -3.656  -5.994  0.00  0.00     0.000 A 
ATOM      3  C3  BNZ d   1      -0.752  -4.867  -6.000  0.00  0.00     0.000 A 
ATOM      4  C4  BNZ d   1      -1.484  -5.999  -5.970  0.00  0.00     0.000 A 
ATOM      5  C5  BNZ d   1      -2.863  -5.940  -5.966  0.00  0.00     0.000 A 
ATOM      6  C6  BNZ d   1      -3.499  -4.721  -6.000  0.00  0.00     0.000 A 
ENDROOT
TORSDOF 0
ENDMDL
