MODEL 1
REMARK minimizedAffinity -0.975795209
REMARK minimizedRMSD -1
REMARK  0 active torsions:
REMARK  status: ('A' for Active; 'I' for Inactive)
ROOT
ATOM      1  C1  BNZ d   1      -2.837  -6.000  -5.956  0.00  0.00     0.000 A 
ATOM      2  C2  BNZ d   1      -4.049  -5.363  -5.954  0.00  0.00     0.000 A 
ATOM      3  C3  BNZ d   1      -4.124  -3.999  -5.996  0.00  0.00     0.000 A 
ATOM      4  C4  BNZ d   1      -2.988  -3.273  -6.000  0.00  0.00     0.000 A 
ATOM      5  C5  BNZ d   1      -1.758  -3.900  -5.993  0.00  0.00     0.000 A 
ATOM      6  C6  BNZ d   1      -1.686  -5.274  -5.990  0.00  0.00     0.000 A 
ENDROOT
TORSDOF 0
ENDMDL
