MODEL 1
REMARK minimizedAffinity 4.03835869
REMARK minimizedRMSD -1
REMARK  0 active torsions:
REMARK  status: ('A' for Active; 'I' for Inactive)
ROOT
ATOM      1  C1  BNZ d   1       0.191   3.583   0.069  0.00  0.00     0.000 A 
ATOM      2  C2  BNZ d   1      -0.011   4.174  -1.149  0.00  0.00     0.000 A 
ATOM      3  C3  BNZ d   1      -0.612   3.489  -2.168  0.00  0.00     0.000 A 
ATOM      4  C4  BNZ d   1      -0.972   2.203  -1.981  0.00  0.00     0.000 A 
ATOM      5  C5  BNZ d   1      -0.766   1.590  -0.761  0.00  0.00     0.000 A 
ATOM      6  C6  BNZ d   1      -0.197   2.295   0.274  0.00  0.00     0.000 A 
ENDROOT
TORSDOF 0
ENDMDL
