MODEL 1
REMARK minimizedAffinity 6.5091486
REMARK minimizedRMSD -1
REMARK  0 active torsions:
REMARK  status: ('A' for Active; 'I' for Inactive)
ROOT
ATOM      1  C1  BNZ d   1      -1.168   1.403   2.415  0.00  0.00     0.000 A 
ATOM      2  C2  BNZ d   1      -1.250   1.985   1.179  0.00  0.00     0.000 A 
ATOM      3  C3  BNZ d   1      -0.121   2.313   0.483  0.00  0.00     0.000 A 
ATOM      4  C4  BNZ d   1       1.088   2.096   1.040  0.00  0.00     0.000 A 
ATOM      5  C5  BNZ d   1       1.188   1.519   2.290  0.00  0.00     0.000 A 
ATOM      6  C6  BNZ d   1       0.049   1.154   2.971  0.00  0.00     0.000 A 
ENDROOT
TORSDOF 0
ENDMDL
