MODEL 1
REMARK minimizedAffinity 1.31369591
REMARK minimizedRMSD -1
REMARK  0 active torsions:
REMARK  status: ('A' for Active; 'I' for Inactive)
ROOT
ATOM      1  C1  BNZ d   1      -0.223  -4.368  -6.000  0.00  0.00     0.000 A 
ATOM      2  C2  BNZ d   1      -1.214  -5.313  -5.993  0.00  0.00     0.000 A 
ATOM      3  C3  BNZ d   1      -2.531  -4.947  -5.998  0.00  0.00     0.000 A 
ATOM      4  C4  BNZ d   1      -2.855  -3.638  -5.969  0.00  0.00     0.000 A 
ATOM      5  C5  BNZ d   1      -1.868  -2.673  -5.965  0.00  0.00     0.000 A 
ATOM      6  C6  BNZ d   1      -0.543  -3.045  -6.000  0.00  0.00     0.000 A 
ENDROOT
TORSDOF 0
ENDMDL
