MODEL 1
REMARK minimizedAffinity -0.719025552
REMARK minimizedRMSD -1
REMARK  0 active torsions:
REMARK  status: ('A' for Active; 'I' for Inactive)
ROOT
ATOM      1  C1  BNZ d   1      -4.116  -3.748  -6.000  0.00  0.00     0.000 A 
ATOM      2  C2  BNZ d   1      -5.251  -4.514  -6.000  0.00  0.00     0.000 A 
ATOM      3  C3  BNZ d   1      -5.342  -5.630  -5.215  0.00  0.00     0.000 A 
ATOM      4  C4  BNZ d   1      -4.285  -5.999  -4.463  0.00  0.00     0.000 A 
ATOM      5  C5  BNZ d   1      -3.130  -5.242  -4.459  0.00  0.00     0.000 A 
ATOM      6  C6  BNZ d   1      -3.057  -4.099  -5.221  0.00  0.00     0.000 A 
ENDROOT
TORSDOF 0
ENDMDL
