MODEL 1
REMARK minimizedAffinity -1.7539978
REMARK minimizedRMSD -1
REMARK  0 active torsions:
REMARK  status: ('A' for Active; 'I' for Inactive)
ROOT
ATOM      1  C1  BNZ d   1      -4.133  -5.995  -4.446  0.00  0.00     0.000 A 
ATOM      2  C2  BNZ d   1      -5.462  -6.000  -4.775  0.00  0.00     0.000 A 
ATOM      3  C3  BNZ d   1      -5.990  -5.020  -5.569  0.00  0.00     0.000 A 
ATOM      4  C4  BNZ d   1      -5.198  -4.017  -5.999  0.00  0.00     0.000 A 
ATOM      5  C5  BNZ d   1      -3.858  -3.993  -5.668  0.00  0.00     0.000 A 
ATOM      6  C6  BNZ d   1      -3.322  -5.002  -4.901  0.00  0.00     0.000 A 
ENDROOT
TORSDOF 0
ENDMDL
