MODEL 1
REMARK minimizedAffinity -3.8446281
REMARK minimizedRMSD -1
REMARK  1 active torsions:
REMARK  status: ('A' for Active; 'I' for Inactive)
REMARK    1  A    between atoms: C1_2  and  C2_3 
ROOT
ATOM      1  C2  UNL d   1      -0.489  -0.275  -0.515  0.00  0.00    -0.081 A 
ATOM      2  C3  UNL d   1       0.709   0.208  -1.055  0.00  0.00     0.006 A 
ATOM      3  C4  UNL d   1       1.382   1.270  -0.446  0.00  0.00     0.002 A 
ATOM      4  C5  UNL d   1       0.874   1.861   0.715  0.00  0.00    -0.080 A 
ATOM      5  C6  UNL d   1       1.602   2.981   1.395  0.00  0.00     0.076 C 
ATOM      6  C7  UNL d   1      -0.332   1.390   1.245  0.00  0.00     0.002 A 
ATOM      7  C8  UNL d   1      -1.007   0.328   0.636  0.00  0.00     0.006 A 
ENDROOT
BRANCH   1   8
ATOM      8  C1  UNL d   1      -1.184  -1.462  -1.132  0.00  0.00     0.054 C 
ATOM      9  C   UNL d   1      -1.557  -1.193  -2.583  0.00  0.00     0.018 C 
ENDBRANCH   1   8
TORSDOF 1
ENDMDL
