MODEL 1
REMARK minimizedAffinity -2.61589932
REMARK minimizedRMSD -1
REMARK  1 active torsions:
REMARK  status: ('A' for Active; 'I' for Inactive)
REMARK    1  A    between atoms: C1_2  and  C2_3 
ROOT
ATOM      1  C2  UNL d   1      -0.030  -0.697  -0.039  0.00  0.00    -0.081 A 
ATOM      2  C3  UNL d   1      -0.779  -0.098   0.982  0.00  0.00     0.006 A 
ATOM      3  C4  UNL d   1      -0.399   1.141   1.505  0.00  0.00     0.002 A 
ATOM      4  C5  UNL d   1       0.730   1.803   1.011  0.00  0.00    -0.080 A 
ATOM      5  C6  UNL d   1       1.131   3.147   1.543  0.00  0.00     0.076 C 
ATOM      6  C7  UNL d   1       1.488   1.196   0.004  0.00  0.00     0.002 A 
ATOM      7  C8  UNL d   1       1.109  -0.042  -0.519  0.00  0.00     0.006 A 
ENDROOT
BRANCH   1   8
ATOM      8  C1  UNL d   1      -0.474  -2.002  -0.650  0.00  0.00     0.054 C 
ATOM      9  C   UNL d   1      -1.754  -1.829  -1.455  0.00  0.00     0.018 C 
ENDBRANCH   1   8
TORSDOF 1
ENDMDL
