MODEL 1
REMARK minimizedAffinity -2.21905017
REMARK minimizedRMSD -1
REMARK  1 active torsions:
REMARK  status: ('A' for Active; 'I' for Inactive)
REMARK    1  A    between atoms: C1_2  and  C2_3 
ROOT
ATOM      1  C2  UNL d   1      -0.303  -0.399  -0.001  0.00  0.00    -0.081 A 
ATOM      2  C3  UNL d   1      -0.774   0.257   1.144  0.00  0.00     0.006 A 
ATOM      3  C4  UNL d   1      -0.225   1.480   1.535  0.00  0.00     0.002 A 
ATOM      4  C5  UNL d   1       0.798   2.072   0.786  0.00  0.00    -0.080 A 
ATOM      5  C6  UNL d   1       1.375   3.399   1.178  0.00  0.00     0.076 C 
ATOM      6  C7  UNL d   1       1.280   1.409  -0.348  0.00  0.00     0.002 A 
ATOM      7  C8  UNL d   1       0.732   0.185  -0.739  0.00  0.00     0.006 A 
ENDROOT
BRANCH   1   8
ATOM      8  C1  UNL d   1      -0.937  -1.686  -0.462  0.00  0.00     0.054 C 
ATOM      9  C   UNL d   1      -1.516  -1.547  -1.862  0.00  0.00     0.018 C 
ENDBRANCH   1   8
TORSDOF 1
ENDMDL
