MODEL 1
REMARK minimizedAffinity -5.1175909
REMARK minimizedRMSD -1
REMARK  1 active torsions:
REMARK  status: ('A' for Active; 'I' for Inactive)
REMARK    1  A    between atoms: C1_2  and  C2_3 
ROOT
ATOM      1  C2  UNL d   1      -0.619  -0.627  -0.648  0.00  0.00    -0.081 A 
ATOM      2  C3  UNL d   1       0.741  -0.793  -0.358  0.00  0.00     0.006 A 
ATOM      3  C4  UNL d   1       1.457   0.221   0.285  0.00  0.00     0.002 A 
ATOM      4  C5  UNL d   1       0.824   1.412   0.654  0.00  0.00    -0.080 A 
ATOM      5  C6  UNL d   1       1.574   2.495   1.371  0.00  0.00     0.076 C 
ATOM      6  C7  UNL d   1      -0.530   1.585   0.349  0.00  0.00     0.002 A 
ATOM      7  C8  UNL d   1      -1.246   0.573  -0.294  0.00  0.00     0.006 A 
ENDROOT
BRANCH   1   8
ATOM      8  C1  UNL d   1      -1.409  -1.743  -1.282  0.00  0.00     0.054 C 
ATOM      9  C   UNL d   1      -2.246  -1.235  -2.447  0.00  0.00     0.018 C 
ENDBRANCH   1   8
TORSDOF 1
ENDMDL
