MODEL 1
REMARK minimizedAffinity -3.55125785
REMARK minimizedRMSD -1
REMARK  1 active torsions:
REMARK  status: ('A' for Active; 'I' for Inactive)
REMARK    1  A    between atoms: C1_2  and  C2_3 
ROOT
ATOM      1  C2  UNL d   1      -0.664  -0.685  -0.214  0.00  0.00    -0.081 A 
ATOM      2  C3  UNL d   1      -0.713  -0.357   1.147  0.00  0.00     0.006 A 
ATOM      3  C4  UNL d   1      -0.117   0.817   1.614  0.00  0.00     0.002 A 
ATOM      4  C5  UNL d   1       0.529   1.686   0.729  0.00  0.00    -0.080 A 
ATOM      5  C6  UNL d   1       1.146   2.965   1.213  0.00  0.00     0.076 C 
ATOM      6  C7  UNL d   1       0.593   1.350  -0.628  0.00  0.00     0.002 A 
ATOM      7  C8  UNL d   1      -0.001   0.176  -1.095  0.00  0.00     0.006 A 
ENDROOT
BRANCH   1   8
ATOM      8  C1  UNL d   1      -1.361  -1.918  -0.730  0.00  0.00     0.054 C 
ATOM      9  C   UNL d   1      -1.652  -1.805  -2.220  0.00  0.00     0.018 C 
ENDBRANCH   1   8
TORSDOF 1
ENDMDL
