MODEL 1
REMARK minimizedAffinity -0.0418089479
REMARK minimizedRMSD -1
REMARK  1 active torsions:
REMARK  status: ('A' for Active; 'I' for Inactive)
REMARK    1  A    between atoms: C1_2  and  C2_3 
ROOT
ATOM      1  C2  UNL d   1      -1.334  -0.939  -0.791  0.00  0.00    -0.081 A 
ATOM      2  C3  UNL d   1      -0.071  -1.116  -0.214  0.00  0.00     0.006 A 
ATOM      3  C4  UNL d   1       0.370  -0.263   0.801  0.00  0.00     0.002 A 
ATOM      4  C5  UNL d   1      -0.447   0.774   1.261  0.00  0.00    -0.080 A 
ATOM      5  C6  UNL d   1       0.002   1.678   2.371  0.00  0.00     0.076 C 
ATOM      6  C7  UNL d   1      -1.703   0.962   0.673  0.00  0.00     0.002 A 
ATOM      7  C8  UNL d   1      -2.143   0.111  -0.343  0.00  0.00     0.006 A 
ENDROOT
BRANCH   1   8
ATOM      8  C1  UNL d   1      -1.838  -1.896  -1.841  0.00  0.00     0.054 C 
ATOM      9  C   UNL d   1      -3.250  -1.539  -2.283  0.00  0.00     0.018 C 
ENDBRANCH   1   8
TORSDOF 1
ENDMDL
