MODEL 1
REMARK minimizedAffinity -3.65050507
REMARK minimizedRMSD -1
REMARK  1 active torsions:
REMARK  status: ('A' for Active; 'I' for Inactive)
REMARK    1  A    between atoms: C1_2  and  C2_3 
ROOT
ATOM      1  C2  UNL d   1      -0.638  -1.086  -0.805  0.00  0.00    -0.081 A 
ATOM      2  C3  UNL d   1      -1.068  -0.511   0.398  0.00  0.00     0.006 A 
ATOM      3  C4  UNL d   1      -0.390   0.582   0.943  0.00  0.00     0.002 A 
ATOM      4  C5  UNL d   1       0.723   1.123   0.291  0.00  0.00    -0.080 A 
ATOM      5  C6  UNL d   1       1.442   2.315   0.850  0.00  0.00     0.076 C 
ATOM      6  C7  UNL d   1       1.164   0.538  -0.901  0.00  0.00     0.002 A 
ATOM      7  C8  UNL d   1       0.487  -0.555  -1.446  0.00  0.00     0.006 A 
ENDROOT
BRANCH   1   8
ATOM      8  C1  UNL d   1      -1.406  -2.223  -1.428  0.00  0.00     0.054 C 
ATOM      9  C   UNL d   1      -1.811  -1.899  -2.859  0.00  0.00     0.018 C 
ENDBRANCH   1   8
TORSDOF 1
ENDMDL
