MODEL 1
REMARK minimizedAffinity -3.64973664
REMARK minimizedRMSD -1
REMARK  1 active torsions:
REMARK  status: ('A' for Active; 'I' for Inactive)
REMARK    1  A    between atoms: C1_2  and  C2_3 
ROOT
ATOM      1  C2  UNL d   1      -0.869  -0.870  -0.475  0.00  0.00    -0.081 A 
ATOM      2  C3  UNL d   1      -1.399  -0.375   0.723  0.00  0.00     0.006 A 
ATOM      3  C4  UNL d   1      -0.770   0.677   1.393  0.00  0.00     0.002 A 
ATOM      4  C5  UNL d   1       0.392   1.257   0.874  0.00  0.00    -0.080 A 
ATOM      5  C6  UNL d   1       1.060   2.406   1.568  0.00  0.00     0.076 C 
ATOM      6  C7  UNL d   1       0.931   0.751  -0.314  0.00  0.00     0.002 A 
ATOM      7  C8  UNL d   1       0.303  -0.302  -0.985  0.00  0.00     0.006 A 
ENDROOT
BRANCH   1   8
ATOM      8  C1  UNL d   1      -1.580  -1.961  -1.235  0.00  0.00     0.054 C 
ATOM      9  C   UNL d   1      -2.518  -1.383  -2.286  0.00  0.00     0.018 C 
ENDBRANCH   1   8
TORSDOF 1
ENDMDL
