MODEL 1
REMARK minimizedAffinity -5.38071108
REMARK minimizedRMSD -1
REMARK  1 active torsions:
REMARK  status: ('A' for Active; 'I' for Inactive)
REMARK    1  A    between atoms: C1_2  and  C2_3 
ROOT
ATOM      1  C2  UNL d   1      -0.775  -0.556  -0.353  0.00  0.00    -0.081 A 
ATOM      2  C3  UNL d   1      -1.177   0.051   0.843  0.00  0.00     0.006 A 
ATOM      3  C4  UNL d   1      -0.449   1.118   1.374  0.00  0.00     0.002 A 
ATOM      4  C5  UNL d   1       0.687   1.601   0.715  0.00  0.00    -0.080 A 
ATOM      5  C6  UNL d   1       1.460   2.765   1.259  0.00  0.00     0.076 C 
ATOM      6  C7  UNL d   1       1.099   0.983  -0.470  0.00  0.00     0.002 A 
ATOM      7  C8  UNL d   1       0.372  -0.085  -1.002  0.00  0.00     0.006 A 
ENDROOT
BRANCH   1   8
ATOM      8  C1  UNL d   1      -1.595  -1.665  -0.963  0.00  0.00     0.054 C 
ATOM      9  C   UNL d   1      -1.924  -1.373  -2.420  0.00  0.00     0.018 C 
ENDBRANCH   1   8
TORSDOF 1
ENDMDL
