MODEL 1
REMARK minimizedAffinity -2.54618287
REMARK minimizedRMSD -1
REMARK  1 active torsions:
REMARK  status: ('A' for Active; 'I' for Inactive)
REMARK    1  A    between atoms: C1_2  and  C2_3 
ROOT
ATOM      1  C2  UNL d   1      -0.137  -0.655   0.083  0.00  0.00    -0.081 A 
ATOM      2  C3  UNL d   1      -0.647   0.043   1.184  0.00  0.00     0.006 A 
ATOM      3  C4  UNL d   1      -0.073   1.254   1.581  0.00  0.00     0.002 A 
ATOM      4  C5  UNL d   1       1.013   1.789   0.881  0.00  0.00    -0.080 A 
ATOM      5  C6  UNL d   1       1.619   3.102   1.279  0.00  0.00     0.076 C 
ATOM      6  C7  UNL d   1       1.533   1.082  -0.209  0.00  0.00     0.002 A 
ATOM      7  C8  UNL d   1       0.961  -0.129  -0.606  0.00  0.00     0.006 A 
ENDROOT
BRANCH   1   8
ATOM      8  C1  UNL d   1      -0.794  -1.928  -0.388  0.00  0.00     0.054 C 
ATOM      9  C   UNL d   1      -2.071  -1.637  -1.164  0.00  0.00     0.018 C 
ENDBRANCH   1   8
TORSDOF 1
ENDMDL
