MODEL 1
REMARK minimizedAffinity -3.68587756
REMARK minimizedRMSD -1
REMARK  3 active torsions:
REMARK  status: ('A' for Active; 'I' for Inactive)
REMARK    1  A    between atoms: C3'_2  and  C2'_3 
REMARK    2  A    between atoms: C2'_3  and  C1'_4 
REMARK    3  A    between atoms: C1'_4  and  C1_5 
ROOT
ATOM      1  C1  N4B d   1       0.350   0.210  -0.124  0.00  0.00    -0.075 A 
ATOM      2  C2  N4B d   1       0.316  -1.190  -0.302  0.00  0.00     0.002 A 
ATOM      3  C3  N4B d   1       1.395  -1.840  -0.850  0.00  0.00     0.002 A 
ATOM      4  C4  N4B d   1       2.506  -1.110  -1.244  0.00  0.00    -0.004 A 
ATOM      5  C5  N4B d   1       2.542   0.239  -1.046  0.00  0.00     0.002 A 
ATOM      6  C6  N4B d   1       1.466   0.904  -0.492  0.00  0.00     0.002 A 
ENDROOT
BRANCH   1   7
ATOM      7  C1' N4B d   1      -0.838   0.975   0.391  0.00  0.00     0.057 C 
BRANCH   7   8
ATOM      8  C2' N4B d   1      -1.725   0.035   1.203  0.00  0.00     0.009 C 
BRANCH   8   9
ATOM      9  C3' N4B d   1      -2.640   0.792   2.150  0.00  0.00     0.004 C 
ATOM     10  C4' N4B d   1      -3.397  -0.113   3.075  0.00  0.00     0.003 C 
ENDBRANCH   8   9
ENDBRANCH   7   8
ENDBRANCH   1   7
TORSDOF 3
ENDMDL
