MODEL 1
REMARK minimizedAffinity -5.78430605
REMARK minimizedRMSD -1
REMARK  3 active torsions:
REMARK  status: ('A' for Active; 'I' for Inactive)
REMARK    1  A    between atoms: C3'_2  and  C2'_3 
REMARK    2  A    between atoms: C2'_3  and  C1'_4 
REMARK    3  A    between atoms: C1'_4  and  C1_5 
ROOT
ATOM      1  C1  N4B d   1      -0.425  -0.283  -0.249  0.00  0.00    -0.075 A 
ATOM      2  C2  N4B d   1       0.383   0.104  -1.341  0.00  0.00     0.002 A 
ATOM      3  C3  N4B d   1       1.531  -0.594  -1.627  0.00  0.00     0.002 A 
ATOM      4  C4  N4B d   1       1.899  -1.665  -0.827  0.00  0.00    -0.004 A 
ATOM      5  C5  N4B d   1       1.100  -2.048   0.210  0.00  0.00     0.002 A 
ATOM      6  C6  N4B d   1      -0.058  -1.359   0.507  0.00  0.00     0.002 A 
ENDROOT
BRANCH   1   7
ATOM      7  C1' N4B d   1      -1.644   0.501   0.154  0.00  0.00     0.057 C 
BRANCH   7   8
ATOM      8  C2' N4B d   1      -2.163  -0.030   1.487  0.00  0.00     0.009 C 
BRANCH   8   9
ATOM      9  C3' N4B d   1      -1.929   0.953   2.621  0.00  0.00     0.004 C 
ATOM     10  C4' N4B d   1      -1.584   0.277   3.914  0.00  0.00     0.003 C 
ENDBRANCH   8   9
ENDBRANCH   7   8
ENDBRANCH   1   7
TORSDOF 3
ENDMDL
