MODEL 1
REMARK minimizedAffinity -1.58607948
REMARK minimizedRMSD -1
REMARK  3 active torsions:
REMARK  status: ('A' for Active; 'I' for Inactive)
REMARK    1  A    between atoms: C3'_2  and  C2'_3 
REMARK    2  A    between atoms: C2'_3  and  C1'_4 
REMARK    3  A    between atoms: C1'_4  and  C1_5 
ROOT
ATOM      1  C1  N4B d   1       5.016   0.449   5.267  0.00  0.00    -0.075 A 
ATOM      2  C2  N4B d   1       5.151   0.392   3.862  0.00  0.00     0.002 A 
ATOM      3  C3  N4B d   1       5.437  -0.802   3.248  0.00  0.00     0.002 A 
ATOM      4  C4  N4B d   1       5.612  -1.944   4.015  0.00  0.00    -0.004 A 
ATOM      5  C5  N4B d   1       5.455  -1.886   5.369  0.00  0.00     0.002 A 
ATOM      6  C6  N4B d   1       5.163  -0.693   6.000  0.00  0.00     0.002 A 
ENDROOT
BRANCH   1   7
ATOM      7  C1' N4B d   1       4.788   1.747   5.991  0.00  0.00     0.057 C 
BRANCH   7   8
ATOM      8  C2' N4B d   1       5.991   2.660   5.773  0.00  0.00     0.009 C 
BRANCH   8   9
ATOM      9  C3' N4B d   1       5.598   3.969   5.110  0.00  0.00     0.004 C 
ATOM     10  C4' N4B d   1       5.999   4.033   3.667  0.00  0.00     0.003 C 
ENDBRANCH   8   9
ENDBRANCH   7   8
ENDBRANCH   1   7
TORSDOF 3
ENDMDL
