MODEL 1
REMARK minimizedAffinity -3.32485199
REMARK minimizedRMSD -1
REMARK  3 active torsions:
REMARK  status: ('A' for Active; 'I' for Inactive)
REMARK    1  A    between atoms: C3'_2  and  C2'_3 
REMARK    2  A    between atoms: C2'_3  and  C1'_4 
REMARK    3  A    between atoms: C1'_4  and  C1_5 
ROOT
ATOM      1  C1  N4B d   1      -2.070   0.581   1.657  0.00  0.00    -0.075 A 
ATOM      2  C2  N4B d   1      -2.818  -0.431   2.298  0.00  0.00     0.002 A 
ATOM      3  C3  N4B d   1      -2.969  -0.413   3.663  0.00  0.00     0.002 A 
ATOM      4  C4  N4B d   1      -2.367   0.591   4.407  0.00  0.00    -0.004 A 
ATOM      5  C5  N4B d   1      -1.667   1.578   3.778  0.00  0.00     0.002 A 
ATOM      6  C6  N4B d   1      -1.511   1.576   2.406  0.00  0.00     0.002 A 
ENDROOT
BRANCH   1   7
ATOM      7  C1' N4B d   1      -1.805   0.556   0.177  0.00  0.00     0.057 C 
BRANCH   7   8
ATOM      8  C2' N4B d   1      -0.302   0.447  -0.062  0.00  0.00     0.009 C 
BRANCH   8   9
ATOM      9  C3' N4B d   1       0.155  -0.999  -0.151  0.00  0.00     0.004 C 
ATOM     10  C4' N4B d   1       1.479  -1.148  -0.840  0.00  0.00     0.003 C 
ENDBRANCH   8   9
ENDBRANCH   7   8
ENDBRANCH   1   7
TORSDOF 3
ENDMDL
