MODEL 1
REMARK minimizedAffinity -5.01889229
REMARK minimizedRMSD -1
REMARK  3 active torsions:
REMARK  status: ('A' for Active; 'I' for Inactive)
REMARK    1  A    between atoms: C3'_2  and  C2'_3 
REMARK    2  A    between atoms: C2'_3  and  C1'_4 
REMARK    3  A    between atoms: C1'_4  and  C1_5 
ROOT
ATOM      1  C1  N4B d   1       0.229  -0.551  -0.517  0.00  0.00    -0.075 A 
ATOM      2  C2  N4B d   1       0.908   0.526  -1.128  0.00  0.00     0.002 A 
ATOM      3  C3  N4B d   1       2.208   0.370  -1.544  0.00  0.00     0.002 A 
ATOM      4  C4  N4B d   1       2.852  -0.841  -1.344  0.00  0.00    -0.004 A 
ATOM      5  C5  N4B d   1       2.181  -1.884  -0.776  0.00  0.00     0.002 A 
ATOM      6  C6  N4B d   1       0.874  -1.744  -0.356  0.00  0.00     0.002 A 
ENDROOT
BRANCH   1   7
ATOM      7  C1' N4B d   1      -1.163  -0.403   0.032  0.00  0.00     0.057 C 
BRANCH   7   8
ATOM      8  C2' N4B d   1      -1.175   0.711   1.075  0.00  0.00     0.009 C 
BRANCH   8   9
ATOM      9  C3' N4B d   1      -1.878   0.286   2.353  0.00  0.00     0.004 C 
ATOM     10  C4' N4B d   1      -1.841   1.344   3.415  0.00  0.00     0.003 C 
ENDBRANCH   8   9
ENDBRANCH   7   8
ENDBRANCH   1   7
TORSDOF 3
ENDMDL
