MODEL 1
REMARK minimizedAffinity -5.10058451
REMARK minimizedRMSD -1
REMARK  3 active torsions:
REMARK  status: ('A' for Active; 'I' for Inactive)
REMARK    1  A    between atoms: C3'_2  and  C2'_3 
REMARK    2  A    between atoms: C2'_3  and  C1'_4 
REMARK    3  A    between atoms: C1'_4  and  C1_5 
ROOT
ATOM      1  C1  N4B d   1       0.054  -0.241  -0.421  0.00  0.00    -0.075 A 
ATOM      2  C2  N4B d   1       1.193   0.387  -0.972  0.00  0.00     0.002 A 
ATOM      3  C3  N4B d   1       2.360  -0.320  -1.125  0.00  0.00     0.002 A 
ATOM      4  C4  N4B d   1       2.418  -1.644  -0.717  0.00  0.00    -0.004 A 
ATOM      5  C5  N4B d   1       1.307  -2.251  -0.210  0.00  0.00     0.002 A 
ATOM      6  C6  N4B d   1       0.126  -1.554  -0.054  0.00  0.00     0.002 A 
ENDROOT
BRANCH   1   7
ATOM      7  C1' N4B d   1      -1.219   0.514  -0.155  0.00  0.00     0.057 C 
BRANCH   7   8
ATOM      8  C2' N4B d   1      -1.835   0.015   1.148  0.00  0.00     0.009 C 
BRANCH   8   9
ATOM      9  C3' N4B d   1      -1.501   0.924   2.319  0.00  0.00     0.004 C 
ATOM     10  C4' N4B d   1      -2.105   0.454   3.609  0.00  0.00     0.003 C 
ENDBRANCH   8   9
ENDBRANCH   7   8
ENDBRANCH   1   7
TORSDOF 3
ENDMDL
