MODEL 1
REMARK minimizedAffinity -6.00866032
REMARK minimizedRMSD -1
REMARK  3 active torsions:
REMARK  status: ('A' for Active; 'I' for Inactive)
REMARK    1  A    between atoms: C3'_2  and  C2'_3 
REMARK    2  A    between atoms: C2'_3  and  C1'_4 
REMARK    3  A    between atoms: C1'_4  and  C1_5 
ROOT
ATOM      1  C1  N4B d   1       0.917  -0.697  -0.580  0.00  0.00    -0.075 A 
ATOM      2  C2  N4B d   1       0.065   0.423  -0.460  0.00  0.00     0.002 A 
ATOM      3  C3  N4B d   1      -1.201   0.272   0.050  0.00  0.00     0.002 A 
ATOM      4  C4  N4B d   1      -1.642  -0.988   0.427  0.00  0.00    -0.004 A 
ATOM      5  C5  N4B d   1      -0.804  -2.060   0.332  0.00  0.00     0.002 A 
ATOM      6  C6  N4B d   1       0.472  -1.922  -0.175  0.00  0.00     0.002 A 
ENDROOT
BRANCH   1   7
ATOM      7  C1' N4B d   1       2.278  -0.595  -1.211  0.00  0.00     0.057 C 
BRANCH   7   8
ATOM      8  C2' N4B d   1       2.612   0.875  -1.448  0.00  0.00     0.009 C 
BRANCH   8   9
ATOM      9  C3' N4B d   1       2.706   1.206  -2.927  0.00  0.00     0.004 C 
ATOM     10  C4' N4B d   1       1.406   1.685  -3.500  0.00  0.00     0.003 C 
ENDBRANCH   8   9
ENDBRANCH   7   8
ENDBRANCH   1   7
TORSDOF 3
ENDMDL
