MODEL 1
REMARK minimizedAffinity -5.89234686
REMARK minimizedRMSD -1
REMARK  3 active torsions:
REMARK  status: ('A' for Active; 'I' for Inactive)
REMARK    1  A    between atoms: C3'_2  and  C2'_3 
REMARK    2  A    between atoms: C2'_3  and  C1'_4 
REMARK    3  A    between atoms: C1'_4  and  C1_5 
ROOT
ATOM      1  C1  N4B d   1      -0.532   0.386  -0.082  0.00  0.00    -0.075 A 
ATOM      2  C2  N4B d   1      -0.410  -1.012   0.083  0.00  0.00     0.002 A 
ATOM      3  C3  N4B d   1       0.718  -1.659  -0.358  0.00  0.00     0.002 A 
ATOM      4  C4  N4B d   1       1.724  -0.936  -0.981  0.00  0.00    -0.004 A 
ATOM      5  C5  N4B d   1       1.610   0.417  -1.113  0.00  0.00     0.002 A 
ATOM      6  C6  N4B d   1       0.484   1.081  -0.671  0.00  0.00     0.002 A 
ENDROOT
BRANCH   1   7
ATOM      7  C1' N4B d   1      -1.783   1.125   0.307  0.00  0.00     0.057 C 
BRANCH   7   8
ATOM      8  C2' N4B d   1      -2.307   0.564   1.626  0.00  0.00     0.009 C 
BRANCH   8   9
ATOM      9  C3' N4B d   1      -1.874   1.407   2.813  0.00  0.00     0.004 C 
ATOM     10  C4' N4B d   1      -1.944   0.660   4.112  0.00  0.00     0.003 C 
ENDBRANCH   8   9
ENDBRANCH   7   8
ENDBRANCH   1   7
TORSDOF 3
ENDMDL
