MODEL 1
REMARK minimizedAffinity 1.48531842
REMARK minimizedRMSD -1
REMARK  0 active torsions:
REMARK  status: ('A' for Active; 'I' for Inactive)
ROOT
ATOM      1  C   UNL d   1       5.690  -5.514  -0.473  0.00  0.00     0.077 C 
ATOM      2  C1  UNL d   1       4.901  -4.547  -1.304  0.00  0.00    -0.074 A 
ATOM      3  C2  UNL d   1       4.922  -3.176  -1.026  0.00  0.00    -0.005 A 
ATOM      4  C3  UNL d   1       4.190  -2.287  -1.814  0.00  0.00     0.006 A 
ATOM      5  C4  UNL d   1       3.430  -2.760  -2.885  0.00  0.00    -0.005 A 
ATOM      6  C5  UNL d   1       3.397  -4.127  -3.178  0.00  0.00    -0.074 A 
ATOM      7  C6  UNL d   1       2.594  -4.650  -4.331  0.00  0.00     0.077 C 
ATOM      8  C7  UNL d   1       4.141  -5.012  -2.386  0.00  0.00    -0.001 A 
ENDROOT
TORSDOF 0
ENDMDL
