MODEL 1
REMARK minimizedAffinity 5.45713091
REMARK minimizedRMSD -1
REMARK  0 active torsions:
REMARK  status: ('A' for Active; 'I' for Inactive)
ROOT
ATOM      1  C   UNL d   1       5.254  -2.622  -1.491  0.00  0.00     0.077 C 
ATOM      2  C1  UNL d   1       4.007  -3.370  -1.124  0.00  0.00    -0.074 A 
ATOM      3  C2  UNL d   1       3.365  -3.139   0.097  0.00  0.00    -0.005 A 
ATOM      4  C3  UNL d   1       2.200  -3.835   0.421  0.00  0.00     0.006 A 
ATOM      5  C4  UNL d   1       1.667  -4.767  -0.470  0.00  0.00    -0.005 A 
ATOM      6  C5  UNL d   1       2.295  -5.009  -1.696  0.00  0.00    -0.074 A 
ATOM      7  C6  UNL d   1       1.729  -6.000  -2.670  0.00  0.00     0.077 C 
ATOM      8  C7  UNL d   1       3.461  -4.301  -2.018  0.00  0.00    -0.001 A 
ENDROOT
TORSDOF 0
ENDMDL
