MODEL 1
REMARK minimizedAffinity -2.16801143
REMARK minimizedRMSD -1
REMARK  0 active torsions:
REMARK  status: ('A' for Active; 'I' for Inactive)
ROOT
ATOM      1  C   UNL d   1       5.586  -5.443   0.038  0.00  0.00     0.077 C 
ATOM      2  C1  UNL d   1       4.985  -4.306  -0.733  0.00  0.00    -0.074 A 
ATOM      3  C2  UNL d   1       4.979  -3.008  -0.212  0.00  0.00    -0.005 A 
ATOM      4  C3  UNL d   1       4.425  -1.958  -0.945  0.00  0.00     0.006 A 
ATOM      5  C4  UNL d   1       3.872  -2.196  -2.204  0.00  0.00    -0.005 A 
ATOM      6  C5  UNL d   1       3.870  -3.487  -2.742  0.00  0.00    -0.074 A 
ATOM      7  C6  UNL d   1       3.289  -3.757  -4.097  0.00  0.00     0.077 C 
ATOM      8  C7  UNL d   1       4.435  -4.535  -2.002  0.00  0.00    -0.001 A 
ENDROOT
TORSDOF 0
ENDMDL
