MODEL 1
REMARK minimizedAffinity -1.06971836
REMARK minimizedRMSD -1
REMARK  0 active torsions:
REMARK  status: ('A' for Active; 'I' for Inactive)
ROOT
ATOM      1  C   UNL d   1       3.727  -1.304   0.504  0.00  0.00     0.077 C 
ATOM      2  C1  UNL d   1       3.918  -2.490  -0.394  0.00  0.00    -0.074 A 
ATOM      3  C2  UNL d   1       5.087  -2.641  -1.147  0.00  0.00    -0.005 A 
ATOM      4  C3  UNL d   1       5.254  -3.755  -1.970  0.00  0.00     0.006 A 
ATOM      5  C4  UNL d   1       4.256  -4.727  -2.049  0.00  0.00    -0.005 A 
ATOM      6  C5  UNL d   1       3.080  -4.593  -1.303  0.00  0.00    -0.074 A 
ATOM      7  C6  UNL d   1       2.002  -5.633  -1.369  0.00  0.00     0.077 C 
ATOM      8  C7  UNL d   1       2.923  -3.475  -0.473  0.00  0.00    -0.001 A 
ENDROOT
TORSDOF 0
ENDMDL
