MODEL 1
REMARK minimizedAffinity 4.22577286
REMARK minimizedRMSD -1
REMARK  0 active torsions:
REMARK  status: ('A' for Active; 'I' for Inactive)
ROOT
ATOM      1  C   UNL d   1       5.999  -6.000   0.002  0.00  0.00     0.077 C 
ATOM      2  C1  UNL d   1       5.223  -5.160  -0.969  0.00  0.00    -0.074 A 
ATOM      3  C2  UNL d   1       4.842  -5.669  -2.215  0.00  0.00    -0.005 A 
ATOM      4  C3  UNL d   1       4.112  -4.880  -3.104  0.00  0.00     0.006 A 
ATOM      5  C4  UNL d   1       3.756  -3.577  -2.756  0.00  0.00    -0.005 A 
ATOM      6  C5  UNL d   1       4.126  -3.051  -1.514  0.00  0.00    -0.074 A 
ATOM      7  C6  UNL d   1       3.743  -1.656  -1.121  0.00  0.00     0.077 C 
ATOM      8  C7  UNL d   1       4.854  -3.853  -0.624  0.00  0.00    -0.001 A 
ENDROOT
TORSDOF 0
ENDMDL
