MODEL 1
REMARK minimizedAffinity -3.97878027
REMARK minimizedRMSD -1
REMARK  0 active torsions:
REMARK  status: ('A' for Active; 'I' for Inactive)
ROOT
ATOM      1  C1  DEN d   1       2.650  -0.156   0.265  0.00  0.00     0.130 A 
ATOM      2  C2  DEN d   1       3.153  -1.505   0.021  0.00  0.00    -0.031 A 
ATOM      3  C3  DEN d   1       2.010  -2.356  -0.366  0.00  0.00     0.027 A 
ATOM      4  C4  DEN d   1      -0.477  -1.717  -0.613  0.00  0.00     0.027 A 
ATOM      5  C5  DEN d   1      -1.389  -0.692  -0.500  0.00  0.00    -0.003 A 
ATOM      6  C6  DEN d   1      -1.028   0.566  -0.094  0.00  0.00     0.001 A 
ATOM      7  C7  DEN d   1       0.288   0.842   0.170  0.00  0.00     0.017 A 
ATOM      8  C8  DEN d   1       1.212  -0.189   0.065  0.00  0.00    -0.094 A 
ATOM      9  C9  DEN d   1       0.829  -1.451  -0.359  0.00  0.00    -0.072 A 
ENDROOT
TORSDOF 0
ENDMDL
