MODEL 1
REMARK minimizedAffinity -4.48996496
REMARK minimizedRMSD -1
REMARK  0 active torsions:
REMARK  status: ('A' for Active; 'I' for Inactive)
ROOT
ATOM      1  C1  DEN d   1      -0.379   1.254  -0.531  0.00  0.00     0.130 A 
ATOM      2  C2  DEN d   1      -0.992   0.002  -0.966  0.00  0.00    -0.031 A 
ATOM      3  C3  DEN d   1      -0.090  -1.104  -0.587  0.00  0.00     0.027 A 
ATOM      4  C4  DEN d   1       2.182  -1.000   0.630  0.00  0.00     0.027 A 
ATOM      5  C5  DEN d   1       3.119  -0.159   1.189  0.00  0.00    -0.003 A 
ATOM      6  C6  DEN d   1       2.973   1.203   1.183  0.00  0.00     0.001 A 
ATOM      7  C7  DEN d   1       1.843   1.762   0.647  0.00  0.00     0.017 A 
ATOM      8  C8  DEN d   1       0.897   0.921   0.076  0.00  0.00    -0.094 A 
ATOM      9  C9  DEN d   1       1.057  -0.454   0.102  0.00  0.00    -0.072 A 
ENDROOT
TORSDOF 0
ENDMDL
