MODEL 1
REMARK minimizedAffinity -4.45728016
REMARK minimizedRMSD -1
REMARK  0 active torsions:
REMARK  status: ('A' for Active; 'I' for Inactive)
ROOT
ATOM      1  C1  DEN d   1       2.055   1.860   0.048  0.00  0.00     0.130 A 
ATOM      2  C2  DEN d   1       0.794   2.534  -0.250  0.00  0.00    -0.031 A 
ATOM      3  C3  DEN d   1      -0.205   1.502  -0.596  0.00  0.00     0.027 A 
ATOM      4  C4  DEN d   1       0.077  -1.060  -0.695  0.00  0.00     0.027 A 
ATOM      5  C5  DEN d   1       0.968  -2.098  -0.535  0.00  0.00    -0.003 A 
ATOM      6  C6  DEN d   1       2.281  -1.889  -0.207  0.00  0.00     0.001 A 
ATOM      7  C7  DEN d   1       2.731  -0.615   0.018  0.00  0.00     0.017 A 
ATOM      8  C8  DEN d   1       1.840   0.438  -0.148  0.00  0.00    -0.094 A 
ATOM      9  C9  DEN d   1       0.513   0.205  -0.469  0.00  0.00    -0.072 A 
ENDROOT
TORSDOF 0
ENDMDL
