MODEL 1
REMARK minimizedAffinity -3.57182646
REMARK minimizedRMSD -1
REMARK  0 active torsions:
REMARK  status: ('A' for Active; 'I' for Inactive)
ROOT
ATOM      1  C1  DEN d   1      -1.028  -2.400   0.836  0.00  0.00     0.130 A 
ATOM      2  C2  DEN d   1       0.306  -2.252   0.261  0.00  0.00    -0.031 A 
ATOM      3  C3  DEN d   1       0.422  -0.881  -0.276  0.00  0.00     0.027 A 
ATOM      4  C4  DEN d   1      -1.323   1.018  -0.270  0.00  0.00     0.027 A 
ATOM      5  C5  DEN d   1      -2.606   1.362   0.096  0.00  0.00    -0.003 A 
ATOM      6  C6  DEN d   1      -3.457   0.473   0.698  0.00  0.00     0.001 A 
ATOM      7  C7  DEN d   1      -3.020  -0.791   0.994  0.00  0.00     0.017 A 
ATOM      8  C8  DEN d   1      -1.731  -1.148   0.621  0.00  0.00    -0.094 A 
ATOM      9  C9  DEN d   1      -0.882  -0.231   0.025  0.00  0.00    -0.072 A 
ENDROOT
TORSDOF 0
ENDMDL
