MODEL 1
REMARK minimizedAffinity -3.37434912
REMARK minimizedRMSD -1
REMARK  0 active torsions:
REMARK  status: ('A' for Active; 'I' for Inactive)
ROOT
ATOM      1  C1  DEN d   1       1.852  -0.082   1.341  0.00  0.00     0.130 A 
ATOM      2  C2  DEN d   1       2.708  -1.247   1.138  0.00  0.00    -0.031 A 
ATOM      3  C3  DEN d   1       2.104  -2.078   0.077  0.00  0.00     0.027 A 
ATOM      4  C4  DEN d   1      -0.060  -1.673  -1.266  0.00  0.00     0.027 A 
ATOM      5  C5  DEN d   1      -1.131  -0.825  -1.440  0.00  0.00    -0.003 A 
ATOM      6  C6  DEN d   1      -1.300   0.303  -0.682  0.00  0.00     0.001 A 
ATOM      7  C7  DEN d   1      -0.359   0.638   0.255  0.00  0.00     0.017 A 
ATOM      8  C8  DEN d   1       0.721  -0.216   0.441  0.00  0.00    -0.094 A 
ATOM      9  C9  DEN d   1       0.880  -1.345  -0.344  0.00  0.00    -0.072 A 
ENDROOT
TORSDOF 0
ENDMDL
