MODEL 1
REMARK minimizedAffinity -4.75793409
REMARK minimizedRMSD -1
REMARK  0 active torsions:
REMARK  status: ('A' for Active; 'I' for Inactive)
ROOT
ATOM      1  C1  DEN d   1       2.688  -0.183   1.276  0.00  0.00     0.130 A 
ATOM      2  C2  DEN d   1       3.319  -1.471   1.002  0.00  0.00    -0.031 A 
ATOM      3  C3  DEN d   1       2.428  -2.234   0.105  0.00  0.00     0.027 A 
ATOM      4  C4  DEN d   1       0.148  -1.548  -0.886  0.00  0.00     0.027 A 
ATOM      5  C5  DEN d   1      -0.803  -0.552  -0.930  0.00  0.00    -0.003 A 
ATOM      6  C6  DEN d   1      -0.674   0.612  -0.221  0.00  0.00     0.001 A 
ATOM      7  C7  DEN d   1       0.452   0.830   0.528  0.00  0.00     0.017 A 
ATOM      8  C8  DEN d   1       1.412  -0.172   0.584  0.00  0.00    -0.094 A 
ATOM      9  C9  DEN d   1       1.269  -1.338  -0.150  0.00  0.00    -0.072 A 
ENDROOT
TORSDOF 0
ENDMDL
