MODEL 1
REMARK minimizedAffinity -2.99694419
REMARK minimizedRMSD -1
REMARK  0 active torsions:
REMARK  status: ('A' for Active; 'I' for Inactive)
ROOT
ATOM      1  C1  DEN d   1       0.259  -0.949  -0.890  0.00  0.00     0.130 A 
ATOM      2  C2  DEN d   1      -0.688   0.162  -0.925  0.00  0.00    -0.031 A 
ATOM      3  C3  DEN d   1      -0.017   1.352  -0.363  0.00  0.00     0.027 A 
ATOM      4  C4  DEN d   1       2.385   1.580   0.550  0.00  0.00     0.027 A 
ATOM      5  C5  DEN d   1       3.560   0.906   0.797  0.00  0.00    -0.003 A 
ATOM      6  C6  DEN d   1       3.705  -0.430   0.534  0.00  0.00     0.001 A 
ATOM      7  C7  DEN d   1       2.672  -1.126  -0.036  0.00  0.00     0.017 A 
ATOM      8  C8  DEN d   1       1.481  -0.455  -0.282  0.00  0.00    -0.094 A 
ATOM      9  C9  DEN d   1       1.358   0.899  -0.020  0.00  0.00    -0.072 A 
ENDROOT
TORSDOF 0
ENDMDL
