MODEL 1
REMARK minimizedAffinity -4.49116898
REMARK minimizedRMSD -1
REMARK  0 active torsions:
REMARK  status: ('A' for Active; 'I' for Inactive)
ROOT
ATOM      1  C1  DEN d   1      -0.169   0.967   0.250  0.00  0.00     0.130 A 
ATOM      2  C2  DEN d   1      -0.855   0.124  -0.726  0.00  0.00    -0.031 A 
ATOM      3  C3  DEN d   1       0.044  -0.993  -1.078  0.00  0.00     0.027 A 
ATOM      4  C4  DEN d   1       2.418  -1.500  -0.206  0.00  0.00     0.027 A 
ATOM      5  C5  DEN d   1       3.426  -1.063   0.625  0.00  0.00    -0.003 A 
ATOM      6  C6  DEN d   1       3.321   0.090   1.357  0.00  0.00     0.001 A 
ATOM      7  C7  DEN d   1       2.164   0.822   1.307  0.00  0.00     0.017 A 
ATOM      8  C8  DEN d   1       1.146   0.392   0.466  0.00  0.00    -0.094 A 
ATOM      9  C9  DEN d   1       1.267  -0.782  -0.257  0.00  0.00    -0.072 A 
ENDROOT
TORSDOF 0
ENDMDL
