MODEL 1
REMARK minimizedAffinity -3.36563659
REMARK minimizedRMSD -1
REMARK  0 active torsions:
REMARK  status: ('A' for Active; 'I' for Inactive)
ROOT
ATOM      1  C1  DEN d   1       0.325   1.149   1.027  0.00  0.00     0.130 A 
ATOM      2  C2  DEN d   1      -1.034   1.477   0.603  0.00  0.00    -0.031 A 
ATOM      3  C3  DEN d   1      -1.480   0.435  -0.343  0.00  0.00     0.027 A 
ATOM      4  C4  DEN d   1      -0.209  -1.646  -1.184  0.00  0.00     0.027 A 
ATOM      5  C5  DEN d   1       0.978  -2.340  -1.114  0.00  0.00    -0.003 A 
ATOM      6  C6  DEN d   1       2.034  -1.906  -0.358  0.00  0.00     0.001 A 
ATOM      7  C7  DEN d   1       1.908  -0.768   0.395  0.00  0.00     0.017 A 
ATOM      8  C8  DEN d   1       0.717  -0.058   0.323  0.00  0.00    -0.094 A 
ATOM      9  C9  DEN d   1      -0.344  -0.520  -0.438  0.00  0.00    -0.072 A 
ENDROOT
TORSDOF 0
ENDMDL
