MODEL 1
REMARK minimizedAffinity 9.60019684
REMARK minimizedRMSD -1
REMARK  0 active torsions:
REMARK  status: ('A' for Active; 'I' for Inactive)
ROOT
ATOM      1  C1  DEN d   1      -2.151  -1.866   3.952  0.00  0.00     0.130 A 
ATOM      2  C2  DEN d   1      -3.595  -1.697   3.816  0.00  0.00    -0.031 A 
ATOM      3  C3  DEN d   1      -3.839  -0.659   2.795  0.00  0.00     0.027 A 
ATOM      4  C4  DEN d   1      -2.131   0.695   1.416  0.00  0.00     0.027 A 
ATOM      5  C5  DEN d   1      -0.790   0.911   1.190  0.00  0.00    -0.003 A 
ATOM      6  C6  DEN d   1       0.184   0.247   1.887  0.00  0.00     0.001 A 
ATOM      7  C7  DEN d   1      -0.169  -0.700   2.813  0.00  0.00     0.017 A 
ATOM      8  C8  DEN d   1      -1.520  -0.917   3.051  0.00  0.00    -0.094 A 
ATOM      9  C9  DEN d   1      -2.489  -0.244   2.328  0.00  0.00    -0.072 A 
ENDROOT
TORSDOF 0
ENDMDL
