MODEL 1
REMARK minimizedAffinity 3.22959161
REMARK minimizedRMSD -1
REMARK  0 active torsions:
REMARK  status: ('A' for Active; 'I' for Inactive)
ROOT
ATOM      1  C1  DEN d   1       4.109   3.029   3.618  0.00  0.00     0.130 A 
ATOM      2  C2  DEN d   1       3.091   2.380   2.796  0.00  0.00    -0.031 A 
ATOM      3  C3  DEN d   1       3.037   3.081   1.497  0.00  0.00     0.027 A 
ATOM      4  C4  DEN d   1       4.429   5.093   0.681  0.00  0.00     0.027 A 
ATOM      5  C5  DEN d   1       5.410   5.995   1.030  0.00  0.00    -0.003 A 
ATOM      6  C6  DEN d   1       5.998   5.993   2.267  0.00  0.00     0.001 A 
ATOM      7  C7  DEN d   1       5.641   5.041   3.186  0.00  0.00     0.017 A 
ATOM      8  C8  DEN d   1       4.647   4.134   2.844  0.00  0.00    -0.094 A 
ATOM      9  C9  DEN d   1       4.074   4.145   1.584  0.00  0.00    -0.072 A 
ENDROOT
TORSDOF 0
ENDMDL
