MODEL 1
REMARK minimizedAffinity 0.57319963
REMARK minimizedRMSD -1
REMARK  0 active torsions:
REMARK  status: ('A' for Active; 'I' for Inactive)
ROOT
ATOM      1  C1  DEN d   1       0.866  -0.731   0.661  0.00  0.00     0.130 A 
ATOM      2  C2  DEN d   1      -0.114  -0.355  -0.354  0.00  0.00    -0.031 A 
ATOM      3  C3  DEN d   1      -1.403  -0.112   0.324  0.00  0.00     0.027 A 
ATOM      4  C4  DEN d   1      -1.972  -0.275   2.835  0.00  0.00     0.027 A 
ATOM      5  C5  DEN d   1      -1.469  -0.569   4.083  0.00  0.00    -0.003 A 
ATOM      6  C6  DEN d   1      -0.172  -0.968   4.272  0.00  0.00     0.001 A 
ATOM      7  C7  DEN d   1       0.679  -1.040   3.201  0.00  0.00     0.017 A 
ATOM      8  C8  DEN d   1       0.177  -0.751   1.939  0.00  0.00    -0.094 A 
ATOM      9  C9  DEN d   1      -1.133  -0.338   1.770  0.00  0.00    -0.072 A 
ENDROOT
TORSDOF 0
ENDMDL
