MODEL 1
REMARK minimizedAffinity 5.57618523
REMARK minimizedRMSD -1
REMARK  0 active torsions:
REMARK  status: ('A' for Active; 'I' for Inactive)
ROOT
ATOM      1  C1  DEN d   1       0.693  -1.410   3.753  0.00  0.00     0.130 A 
ATOM      2  C2  DEN d   1      -0.026  -1.478   5.022  0.00  0.00    -0.031 A 
ATOM      3  C3  DEN d   1      -1.369  -0.899   4.818  0.00  0.00     0.027 A 
ATOM      4  C4  DEN d   1      -2.402   0.085   2.669  0.00  0.00     0.027 A 
ATOM      5  C5  DEN d   1      -2.170   0.371   1.341  0.00  0.00    -0.003 A 
ATOM      6  C6  DEN d   1      -0.967   0.116   0.738  0.00  0.00     0.001 A 
ATOM      7  C7  DEN d   1       0.037  -0.483   1.453  0.00  0.00     0.017 A 
ATOM      8  C8  DEN d   1      -0.186  -0.767   2.793  0.00  0.00    -0.094 A 
ATOM      9  C9  DEN d   1      -1.414  -0.513   3.382  0.00  0.00    -0.072 A 
ENDROOT
TORSDOF 0
ENDMDL
