MODEL 1
REMARK minimizedAffinity 3.86960649
REMARK minimizedRMSD -1
REMARK  0 active torsions:
REMARK  status: ('A' for Active; 'I' for Inactive)
ROOT
ATOM      1  C1  DEN d   1       0.572   0.163  -0.187  0.00  0.00     0.130 A 
ATOM      2  C2  DEN d   1      -0.469   0.647  -1.089  0.00  0.00    -0.031 A 
ATOM      3  C3  DEN d   1      -1.775   0.441  -0.432  0.00  0.00     0.027 A 
ATOM      4  C4  DEN d   1      -2.284  -0.571   1.885  0.00  0.00     0.027 A 
ATOM      5  C5  DEN d   1      -1.725  -1.134   3.011  0.00  0.00    -0.003 A 
ATOM      6  C6  DEN d   1      -0.376  -1.334   3.135  0.00  0.00     0.001 A 
ATOM      7  C7  DEN d   1       0.466  -0.926   2.134  0.00  0.00     0.017 A 
ATOM      8  C8  DEN d   1      -0.091  -0.364   0.992  0.00  0.00    -0.094 A 
ATOM      9  C9  DEN d   1      -1.456  -0.159   0.891  0.00  0.00    -0.072 A 
ENDROOT
TORSDOF 0
ENDMDL
