MODEL 1
REMARK minimizedAffinity -0.687401772
REMARK minimizedRMSD -1
REMARK  0 active torsions:
REMARK  status: ('A' for Active; 'I' for Inactive)
ROOT
ATOM      1  C1  DEN d   1       3.023   6.000   2.163  0.00  0.00     0.130 A 
ATOM      2  C2  DEN d   1       2.174   4.927   1.652  0.00  0.00    -0.031 A 
ATOM      3  C3  DEN d   1       2.609   3.663   2.280  0.00  0.00     0.027 A 
ATOM      4  C4  DEN d   1       4.501   3.266   3.987  0.00  0.00     0.027 A 
ATOM      5  C5  DEN d   1       5.505   3.871   4.711  0.00  0.00    -0.003 A 
ATOM      6  C6  DEN d   1       5.772   5.211   4.612  0.00  0.00     0.001 A 
ATOM      7  C7  DEN d   1       4.996   5.999   3.803  0.00  0.00     0.017 A 
ATOM      8  C8  DEN d   1       3.987   5.395   3.065  0.00  0.00    -0.094 A 
ATOM      9  C9  DEN d   1       3.725   4.041   3.188  0.00  0.00    -0.072 A 
ENDROOT
TORSDOF 0
ENDMDL
