MODEL 1
REMARK minimizedAffinity -0.028382428
REMARK minimizedRMSD -1
REMARK  1 active torsions:
REMARK  status: ('A' for Active; 'I' for Inactive)
REMARK    1  A    between atoms: C1_2  and  C2_3 
ROOT
ATOM      1  C2  UNL d   1      -1.289  -0.120   0.430  0.00  0.00    -0.077 A 
ATOM      2  C3  UNL d   1      -1.763  -0.878  -0.651  0.00  0.00     0.002 A 
ATOM      3  C4  UNL d   1      -3.129  -0.928  -0.933  0.00  0.00     0.002 A 
ATOM      4  C5  UNL d   1      -4.032  -0.219  -0.143  0.00  0.00    -0.004 A 
ATOM      5  C6  UNL d   1      -3.571   0.535   0.935  0.00  0.00     0.002 A 
ATOM      6  C7  UNL d   1      -2.205   0.585   1.220  0.00  0.00     0.002 A 
ENDROOT
BRANCH   1   7
ATOM      7  C1  UNL d   1       0.189  -0.026   0.706  0.00  0.00     0.055 C 
ATOM      8  C   UNL d   1       0.688  -1.243   1.470  0.00  0.00     0.019 C 
ENDBRANCH   1   7
TORSDOF 1
ENDMDL
