MODEL 1
REMARK minimizedAffinity -4.26884127
REMARK minimizedRMSD -1
REMARK  1 active torsions:
REMARK  status: ('A' for Active; 'I' for Inactive)
REMARK    1  A    between atoms: C1_2  and  C2_3 
ROOT
ATOM      1  C2  UNL d   1      -0.089  -0.856   0.415  0.00  0.00    -0.077 A 
ATOM      2  C3  UNL d   1      -0.951  -1.520  -0.468  0.00  0.00     0.002 A 
ATOM      3  C4  UNL d   1      -2.082  -0.874  -0.971  0.00  0.00     0.002 A 
ATOM      4  C5  UNL d   1      -2.359   0.440  -0.600  0.00  0.00    -0.004 A 
ATOM      5  C6  UNL d   1      -1.509   1.109   0.280  0.00  0.00     0.002 A 
ATOM      6  C7  UNL d   1      -0.379   0.464   0.784  0.00  0.00     0.002 A 
ENDROOT
BRANCH   1   7
ATOM      7  C1  UNL d   1       1.158  -1.534   0.920  0.00  0.00     0.055 C 
ATOM      8  C   UNL d   1       1.000  -3.047   0.928  0.00  0.00     0.019 C 
ENDBRANCH   1   7
TORSDOF 1
ENDMDL
