MODEL 1
REMARK minimizedAffinity 7.00391722
REMARK minimizedRMSD -1
REMARK  1 active torsions:
REMARK  status: ('A' for Active; 'I' for Inactive)
REMARK    1  A    between atoms: C1_2  and  C2_3 
ROOT
ATOM      1  C2  UNL d   1      -1.629  -1.955   0.987  0.00  0.00    -0.077 A 
ATOM      2  C3  UNL d   1      -1.433  -0.704   1.589  0.00  0.00     0.002 A 
ATOM      3  C4  UNL d   1      -0.183  -0.357   2.105  0.00  0.00     0.002 A 
ATOM      4  C5  UNL d   1       0.881  -1.253   2.021  0.00  0.00    -0.004 A 
ATOM      5  C6  UNL d   1       0.695  -2.500   1.426  0.00  0.00     0.002 A 
ATOM      6  C7  UNL d   1      -0.554  -2.850   0.911  0.00  0.00     0.002 A 
ENDROOT
BRANCH   1   7
ATOM      7  C1  UNL d   1      -2.963  -2.312   0.386  0.00  0.00     0.055 C 
ATOM      8  C   UNL d   1      -2.796  -3.015  -0.953  0.00  0.00     0.019 C 
ENDBRANCH   1   7
TORSDOF 1
ENDMDL
