MODEL 1
REMARK minimizedAffinity 4.62843418
REMARK minimizedRMSD -1
REMARK  1 active torsions:
REMARK  status: ('A' for Active; 'I' for Inactive)
REMARK    1  A    between atoms: C1_2  and  C2_3 
ROOT
ATOM      1  C2  UNL d   1      -0.940   3.984  -4.164  0.00  0.00    -0.077 A 
ATOM      2  C3  UNL d   1       0.087   4.661  -3.492  0.00  0.00     0.002 A 
ATOM      3  C4  UNL d   1       0.341   4.399  -2.144  0.00  0.00     0.002 A 
ATOM      4  C5  UNL d   1      -0.424   3.457  -1.459  0.00  0.00    -0.004 A 
ATOM      5  C6  UNL d   1      -1.449   2.780  -2.119  0.00  0.00     0.002 A 
ATOM      6  C7  UNL d   1      -1.705   3.041  -3.466  0.00  0.00     0.002 A 
ENDROOT
BRANCH   1   7
ATOM      7  C1  UNL d   1      -1.183   4.229  -5.631  0.00  0.00     0.055 C 
ATOM      8  C   UNL d   1      -2.627   4.631  -5.892  0.00  0.00     0.019 C 
ENDBRANCH   1   7
TORSDOF 1
ENDMDL
