MODEL 1
REMARK minimizedAffinity 1.16568494
REMARK minimizedRMSD -1
REMARK  1 active torsions:
REMARK  status: ('A' for Active; 'I' for Inactive)
REMARK    1  A    between atoms: C1_2  and  C2_3 
ROOT
ATOM      1  C2  UNL d   1       1.297   1.042  -0.240  0.00  0.00    -0.077 A 
ATOM      2  C3  UNL d   1       2.520   1.431  -0.805  0.00  0.00     0.002 A 
ATOM      3  C4  UNL d   1       2.663   2.699  -1.374  0.00  0.00     0.002 A 
ATOM      4  C5  UNL d   1       1.590   3.587  -1.378  0.00  0.00    -0.004 A 
ATOM      5  C6  UNL d   1       0.370   3.209  -0.820  0.00  0.00     0.002 A 
ATOM      6  C7  UNL d   1       0.224   1.942  -0.253  0.00  0.00     0.002 A 
ENDROOT
BRANCH   1   7
ATOM      7  C1  UNL d   1       1.155  -0.306   0.418  0.00  0.00     0.055 C 
ATOM      8  C   UNL d   1      -0.058  -0.349   1.335  0.00  0.00     0.019 C 
ENDBRANCH   1   7
TORSDOF 1
ENDMDL
