MODEL 1
REMARK minimizedAffinity 9.07314968
REMARK minimizedRMSD -1
REMARK  1 active torsions:
REMARK  status: ('A' for Active; 'I' for Inactive)
REMARK    1  A    between atoms: C1_2  and  C2_3 
ROOT
ATOM      1  C2  UNL d   1       3.132   1.781  -0.247  0.00  0.00    -0.077 A 
ATOM      2  C3  UNL d   1       2.044   0.917  -0.435  0.00  0.00     0.002 A 
ATOM      3  C4  UNL d   1       1.942  -0.262   0.306  0.00  0.00     0.002 A 
ATOM      4  C5  UNL d   1       2.922  -0.585   1.242  0.00  0.00    -0.004 A 
ATOM      5  C6  UNL d   1       4.009   0.267   1.435  0.00  0.00     0.002 A 
ATOM      6  C7  UNL d   1       4.113   1.445   0.695  0.00  0.00     0.002 A 
ENDROOT
BRANCH   1   7
ATOM      7  C1  UNL d   1       3.218   3.078  -1.009  0.00  0.00     0.055 C 
ATOM      8  C   UNL d   1       2.383   4.165  -0.349  0.00  0.00     0.019 C 
ENDBRANCH   1   7
TORSDOF 1
ENDMDL
