MODEL 1
REMARK minimizedAffinity 1.84045994
REMARK minimizedRMSD -1
REMARK  1 active torsions:
REMARK  status: ('A' for Active; 'I' for Inactive)
REMARK    1  A    between atoms: C1_2  and  C2_3 
ROOT
ATOM      1  C2  UNL d   1      -2.262  -5.062  -1.545  0.00  0.00    -0.077 A 
ATOM      2  C3  UNL d   1      -3.251  -5.998  -1.212  0.00  0.00     0.002 A 
ATOM      3  C4  UNL d   1      -4.479  -5.994  -1.876  0.00  0.00     0.002 A 
ATOM      4  C5  UNL d   1      -4.728  -5.060  -2.879  0.00  0.00    -0.004 A 
ATOM      5  C6  UNL d   1      -3.751  -4.124  -3.216  0.00  0.00     0.002 A 
ATOM      6  C7  UNL d   1      -2.524  -4.125  -2.553  0.00  0.00     0.002 A 
ENDROOT
BRANCH   1   7
ATOM      7  C1  UNL d   1      -0.918  -5.096  -0.865  0.00  0.00     0.055 C 
ATOM      8  C   UNL d   1      -0.867  -4.125   0.307  0.00  0.00     0.019 C 
ENDBRANCH   1   7
TORSDOF 1
ENDMDL
