MODEL 1
REMARK minimizedAffinity 12.2252378
REMARK minimizedRMSD -1
REMARK  1 active torsions:
REMARK  status: ('A' for Active; 'I' for Inactive)
REMARK    1  A    between atoms: C1_2  and  C2_3 
ROOT
ATOM      1  C2  UNL d   1       0.937  -1.117  -0.590  0.00  0.00    -0.077 A 
ATOM      2  C3  UNL d   1       0.559  -0.503  -1.792  0.00  0.00     0.002 A 
ATOM      3  C4  UNL d   1       0.471  -1.249  -2.969  0.00  0.00     0.002 A 
ATOM      4  C5  UNL d   1       0.755  -2.613  -2.954  0.00  0.00    -0.004 A 
ATOM      5  C6  UNL d   1       1.134  -3.232  -1.764  0.00  0.00     0.002 A 
ATOM      6  C7  UNL d   1       1.224  -2.488  -0.587  0.00  0.00     0.002 A 
ENDROOT
BRANCH   1   7
ATOM      7  C1  UNL d   1       0.985  -0.324   0.690  0.00  0.00     0.055 C 
ATOM      8  C   UNL d   1      -0.351  -0.367   1.418  0.00  0.00     0.019 C 
ENDBRANCH   1   7
TORSDOF 1
ENDMDL
