MODEL 1
REMARK minimizedAffinity 3.5419755
REMARK minimizedRMSD -1
REMARK  1 active torsions:
REMARK  status: ('A' for Active; 'I' for Inactive)
REMARK    1  A    between atoms: C1_2  and  C2_3 
ROOT
ATOM      1  C2  UNL d   1      -1.200  -2.934   0.468  0.00  0.00    -0.077 A 
ATOM      2  C3  UNL d   1      -2.554  -2.579   0.392  0.00  0.00     0.002 A 
ATOM      3  C4  UNL d   1      -3.394  -3.195  -0.539  0.00  0.00     0.002 A 
ATOM      4  C5  UNL d   1      -2.891  -4.171  -1.396  0.00  0.00    -0.004 A 
ATOM      5  C6  UNL d   1      -1.545  -4.529  -1.329  0.00  0.00     0.002 A 
ATOM      6  C7  UNL d   1      -0.703  -3.914  -0.401  0.00  0.00     0.002 A 
ENDROOT
BRANCH   1   7
ATOM      7  C1  UNL d   1      -0.303  -2.307   1.503  0.00  0.00     0.055 C 
ATOM      8  C   UNL d   1      -0.631  -0.834   1.700  0.00  0.00     0.019 C 
ENDBRANCH   1   7
TORSDOF 1
ENDMDL
