MODEL 1
REMARK minimizedAffinity 9.47379208
REMARK minimizedRMSD -1
REMARK  1 active torsions:
REMARK  status: ('A' for Active; 'I' for Inactive)
REMARK    1  A    between atoms: C1_2  and  C2_3 
ROOT
ATOM      1  C2  UNL d   1       1.196  -0.757   0.884  0.00  0.00    -0.077 A 
ATOM      2  C3  UNL d   1       0.307  -0.529   1.944  0.00  0.00     0.002 A 
ATOM      3  C4  UNL d   1      -0.548  -1.544   2.380  0.00  0.00     0.002 A 
ATOM      4  C5  UNL d   1      -0.518  -2.794   1.766  0.00  0.00    -0.004 A 
ATOM      5  C6  UNL d   1       0.362  -3.030   0.710  0.00  0.00     0.002 A 
ATOM      6  C7  UNL d   1       1.215  -2.016   0.272  0.00  0.00     0.002 A 
ENDROOT
BRANCH   1   7
ATOM      7  C1  UNL d   1       2.152   0.321   0.445  0.00  0.00     0.055 C 
ATOM      8  C   UNL d   1       1.438   1.404  -0.351  0.00  0.00     0.019 C 
ENDBRANCH   1   7
TORSDOF 1
ENDMDL
