MODEL 1
REMARK minimizedAffinity 7.60456514
REMARK minimizedRMSD -1
REMARK  1 active torsions:
REMARK  status: ('A' for Active; 'I' for Inactive)
REMARK    1  A    between atoms: C1_2  and  C2_3 
ROOT
ATOM      1  C2  UNL d   1      -1.521  -5.288  -2.873  0.00  0.00    -0.077 A 
ATOM      2  C3  UNL d   1      -1.414  -3.912  -2.625  0.00  0.00     0.002 A 
ATOM      3  C4  UNL d   1      -2.360  -3.262  -1.830  0.00  0.00     0.002 A 
ATOM      4  C5  UNL d   1      -3.417  -3.980  -1.275  0.00  0.00    -0.004 A 
ATOM      5  C6  UNL d   1      -3.534  -5.348  -1.518  0.00  0.00     0.002 A 
ATOM      6  C7  UNL d   1      -2.590  -5.999  -2.313  0.00  0.00     0.002 A 
ENDROOT
BRANCH   1   7
ATOM      7  C1  UNL d   1      -0.474  -6.000  -3.690  0.00  0.00     0.055 C 
ATOM      8  C   UNL d   1       0.873  -6.000  -2.983  0.00  0.00     0.019 C 
ENDBRANCH   1   7
TORSDOF 1
ENDMDL
