MODEL 1
REMARK minimizedAffinity 0.35382539
REMARK minimizedRMSD -1
REMARK  1 active torsions:
REMARK  status: ('A' for Active; 'I' for Inactive)
REMARK    1  A    between atoms: C1_2  and  C2_3 
ROOT
ATOM      1  C2  UNL d   1       2.504  -1.271   0.581  0.00  0.00    -0.077 A 
ATOM      2  C3  UNL d   1       1.354  -0.507   0.824  0.00  0.00     0.002 A 
ATOM      3  C4  UNL d   1       0.088  -1.088   0.733  0.00  0.00     0.002 A 
ATOM      4  C5  UNL d   1      -0.041  -2.435   0.405  0.00  0.00    -0.004 A 
ATOM      5  C6  UNL d   1       1.097  -3.204   0.159  0.00  0.00     0.002 A 
ATOM      6  C7  UNL d   1       2.363  -2.625   0.248  0.00  0.00     0.002 A 
ENDROOT
BRANCH   1   7
ATOM      7  C1  UNL d   1       3.873  -0.659   0.726  0.00  0.00     0.055 C 
ATOM      8  C   UNL d   1       4.048  -0.014   2.093  0.00  0.00     0.019 C 
ENDBRANCH   1   7
TORSDOF 1
ENDMDL
