MODEL 1
REMARK minimizedAffinity 9.04646206
REMARK minimizedRMSD -1
REMARK  1 active torsions:
REMARK  status: ('A' for Active; 'I' for Inactive)
REMARK    1  A    between atoms: C1_2  and  C2_3 
ROOT
ATOM      1  C2  UNL d   1      -0.762  -2.029   3.074  0.00  0.00    -0.077 A 
ATOM      2  C3  UNL d   1      -0.563  -1.147   4.145  0.00  0.00     0.002 A 
ATOM      3  C4  UNL d   1      -0.896  -1.529   5.446  0.00  0.00     0.002 A 
ATOM      4  C5  UNL d   1      -1.426  -2.794   5.688  0.00  0.00    -0.004 A 
ATOM      5  C6  UNL d   1      -1.630  -3.678   4.629  0.00  0.00     0.002 A 
ATOM      6  C7  UNL d   1      -1.298  -3.298   3.328  0.00  0.00     0.002 A 
ENDROOT
BRANCH   1   7
ATOM      7  C1  UNL d   1      -0.357  -1.637   1.676  0.00  0.00     0.055 C 
ATOM      8  C   UNL d   1       0.121  -0.194   1.623  0.00  0.00     0.019 C 
ENDBRANCH   1   7
TORSDOF 1
ENDMDL
