MODEL 1
REMARK minimizedAffinity -2.0375886
REMARK minimizedRMSD -1
REMARK  1 active torsions:
REMARK  status: ('A' for Active; 'I' for Inactive)
REMARK    1  A    between atoms: C1_2  and  C2_3 
ROOT
ATOM      1  C2  UNL d   1      -4.695  -5.626   0.230  0.00  0.00    -0.077 A 
ATOM      2  C3  UNL d   1      -3.538  -4.907  -0.099  0.00  0.00     0.002 A 
ATOM      3  C4  UNL d   1      -3.298  -4.521  -1.420  0.00  0.00     0.002 A 
ATOM      4  C5  UNL d   1      -4.214  -4.845  -2.419  0.00  0.00    -0.004 A 
ATOM      5  C6  UNL d   1      -5.367  -5.561  -2.101  0.00  0.00     0.002 A 
ATOM      6  C7  UNL d   1      -5.607  -5.949  -0.782  0.00  0.00     0.002 A 
ENDROOT
BRANCH   1   7
ATOM      7  C1  UNL d   1      -4.980  -6.000   1.662  0.00  0.00     0.055 C 
ATOM      8  C   UNL d   1      -4.505  -4.919   2.621  0.00  0.00     0.019 C 
ENDBRANCH   1   7
TORSDOF 1
ENDMDL
