MODEL 1
REMARK minimizedAffinity -5.68495798
REMARK minimizedRMSD -1
REMARK  0 active torsions:
REMARK  status: ('A' for Active; 'I' for Inactive)
ROOT
ATOM      1  C   UNL d   1       1.140   0.418   0.667  0.00  0.00     0.078 C 
ATOM      2  C1  UNL d   1      -0.128  -0.381   0.614  0.00  0.00    -0.077 A 
ATOM      3  C2  UNL d   1      -1.068  -0.175  -0.404  0.00  0.00    -0.001 A 
ATOM      4  C3  UNL d   1      -2.249  -0.919  -0.435  0.00  0.00     0.003 A 
ATOM      5  C4  UNL d   1      -2.501  -1.874   0.548  0.00  0.00    -0.005 A 
ATOM      6  C5  UNL d   1      -1.572  -2.084   1.566  0.00  0.00     0.003 A 
ATOM      7  C6  UNL d   1      -0.391  -1.341   1.599  0.00  0.00    -0.001 A 
ENDROOT
TORSDOF 0
ENDMDL
