MODEL 1
REMARK minimizedAffinity -3.83483267
REMARK minimizedRMSD -1
REMARK  0 active torsions:
REMARK  status: ('A' for Active; 'I' for Inactive)
ROOT
ATOM      1  C   UNL d   1       2.661   3.035   1.399  0.00  0.00     0.078 C 
ATOM      2  C1  UNL d   1       1.885   1.752   1.403  0.00  0.00    -0.077 A 
ATOM      3  C2  UNL d   1       1.382   1.217   2.595  0.00  0.00    -0.001 A 
ATOM      4  C3  UNL d   1       0.669   0.017   2.585  0.00  0.00     0.003 A 
ATOM      5  C4  UNL d   1       0.453  -0.658   1.386  0.00  0.00    -0.005 A 
ATOM      6  C5  UNL d   1       0.952  -0.135   0.194  0.00  0.00     0.003 A 
ATOM      7  C6  UNL d   1       1.665   1.065   0.202  0.00  0.00    -0.001 A 
ENDROOT
TORSDOF 0
ENDMDL
