MODEL 1
REMARK minimizedAffinity -4.30795527
REMARK minimizedRMSD -1
REMARK  0 active torsions:
REMARK  status: ('A' for Active; 'I' for Inactive)
ROOT
ATOM      1  C   UNL d   1       2.215   2.736   1.535  0.00  0.00     0.078 C 
ATOM      2  C1  UNL d   1       1.811   1.296   1.423  0.00  0.00    -0.077 A 
ATOM      3  C2  UNL d   1       2.351   0.471   0.428  0.00  0.00    -0.001 A 
ATOM      4  C3  UNL d   1       1.958  -0.864   0.329  0.00  0.00     0.003 A 
ATOM      5  C4  UNL d   1       1.023  -1.387   1.221  0.00  0.00    -0.005 A 
ATOM      6  C5  UNL d   1       0.479  -0.573   2.212  0.00  0.00     0.003 A 
ATOM      7  C6  UNL d   1       0.870   0.763   2.313  0.00  0.00    -0.001 A 
ENDROOT
TORSDOF 0
ENDMDL
