MODEL 1
REMARK minimizedAffinity -3.74478483
REMARK minimizedRMSD -1
REMARK  0 active torsions:
REMARK  status: ('A' for Active; 'I' for Inactive)
ROOT
ATOM      1  C   UNL d   1       0.334  -1.926   1.572  0.00  0.00     0.078 C 
ATOM      2  C1  UNL d   1      -0.040  -1.099   0.379  0.00  0.00    -0.077 A 
ATOM      3  C2  UNL d   1       0.779  -0.050  -0.058  0.00  0.00    -0.001 A 
ATOM      4  C3  UNL d   1       0.414   0.718  -1.164  0.00  0.00     0.003 A 
ATOM      5  C4  UNL d   1      -0.773   0.446  -1.843  0.00  0.00    -0.005 A 
ATOM      6  C5  UNL d   1      -1.595  -0.593  -1.415  0.00  0.00     0.003 A 
ATOM      7  C6  UNL d   1      -1.231  -1.363  -0.309  0.00  0.00    -0.001 A 
ENDROOT
TORSDOF 0
ENDMDL
