MODEL 1
REMARK minimizedAffinity -5.84120607
REMARK minimizedRMSD -1
REMARK  0 active torsions:
REMARK  status: ('A' for Active; 'I' for Inactive)
ROOT
ATOM      1  C   UNL d   1       0.320  -0.005   1.545  0.00  0.00     0.078 C 
ATOM      2  C1  UNL d   1      -0.816  -0.851   1.055  0.00  0.00    -0.077 A 
ATOM      3  C2  UNL d   1      -1.073  -2.108   1.615  0.00  0.00    -0.001 A 
ATOM      4  C3  UNL d   1      -2.128  -2.890   1.142  0.00  0.00     0.003 A 
ATOM      5  C4  UNL d   1      -2.935  -2.423   0.106  0.00  0.00    -0.005 A 
ATOM      6  C5  UNL d   1      -2.685  -1.174  -0.459  0.00  0.00     0.003 A 
ATOM      7  C6  UNL d   1      -1.630  -0.392   0.012  0.00  0.00    -0.001 A 
ENDROOT
TORSDOF 0
ENDMDL
