MODEL 1
REMARK minimizedAffinity -4.10110235
REMARK minimizedRMSD -1
REMARK  0 active torsions:
REMARK  status: ('A' for Active; 'I' for Inactive)
ROOT
ATOM      1  C   UNL d   1       2.172   2.720   1.668  0.00  0.00     0.078 C 
ATOM      2  C1  UNL d   1       1.284   1.571   1.292  0.00  0.00    -0.077 A 
ATOM      3  C2  UNL d   1      -0.099   1.744   1.154  0.00  0.00    -0.001 A 
ATOM      4  C3  UNL d   1      -0.915   0.664   0.813  0.00  0.00     0.003 A 
ATOM      5  C4  UNL d   1      -0.358  -0.596   0.608  0.00  0.00    -0.005 A 
ATOM      6  C5  UNL d   1       1.017  -0.778   0.745  0.00  0.00     0.003 A 
ATOM      7  C6  UNL d   1       1.834   0.300   1.086  0.00  0.00    -0.001 A 
ENDROOT
TORSDOF 0
ENDMDL
