MODEL 1
REMARK minimizedAffinity -5.31106281
REMARK minimizedRMSD -1
REMARK  0 active torsions:
REMARK  status: ('A' for Active; 'I' for Inactive)
ROOT
ATOM      1  C   UNL d   1      -3.119  -1.324  -0.097  0.00  0.00     0.078 C 
ATOM      2  C1  UNL d   1      -1.785  -0.645   0.001  0.00  0.00    -0.077 A 
ATOM      3  C2  UNL d   1      -1.316   0.174  -1.033  0.00  0.00    -0.001 A 
ATOM      4  C3  UNL d   1      -0.068   0.793  -0.933  0.00  0.00     0.003 A 
ATOM      5  C4  UNL d   1       0.720   0.597   0.199  0.00  0.00    -0.005 A 
ATOM      6  C5  UNL d   1       0.263  -0.218   1.232  0.00  0.00     0.003 A 
ATOM      7  C6  UNL d   1      -0.985  -0.837   1.133  0.00  0.00    -0.001 A 
ENDROOT
TORSDOF 0
ENDMDL
