MODEL 1
REMARK minimizedAffinity -4.91582918
REMARK minimizedRMSD -1
REMARK  0 active torsions:
REMARK  status: ('A' for Active; 'I' for Inactive)
ROOT
ATOM      1  C   UNL d   1      -3.061  -0.535   0.901  0.00  0.00     0.078 C 
ATOM      2  C1  UNL d   1      -1.618  -0.296   0.573  0.00  0.00    -0.077 A 
ATOM      3  C2  UNL d   1      -1.231   0.159  -0.694  0.00  0.00    -0.001 A 
ATOM      4  C3  UNL d   1       0.117   0.368  -0.988  0.00  0.00     0.003 A 
ATOM      5  C4  UNL d   1       1.090   0.124  -0.021  0.00  0.00    -0.005 A 
ATOM      6  C5  UNL d   1       0.715  -0.330   1.242  0.00  0.00     0.003 A 
ATOM      7  C6  UNL d   1      -0.632  -0.540   1.538  0.00  0.00    -0.001 A 
ENDROOT
TORSDOF 0
ENDMDL
