MODEL 1
REMARK minimizedAffinity -4.42801523
REMARK minimizedRMSD -1
REMARK  0 active torsions:
REMARK  status: ('A' for Active; 'I' for Inactive)
ROOT
ATOM      1  C   UNL d   1      -2.698  -0.765  -0.747  0.00  0.00     0.078 C 
ATOM      2  C1  UNL d   1      -1.258  -0.370  -0.610  0.00  0.00    -0.077 A 
ATOM      3  C2  UNL d   1      -0.624   0.397  -1.594  0.00  0.00    -0.001 A 
ATOM      4  C3  UNL d   1       0.720   0.749  -1.457  0.00  0.00     0.003 A 
ATOM      5  C4  UNL d   1       1.441   0.338  -0.338  0.00  0.00    -0.005 A 
ATOM      6  C5  UNL d   1       0.818  -0.428   0.646  0.00  0.00     0.003 A 
ATOM      7  C6  UNL d   1      -0.525  -0.781   0.511  0.00  0.00    -0.001 A 
ENDROOT
TORSDOF 0
ENDMDL
