MODEL 1
REMARK minimizedAffinity -5.69973516
REMARK minimizedRMSD -1
REMARK  0 active torsions:
REMARK  status: ('A' for Active; 'I' for Inactive)
ROOT
ATOM      1  C   UNL d   1       0.923   0.836   0.268  0.00  0.00     0.078 C 
ATOM      2  C1  UNL d   1      -0.143  -0.217   0.316  0.00  0.00    -0.077 A 
ATOM      3  C2  UNL d   1      -0.056  -1.291   1.210  0.00  0.00    -0.001 A 
ATOM      4  C3  UNL d   1      -1.051  -2.270   1.237  0.00  0.00     0.003 A 
ATOM      5  C4  UNL d   1      -2.139  -2.185   0.371  0.00  0.00    -0.005 A 
ATOM      6  C5  UNL d   1      -2.233  -1.121  -0.524  0.00  0.00     0.003 A 
ATOM      7  C6  UNL d   1      -1.239  -0.141  -0.552  0.00  0.00    -0.001 A 
ENDROOT
TORSDOF 0
ENDMDL
