MODEL 1
REMARK minimizedAffinity -3.98732615
REMARK minimizedRMSD -1
REMARK  0 active torsions:
REMARK  status: ('A' for Active; 'I' for Inactive)
ROOT
ATOM      1  C   UNL d   1       0.483  -1.165   1.579  0.00  0.00     0.078 C 
ATOM      2  C1  UNL d   1       1.253   0.084   1.268  0.00  0.00    -0.077 A 
ATOM      3  C2  UNL d   1       1.912   0.238   0.042  0.00  0.00    -0.001 A 
ATOM      4  C3  UNL d   1       2.632   1.402  -0.231  0.00  0.00     0.003 A 
ATOM      5  C4  UNL d   1       2.701   2.420   0.718  0.00  0.00    -0.005 A 
ATOM      6  C5  UNL d   1       2.051   2.275   1.941  0.00  0.00     0.003 A 
ATOM      7  C6  UNL d   1       1.330   1.112   2.216  0.00  0.00    -0.001 A 
ENDROOT
TORSDOF 0
ENDMDL
