MODEL 1
REMARK minimizedAffinity -3.0861299
REMARK minimizedRMSD -1
REMARK  0 active torsions:
REMARK  status: ('A' for Active; 'I' for Inactive)
ROOT
ATOM      1  C   UNL d   1      -0.372  -0.760   0.999  0.00  0.00     0.078 C 
ATOM      2  C1  UNL d   1       0.670   0.317   1.050  0.00  0.00    -0.077 A 
ATOM      3  C2  UNL d   1       1.659   0.411   0.064  0.00  0.00    -0.001 A 
ATOM      4  C3  UNL d   1       2.629   1.412   0.130  0.00  0.00     0.003 A 
ATOM      5  C4  UNL d   1       2.619   2.328   1.180  0.00  0.00    -0.005 A 
ATOM      6  C5  UNL d   1       1.640   2.241   2.168  0.00  0.00     0.003 A 
ATOM      7  C6  UNL d   1       0.670   1.240   2.104  0.00  0.00    -0.001 A 
ENDROOT
TORSDOF 0
ENDMDL
