MODEL 1
REMARK minimizedAffinity -5.15352821
REMARK minimizedRMSD -1
REMARK  0 active torsions:
REMARK  status: ('A' for Active; 'I' for Inactive)
ROOT
ATOM      1  C   UNL d   1      -1.919  -3.079   1.052  0.00  0.00     0.078 C 
ATOM      2  C1  UNL d   1      -1.026  -1.948   0.638  0.00  0.00    -0.077 A 
ATOM      3  C2  UNL d   1      -1.403  -1.069  -0.385  0.00  0.00    -0.001 A 
ATOM      4  C3  UNL d   1      -0.557  -0.026  -0.766  0.00  0.00     0.003 A 
ATOM      5  C4  UNL d   1       0.671   0.147  -0.131  0.00  0.00    -0.005 A 
ATOM      6  C5  UNL d   1       1.056  -0.725   0.886  0.00  0.00     0.003 A 
ATOM      7  C6  UNL d   1       0.211  -1.768   1.269  0.00  0.00    -0.001 A 
ENDROOT
TORSDOF 0
ENDMDL
