MODEL 1
REMARK minimizedAffinity -5.00293922
REMARK minimizedRMSD -1
REMARK  0 active torsions:
REMARK  status: ('A' for Active; 'I' for Inactive)
ROOT
ATOM      1  C   UNL d   1      -0.635   0.552  -2.058  0.00  0.00     0.078 C 
ATOM      2  C1  UNL d   1      -0.392   0.103  -0.648  0.00  0.00    -0.077 A 
ATOM      3  C2  UNL d   1       0.908  -0.084  -0.164  0.00  0.00    -0.001 A 
ATOM      4  C3  UNL d   1       1.119  -0.512   1.148  0.00  0.00     0.003 A 
ATOM      5  C4  UNL d   1       0.033  -0.757   1.986  0.00  0.00    -0.005 A 
ATOM      6  C5  UNL d   1      -1.265  -0.576   1.513  0.00  0.00     0.003 A 
ATOM      7  C6  UNL d   1      -1.477  -0.148   0.201  0.00  0.00    -0.001 A 
ENDROOT
TORSDOF 0
ENDMDL
