MODEL 1
REMARK minimizedAffinity 6.78222132
REMARK minimizedRMSD -1
REMARK  0 active torsions:
REMARK  status: ('A' for Active; 'I' for Inactive)
ROOT
ATOM      1  O1  BZF d   1       0.735  -1.257   1.961  0.00  0.00    -0.204 OA
ATOM      2  C2  BZF d   1       0.344  -0.743   0.739  0.00  0.00     0.174 A 
ATOM      3  C3  BZF d   1       0.811   0.511   0.577  0.00  0.00    -0.012 A 
ATOM      4  C3A BZF d   1       1.616   0.766   1.732  0.00  0.00    -0.107 A 
ATOM      5  C4  BZF d   1       2.360   1.835   2.141  0.00  0.00     0.055 A 
ATOM      6  C5  BZF d   1       2.968   1.792   3.356  0.00  0.00    -0.016 A 
ATOM      7  C6  BZF d   1       2.849   0.698   4.188  0.00  0.00     0.022 A 
ATOM      8  C7  BZF d   1       2.126  -0.389   3.824  0.00  0.00     0.029 A 
ATOM      9  C7A BZF d   1       1.537  -0.361   2.583  0.00  0.00     0.058 A 
ENDROOT
TORSDOF 0
ENDMDL
