MODEL 1
REMARK minimizedAffinity -3.60266852
REMARK minimizedRMSD -1
REMARK  0 active torsions:
REMARK  status: ('A' for Active; 'I' for Inactive)
ROOT
ATOM      1  O1  BZF d   1      -1.037   0.548  -3.519  0.00  0.00    -0.204 OA
ATOM      2  C2  BZF d   1      -2.385   0.258  -3.432  0.00  0.00     0.174 A 
ATOM      3  C3  BZF d   1      -2.726  -0.058  -2.166  0.00  0.00    -0.012 A 
ATOM      4  C3A BZF d   1      -1.534   0.131  -1.397  0.00  0.00    -0.107 A 
ATOM      5  C4  BZF d   1      -1.240  -0.008  -0.071  0.00  0.00     0.055 A 
ATOM      6  C5  BZF d   1       0.039   0.183   0.346  0.00  0.00    -0.016 A 
ATOM      7  C6  BZF d   1       1.049   0.508  -0.536  0.00  0.00     0.022 A 
ATOM      8  C7  BZF d   1       0.806   0.661  -1.860  0.00  0.00     0.029 A 
ATOM      9  C7A BZF d   1      -0.492   0.501  -2.280  0.00  0.00     0.058 A 
ENDROOT
TORSDOF 0
ENDMDL
