MODEL 1
REMARK minimizedAffinity -2.07974052
REMARK minimizedRMSD -1
REMARK  0 active torsions:
REMARK  status: ('A' for Active; 'I' for Inactive)
ROOT
ATOM      1  O1  BZF d   1       2.486   0.902   1.103  0.00  0.00    -0.204 OA
ATOM      2  C2  BZF d   1       3.394  -0.136   1.023  0.00  0.00     0.174 A 
ATOM      3  C3  BZF d   1       2.812  -1.242   0.515  0.00  0.00    -0.012 A 
ATOM      4  C3A BZF d   1       1.480  -0.845   0.176  0.00  0.00    -0.107 A 
ATOM      5  C4  BZF d   1       0.419  -1.498  -0.382  0.00  0.00     0.055 A 
ATOM      6  C5  BZF d   1      -0.765  -0.844  -0.512  0.00  0.00    -0.016 A 
ATOM      7  C6  BZF d   1      -0.925   0.459  -0.090  0.00  0.00     0.022 A 
ATOM      8  C7  BZF d   1       0.100   1.150   0.465  0.00  0.00     0.029 A 
ATOM      9  C7A BZF d   1       1.307   0.503   0.568  0.00  0.00     0.058 A 
ENDROOT
TORSDOF 0
ENDMDL
