MODEL 1
REMARK minimizedAffinity -0.113302939
REMARK minimizedRMSD -1
REMARK  0 active torsions:
REMARK  status: ('A' for Active; 'I' for Inactive)
ROOT
ATOM      1  O1  BZF d   1       1.007  -1.777   2.658  0.00  0.00    -0.204 OA
ATOM      2  C2  BZF d   1      -0.112  -2.478   2.250  0.00  0.00     0.174 A 
ATOM      3  C3  BZF d   1      -0.796  -1.785   1.317  0.00  0.00    -0.012 A 
ATOM      4  C3A BZF d   1      -0.009  -0.618   1.063  0.00  0.00    -0.107 A 
ATOM      5  C4  BZF d   1      -0.156   0.449   0.222  0.00  0.00     0.055 A 
ATOM      6  C5  BZF d   1       0.754   1.457   0.270  0.00  0.00    -0.016 A 
ATOM      7  C6  BZF d   1       1.818   1.434   1.148  0.00  0.00     0.022 A 
ATOM      8  C7  BZF d   1       2.008   0.395   1.997  0.00  0.00     0.029 A 
ATOM      9  C7A BZF d   1       1.109  -0.641   1.929  0.00  0.00     0.058 A 
ENDROOT
TORSDOF 0
ENDMDL
