MODEL 1
REMARK minimizedAffinity -2.55335402
REMARK minimizedRMSD -1
REMARK  0 active torsions:
REMARK  status: ('A' for Active; 'I' for Inactive)
ROOT
ATOM      1  O1  BZF d   1      -0.515  -0.845   1.402  0.00  0.00    -0.204 OA
ATOM      2  C2  BZF d   1      -1.660  -0.567   0.680  0.00  0.00     0.174 A 
ATOM      3  C3  BZF d   1      -1.460   0.476  -0.151  0.00  0.00    -0.012 A 
ATOM      4  C3A BZF d   1      -0.078   0.816  -0.003  0.00  0.00    -0.107 A 
ATOM      5  C4  BZF d   1       0.724   1.760  -0.578  0.00  0.00     0.055 A 
ATOM      6  C5  BZF d   1       2.012   1.876  -0.160  0.00  0.00    -0.016 A 
ATOM      7  C6  BZF d   1       2.529   1.070   0.833  0.00  0.00     0.022 A 
ATOM      8  C7  BZF d   1       1.773   0.116   1.430  0.00  0.00     0.029 A 
ATOM      9  C7A BZF d   1       0.481  -0.026   0.986  0.00  0.00     0.058 A 
ENDROOT
TORSDOF 0
ENDMDL
