MODEL 1
REMARK minimizedAffinity -1.47330558
REMARK minimizedRMSD -1
REMARK  0 active torsions:
REMARK  status: ('A' for Active; 'I' for Inactive)
ROOT
ATOM      1  O1  BZF d   1      -0.654  -0.046  -1.544  0.00  0.00    -0.204 OA
ATOM      2  C2  BZF d   1      -1.815   0.046  -0.801  0.00  0.00     0.174 A 
ATOM      3  C3  BZF d   1      -1.537   0.086   0.518  0.00  0.00    -0.012 A 
ATOM      4  C3A BZF d   1      -0.109   0.107   0.601  0.00  0.00    -0.107 A 
ATOM      5  C4  BZF d   1       0.770   0.162   1.645  0.00  0.00     0.055 A 
ATOM      6  C5  BZF d   1       2.103   0.093   1.390  0.00  0.00    -0.016 A 
ATOM      7  C6  BZF d   1       2.591  -0.037   0.107  0.00  0.00     0.022 A 
ATOM      8  C7  BZF d   1       1.758  -0.090  -0.961  0.00  0.00     0.029 A 
ATOM      9  C7A BZF d   1       0.412   0.013  -0.710  0.00  0.00     0.058 A 
ENDROOT
TORSDOF 0
ENDMDL
