MODEL 1
REMARK minimizedAffinity 16.9329739
REMARK minimizedRMSD -1
REMARK  0 active torsions:
REMARK  status: ('A' for Active; 'I' for Inactive)
ROOT
ATOM      1  O1  BZF d   1      -4.067   5.214  -2.220  0.00  0.00    -0.204 OA
ATOM      2  C2  BZF d   1      -5.060   6.000  -1.669  0.00  0.00     0.174 A 
ATOM      3  C3  BZF d   1      -5.999   5.236  -1.072  0.00  0.00    -0.012 A 
ATOM      4  C3A BZF d   1      -5.517   3.894  -1.182  0.00  0.00    -0.107 A 
ATOM      5  C4  BZF d   1      -6.000   2.686  -0.766  0.00  0.00     0.055 A 
ATOM      6  C5  BZF d   1      -5.323   1.555  -1.097  0.00  0.00    -0.016 A 
ATOM      7  C6  BZF d   1      -4.166   1.594  -1.845  0.00  0.00     0.022 A 
ATOM      8  C7  BZF d   1      -3.645   2.768  -2.277  0.00  0.00     0.029 A 
ATOM      9  C7A BZF d   1      -4.308   3.916  -1.916  0.00  0.00     0.058 A 
ENDROOT
TORSDOF 0
ENDMDL
