MODEL 1
REMARK minimizedAffinity -2.81596184
REMARK minimizedRMSD -1
REMARK  0 active torsions:
REMARK  status: ('A' for Active; 'I' for Inactive)
ROOT
ATOM      1  O1  BZF d   1      -3.261   2.063  -4.098  0.00  0.00    -0.204 OA
ATOM      2  C2  BZF d   1      -3.445   3.144  -3.257  0.00  0.00     0.174 A 
ATOM      3  C3  BZF d   1      -3.276   2.782  -1.969  0.00  0.00    -0.012 A 
ATOM      4  C3A BZF d   1      -2.876   1.409  -2.013  0.00  0.00    -0.107 A 
ATOM      5  C4  BZF d   1      -2.547   0.496  -1.053  0.00  0.00     0.055 A 
ATOM      6  C5  BZF d   1      -2.274  -0.783  -1.423  0.00  0.00    -0.016 A 
ATOM      7  C6  BZF d   1      -2.326  -1.184  -2.742  0.00  0.00     0.022 A 
ATOM      8  C7  BZF d   1      -2.643  -0.313  -3.730  0.00  0.00     0.029 A 
ATOM      9  C7A BZF d   1      -2.887   0.988  -3.363  0.00  0.00     0.058 A 
ENDROOT
TORSDOF 0
ENDMDL
