MODEL 1
REMARK minimizedAffinity -2.8645978
REMARK minimizedRMSD -1
REMARK  0 active torsions:
REMARK  status: ('A' for Active; 'I' for Inactive)
ROOT
ATOM      1  O1  BZF d   1      -1.667  -0.970   0.319  0.00  0.00    -0.204 OA
ATOM      2  C2  BZF d   1      -1.862   0.036  -0.607  0.00  0.00     0.174 A 
ATOM      3  C3  BZF d   1      -0.698   0.370  -1.201  0.00  0.00    -0.012 A 
ATOM      4  C3A BZF d   1       0.269  -0.543  -0.676  0.00  0.00    -0.107 A 
ATOM      5  C4  BZF d   1       1.605  -0.725  -0.894  0.00  0.00     0.055 A 
ATOM      6  C5  BZF d   1       2.273  -1.658  -0.166  0.00  0.00    -0.016 A 
ATOM      7  C6  BZF d   1       1.638  -2.423   0.791  0.00  0.00     0.022 A 
ATOM      8  C7  BZF d   1       0.313  -2.282   1.039  0.00  0.00     0.029 A 
ATOM      9  C7A BZF d   1      -0.371  -1.363   0.282  0.00  0.00     0.058 A 
ENDROOT
TORSDOF 0
ENDMDL
