MODEL 1
REMARK minimizedAffinity -5.51033831
REMARK minimizedRMSD -1
REMARK  0 active torsions:
REMARK  status: ('A' for Active; 'I' for Inactive)
ROOT
ATOM      1  O1  BZF d   1      -0.319  -2.107   0.268  0.00  0.00    -0.204 OA
ATOM      2  C2  BZF d   1      -1.465  -1.351   0.430  0.00  0.00     0.174 A 
ATOM      3  C3  BZF d   1      -1.156  -0.059   0.666  0.00  0.00    -0.012 A 
ATOM      4  C3A BZF d   1       0.269   0.013   0.559  0.00  0.00    -0.107 A 
ATOM      5  C4  BZF d   1       1.168   1.034   0.675  0.00  0.00     0.055 A 
ATOM      6  C5  BZF d   1       2.496   0.757   0.587  0.00  0.00    -0.016 A 
ATOM      7  C6  BZF d   1       2.959  -0.527   0.390  0.00  0.00     0.022 A 
ATOM      8  C7  BZF d   1       2.104  -1.572   0.264  0.00  0.00     0.029 A 
ATOM      9  C7A BZF d   1       0.761  -1.291   0.319  0.00  0.00     0.058 A 
ENDROOT
TORSDOF 0
ENDMDL
