MODEL 1
REMARK minimizedAffinity -3.60568047
REMARK minimizedRMSD -1
REMARK  1 active torsions:
REMARK  status: ('A' for Active; 'I' for Inactive)
REMARK    1  A    between atoms: N_2  and  C1_3 
ROOT
ATOM      1  C1  UNL d   1       0.711   0.785   0.171  0.00  0.00     0.143 A 
ATOM      2  C2  UNL d   1       1.933   1.068   0.791  0.00  0.00    -0.057 A 
ATOM      3  C3  UNL d   1       2.335   2.387   1.034  0.00  0.00     0.033 A 
ATOM      4  C4  UNL d   1       1.533   3.450   0.634  0.00  0.00    -0.042 A 
ATOM      5  C5  UNL d   1       0.326   3.193  -0.007  0.00  0.00     0.033 A 
ATOM      6  C6  UNL d   1      -0.073   1.873  -0.241  0.00  0.00    -0.057 A 
ENDROOT
BRANCH   1   7
ATOM      7  N   UNL d   1       0.300  -0.502  -0.187  0.00  0.00    -0.732 N 
ATOM      8  C   UNL d   1      -0.355  -1.361   0.776  0.00  0.00     0.284 C 
ATOM      9  H3  UNL d   1      -0.108  -0.534  -1.118  0.00  0.00     0.395 HD
ENDBRANCH   1   7
TORSDOF 1
ENDMDL
