MODEL 1
REMARK minimizedAffinity -2.14545035
REMARK minimizedRMSD -1
REMARK  1 active torsions:
REMARK  status: ('A' for Active; 'I' for Inactive)
REMARK    1  A    between atoms: N_2  and  C1_3 
ROOT
ATOM      1  C1  UNL d   1       0.428   0.405   0.351  0.00  0.00     0.143 A 
ATOM      2  C2  UNL d   1       0.111   0.326  -1.010  0.00  0.00    -0.057 A 
ATOM      3  C3  UNL d   1       0.194   1.450  -1.841  0.00  0.00     0.033 A 
ATOM      4  C4  UNL d   1       0.569   2.683  -1.318  0.00  0.00    -0.042 A 
ATOM      5  C5  UNL d   1       0.865   2.790   0.036  0.00  0.00     0.033 A 
ATOM      6  C6  UNL d   1       0.787   1.663   0.860  0.00  0.00    -0.057 A 
ENDROOT
BRANCH   1   7
ATOM      7  N   UNL d   1       0.270  -0.653   1.249  0.00  0.00    -0.732 N 
ATOM      8  C   UNL d   1      -0.680  -1.712   0.981  0.00  0.00     0.284 C 
ATOM      9  H3  UNL d   1       1.158  -0.977   1.627  0.00  0.00     0.395 HD
ENDBRANCH   1   7
TORSDOF 1
ENDMDL
