MODEL 1
REMARK minimizedAffinity -2.95390248
REMARK minimizedRMSD -1
REMARK  1 active torsions:
REMARK  status: ('A' for Active; 'I' for Inactive)
REMARK    1  A    between atoms: N_2  and  C1_3 
ROOT
ATOM      1  C1  UNL d   1      -0.005  -2.082  -0.976  0.00  0.00     0.143 A 
ATOM      2  C2  UNL d   1      -0.063  -2.866   0.181  0.00  0.00    -0.057 A 
ATOM      3  C3  UNL d   1       0.148  -2.308   1.448  0.00  0.00     0.033 A 
ATOM      4  C4  UNL d   1       0.450  -0.957   1.578  0.00  0.00    -0.042 A 
ATOM      5  C5  UNL d   1       0.538  -0.163   0.440  0.00  0.00     0.033 A 
ATOM      6  C6  UNL d   1       0.320  -0.725  -0.822  0.00  0.00    -0.057 A 
ENDROOT
BRANCH   1   7
ATOM      7  N   UNL d   1      -0.108  -2.597  -2.270  0.00  0.00    -0.732 N 
ATOM      8  C   UNL d   1       0.661  -2.024  -3.354  0.00  0.00     0.284 C 
ATOM      9  H3  UNL d   1      -0.150  -3.613  -2.282  0.00  0.00     0.395 HD
ENDBRANCH   1   7
TORSDOF 1
ENDMDL
