MODEL 1
REMARK minimizedAffinity -4.2655282
REMARK minimizedRMSD -1
REMARK  1 active torsions:
REMARK  status: ('A' for Active; 'I' for Inactive)
REMARK    1  A    between atoms: N_2  and  C1_3 
ROOT
ATOM      1  C1  UNL d   1      -0.153  -0.270   0.178  0.00  0.00     0.143 A 
ATOM      2  C2  UNL d   1      -0.815  -0.973   1.190  0.00  0.00    -0.057 A 
ATOM      3  C3  UNL d   1      -0.853  -2.373   1.196  0.00  0.00     0.033 A 
ATOM      4  C4  UNL d   1      -0.252  -3.095   0.171  0.00  0.00    -0.042 A 
ATOM      5  C5  UNL d   1       0.391  -2.417  -0.859  0.00  0.00     0.033 A 
ATOM      6  C6  UNL d   1       0.431  -1.019  -0.856  0.00  0.00    -0.057 A 
ENDROOT
BRANCH   1   7
ATOM      7  N   UNL d   1      -0.164   1.123   0.063  0.00  0.00    -0.732 N 
ATOM      8  C   UNL d   1       0.990   1.904   0.454  0.00  0.00     0.284 C 
ATOM      9  H3  UNL d   1      -0.607   1.438  -0.797  0.00  0.00     0.395 HD
ENDBRANCH   1   7
TORSDOF 1
ENDMDL
