MODEL 1
REMARK minimizedAffinity -2.67448425
REMARK minimizedRMSD -1
REMARK  1 active torsions:
REMARK  status: ('A' for Active; 'I' for Inactive)
REMARK    1  A    between atoms: N_2  and  C1_3 
ROOT
ATOM      1  C1  UNL d   1      -0.336   0.081  -0.118  0.00  0.00     0.143 A 
ATOM      2  C2  UNL d   1      -0.733  -0.542   1.070  0.00  0.00    -0.057 A 
ATOM      3  C3  UNL d   1      -1.088  -1.897   1.096  0.00  0.00     0.033 A 
ATOM      4  C4  UNL d   1      -1.079  -2.647  -0.075  0.00  0.00    -0.042 A 
ATOM      5  C5  UNL d   1      -0.712  -2.042  -1.272  0.00  0.00     0.033 A 
ATOM      6  C6  UNL d   1      -0.352  -0.691  -1.290  0.00  0.00    -0.057 A 
ENDROOT
BRANCH   1   7
ATOM      7  N   UNL d   1      -0.066   1.447  -0.227  0.00  0.00    -0.732 N 
ATOM      8  C   UNL d   1       1.137   2.009   0.349  0.00  0.00     0.284 C 
ATOM      9  H3  UNL d   1      -0.299   1.817  -1.146  0.00  0.00     0.395 HD
ENDBRANCH   1   7
TORSDOF 1
ENDMDL
