MODEL 1
REMARK minimizedAffinity -5.04022169
REMARK minimizedRMSD -1
REMARK  1 active torsions:
REMARK  status: ('A' for Active; 'I' for Inactive)
REMARK    1  A    between atoms: N_2  and  C1_3 
ROOT
ATOM      1  C1  UNL d   1      -0.750  -1.055   0.397  0.00  0.00     0.143 A 
ATOM      2  C2  UNL d   1      -0.916  -2.415   0.684  0.00  0.00    -0.057 A 
ATOM      3  C3  UNL d   1      -0.265  -3.400  -0.069  0.00  0.00     0.033 A 
ATOM      4  C4  UNL d   1       0.542  -3.043  -1.143  0.00  0.00    -0.042 A 
ATOM      5  C5  UNL d   1       0.701  -1.699  -1.462  0.00  0.00     0.033 A 
ATOM      6  C6  UNL d   1       0.054  -0.719  -0.703  0.00  0.00    -0.057 A 
ENDROOT
BRANCH   1   7
ATOM      7  N   UNL d   1      -1.447  -0.033   1.046  0.00  0.00    -0.732 N 
ATOM      8  C   UNL d   1      -1.918   1.121   0.311  0.00  0.00     0.284 C 
ATOM      9  H3  UNL d   1      -2.112  -0.389   1.730  0.00  0.00     0.395 HD
ENDBRANCH   1   7
TORSDOF 1
ENDMDL
