MODEL 1
REMARK minimizedAffinity -3.00730157
REMARK minimizedRMSD -1
REMARK  1 active torsions:
REMARK  status: ('A' for Active; 'I' for Inactive)
REMARK    1  A    between atoms: N_2  and  C1_3 
ROOT
ATOM      1  C1  UNL d   1       0.326   1.974  -0.232  0.00  0.00     0.143 A 
ATOM      2  C2  UNL d   1      -0.207   1.568  -1.461  0.00  0.00    -0.057 A 
ATOM      3  C3  UNL d   1      -0.524   0.227  -1.706  0.00  0.00     0.033 A 
ATOM      4  C4  UNL d   1      -0.287  -0.740  -0.735  0.00  0.00    -0.042 A 
ATOM      5  C5  UNL d   1       0.265  -0.363   0.485  0.00  0.00     0.033 A 
ATOM      6  C6  UNL d   1       0.574   0.980   0.726  0.00  0.00    -0.057 A 
ENDROOT
BRANCH   1   7
ATOM      7  N   UNL d   1       0.753   3.277   0.037  0.00  0.00    -0.732 N 
ATOM      8  C   UNL d   1       2.135   3.656  -0.167  0.00  0.00     0.284 C 
ATOM      9  H3  UNL d   1       0.081   3.977  -0.266  0.00  0.00     0.395 HD
ENDBRANCH   1   7
TORSDOF 1
ENDMDL
