MODEL 1
REMARK minimizedAffinity -1.54404509
REMARK minimizedRMSD -1
REMARK  1 active torsions:
REMARK  status: ('A' for Active; 'I' for Inactive)
REMARK    1  A    between atoms: N_2  and  C1_3 
ROOT
ATOM      1  C1  UNL d   1      -0.235  -0.869  -0.886  0.00  0.00     0.143 A 
ATOM      2  C2  UNL d   1      -0.016   0.353  -0.241  0.00  0.00    -0.057 A 
ATOM      3  C3  UNL d   1      -0.383   0.544   1.096  0.00  0.00     0.033 A 
ATOM      4  C4  UNL d   1      -1.005  -0.477   1.806  0.00  0.00    -0.042 A 
ATOM      5  C5  UNL d   1      -1.256  -1.692   1.178  0.00  0.00     0.033 A 
ATOM      6  C6  UNL d   1      -0.881  -1.879  -0.156  0.00  0.00    -0.057 A 
ENDROOT
BRANCH   1   7
ATOM      7  N   UNL d   1       0.017  -1.089  -2.242  0.00  0.00    -0.732 N 
ATOM      8  C   UNL d   1      -0.275  -2.371  -2.848  0.00  0.00     0.284 C 
ATOM      9  H3  UNL d   1      -0.235  -0.290  -2.819  0.00  0.00     0.395 HD
ENDBRANCH   1   7
TORSDOF 1
ENDMDL
