MODEL 1
REMARK minimizedAffinity -3.50565314
REMARK minimizedRMSD -1
REMARK  1 active torsions:
REMARK  status: ('A' for Active; 'I' for Inactive)
REMARK    1  A    between atoms: N_2  and  C1_3 
ROOT
ATOM      1  C1  UNL d   1      -0.228  -0.953  -0.295  0.00  0.00     0.143 A 
ATOM      2  C2  UNL d   1      -0.712  -1.850   0.664  0.00  0.00    -0.057 A 
ATOM      3  C3  UNL d   1      -0.721  -3.230   0.428  0.00  0.00     0.033 A 
ATOM      4  C4  UNL d   1      -0.272  -3.736  -0.787  0.00  0.00    -0.042 A 
ATOM      5  C5  UNL d   1       0.190  -2.862  -1.764  0.00  0.00     0.033 A 
ATOM      6  C6  UNL d   1       0.203  -1.485  -1.520  0.00  0.00    -0.057 A 
ENDROOT
BRANCH   1   7
ATOM      7  N   UNL d   1      -0.284   0.436  -0.158  0.00  0.00    -0.732 N 
ATOM      8  C   UNL d   1      -0.196   1.295  -1.320  0.00  0.00     0.284 C 
ATOM      9  H3  UNL d   1      -0.977   0.732   0.526  0.00  0.00     0.395 HD
ENDBRANCH   1   7
TORSDOF 1
ENDMDL
