MODEL 1
REMARK minimizedAffinity -4.49785328
REMARK minimizedRMSD -1
REMARK  0 active torsions:
REMARK  status: ('A' for Active; 'I' for Inactive)
ROOT
ATOM      1  C1  DEN d   1       0.113  -2.894  -0.708  0.00  0.00     0.130 A 
ATOM      2  C2  DEN d   1      -0.525  -3.549   0.431  0.00  0.00    -0.031 A 
ATOM      3  C3  DEN d   1      -1.151  -2.504   1.266  0.00  0.00     0.027 A 
ATOM      4  C4  DEN d   1      -1.198   0.049   0.906  0.00  0.00     0.027 A 
ATOM      5  C5  DEN d   1      -0.783   1.075   0.086  0.00  0.00    -0.003 A 
ATOM      6  C6  DEN d   1      -0.018   0.855  -1.029  0.00  0.00     0.001 A 
ATOM      7  C7  DEN d   1       0.319  -0.426  -1.379  0.00  0.00     0.017 A 
ATOM      8  C8  DEN d   1      -0.090  -1.465  -0.552  0.00  0.00    -0.094 A 
ATOM      9  C9  DEN d   1      -0.873  -1.223   0.563  0.00  0.00    -0.072 A 
ENDROOT
TORSDOF 0
ENDMDL
