MODEL 1
REMARK minimizedAffinity -4.57072735
REMARK minimizedRMSD -1
REMARK  0 active torsions:
REMARK  status: ('A' for Active; 'I' for Inactive)
ROOT
ATOM      1  C1  DEN d   1       1.038  -2.307   0.145  0.00  0.00     0.130 A 
ATOM      2  C2  DEN d   1      -0.009  -3.154   0.710  0.00  0.00    -0.031 A 
ATOM      3  C3  DEN d   1      -1.147  -2.288   1.078  0.00  0.00     0.027 A 
ATOM      4  C4  DEN d   1      -1.393   0.266   0.821  0.00  0.00     0.027 A 
ATOM      5  C5  DEN d   1      -0.763   1.418   0.404  0.00  0.00    -0.003 A 
ATOM      6  C6  DEN d   1       0.513   1.414  -0.094  0.00  0.00     0.001 A 
ATOM      7  C7  DEN d   1       1.185   0.227  -0.229  0.00  0.00     0.017 A 
ATOM      8  C8  DEN d   1       0.559  -0.937   0.197  0.00  0.00    -0.094 A 
ATOM      9  C9  DEN d   1      -0.736  -0.913   0.686  0.00  0.00    -0.072 A 
ENDROOT
TORSDOF 0
ENDMDL
