MODEL 1
REMARK minimizedAffinity 0.0942086056
REMARK minimizedRMSD -1
REMARK  0 active torsions:
REMARK  status: ('A' for Active; 'I' for Inactive)
ROOT
ATOM      1  C1  DEN d   1       0.614   1.538   0.586  0.00  0.00     0.130 A 
ATOM      2  C2  DEN d   1       0.840   2.534  -0.457  0.00  0.00    -0.031 A 
ATOM      3  C3  DEN d   1       1.105   1.818  -1.722  0.00  0.00     0.027 A 
ATOM      4  C4  DEN d   1       1.182  -0.722  -2.163  0.00  0.00     0.027 A 
ATOM      5  C5  DEN d   1       1.064  -1.966  -1.583  0.00  0.00    -0.003 A 
ATOM      6  C6  DEN d   1       0.824  -2.128  -0.245  0.00  0.00     0.001 A 
ATOM      7  C7  DEN d   1       0.649  -1.027   0.552  0.00  0.00     0.017 A 
ATOM      8  C8  DEN d   1       0.773   0.230  -0.024  0.00  0.00    -0.094 A 
ATOM      9  C9  DEN d   1       1.004   0.374  -1.381  0.00  0.00    -0.072 A 
ENDROOT
TORSDOF 0
ENDMDL
