MODEL 1
REMARK minimizedAffinity 1.19300246
REMARK minimizedRMSD -1
REMARK  0 active torsions:
REMARK  status: ('A' for Active; 'I' for Inactive)
ROOT
ATOM      1  C1  DEN d   1       1.144  -0.025  -0.829  0.00  0.00     0.130 A 
ATOM      2  C2  DEN d   1      -0.078  -0.558  -0.234  0.00  0.00    -0.031 A 
ATOM      3  C3  DEN d   1      -0.679   0.501   0.602  0.00  0.00     0.027 A 
ATOM      4  C4  DEN d   1       0.159   2.903   1.027  0.00  0.00     0.027 A 
ATOM      5  C5  DEN d   1       1.158   3.809   0.749  0.00  0.00    -0.003 A 
ATOM      6  C6  DEN d   1       2.231   3.492  -0.041  0.00  0.00     0.001 A 
ATOM      7  C7  DEN d   1       2.308   2.252  -0.618  0.00  0.00     0.017 A 
ATOM      8  C8  DEN d   1       1.308   1.330  -0.335  0.00  0.00    -0.094 A 
ATOM      9  C9  DEN d   1       0.225   1.673   0.456  0.00  0.00    -0.072 A 
ENDROOT
TORSDOF 0
ENDMDL
