MODEL 1
REMARK minimizedAffinity -4.22931671
REMARK minimizedRMSD -1
REMARK  0 active torsions:
REMARK  status: ('A' for Active; 'I' for Inactive)
ROOT
ATOM      1  C1  DEN d   1       0.226  -2.490   0.937  0.00  0.00     0.130 A 
ATOM      2  C2  DEN d   1       1.222  -2.994  -0.005  0.00  0.00    -0.031 A 
ATOM      3  C3  DEN d   1       1.526  -1.917  -0.968  0.00  0.00     0.027 A 
ATOM      4  C4  DEN d   1       0.560   0.471  -1.090  0.00  0.00     0.027 A 
ATOM      5  C5  DEN d   1      -0.325   1.355  -0.512  0.00  0.00    -0.003 A 
ATOM      6  C6  DEN d   1      -1.106   1.011   0.560  0.00  0.00     0.001 A 
ATOM      7  C7  DEN d   1      -0.985  -0.235   1.116  0.00  0.00     0.017 A 
ATOM      8  C8  DEN d   1      -0.101  -1.134   0.534  0.00  0.00    -0.094 A 
ATOM      9  C9  DEN d   1       0.689  -0.763  -0.542  0.00  0.00    -0.072 A 
ENDROOT
TORSDOF 0
ENDMDL
