MODEL 1
REMARK minimizedAffinity -6.31065607
REMARK minimizedRMSD -1
REMARK  0 active torsions:
REMARK  status: ('A' for Active; 'I' for Inactive)
ROOT
ATOM      1  C1  DEN d   1       0.744  -0.770  -1.996  0.00  0.00     0.130 A 
ATOM      2  C2  DEN d   1       0.323   0.618  -2.158  0.00  0.00    -0.031 A 
ATOM      3  C3  DEN d   1      -0.390   1.025  -0.930  0.00  0.00     0.027 A 
ATOM      4  C4  DEN d   1      -0.874  -0.352   1.197  0.00  0.00     0.027 A 
ATOM      5  C5  DEN d   1      -0.723  -1.583   1.795  0.00  0.00    -0.003 A 
ATOM      6  C6  DEN d   1      -0.108  -2.631   1.164  0.00  0.00     0.001 A 
ATOM      7  C7  DEN d   1       0.420  -2.455  -0.088  0.00  0.00     0.017 A 
ATOM      8  C8  DEN d   1       0.265  -1.218  -0.700  0.00  0.00    -0.094 A 
ATOM      9  C9  DEN d   1      -0.349  -0.167  -0.041  0.00  0.00    -0.072 A 
ENDROOT
TORSDOF 0
ENDMDL
