MODEL 1
REMARK minimizedAffinity -5.11845398
REMARK minimizedRMSD -1
REMARK  0 active torsions:
REMARK  status: ('A' for Active; 'I' for Inactive)
ROOT
ATOM      1  C1  DEN d   1      -1.407   0.399   0.632  0.00  0.00     0.130 A 
ATOM      2  C2  DEN d   1      -0.814   1.346  -0.308  0.00  0.00    -0.031 A 
ATOM      3  C3  DEN d   1       0.314   0.674  -0.983  0.00  0.00     0.027 A 
ATOM      4  C4  DEN d   1       1.192  -1.731  -0.669  0.00  0.00     0.027 A 
ATOM      5  C5  DEN d   1       1.019  -2.908   0.026  0.00  0.00    -0.003 A 
ATOM      6  C6  DEN d   1       0.055  -3.053   0.987  0.00  0.00     0.001 A 
ATOM      7  C7  DEN d   1      -0.803  -2.017   1.250  0.00  0.00     0.017 A 
ATOM      8  C8  DEN d   1      -0.630  -0.825   0.559  0.00  0.00    -0.094 A 
ATOM      9  C9  DEN d   1       0.343  -0.703  -0.419  0.00  0.00    -0.072 A 
ENDROOT
TORSDOF 0
ENDMDL
