MODEL 1
REMARK minimizedAffinity -3.62401247
REMARK minimizedRMSD -1
REMARK  0 active torsions:
REMARK  status: ('A' for Active; 'I' for Inactive)
ROOT
ATOM      1  C1  DEN d   1      -1.122   0.377   1.114  0.00  0.00     0.130 A 
ATOM      2  C2  DEN d   1      -0.410   1.366   0.309  0.00  0.00    -0.031 A 
ATOM      3  C3  DEN d   1       0.567   0.649  -0.535  0.00  0.00     0.027 A 
ATOM      4  C4  DEN d   1       1.043  -1.882  -0.675  0.00  0.00     0.027 A 
ATOM      5  C5  DEN d   1       0.699  -3.118  -0.175  0.00  0.00    -0.003 A 
ATOM      6  C6  DEN d   1      -0.244  -3.272   0.807  0.00  0.00     0.001 A 
ATOM      7  C7  DEN d   1      -0.909  -2.174   1.287  0.00  0.00     0.017 A 
ATOM      8  C8  DEN d   1      -0.562  -0.924   0.793  0.00  0.00    -0.094 A 
ATOM      9  C9  DEN d   1       0.385  -0.791  -0.208  0.00  0.00    -0.072 A 
ENDROOT
TORSDOF 0
ENDMDL
