MODEL 1
REMARK minimizedAffinity -2.87418318
REMARK minimizedRMSD -1
REMARK  0 active torsions:
REMARK  status: ('A' for Active; 'I' for Inactive)
ROOT
ATOM      1  C1  DEN d   1       0.377   0.233  -1.363  0.00  0.00     0.130 A 
ATOM      2  C2  DEN d   1      -0.004   1.506  -0.757  0.00  0.00    -0.031 A 
ATOM      3  C3  DEN d   1      -0.554   1.227   0.584  0.00  0.00     0.027 A 
ATOM      4  C4  DEN d   1      -0.846  -1.040   1.779  0.00  0.00     0.027 A 
ATOM      5  C5  DEN d   1      -0.677  -2.402   1.659  0.00  0.00    -0.003 A 
ATOM      6  C6  DEN d   1      -0.181  -2.979   0.520  0.00  0.00     0.001 A 
ATOM      7  C7  DEN d   1       0.206  -2.187  -0.528  0.00  0.00     0.017 A 
ATOM      8  C8  DEN d   1       0.032  -0.814  -0.418  0.00  0.00    -0.094 A 
ATOM      9  C9  DEN d   1      -0.460  -0.249   0.746  0.00  0.00    -0.072 A 
ENDROOT
TORSDOF 0
ENDMDL
