MODEL 1
REMARK minimizedAffinity -2.39621234
REMARK minimizedRMSD -1
REMARK  0 active torsions:
REMARK  status: ('A' for Active; 'I' for Inactive)
ROOT
ATOM      1  C1  DEN d   1       2.109   2.538   1.463  0.00  0.00     0.130 A 
ATOM      2  C2  DEN d   1       1.791   3.835   0.872  0.00  0.00    -0.031 A 
ATOM      3  C3  DEN d   1       0.773   3.621  -0.176  0.00  0.00     0.027 A 
ATOM      4  C4  DEN d   1      -0.340   1.421  -0.933  0.00  0.00     0.027 A 
ATOM      5  C5  DEN d   1      -0.384   0.059  -0.733  0.00  0.00    -0.003 A 
ATOM      6  C6  DEN d   1       0.417  -0.571   0.182  0.00  0.00     0.001 A 
ATOM      7  C7  DEN d   1       1.266   0.167   0.963  0.00  0.00     0.017 A 
ATOM      8  C8  DEN d   1       1.322   1.540   0.762  0.00  0.00    -0.094 A 
ATOM      9  C9  DEN d   1       0.495   2.160  -0.159  0.00  0.00    -0.072 A 
ENDROOT
TORSDOF 0
ENDMDL
