MODEL 1
REMARK minimizedAffinity -3.87602854
REMARK minimizedRMSD -1
REMARK  0 active torsions:
REMARK  status: ('A' for Active; 'I' for Inactive)
ROOT
ATOM      1  C1  DEN d   1       0.844  -2.201  -0.157  0.00  0.00     0.130 A 
ATOM      2  C2  DEN d   1       0.047  -3.016   0.755  0.00  0.00    -0.031 A 
ATOM      3  C3  DEN d   1      -1.029  -2.167   1.305  0.00  0.00     0.027 A 
ATOM      4  C4  DEN d   1      -1.539   0.316   0.829  0.00  0.00     0.027 A 
ATOM      5  C5  DEN d   1      -1.133   1.432   0.131  0.00  0.00    -0.003 A 
ATOM      6  C6  DEN d   1      -0.028   1.425  -0.678  0.00  0.00     0.001 A 
ATOM      7  C7  DEN d   1       0.683   0.266  -0.846  0.00  0.00     0.017 A 
ATOM      8  C8  DEN d   1       0.284  -0.861  -0.140  0.00  0.00    -0.094 A 
ATOM      9  C9  DEN d   1      -0.843  -0.837   0.664  0.00  0.00    -0.072 A 
ENDROOT
TORSDOF 0
ENDMDL
