MODEL 1
REMARK minimizedAffinity 0.070245631
REMARK minimizedRMSD -1
REMARK  0 active torsions:
REMARK  status: ('A' for Active; 'I' for Inactive)
ROOT
ATOM      1  C1  DEN d   1       0.775   1.757  -0.938  0.00  0.00     0.130 A 
ATOM      2  C2  DEN d   1       0.923   2.820   0.053  0.00  0.00    -0.031 A 
ATOM      3  C3  DEN d   1       0.584   2.260   1.377  0.00  0.00     0.027 A 
ATOM      4  C4  DEN d   1      -0.147  -0.137   1.987  0.00  0.00     0.027 A 
ATOM      5  C5  DEN d   1      -0.427  -1.388   1.482  0.00  0.00    -0.003 A 
ATOM      6  C6  DEN d   1      -0.359  -1.667   0.143  0.00  0.00     0.001 A 
ATOM      7  C7  DEN d   1       0.041  -0.693  -0.734  0.00  0.00     0.017 A 
ATOM      8  C8  DEN d   1       0.317   0.572  -0.234  0.00  0.00    -0.094 A 
ATOM      9  C9  DEN d   1       0.255   0.831   1.125  0.00  0.00    -0.072 A 
ENDROOT
TORSDOF 0
ENDMDL
