MODEL 1
REMARK minimizedAffinity 2.86996126
REMARK minimizedRMSD -1
REMARK  1 active torsions:
REMARK  status: ('A' for Active; 'I' for Inactive)
REMARK    1  A    between atoms: C1_2  and  C2_3 
ROOT
ATOM      1  C2  UNL d   1      -0.448   0.641  -0.083  0.00  0.00    -0.073 A 
ATOM      2  C3  UNL d   1      -0.165   2.011  -0.110  0.00  0.00    -0.002 A 
ATOM      3  C4  UNL d   1       1.124   2.470   0.162  0.00  0.00     0.004 A 
ATOM      4  C5  UNL d   1       2.144   1.565   0.457  0.00  0.00    -0.004 A 
ATOM      5  C6  UNL d   1       1.883   0.191   0.477  0.00  0.00    -0.075 A 
ATOM      6  C7  UNL d   1       2.969  -0.795   0.794  0.00  0.00     0.076 C 
ATOM      7  C8  UNL d   1       0.585  -0.262   0.205  0.00  0.00     0.001 A 
ENDROOT
BRANCH   1   8
ATOM      8  C1  UNL d   1      -1.838   0.140  -0.383  0.00  0.00     0.053 C 
ATOM      9  C   UNL d   1      -2.892   0.852   0.451  0.00  0.00     0.018 C 
ENDBRANCH   1   8
TORSDOF 1
ENDMDL
