MODEL 1
REMARK minimizedAffinity -3.38616037
REMARK minimizedRMSD -1
REMARK  1 active torsions:
REMARK  status: ('A' for Active; 'I' for Inactive)
REMARK    1  A    between atoms: C1_2  and  C2_3 
ROOT
ATOM      1  C2  UNL d   1      -1.886   0.541   0.211  0.00  0.00    -0.073 A 
ATOM      2  C3  UNL d   1      -1.882  -0.668  -0.495  0.00  0.00    -0.002 A 
ATOM      3  C4  UNL d   1      -0.677  -1.241  -0.904  0.00  0.00     0.004 A 
ATOM      4  C5  UNL d   1       0.534  -0.617  -0.607  0.00  0.00    -0.004 A 
ATOM      5  C6  UNL d   1       0.551   0.586   0.108  0.00  0.00    -0.075 A 
ATOM      6  C7  UNL d   1       1.846   1.271   0.434  0.00  0.00     0.076 C 
ATOM      7  C8  UNL d   1      -0.663   1.156   0.513  0.00  0.00     0.001 A 
ENDROOT
BRANCH   1   8
ATOM      8  C1  UNL d   1      -3.184   1.160   0.660  0.00  0.00     0.053 C 
ATOM      9  C   UNL d   1      -3.005   2.024   1.898  0.00  0.00     0.018 C 
ENDBRANCH   1   8
TORSDOF 1
ENDMDL
