MODEL 1
REMARK minimizedAffinity -2.91938019
REMARK minimizedRMSD -1
REMARK  1 active torsions:
REMARK  status: ('A' for Active; 'I' for Inactive)
REMARK    1  A    between atoms: C1_2  and  C2_3 
ROOT
ATOM      1  C2  UNL d   1       0.224   0.007   0.490  0.00  0.00    -0.073 A 
ATOM      2  C3  UNL d   1       0.953   0.003   1.684  0.00  0.00    -0.002 A 
ATOM      3  C4  UNL d   1       2.196  -0.629   1.748  0.00  0.00     0.004 A 
ATOM      4  C5  UNL d   1       2.725  -1.254   0.620  0.00  0.00    -0.004 A 
ATOM      5  C6  UNL d   1       2.016  -1.250  -0.586  0.00  0.00    -0.075 A 
ATOM      6  C7  UNL d   1       2.570  -1.920  -1.809  0.00  0.00     0.076 C 
ATOM      7  C8  UNL d   1       0.768  -0.616  -0.642  0.00  0.00     0.001 A 
ENDROOT
BRANCH   1   8
ATOM      8  C1  UNL d   1      -1.116   0.693   0.414  0.00  0.00     0.053 C 
ATOM      9  C   UNL d   1      -2.118  -0.103  -0.407  0.00  0.00     0.018 C 
ENDBRANCH   1   8
TORSDOF 1
ENDMDL
