MODEL 1
REMARK minimizedAffinity -5.01050138
REMARK minimizedRMSD -1
REMARK  1 active torsions:
REMARK  status: ('A' for Active; 'I' for Inactive)
REMARK    1  A    between atoms: C1_2  and  C2_3 
ROOT
ATOM      1  C2  UNL d   1       0.983  -0.322   0.073  0.00  0.00    -0.073 A 
ATOM      2  C3  UNL d   1       1.898  -1.381   0.102  0.00  0.00    -0.002 A 
ATOM      3  C4  UNL d   1       3.256  -1.133   0.309  0.00  0.00     0.004 A 
ATOM      4  C5  UNL d   1       3.711   0.172   0.496  0.00  0.00    -0.004 A 
ATOM      5  C6  UNL d   1       2.811   1.242   0.482  0.00  0.00    -0.075 A 
ATOM      6  C7  UNL d   1       3.284   2.652   0.680  0.00  0.00     0.076 C 
ATOM      7  C8  UNL d   1       1.449   0.985   0.271  0.00  0.00     0.001 A 
ENDROOT
BRANCH   1   8
ATOM      8  C1  UNL d   1      -0.484  -0.585  -0.145  0.00  0.00     0.053 C 
ATOM      9  C   UNL d   1      -1.253   0.691  -0.451  0.00  0.00     0.018 C 
ENDBRANCH   1   8
TORSDOF 1
ENDMDL
