MODEL 1
REMARK minimizedAffinity 0.964189529
REMARK minimizedRMSD -1
REMARK  0 active torsions:
REMARK  status: ('A' for Active; 'I' for Inactive)
ROOT
ATOM      1  C   UNL d   1      -1.165   0.463   0.695  0.00  0.00    -0.002 A 
ATOM      2  C1  UNL d   1      -1.113  -0.010  -0.608  0.00  0.00     0.010 A 
ATOM      3  C2  UNL d   1       0.045  -0.617  -1.098  0.00  0.00     0.041 A 
ATOM      4  C3  UNL d   1       1.161  -0.742  -0.247  0.00  0.00    -0.075 A 
ATOM      5  S   UNL d   1       2.685  -1.451  -0.630  0.00  0.00     0.015 SA
ATOM      6  C4  UNL d   1       3.304  -1.142   0.928  0.00  0.00     0.022 A 
ATOM      7  C5  UNL d   1       2.383  -0.515   1.734  0.00  0.00     0.026 A 
ATOM      8  C6  UNL d   1       1.132  -0.274   1.069  0.00  0.00    -0.082 A 
ATOM      9  C7  UNL d   1      -0.056   0.337   1.536  0.00  0.00     0.045 A 
ENDROOT
TORSDOF 0
ENDMDL
