MODEL 1
REMARK minimizedAffinity -2.13224244
REMARK minimizedRMSD -1
REMARK  0 active torsions:
REMARK  status: ('A' for Active; 'I' for Inactive)
ROOT
ATOM      1  C   UNL d   1       2.769  -0.711   1.362  0.00  0.00    -0.002 A 
ATOM      2  C1  UNL d   1       2.977  -1.713   0.425  0.00  0.00     0.010 A 
ATOM      3  C2  UNL d   1       2.039  -1.951  -0.581  0.00  0.00     0.041 A 
ATOM      4  C3  UNL d   1       0.877  -1.156  -0.632  0.00  0.00    -0.075 A 
ATOM      5  S   UNL d   1      -0.408  -1.265  -1.776  0.00  0.00     0.015 SA
ATOM      6  C4  UNL d   1      -1.264   0.017  -1.048  0.00  0.00     0.022 A 
ATOM      7  C5  UNL d   1      -0.600   0.527   0.042  0.00  0.00     0.026 A 
ATOM      8  C6  UNL d   1       0.646  -0.140   0.300  0.00  0.00    -0.082 A 
ATOM      9  C7  UNL d   1       1.615   0.076   1.309  0.00  0.00     0.045 A 
ENDROOT
TORSDOF 0
ENDMDL
