MODEL 1
REMARK minimizedAffinity -2.41634941
REMARK minimizedRMSD -1
REMARK  0 active torsions:
REMARK  status: ('A' for Active; 'I' for Inactive)
ROOT
ATOM      1  C   UNL d   1       0.533  -2.481  -0.953  0.00  0.00    -0.002 A 
ATOM      2  C1  UNL d   1      -0.514  -1.632  -1.282  0.00  0.00     0.010 A 
ATOM      3  C2  UNL d   1      -0.575  -0.341  -0.753  0.00  0.00     0.041 A 
ATOM      4  C3  UNL d   1       0.444   0.087   0.120  0.00  0.00    -0.075 A 
ATOM      5  S   UNL d   1       0.578   1.625   0.888  0.00  0.00     0.015 SA
ATOM      6  C4  UNL d   1       2.028   1.191   1.671  0.00  0.00     0.022 A 
ATOM      7  C5  UNL d   1       2.416  -0.092   1.365  0.00  0.00     0.026 A 
ATOM      8  C6  UNL d   1       1.510  -0.750   0.466  0.00  0.00    -0.082 A 
ATOM      9  C7  UNL d   1       1.543  -2.053  -0.086  0.00  0.00     0.045 A 
ENDROOT
TORSDOF 0
ENDMDL
