MODEL 1
REMARK minimizedAffinity -4.38394594
REMARK minimizedRMSD -1
REMARK  0 active torsions:
REMARK  status: ('A' for Active; 'I' for Inactive)
ROOT
ATOM      1  C   UNL d   1       3.045  -1.368   0.888  0.00  0.00    -0.002 A 
ATOM      2  C1  UNL d   1       1.970  -2.181   0.556  0.00  0.00     0.010 A 
ATOM      3  C2  UNL d   1       0.781  -1.626   0.079  0.00  0.00     0.041 A 
ATOM      4  C3  UNL d   1       0.690  -0.227  -0.063  0.00  0.00    -0.075 A 
ATOM      5  S   UNL d   1      -0.666   0.675  -0.629  0.00  0.00     0.015 SA
ATOM      6  C4  UNL d   1       0.150   2.160  -0.444  0.00  0.00     0.022 A 
ATOM      7  C5  UNL d   1       1.427   1.990   0.037  0.00  0.00     0.026 A 
ATOM      8  C6  UNL d   1       1.759   0.612   0.264  0.00  0.00    -0.082 A 
ATOM      9  C7  UNL d   1       2.951   0.019   0.746  0.00  0.00     0.045 A 
ENDROOT
TORSDOF 0
ENDMDL
