MODEL 1
REMARK minimizedAffinity -2.5624814
REMARK minimizedRMSD -1
REMARK  0 active torsions:
REMARK  status: ('A' for Active; 'I' for Inactive)
ROOT
ATOM      1  C   UNL d   1       0.183  -0.850  -1.163  0.00  0.00    -0.002 A 
ATOM      2  C1  UNL d   1       0.412  -1.295   0.131  0.00  0.00     0.010 A 
ATOM      3  C2  UNL d   1      -0.540  -1.089   1.131  0.00  0.00     0.041 A 
ATOM      4  C3  UNL d   1      -1.739  -0.425   0.805  0.00  0.00    -0.075 A 
ATOM      5  S   UNL d   1      -3.048  -0.063   1.866  0.00  0.00     0.015 SA
ATOM      6  C4  UNL d   1      -3.943   0.690   0.626  0.00  0.00     0.022 A 
ATOM      7  C5  UNL d   1      -3.273   0.675  -0.575  0.00  0.00     0.026 A 
ATOM      8  C6  UNL d   1      -1.992   0.032  -0.491  0.00  0.00    -0.082 A 
ATOM      9  C7  UNL d   1      -1.007  -0.191  -1.483  0.00  0.00     0.045 A 
ENDROOT
TORSDOF 0
ENDMDL
