MODEL 1
REMARK minimizedAffinity -4.03450537
REMARK minimizedRMSD -1
REMARK  0 active torsions:
REMARK  status: ('A' for Active; 'I' for Inactive)
ROOT
ATOM      1  C   UNL d   1       1.796  -2.358  -0.679  0.00  0.00    -0.002 A 
ATOM      2  C1  UNL d   1       2.449  -1.579   0.265  0.00  0.00     0.010 A 
ATOM      3  C2  UNL d   1       1.797  -0.505   0.874  0.00  0.00     0.041 A 
ATOM      4  C3  UNL d   1       0.464  -0.226   0.516  0.00  0.00    -0.075 A 
ATOM      5  S   UNL d   1      -0.535   1.038   1.132  0.00  0.00     0.015 SA
ATOM      6  C4  UNL d   1      -1.853   0.572   0.157  0.00  0.00     0.022 A 
ATOM      7  C5  UNL d   1      -1.556  -0.519  -0.625  0.00  0.00     0.026 A 
ATOM      8  C6  UNL d   1      -0.216  -0.997  -0.431  0.00  0.00    -0.082 A 
ATOM      9  C7  UNL d   1       0.473  -2.079  -1.031  0.00  0.00     0.045 A 
ENDROOT
TORSDOF 0
ENDMDL
