MODEL 1
REMARK minimizedAffinity -3.23797178
REMARK minimizedRMSD -1
REMARK  0 active torsions:
REMARK  status: ('A' for Active; 'I' for Inactive)
ROOT
ATOM      1  C   UNL d   1       1.126   2.479  -0.344  0.00  0.00    -0.002 A 
ATOM      2  C1  UNL d   1       0.099   1.816  -1.001  0.00  0.00     0.010 A 
ATOM      3  C2  UNL d   1      -0.029   0.430  -0.902  0.00  0.00     0.041 A 
ATOM      4  C3  UNL d   1       0.901  -0.287  -0.122  0.00  0.00    -0.075 A 
ATOM      5  S   UNL d   1       0.941  -1.990   0.144  0.00  0.00     0.015 SA
ATOM      6  C4  UNL d   1       2.322  -1.877   1.136  0.00  0.00     0.022 A 
ATOM      7  C5  UNL d   1       2.756  -0.580   1.271  0.00  0.00     0.026 A 
ATOM      8  C6  UNL d   1       1.944   0.358   0.549  0.00  0.00    -0.082 A 
ATOM      9  C7  UNL d   1       2.047   1.765   0.428  0.00  0.00     0.045 A 
ENDROOT
TORSDOF 0
ENDMDL
