MODEL 1
REMARK minimizedAffinity -2.17641091
REMARK minimizedRMSD -1
REMARK  0 active torsions:
REMARK  status: ('A' for Active; 'I' for Inactive)
ROOT
ATOM      1  C   UNL d   1       2.191  -0.948   0.962  0.00  0.00    -0.002 A 
ATOM      2  C1  UNL d   1       2.773   0.303   1.106  0.00  0.00     0.010 A 
ATOM      3  C2  UNL d   1       2.053   1.460   0.803  0.00  0.00     0.041 A 
ATOM      4  C3  UNL d   1       0.724   1.337   0.350  0.00  0.00    -0.075 A 
ATOM      5  S   UNL d   1      -0.350   2.615  -0.080  0.00  0.00     0.015 SA
ATOM      6  C4  UNL d   1      -1.607   1.530  -0.464  0.00  0.00     0.022 A 
ATOM      7  C5  UNL d   1      -1.233   0.220  -0.275  0.00  0.00     0.026 A 
ATOM      8  C6  UNL d   1       0.116   0.088   0.198  0.00  0.00    -0.082 A 
ATOM      9  C7  UNL d   1       0.873  -1.067   0.512  0.00  0.00     0.045 A 
ENDROOT
TORSDOF 0
ENDMDL
