MODEL 1
REMARK minimizedAffinity -1.52674508
REMARK minimizedRMSD -1
REMARK  0 active torsions:
REMARK  status: ('A' for Active; 'I' for Inactive)
ROOT
ATOM      1  C   UNL d   1      -2.626   1.179   0.057  0.00  0.00    -0.002 A 
ATOM      2  C1  UNL d   1      -2.333  -0.145  -0.235  0.00  0.00     0.010 A 
ATOM      3  C2  UNL d   1      -1.013  -0.600  -0.224  0.00  0.00     0.041 A 
ATOM      4  C3  UNL d   1       0.018   0.308   0.090  0.00  0.00    -0.075 A 
ATOM      5  S   UNL d   1       1.708  -0.025   0.166  0.00  0.00     0.015 SA
ATOM      6  C4  UNL d   1       2.081   1.584   0.588  0.00  0.00     0.022 A 
ATOM      7  C5  UNL d   1       0.955   2.369   0.674  0.00  0.00     0.026 A 
ATOM      8  C6  UNL d   1      -0.252   1.646   0.389  0.00  0.00    -0.082 A 
ATOM      9  C7  UNL d   1      -1.601   2.077   0.368  0.00  0.00     0.045 A 
ENDROOT
TORSDOF 0
ENDMDL
