MODEL 1
REMARK minimizedAffinity -1.1316328
REMARK minimizedRMSD -1
REMARK  1 active torsions:
REMARK  status: ('A' for Active; 'I' for Inactive)
REMARK    1  A    between atoms: C3_4  and  O_7 
ROOT
ATOM      1  C   UNL d   1      -1.968   0.409   1.870  0.00  0.00    -0.033 A 
ATOM      2  C1  UNL d   1      -0.725   0.995   2.118  0.00  0.00     0.039 A 
ATOM      3  C2  UNL d   1       0.333   0.218   2.594  0.00  0.00    -0.080 A 
ATOM      4  C3  UNL d   1       0.136  -1.142   2.815  0.00  0.00     0.150 A 
ATOM      5  C4  UNL d   1      -1.099  -1.734   2.567  0.00  0.00    -0.007 A 
ATOM      6  C5  UNL d   1      -2.154  -0.956   2.093  0.00  0.00     0.039 A 
ENDROOT
BRANCH   4   7
ATOM      7  O   UNL d   1       1.137  -1.941   3.284  0.00  0.00    -0.526 OA
ATOM      8  H5  UNL d   1       1.923  -1.390   3.437  0.00  0.00     0.418 HD
ENDBRANCH   4   7
TORSDOF 1
ENDMDL
