MODEL 1
REMARK minimizedAffinity -1.85219669
REMARK minimizedRMSD -1
REMARK  1 active torsions:
REMARK  status: ('A' for Active; 'I' for Inactive)
REMARK    1  A    between atoms: C3_4  and  O_7 
ROOT
ATOM      1  C   UNL d   1      -0.160   0.568  -4.700  0.00  0.00    -0.033 A 
ATOM      2  C1  UNL d   1      -0.767  -0.254  -3.749  0.00  0.00     0.039 A 
ATOM      3  C2  UNL d   1      -0.774  -1.639  -3.923  0.00  0.00    -0.080 A 
ATOM      4  C3  UNL d   1      -0.170  -2.189  -5.050  0.00  0.00     0.150 A 
ATOM      5  C4  UNL d   1       0.440  -1.377  -6.000  0.00  0.00    -0.007 A 
ATOM      6  C5  UNL d   1       0.445   0.006  -5.825  0.00  0.00     0.039 A 
ENDROOT
BRANCH   4   7
ATOM      7  O   UNL d   1      -0.156  -3.535  -5.265  0.00  0.00    -0.526 OA
ATOM      8  H5  UNL d   1      -0.640  -3.968  -4.542  0.00  0.00     0.418 HD
ENDBRANCH   4   7
TORSDOF 1
ENDMDL
