MODEL 1
REMARK minimizedAffinity -3.34665489
REMARK minimizedRMSD -1
REMARK  1 active torsions:
REMARK  status: ('A' for Active; 'I' for Inactive)
REMARK    1  A    between atoms: C3_4  and  O_7 
ROOT
ATOM      1  C   UNL d   1      -0.112  -1.462  -1.022  0.00  0.00    -0.033 A 
ATOM      2  C1  UNL d   1      -1.470  -1.780  -1.093  0.00  0.00     0.039 A 
ATOM      3  C2  UNL d   1      -2.368  -1.219  -0.184  0.00  0.00    -0.080 A 
ATOM      4  C3  UNL d   1      -1.898  -0.342   0.790  0.00  0.00     0.150 A 
ATOM      5  C4  UNL d   1      -0.547  -0.018   0.864  0.00  0.00    -0.007 A 
ATOM      6  C5  UNL d   1       0.349  -0.580  -0.045  0.00  0.00     0.039 A 
ENDROOT
BRANCH   4   7
ATOM      7  O   UNL d   1      -2.736   0.226   1.702  0.00  0.00    -0.526 OA
ATOM      8  H5  UNL d   1      -3.634  -0.112   1.547  0.00  0.00     0.418 HD
ENDBRANCH   4   7
TORSDOF 1
ENDMDL
