MODEL 1
REMARK minimizedAffinity -2.20528126
REMARK minimizedRMSD -1
REMARK  1 active torsions:
REMARK  status: ('A' for Active; 'I' for Inactive)
REMARK    1  A    between atoms: C3_4  and  O_7 
ROOT
ATOM      1  C   UNL d   1      -2.162  -0.473   1.906  0.00  0.00    -0.033 A 
ATOM      2  C1  UNL d   1      -2.013  -1.639   2.660  0.00  0.00     0.039 A 
ATOM      3  C2  UNL d   1      -0.749  -2.025   3.110  0.00  0.00    -0.080 A 
ATOM      4  C3  UNL d   1       0.357  -1.237   2.800  0.00  0.00     0.150 A 
ATOM      5  C4  UNL d   1       0.215  -0.073   2.052  0.00  0.00    -0.007 A 
ATOM      6  C5  UNL d   1      -1.048   0.311   1.603  0.00  0.00     0.039 A 
ENDROOT
BRANCH   4   7
ATOM      7  O   UNL d   1       1.611  -1.576   3.213  0.00  0.00    -0.526 OA
ATOM      8  H5  UNL d   1       1.560  -2.419   3.694  0.00  0.00     0.418 HD
ENDBRANCH   4   7
TORSDOF 1
ENDMDL
