MODEL 1
REMARK minimizedAffinity -2.50179505
REMARK minimizedRMSD -1
REMARK  1 active torsions:
REMARK  status: ('A' for Active; 'I' for Inactive)
REMARK    1  A    between atoms: C3_4  and  O_7 
ROOT
ATOM      1  C   UNL d   1       0.815  -1.400   2.667  0.00  0.00    -0.033 A 
ATOM      2  C1  UNL d   1      -0.304  -2.235   2.710  0.00  0.00     0.039 A 
ATOM      3  C2  UNL d   1      -1.563  -1.735   2.372  0.00  0.00    -0.080 A 
ATOM      4  C3  UNL d   1      -1.690  -0.402   1.993  0.00  0.00     0.150 A 
ATOM      5  C4  UNL d   1      -0.580   0.435   1.945  0.00  0.00    -0.007 A 
ATOM      6  C5  UNL d   1       0.677  -0.066   2.283  0.00  0.00     0.039 A 
ENDROOT
BRANCH   4   7
ATOM      7  O   UNL d   1      -2.899   0.132   1.659  0.00  0.00    -0.526 OA
ATOM      8  H5  UNL d   1      -3.579  -0.554   1.766  0.00  0.00     0.418 HD
ENDBRANCH   4   7
TORSDOF 1
ENDMDL
