MODEL 1
REMARK minimizedAffinity 5.98250008
REMARK minimizedRMSD -1
REMARK  1 active torsions:
REMARK  status: ('A' for Active; 'I' for Inactive)
REMARK    1  A    between atoms: C3_4  and  O_7 
ROOT
ATOM      1  C   UNL d   1       2.358  -1.178  -4.331  0.00  0.00    -0.033 A 
ATOM      2  C1  UNL d   1       1.351  -1.958  -3.760  0.00  0.00     0.039 A 
ATOM      3  C2  UNL d   1       0.042  -1.872  -4.239  0.00  0.00    -0.080 A 
ATOM      4  C3  UNL d   1      -0.246  -1.004  -5.288  0.00  0.00     0.150 A 
ATOM      5  C4  UNL d   1       0.753  -0.227  -5.865  0.00  0.00    -0.007 A 
ATOM      6  C5  UNL d   1       2.059  -0.313  -5.384  0.00  0.00     0.039 A 
ENDROOT
BRANCH   4   7
ATOM      7  O   UNL d   1      -1.509  -0.882  -5.786  0.00  0.00    -0.526 OA
ATOM      8  H5  UNL d   1      -2.099  -1.458  -5.272  0.00  0.00     0.418 HD
ENDBRANCH   4   7
TORSDOF 1
ENDMDL
