MODEL 1
REMARK minimizedAffinity -2.93809366
REMARK minimizedRMSD -1
REMARK  1 active torsions:
REMARK  status: ('A' for Active; 'I' for Inactive)
REMARK    1  A    between atoms: C3_4  and  O_7 
ROOT
ATOM      1  C   UNL d   1      -2.027  -0.409   2.043  0.00  0.00    -0.033 A 
ATOM      2  C1  UNL d   1      -1.727  -1.674   2.553  0.00  0.00     0.039 A 
ATOM      3  C2  UNL d   1      -0.427  -1.973   2.965  0.00  0.00    -0.080 A 
ATOM      4  C3  UNL d   1       0.563  -0.999   2.861  0.00  0.00     0.150 A 
ATOM      5  C4  UNL d   1       0.271   0.264   2.357  0.00  0.00    -0.007 A 
ATOM      6  C5  UNL d   1      -1.028   0.560   1.946  0.00  0.00     0.039 A 
ENDROOT
BRANCH   4   7
ATOM      7  O   UNL d   1       1.848  -1.245   3.245  0.00  0.00    -0.526 OA
ATOM      8  H5  UNL d   1       1.908  -2.168   3.546  0.00  0.00     0.418 HD
ENDBRANCH   4   7
TORSDOF 1
ENDMDL
