MODEL 1
REMARK minimizedAffinity 1.96081603
REMARK minimizedRMSD -1
REMARK  1 active torsions:
REMARK  status: ('A' for Active; 'I' for Inactive)
REMARK    1  A    between atoms: C3_4  and  O_7 
ROOT
ATOM      1  C   UNL d   1       1.186  -1.566   2.726  0.00  0.00    -0.033 A 
ATOM      2  C1  UNL d   1       1.046  -0.249   2.286  0.00  0.00     0.039 A 
ATOM      3  C2  UNL d   1      -0.195   0.211   1.840  0.00  0.00    -0.080 A 
ATOM      4  C3  UNL d   1      -1.285  -0.654   1.842  0.00  0.00     0.150 A 
ATOM      5  C4  UNL d   1      -1.153  -1.967   2.283  0.00  0.00    -0.007 A 
ATOM      6  C5  UNL d   1       0.087  -2.425   2.726  0.00  0.00     0.039 A 
ENDROOT
BRANCH   4   7
ATOM      7  O   UNL d   1      -2.515  -0.252   1.412  0.00  0.00    -0.526 OA
ATOM      8  H5  UNL d   1      -2.449   0.669   1.110  0.00  0.00     0.418 HD
ENDBRANCH   4   7
TORSDOF 1
ENDMDL
