MODEL 1
REMARK minimizedAffinity -2.28989744
REMARK minimizedRMSD -1
REMARK  1 active torsions:
REMARK  status: ('A' for Active; 'I' for Inactive)
REMARK    1  A    between atoms: C3_4  and  O_7 
ROOT
ATOM      1  C   UNL d   1       0.239  -1.980  -4.202  0.00  0.00    -0.033 A 
ATOM      2  C1  UNL d   1       1.476  -2.221  -3.600  0.00  0.00     0.039 A 
ATOM      3  C2  UNL d   1       2.620  -1.572  -4.070  0.00  0.00    -0.080 A 
ATOM      4  C3  UNL d   1       2.514  -0.687  -5.139  0.00  0.00     0.150 A 
ATOM      5  C4  UNL d   1       1.284  -0.440  -5.740  0.00  0.00    -0.007 A 
ATOM      6  C5  UNL d   1       0.143  -1.089  -5.271  0.00  0.00     0.039 A 
ENDROOT
BRANCH   4   7
ATOM      7  O   UNL d   1       3.603  -0.034  -5.634  0.00  0.00    -0.526 OA
ATOM      8  H5  UNL d   1       4.388  -0.325  -5.140  0.00  0.00     0.418 HD
ENDBRANCH   4   7
TORSDOF 1
ENDMDL
