MODEL 1
REMARK minimizedAffinity -2.51337957
REMARK minimizedRMSD -1
REMARK  1 active torsions:
REMARK  status: ('A' for Active; 'I' for Inactive)
REMARK    1  A    between atoms: C3_4  and  O_7 
ROOT
ATOM      1  C   UNL d   1      -1.725  -1.427  -0.604  0.00  0.00    -0.033 A 
ATOM      2  C1  UNL d   1      -0.558  -1.200   0.129  0.00  0.00     0.039 A 
ATOM      3  C2  UNL d   1      -0.613  -0.489   1.329  0.00  0.00    -0.080 A 
ATOM      4  C3  UNL d   1      -1.838  -0.013   1.786  0.00  0.00     0.150 A 
ATOM      5  C4  UNL d   1      -3.005  -0.239   1.063  0.00  0.00    -0.007 A 
ATOM      6  C5  UNL d   1      -2.949  -0.948  -0.136  0.00  0.00     0.039 A 
ENDROOT
BRANCH   4   7
ATOM      7  O   UNL d   1      -1.941   0.691   2.949  0.00  0.00    -0.526 OA
ATOM      8  H5  UNL d   1      -1.051   0.795   3.326  0.00  0.00     0.418 HD
ENDBRANCH   4   7
TORSDOF 1
ENDMDL
