MODEL 1
REMARK minimizedAffinity 16.0662422
REMARK minimizedRMSD -1
REMARK  0 active torsions:
REMARK  status: ('A' for Active; 'I' for Inactive)
ROOT
ATOM      1  O1  BZF d   1      -0.587  -0.811   4.240  0.00  0.00    -0.204 OA
ATOM      2  C2  BZF d   1      -0.010  -1.908   3.629  0.00  0.00     0.174 A 
ATOM      3  C3  BZF d   1      -0.882  -2.501   2.789  0.00  0.00    -0.012 A 
ATOM      4  C3A BZF d   1      -2.048  -1.673   2.811  0.00  0.00    -0.107 A 
ATOM      5  C4  BZF d   1      -3.253  -1.729   2.169  0.00  0.00     0.055 A 
ATOM      6  C5  BZF d   1      -4.204  -0.806   2.467  0.00  0.00    -0.016 A 
ATOM      7  C6  BZF d   1      -3.987   0.184   3.404  0.00  0.00     0.022 A 
ATOM      8  C7  BZF d   1      -2.807   0.284   4.062  0.00  0.00     0.029 A 
ATOM      9  C7A BZF d   1      -1.832  -0.628   3.739  0.00  0.00     0.058 A 
ENDROOT
TORSDOF 0
ENDMDL
