MODEL 1
REMARK minimizedAffinity 9.40907192
REMARK minimizedRMSD -1
REMARK  0 active torsions:
REMARK  status: ('A' for Active; 'I' for Inactive)
ROOT
ATOM      1  O1  BZF d   1       5.274  -4.903   5.995  0.00  0.00    -0.204 OA
ATOM      2  C2  BZF d   1       5.290  -5.999   5.153  0.00  0.00     0.174 A 
ATOM      3  C3  BZF d   1       4.418  -5.835   4.137  0.00  0.00    -0.012 A 
ATOM      4  C3A BZF d   1       3.887  -4.518   4.306  0.00  0.00    -0.107 A 
ATOM      5  C4  BZF d   1       2.985  -3.772   3.603  0.00  0.00     0.055 A 
ATOM      6  C5  BZF d   1       2.629  -2.548   4.075  0.00  0.00    -0.016 A 
ATOM      7  C6  BZF d   1       3.149  -2.043   5.248  0.00  0.00     0.022 A 
ATOM      8  C7  BZF d   1       4.051  -2.744   5.978  0.00  0.00     0.029 A 
ATOM      9  C7A BZF d   1       4.438  -3.966   5.486  0.00  0.00     0.058 A 
ENDROOT
TORSDOF 0
ENDMDL
