MODEL 1
REMARK minimizedAffinity 1.59753406
REMARK minimizedRMSD -1
REMARK  0 active torsions:
REMARK  status: ('A' for Active; 'I' for Inactive)
ROOT
ATOM      1  O1  BZF d   1       4.951  -5.343   3.099  0.00  0.00    -0.204 OA
ATOM      2  C2  BZF d   1       4.669  -5.559   4.435  0.00  0.00     0.174 A 
ATOM      3  C3  BZF d   1       3.533  -4.927   4.792  0.00  0.00    -0.012 A 
ATOM      4  C3A BZF d   1       3.026  -4.351   3.584  0.00  0.00    -0.107 A 
ATOM      5  C4  BZF d   1       1.916  -3.612   3.290  0.00  0.00     0.055 A 
ATOM      6  C5  BZF d   1       1.752  -3.142   2.025  0.00  0.00    -0.016 A 
ATOM      7  C6  BZF d   1       2.679  -3.387   1.033  0.00  0.00     0.022 A 
ATOM      8  C7  BZF d   1       3.793  -4.119   1.276  0.00  0.00     0.029 A 
ATOM      9  C7A BZF d   1       3.946  -4.623   2.545  0.00  0.00     0.058 A 
ENDROOT
TORSDOF 0
ENDMDL
