MODEL 1
REMARK minimizedAffinity 13.2016563
REMARK minimizedRMSD -1
REMARK  0 active torsions:
REMARK  status: ('A' for Active; 'I' for Inactive)
ROOT
ATOM      1  O1  BZF d   1      -0.528  -0.277   3.561  0.00  0.00    -0.204 OA
ATOM      2  C2  BZF d   1      -0.238  -1.451   2.894  0.00  0.00     0.174 A 
ATOM      3  C3  BZF d   1      -1.337  -1.938   2.283  0.00  0.00    -0.012 A 
ATOM      4  C3A BZF d   1      -2.358  -0.962   2.511  0.00  0.00    -0.107 A 
ATOM      5  C4  BZF d   1      -3.669  -0.870   2.140  0.00  0.00     0.055 A 
ATOM      6  C5  BZF d   1      -4.411   0.177   2.587  0.00  0.00    -0.016 A 
ATOM      7  C6  BZF d   1      -3.876   1.146   3.411  0.00  0.00     0.022 A 
ATOM      8  C7  BZF d   1      -2.579   1.100   3.802  0.00  0.00     0.029 A 
ATOM      9  C7A BZF d   1      -1.818   0.061   3.324  0.00  0.00     0.058 A 
ENDROOT
TORSDOF 0
ENDMDL
