MODEL 1
REMARK minimizedAffinity 17.4025154
REMARK minimizedRMSD -1
REMARK  0 active torsions:
REMARK  status: ('A' for Active; 'I' for Inactive)
ROOT
ATOM      1  O1  BZF d   1      -4.076  -3.220  -3.027  0.00  0.00    -0.204 OA
ATOM      2  C2  BZF d   1      -4.855  -2.944  -4.134  0.00  0.00     0.174 A 
ATOM      3  C3  BZF d   1      -5.355  -1.693  -4.068  0.00  0.00    -0.012 A 
ATOM      4  C3A BZF d   1      -4.782  -1.121  -2.888  0.00  0.00    -0.107 A 
ATOM      5  C4  BZF d   1      -4.883   0.105  -2.294  0.00  0.00     0.055 A 
ATOM      6  C5  BZF d   1      -4.254   0.318  -1.109  0.00  0.00    -0.016 A 
ATOM      7  C6  BZF d   1      -3.520  -0.671  -0.488  0.00  0.00     0.022 A 
ATOM      8  C7  BZF d   1      -3.386  -1.901  -1.041  0.00  0.00     0.029 A 
ATOM      9  C7A BZF d   1      -3.994  -2.110  -2.255  0.00  0.00     0.058 A 
ENDROOT
TORSDOF 0
ENDMDL
