MODEL 1
REMARK minimizedAffinity 3.02736282
REMARK minimizedRMSD -1
REMARK  0 active torsions:
REMARK  status: ('A' for Active; 'I' for Inactive)
ROOT
ATOM      1  O1  BZF d   1       2.648  -2.995   3.374  0.00  0.00    -0.204 OA
ATOM      2  C2  BZF d   1       2.144  -3.835   2.400  0.00  0.00     0.174 A 
ATOM      3  C3  BZF d   1       2.599  -5.093   2.569  0.00  0.00    -0.012 A 
ATOM      4  C3A BZF d   1       3.368  -5.055   3.775  0.00  0.00    -0.107 A 
ATOM      5  C4  BZF d   1       4.062  -6.000   4.476  0.00  0.00     0.055 A 
ATOM      6  C5  BZF d   1       4.765  -5.622   5.576  0.00  0.00    -0.016 A 
ATOM      7  C6  BZF d   1       4.800  -4.310   6.000  0.00  0.00     0.022 A 
ATOM      8  C7  BZF d   1       4.123  -3.339   5.340  0.00  0.00     0.029 A 
ATOM      9  C7A BZF d   1       3.385  -3.723   4.248  0.00  0.00     0.058 A 
ENDROOT
TORSDOF 0
ENDMDL
