MODEL 1
REMARK minimizedAffinity -0.136771068
REMARK minimizedRMSD -1
REMARK  0 active torsions:
REMARK  status: ('A' for Active; 'I' for Inactive)
ROOT
ATOM      1  O1  BZF d   1       2.139  -2.901   3.000  0.00  0.00    -0.204 OA
ATOM      2  C2  BZF d   1       1.879  -3.361   1.723  0.00  0.00     0.174 A 
ATOM      3  C3  BZF d   1       2.460  -4.562   1.520  0.00  0.00    -0.012 A 
ATOM      4  C3A BZF d   1       3.047  -4.913   2.777  0.00  0.00    -0.107 A 
ATOM      5  C4  BZF d   1       3.751  -5.999   3.214  0.00  0.00     0.055 A 
ATOM      6  C5  BZF d   1       4.246  -6.000   4.479  0.00  0.00    -0.016 A 
ATOM      7  C6  BZF d   1       4.061  -4.931   5.332  0.00  0.00     0.022 A 
ATOM      8  C7  BZF d   1       3.365  -3.834   4.946  0.00  0.00     0.029 A 
ATOM      9  C7A BZF d   1       2.835  -3.844   3.678  0.00  0.00     0.058 A 
ENDROOT
TORSDOF 0
ENDMDL
