MODEL 1
REMARK minimizedAffinity -1.68293965
REMARK minimizedRMSD -1
REMARK  0 active torsions:
REMARK  status: ('A' for Active; 'I' for Inactive)
ROOT
ATOM      1  O1  BZF d   1       2.544  -3.075   3.699  0.00  0.00    -0.204 OA
ATOM      2  C2  BZF d   1       2.388  -3.481   2.388  0.00  0.00     0.174 A 
ATOM      3  C3  BZF d   1       3.115  -4.590   2.141  0.00  0.00    -0.012 A 
ATOM      4  C3A BZF d   1       3.692  -4.950   3.400  0.00  0.00    -0.107 A 
ATOM      5  C4  BZF d   1       4.504  -5.971   3.803  0.00  0.00     0.055 A 
ATOM      6  C5  BZF d   1       4.949  -5.994   5.086  0.00  0.00    -0.016 A 
ATOM      7  C6  BZF d   1       4.607  -5.010   5.991  0.00  0.00     0.022 A 
ATOM      8  C7  BZF d   1       3.799  -3.980   5.639  0.00  0.00     0.029 A 
ATOM      9  C7A BZF d   1       3.322  -3.972   4.352  0.00  0.00     0.058 A 
ENDROOT
TORSDOF 0
ENDMDL
