MODEL 1
REMARK minimizedAffinity 1.46742427
REMARK minimizedRMSD -1
REMARK  0 active torsions:
REMARK  status: ('A' for Active; 'I' for Inactive)
ROOT
ATOM      1  C1  BNZ d   1       2.247  -1.003  -1.398  0.00  0.00     0.000 A 
ATOM      2  C2  BNZ d   1       2.384   0.001  -0.476  0.00  0.00     0.000 A 
ATOM      3  C3  BNZ d   1       3.076   1.140  -0.780  0.00  0.00     0.000 A 
ATOM      4  C4  BNZ d   1       3.662   1.257  -1.988  0.00  0.00     0.000 A 
ATOM      5  C5  BNZ d   1       3.540   0.250  -2.925  0.00  0.00     0.000 A 
ATOM      6  C6  BNZ d   1       2.811  -0.878  -2.630  0.00  0.00     0.000 A 
ENDROOT
TORSDOF 0
ENDMDL
