MODEL 1
REMARK minimizedAffinity -0.926609755
REMARK minimizedRMSD -1
REMARK  0 active torsions:
REMARK  status: ('A' for Active; 'I' for Inactive)
ROOT
ATOM      1  C1  BNZ d   1       4.511   1.333  -0.583  0.00  0.00     0.000 A 
ATOM      2  C2  BNZ d   1       4.051   0.118  -0.150  0.00  0.00     0.000 A 
ATOM      3  C3  BNZ d   1       2.710  -0.139  -0.080  0.00  0.00     0.000 A 
ATOM      4  C4  BNZ d   1       1.831   0.832  -0.403  0.00  0.00     0.000 A 
ATOM      5  C5  BNZ d   1       2.280   2.066  -0.832  0.00  0.00     0.000 A 
ATOM      6  C6  BNZ d   1       3.630   2.307  -0.939  0.00  0.00     0.000 A 
ENDROOT
TORSDOF 0
ENDMDL
