MODEL 1
REMARK minimizedAffinity -0.926304579
REMARK minimizedRMSD -1
REMARK  0 active torsions:
REMARK  status: ('A' for Active; 'I' for Inactive)
ROOT
ATOM      1  C1  BNZ d   1       2.238   0.056  -0.150  0.00  0.00     0.000 A 
ATOM      2  C2  BNZ d   1       1.758  -1.208  -0.371  0.00  0.00     0.000 A 
ATOM      3  C3  BNZ d   1       2.038  -1.869  -1.534  0.00  0.00     0.000 A 
ATOM      4  C4  BNZ d   1       2.761  -1.252  -2.490  0.00  0.00     0.000 A 
ATOM      5  C5  BNZ d   1       3.244   0.025  -2.287  0.00  0.00     0.000 A 
ATOM      6  C6  BNZ d   1       2.993   0.673  -1.099  0.00  0.00     0.000 A 
ENDROOT
TORSDOF 0
ENDMDL
