MODEL 1
REMARK minimizedAffinity 1.29788971
REMARK minimizedRMSD -1
REMARK  0 active torsions:
REMARK  status: ('A' for Active; 'I' for Inactive)
ROOT
ATOM      1  C1  BNZ d   1       1.010  -1.394   0.304  0.00  0.00     0.000 A 
ATOM      2  C2  BNZ d   1      -0.066  -2.050   0.840  0.00  0.00     0.000 A 
ATOM      3  C3  BNZ d   1      -1.185  -2.288   0.092  0.00  0.00     0.000 A 
ATOM      4  C4  BNZ d   1      -1.242  -1.836  -1.177  0.00  0.00     0.000 A 
ATOM      5  C5  BNZ d   1      -0.169  -1.165  -1.729  0.00  0.00     0.000 A 
ATOM      6  C6  BNZ d   1       0.970  -0.961  -0.985  0.00  0.00     0.000 A 
ENDROOT
TORSDOF 0
ENDMDL
