MODEL 1
REMARK minimizedAffinity 0.163310826
REMARK minimizedRMSD -1
REMARK  0 active torsions:
REMARK  status: ('A' for Active; 'I' for Inactive)
ROOT
ATOM      1  C1  BNZ d   1      -5.302   4.592  -4.465  0.00  0.00     0.000 A 
ATOM      2  C2  BNZ d   1      -5.265   3.415  -5.165  0.00  0.00     0.000 A 
ATOM      3  C3  BNZ d   1      -4.100   2.711  -5.290  0.00  0.00     0.000 A 
ATOM      4  C4  BNZ d   1      -2.967   3.204  -4.750  0.00  0.00     0.000 A 
ATOM      5  C5  BNZ d   1      -2.986   4.394  -4.049  0.00  0.00     0.000 A 
ATOM      6  C6  BNZ d   1      -4.168   5.080  -3.892  0.00  0.00     0.000 A 
ENDROOT
TORSDOF 0
ENDMDL
