MODEL 1
REMARK minimizedAffinity 1.827631
REMARK minimizedRMSD -1
REMARK  0 active torsions:
REMARK  status: ('A' for Active; 'I' for Inactive)
ROOT
ATOM      1  C1  BNZ d   1       1.010  -4.152   6.000  0.00  0.00     0.000 A 
ATOM      2  C2  BNZ d   1       0.541  -2.866   5.994  0.00  0.00     0.000 A 
ATOM      3  C3  BNZ d   1      -0.802  -2.610   5.999  0.00  0.00     0.000 A 
ATOM      4  C4  BNZ d   1      -1.673  -3.640   5.968  0.00  0.00     0.000 A 
ATOM      5  C5  BNZ d   1      -1.215  -4.943   5.964  0.00  0.00     0.000 A 
ATOM      6  C6  BNZ d   1       0.137  -5.196   5.999  0.00  0.00     0.000 A 
ENDROOT
TORSDOF 0
ENDMDL
