MODEL 1
REMARK minimizedAffinity -6.71180582
REMARK minimizedRMSD -1
REMARK  0 active torsions:
REMARK  status: ('A' for Active; 'I' for Inactive)
ROOT
ATOM      1  C1  DEN d   1      -2.186  -1.394   0.107  0.00  0.00     0.130 A 
ATOM      2  C2  DEN d   1      -0.730  -1.284   0.122  0.00  0.00    -0.031 A 
ATOM      3  C3  DEN d   1      -0.372  -0.080   0.899  0.00  0.00     0.027 A 
ATOM      4  C4  DEN d   1      -1.922   1.611   2.078  0.00  0.00     0.027 A 
ATOM      5  C5  DEN d   1      -3.234   1.941   2.335  0.00  0.00    -0.003 A 
ATOM      6  C6  DEN d   1      -4.281   1.208   1.842  0.00  0.00     0.001 A 
ATOM      7  C7  DEN d   1      -4.033   0.081   1.104  0.00  0.00     0.017 A 
ATOM      8  C8  DEN d   1      -2.713  -0.254   0.835  0.00  0.00    -0.094 A 
ATOM      9  C9  DEN d   1      -1.668   0.492   1.353  0.00  0.00    -0.072 A 
ENDROOT
TORSDOF 0
ENDMDL
