MODEL 1
REMARK minimizedAffinity -4.47322273
REMARK minimizedRMSD -1
REMARK  0 active torsions:
REMARK  status: ('A' for Active; 'I' for Inactive)
ROOT
ATOM      1  C1  DEN d   1      -0.685   0.107   2.646  0.00  0.00     0.130 A 
ATOM      2  C2  DEN d   1      -0.041  -0.889   1.795  0.00  0.00    -0.031 A 
ATOM      3  C3  DEN d   1      -1.032  -1.349   0.801  0.00  0.00     0.027 A 
ATOM      4  C4  DEN d   1      -3.485  -0.615   0.497  0.00  0.00     0.027 A 
ATOM      5  C5  DEN d   1      -4.483   0.197   0.988  0.00  0.00    -0.003 A 
ATOM      6  C6  DEN d   1      -4.297   1.005   2.078  0.00  0.00     0.001 A 
ATOM      7  C7  DEN d   1      -3.070   1.052   2.686  0.00  0.00     0.017 A 
ATOM      8  C8  DEN d   1      -2.061   0.230   2.202  0.00  0.00    -0.094 A 
ATOM      9  C9  DEN d   1      -2.266  -0.571   1.090  0.00  0.00    -0.072 A 
ENDROOT
TORSDOF 0
ENDMDL
