MODEL 1
REMARK minimizedAffinity -4.77943707
REMARK minimizedRMSD -1
REMARK  0 active torsions:
REMARK  status: ('A' for Active; 'I' for Inactive)
ROOT
ATOM      1  C1  DEN d   1       2.515  -0.562  -0.805  0.00  0.00     0.130 A 
ATOM      2  C2  DEN d   1       2.831  -1.563  -1.821  0.00  0.00    -0.031 A 
ATOM      3  C3  DEN d   1       1.598  -2.324  -2.110  0.00  0.00     0.027 A 
ATOM      4  C4  DEN d   1      -0.756  -2.045  -1.095  0.00  0.00     0.027 A 
ATOM      5  C5  DEN d   1      -1.510  -1.335  -0.187  0.00  0.00    -0.003 A 
ATOM      6  C6  DEN d   1      -0.972  -0.349   0.597  0.00  0.00     0.001 A 
ATOM      7  C7  DEN d   1       0.348  -0.014   0.455  0.00  0.00     0.017 A 
ATOM      8  C8  DEN d   1       1.117  -0.731  -0.454  0.00  0.00    -0.094 A 
ATOM      9  C9  DEN d   1       0.551  -1.716  -1.245  0.00  0.00    -0.072 A 
ENDROOT
TORSDOF 0
ENDMDL
