MODEL 1
REMARK minimizedAffinity -4.92394161
REMARK minimizedRMSD -1
REMARK  0 active torsions:
REMARK  status: ('A' for Active; 'I' for Inactive)
ROOT
ATOM      1  C1  DEN d   1       0.750  -0.797   1.414  0.00  0.00     0.130 A 
ATOM      2  C2  DEN d   1       0.708  -1.312   0.048  0.00  0.00    -0.031 A 
ATOM      3  C3  DEN d   1      -0.630  -1.025  -0.506  0.00  0.00     0.027 A 
ATOM      4  C4  DEN d   1      -2.629   0.164   0.610  0.00  0.00     0.027 A 
ATOM      5  C5  DEN d   1      -3.073   0.768   1.765  0.00  0.00    -0.003 A 
ATOM      6  C6  DEN d   1      -2.292   0.861   2.887  0.00  0.00     0.001 A 
ATOM      7  C7  DEN d   1      -1.009   0.382   2.863  0.00  0.00     0.017 A 
ATOM      8  C8  DEN d   1      -0.556  -0.234   1.703  0.00  0.00    -0.094 A 
ATOM      9  C9  DEN d   1      -1.357  -0.308   0.576  0.00  0.00    -0.072 A 
ENDROOT
TORSDOF 0
ENDMDL
