MODEL 1
REMARK minimizedAffinity -2.75347733
REMARK minimizedRMSD -1
REMARK  0 active torsions:
REMARK  status: ('A' for Active; 'I' for Inactive)
ROOT
ATOM      1  C1  DEN d   1      -1.777   0.424   0.768  0.00  0.00     0.130 A 
ATOM      2  C2  DEN d   1      -2.092  -0.254   2.022  0.00  0.00    -0.031 A 
ATOM      3  C3  DEN d   1      -1.625  -1.651   1.916  0.00  0.00     0.027 A 
ATOM      4  C4  DEN d   1      -0.445  -2.822  -0.056  0.00  0.00     0.027 A 
ATOM      5  C5  DEN d   1       0.026  -2.657  -1.340  0.00  0.00    -0.003 A 
ATOM      6  C6  DEN d   1      -0.100  -1.474  -2.018  0.00  0.00     0.001 A 
ATOM      7  C7  DEN d   1      -0.672  -0.394  -1.399  0.00  0.00     0.017 A 
ATOM      8  C8  DEN d   1      -1.156  -0.555  -0.107  0.00  0.00    -0.094 A 
ATOM      9  C9  DEN d   1      -1.008  -1.755   0.566  0.00  0.00    -0.072 A 
ENDROOT
TORSDOF 0
ENDMDL
