MODEL 1
REMARK minimizedAffinity -6.03924465
REMARK minimizedRMSD -1
REMARK  0 active torsions:
REMARK  status: ('A' for Active; 'I' for Inactive)
ROOT
ATOM      1  C1  DEN d   1      -1.858   0.014   2.586  0.00  0.00     0.130 A 
ATOM      2  C2  DEN d   1      -2.972   0.238   1.669  0.00  0.00    -0.031 A 
ATOM      3  C3  DEN d   1      -2.562  -0.229   0.330  0.00  0.00     0.027 A 
ATOM      4  C4  DEN d   1      -0.323  -1.276  -0.409  0.00  0.00     0.027 A 
ATOM      5  C5  DEN d   1       0.931  -1.655   0.013  0.00  0.00    -0.003 A 
ATOM      6  C6  DEN d   1       1.353  -1.475   1.304  0.00  0.00     0.001 A 
ATOM      7  C7  DEN d   1       0.496  -0.942   2.230  0.00  0.00     0.017 A 
ATOM      8  C8  DEN d   1      -0.768  -0.550   1.810  0.00  0.00    -0.094 A 
ATOM      9  C9  DEN d   1      -1.180  -0.751   0.504  0.00  0.00    -0.072 A 
ENDROOT
TORSDOF 0
ENDMDL
