MODEL 1
REMARK minimizedAffinity -2.68611288
REMARK minimizedRMSD -1
REMARK  0 active torsions:
REMARK  status: ('A' for Active; 'I' for Inactive)
ROOT
ATOM      1  N1  IND d   1       0.042   1.172  -2.741  0.00  0.00    -0.196 N 
ATOM      2  C2  IND d   1      -0.901   2.148  -2.577  0.00  0.00     0.054 A 
ATOM      3  C3  IND d   1      -1.404   2.111  -1.323  0.00  0.00    -0.031 A 
ATOM      4  C4  IND d   1      -0.755   0.598   0.656  0.00  0.00     0.051 A 
ATOM      5  C5  IND d   1       0.031  -0.472   0.981  0.00  0.00    -0.031 A 
ATOM      6  C6  IND d   1       0.880  -1.059   0.065  0.00  0.00     0.015 A 
ATOM      7  C7  IND d   1       0.983  -0.588  -1.214  0.00  0.00    -0.016 A 
ATOM      8  C8  IND d   1       0.181   0.494  -1.550  0.00  0.00    -0.047 A 
ATOM      9  C9  IND d   1      -0.713   1.067  -0.636  0.00  0.00    -0.096 A 
ATOM     10  HN1 IND d   1       0.475   1.008  -3.466  0.00  0.00     0.298 HD
ENDROOT
TORSDOF 0
ENDMDL
