MODEL 1
REMARK minimizedAffinity -4.14769554
REMARK minimizedRMSD -1
REMARK  0 active torsions:
REMARK  status: ('A' for Active; 'I' for Inactive)
ROOT
ATOM      1  N1  IND d   1      -0.278  -0.171  -1.225  0.00  0.00    -0.196 N 
ATOM      2  C2  IND d   1       0.359  -1.144  -0.506  0.00  0.00     0.054 A 
ATOM      3  C3  IND d   1       0.429  -0.795   0.799  0.00  0.00    -0.031 A 
ATOM      4  C4  IND d   1      -0.525   1.278   1.990  0.00  0.00     0.051 A 
ATOM      5  C5  IND d   1      -1.156   2.466   1.746  0.00  0.00    -0.031 A 
ATOM      6  C6  IND d   1      -1.537   2.841   0.474  0.00  0.00     0.015 A 
ATOM      7  C7  IND d   1      -1.310   2.035  -0.605  0.00  0.00    -0.016 A 
ATOM      8  C8  IND d   1      -0.663   0.831  -0.362  0.00  0.00    -0.047 A 
ATOM      9  C9  IND d   1      -0.236   0.464   0.921  0.00  0.00    -0.096 A 
ATOM     10  HN1 IND d   1      -0.415  -0.183  -2.074  0.00  0.00     0.298 HD
ENDROOT
TORSDOF 0
ENDMDL
