MODEL 1
REMARK minimizedAffinity -4.12036705
REMARK minimizedRMSD -1
REMARK  0 active torsions:
REMARK  status: ('A' for Active; 'I' for Inactive)
ROOT
ATOM      1  N1  IND d   1       0.923  -0.559   1.203  0.00  0.00    -0.196 N 
ATOM      2  C2  IND d   1       0.504  -1.357   0.175  0.00  0.00     0.054 A 
ATOM      3  C3  IND d   1      -0.569  -0.811  -0.438  0.00  0.00    -0.031 A 
ATOM      4  C4  IND d   1      -1.743   1.435   0.014  0.00  0.00     0.051 A 
ATOM      5  C5  IND d   1      -1.744   2.496   0.876  0.00  0.00    -0.031 A 
ATOM      6  C6  IND d   1      -0.836   2.596   1.910  0.00  0.00     0.015 A 
ATOM      7  C7  IND d   1       0.118   1.640   2.115  0.00  0.00    -0.016 A 
ATOM      8  C8  IND d   1       0.118   0.558   1.246  0.00  0.00    -0.047 A 
ATOM      9  C9  IND d   1      -0.828   0.430   0.221  0.00  0.00    -0.096 A 
ATOM     10  HN1 IND d   1       1.578  -0.727   1.734  0.00  0.00     0.298 HD
ENDROOT
TORSDOF 0
ENDMDL
