MODEL 1
REMARK minimizedAffinity -5.2082386
REMARK minimizedRMSD -1
REMARK  0 active torsions:
REMARK  status: ('A' for Active; 'I' for Inactive)
ROOT
ATOM      1  N1  IND d   1       0.234   0.112  -1.205  0.00  0.00    -0.196 N 
ATOM      2  C2  IND d   1       0.752  -0.713  -0.246  0.00  0.00     0.054 A 
ATOM      3  C3  IND d   1       0.517  -0.207   0.985  0.00  0.00    -0.031 A 
ATOM      4  C4  IND d   1      -0.787   1.906   1.665  0.00  0.00     0.051 A 
ATOM      5  C5  IND d   1      -1.415   3.000   1.140  0.00  0.00    -0.031 A 
ATOM      6  C6  IND d   1      -1.530   3.190  -0.222  0.00  0.00     0.015 A 
ATOM      7  C7  IND d   1      -1.030   2.283  -1.113  0.00  0.00    -0.016 A 
ATOM      8  C8  IND d   1      -0.385   1.174  -0.583  0.00  0.00    -0.047 A 
ATOM      9  C9  IND d   1      -0.227   0.997   0.798  0.00  0.00    -0.096 A 
ATOM     10  HN1 IND d   1       0.285  -0.011  -2.055  0.00  0.00     0.298 HD
ENDROOT
TORSDOF 0
ENDMDL
