MODEL 1
REMARK minimizedAffinity -5.71691036
REMARK minimizedRMSD -1
REMARK  0 active torsions:
REMARK  status: ('A' for Active; 'I' for Inactive)
ROOT
ATOM      1  N1  IND d   1       0.738  -0.083  -1.550  0.00  0.00    -0.196 N 
ATOM      2  C2  IND d   1       0.234   0.886  -2.373  0.00  0.00     0.054 A 
ATOM      3  C3  IND d   1      -0.513   1.763  -1.665  0.00  0.00    -0.031 A 
ATOM      4  C4  IND d   1      -0.962   1.857   0.868  0.00  0.00     0.051 A 
ATOM      5  C5  IND d   1      -0.745   1.166   2.027  0.00  0.00    -0.031 A 
ATOM      6  C6  IND d   1      -0.006   0.001   2.054  0.00  0.00     0.015 A 
ATOM      7  C7  IND d   1       0.556  -0.512   0.919  0.00  0.00    -0.016 A 
ATOM      8  C8  IND d   1       0.332   0.184  -0.261  0.00  0.00    -0.047 A 
ATOM      9  C9  IND d   1      -0.453   1.343  -0.301  0.00  0.00    -0.096 A 
ATOM     10  HN1 IND d   1       1.225  -0.747  -1.797  0.00  0.00     0.298 HD
ENDROOT
TORSDOF 0
ENDMDL
