MODEL 1
REMARK minimizedAffinity -3.47309589
REMARK minimizedRMSD -1
REMARK  0 active torsions:
REMARK  status: ('A' for Active; 'I' for Inactive)
ROOT
ATOM      1  N1  IND d   1       0.723   0.066  -1.369  0.00  0.00    -0.196 N 
ATOM      2  C2  IND d   1       0.191   1.000  -2.213  0.00  0.00     0.054 A 
ATOM      3  C3  IND d   1      -0.618   1.843  -1.533  0.00  0.00    -0.031 A 
ATOM      4  C4  IND d   1      -1.132   1.937   0.988  0.00  0.00     0.051 A 
ATOM      5  C5  IND d   1      -0.909   1.268   2.159  0.00  0.00    -0.031 A 
ATOM      6  C6  IND d   1      -0.112   0.143   2.215  0.00  0.00     0.015 A 
ATOM      7  C7  IND d   1       0.503  -0.350   1.099  0.00  0.00    -0.016 A 
ATOM      8  C8  IND d   1       0.273   0.322  -0.092  0.00  0.00    -0.047 A 
ATOM      9  C9  IND d   1      -0.569   1.439  -0.163  0.00  0.00    -0.096 A 
ATOM     10  HN1 IND d   1       1.250  -0.574  -1.597  0.00  0.00     0.298 HD
ENDROOT
TORSDOF 0
ENDMDL
