MODEL 1
REMARK minimizedAffinity -4.49393988
REMARK minimizedRMSD -1
REMARK  0 active torsions:
REMARK  status: ('A' for Active; 'I' for Inactive)
ROOT
ATOM      1  N1  IND d   1      -0.343  -0.398  -0.739  0.00  0.00    -0.196 N 
ATOM      2  C2  IND d   1       0.627  -1.083  -0.062  0.00  0.00     0.054 A 
ATOM      3  C3  IND d   1       0.949  -0.436   1.080  0.00  0.00    -0.031 A 
ATOM      4  C4  IND d   1      -0.061   1.708   2.086  0.00  0.00     0.051 A 
ATOM      5  C5  IND d   1      -0.949   2.710   1.815  0.00  0.00    -0.031 A 
ATOM      6  C6  IND d   1      -1.698   2.727   0.656  0.00  0.00     0.015 A 
ATOM      7  C7  IND d   1      -1.594   1.731  -0.274  0.00  0.00    -0.016 A 
ATOM      8  C8  IND d   1      -0.688   0.715  -0.005  0.00  0.00    -0.047 A 
ATOM      9  C9  IND d   1       0.106   0.715   1.150  0.00  0.00    -0.096 A 
ATOM     10  HN1 IND d   1      -0.681  -0.625  -1.497  0.00  0.00     0.298 HD
ENDROOT
TORSDOF 0
ENDMDL
