MODEL 1
REMARK minimizedAffinity -4.78562117
REMARK minimizedRMSD -1
REMARK  0 active torsions:
REMARK  status: ('A' for Active; 'I' for Inactive)
ROOT
ATOM      1  C   UNL d   1      -0.873  -0.127   0.389  0.00  0.00    -0.002 A 
ATOM      2  C1  UNL d   1       0.247   0.569  -0.041  0.00  0.00     0.010 A 
ATOM      3  C2  UNL d   1       1.529   0.075   0.206  0.00  0.00     0.041 A 
ATOM      4  C3  UNL d   1       1.668  -1.145   0.898  0.00  0.00    -0.075 A 
ATOM      5  S   UNL d   1       3.138  -1.943   1.312  0.00  0.00     0.015 SA
ATOM      6  C4  UNL d   1       2.314  -3.229   2.069  0.00  0.00     0.022 A 
ATOM      7  C5  UNL d   1       0.950  -3.068   2.017  0.00  0.00     0.026 A 
ATOM      8  C6  UNL d   1       0.555  -1.865   1.340  0.00  0.00    -0.082 A 
ATOM      9  C7  UNL d   1      -0.732  -1.337   1.075  0.00  0.00     0.045 A 
ENDROOT
TORSDOF 0
ENDMDL
