MODEL 1
REMARK minimizedAffinity -6.50358391
REMARK minimizedRMSD -1
REMARK  0 active torsions:
REMARK  status: ('A' for Active; 'I' for Inactive)
ROOT
ATOM      1  C   UNL d   1       0.326  -2.809   2.949  0.00  0.00    -0.002 A 
ATOM      2  C1  UNL d   1      -0.715  -1.905   3.107  0.00  0.00     0.010 A 
ATOM      3  C2  UNL d   1      -0.900  -0.867   2.192  0.00  0.00     0.041 A 
ATOM      4  C3  UNL d   1      -0.013  -0.753   1.103  0.00  0.00    -0.075 A 
ATOM      5  S   UNL d   1      -0.046   0.437  -0.144  0.00  0.00     0.015 SA
ATOM      6  C4  UNL d   1       1.320  -0.227  -0.917  0.00  0.00     0.022 A 
ATOM      7  C5  UNL d   1       1.802  -1.330  -0.253  0.00  0.00     0.026 A 
ATOM      8  C6  UNL d   1       1.042  -1.652   0.921  0.00  0.00    -0.082 A 
ATOM      9  C7  UNL d   1       1.203  -2.693   1.867  0.00  0.00     0.045 A 
ENDROOT
TORSDOF 0
ENDMDL
