MODEL 1
REMARK minimizedAffinity -5.59997225
REMARK minimizedRMSD -1
REMARK  0 active torsions:
REMARK  status: ('A' for Active; 'I' for Inactive)
ROOT
ATOM      1  C   UNL d   1      -1.996  -1.047   2.782  0.00  0.00    -0.002 A 
ATOM      2  C1  UNL d   1      -1.887   0.177   2.136  0.00  0.00     0.010 A 
ATOM      3  C2  UNL d   1      -0.909   0.381   1.161  0.00  0.00     0.041 A 
ATOM      4  C3  UNL d   1      -0.034  -0.676   0.842  0.00  0.00    -0.075 A 
ATOM      5  S   UNL d   1       1.240  -0.655  -0.320  0.00  0.00     0.015 SA
ATOM      6  C4  UNL d   1       1.670  -2.270   0.013  0.00  0.00     0.022 A 
ATOM      7  C5  UNL d   1       0.872  -2.827   0.984  0.00  0.00     0.026 A 
ATOM      8  C6  UNL d   1      -0.124  -1.917   1.477  0.00  0.00    -0.082 A 
ATOM      9  C7  UNL d   1      -1.126  -2.093   2.462  0.00  0.00     0.045 A 
ENDROOT
TORSDOF 0
ENDMDL
