MODEL 1
REMARK minimizedAffinity -4.03714943
REMARK minimizedRMSD -1
REMARK  0 active torsions:
REMARK  status: ('A' for Active; 'I' for Inactive)
ROOT
ATOM      1  C   UNL d   1       1.452  -3.284   1.595  0.00  0.00    -0.002 A 
ATOM      2  C1  UNL d   1       0.406  -2.955   2.446  0.00  0.00     0.010 A 
ATOM      3  C2  UNL d   1      -0.372  -1.820   2.209  0.00  0.00     0.041 A 
ATOM      4  C3  UNL d   1      -0.078  -1.014   1.091  0.00  0.00    -0.075 A 
ATOM      5  S   UNL d   1      -0.896   0.424   0.603  0.00  0.00     0.015 SA
ATOM      6  C4  UNL d   1       0.124   0.634  -0.746  0.00  0.00     0.022 A 
ATOM      7  C5  UNL d   1       1.071  -0.358  -0.837  0.00  0.00     0.026 A 
ATOM      8  C6  UNL d   1       0.970  -1.325   0.220  0.00  0.00    -0.082 A 
ATOM      9  C7  UNL d   1       1.740  -2.482   0.488  0.00  0.00     0.045 A 
ENDROOT
TORSDOF 0
ENDMDL
