MODEL 1
REMARK minimizedAffinity -1.28979909
REMARK minimizedRMSD -1
REMARK  0 active torsions:
REMARK  status: ('A' for Active; 'I' for Inactive)
ROOT
ATOM      1  C   UNL d   1      -2.167   1.848  -1.458  0.00  0.00    -0.002 A 
ATOM      2  C1  UNL d   1      -2.826   1.521  -2.634  0.00  0.00     0.010 A 
ATOM      3  C2  UNL d   1      -2.496   2.155  -3.833  0.00  0.00     0.041 A 
ATOM      4  C3  UNL d   1      -1.481   3.132  -3.830  0.00  0.00    -0.075 A 
ATOM      5  S   UNL d   1      -0.908   4.039  -5.180  0.00  0.00     0.015 SA
ATOM      6  C4  UNL d   1       0.226   4.882  -4.227  0.00  0.00     0.022 A 
ATOM      7  C5  UNL d   1       0.182   4.493  -2.908  0.00  0.00     0.026 A 
ATOM      8  C6  UNL d   1      -0.802   3.478  -2.659  0.00  0.00    -0.082 A 
ATOM      9  C7  UNL d   1      -1.161   2.818  -1.459  0.00  0.00     0.045 A 
ENDROOT
TORSDOF 0
ENDMDL
