MODEL 1
REMARK minimizedAffinity -0.224570811
REMARK minimizedRMSD -1
REMARK  0 active torsions:
REMARK  status: ('A' for Active; 'I' for Inactive)
ROOT
ATOM      1  C   UNL d   1       0.933  -1.676   1.382  0.00  0.00    -0.002 A 
ATOM      2  C1  UNL d   1      -0.274  -1.126   1.789  0.00  0.00     0.010 A 
ATOM      3  C2  UNL d   1      -1.104  -0.477   0.872  0.00  0.00     0.041 A 
ATOM      4  C3  UNL d   1      -0.697  -0.391  -0.474  0.00  0.00    -0.075 A 
ATOM      5  S   UNL d   1      -1.551   0.355  -1.773  0.00  0.00     0.015 SA
ATOM      6  C4  UNL d   1      -0.333  -0.040  -2.898  0.00  0.00     0.022 A 
ATOM      7  C5  UNL d   1       0.706  -0.724  -2.314  0.00  0.00     0.026 A 
ATOM      8  C6  UNL d   1       0.514  -0.939  -0.908  0.00  0.00    -0.082 A 
ATOM      9  C7  UNL d   1       1.333  -1.589   0.046  0.00  0.00     0.045 A 
ENDROOT
TORSDOF 0
ENDMDL
