MODEL 1
REMARK minimizedAffinity 2.06214476
REMARK minimizedRMSD -1
REMARK  0 active torsions:
REMARK  status: ('A' for Active; 'I' for Inactive)
ROOT
ATOM      1  C   UNL d   1       1.486  -2.481   2.696  0.00  0.00    -0.002 A 
ATOM      2  C1  UNL d   1       0.193  -2.115   3.041  0.00  0.00     0.010 A 
ATOM      3  C2  UNL d   1      -0.519  -1.203   2.259  0.00  0.00     0.041 A 
ATOM      4  C3  UNL d   1       0.096  -0.661   1.113  0.00  0.00    -0.075 A 
ATOM      5  S   UNL d   1      -0.583   0.473   0.006  0.00  0.00     0.015 SA
ATOM      6  C4  UNL d   1       0.827   0.496  -0.951  0.00  0.00     0.022 A 
ATOM      7  C5  UNL d   1       1.802  -0.334  -0.452  0.00  0.00     0.026 A 
ATOM      8  C6  UNL d   1       1.397  -1.015   0.745  0.00  0.00    -0.082 A 
ATOM      9  C7  UNL d   1       2.093  -1.942   1.559  0.00  0.00     0.045 A 
ENDROOT
TORSDOF 0
ENDMDL
