MODEL 1
REMARK minimizedAffinity -2.21618199
REMARK minimizedRMSD -1
REMARK  0 active torsions:
REMARK  status: ('A' for Active; 'I' for Inactive)
ROOT
ATOM      1  C   UNL d   1       1.389  -2.597   2.545  0.00  0.00    -0.002 A 
ATOM      2  C1  UNL d   1       0.046  -2.379   2.816  0.00  0.00     0.010 A 
ATOM      3  C2  UNL d   1      -0.739  -1.616   1.949  0.00  0.00     0.041 A 
ATOM      4  C3  UNL d   1      -0.146  -1.072   0.793  0.00  0.00    -0.075 A 
ATOM      5  S   UNL d   1      -0.912  -0.107  -0.413  0.00  0.00     0.015 SA
ATOM      6  C4  UNL d   1       0.526   0.039  -1.316  0.00  0.00     0.022 A 
ATOM      7  C5  UNL d   1       1.574  -0.627  -0.727  0.00  0.00     0.026 A 
ATOM      8  C6  UNL d   1       1.205  -1.279   0.498  0.00  0.00    -0.082 A 
ATOM      9  C7  UNL d   1       1.974  -2.056   1.397  0.00  0.00     0.045 A 
ENDROOT
TORSDOF 0
ENDMDL
