MODEL 1
REMARK minimizedAffinity -4.94554996
REMARK minimizedRMSD -1
REMARK  0 active torsions:
REMARK  status: ('A' for Active; 'I' for Inactive)
ROOT
ATOM      1  C   UNL d   1       1.274  -3.095   1.626  0.00  0.00    -0.002 A 
ATOM      2  C1  UNL d   1       0.125  -2.809   2.349  0.00  0.00     0.010 A 
ATOM      3  C2  UNL d   1      -0.655  -1.695   2.032  0.00  0.00     0.041 A 
ATOM      4  C3  UNL d   1      -0.257  -0.867   0.964  0.00  0.00    -0.075 A 
ATOM      5  S   UNL d   1      -1.057   0.551   0.395  0.00  0.00     0.015 SA
ATOM      6  C4  UNL d   1       0.107   0.809  -0.823  0.00  0.00     0.022 A 
ATOM      7  C5  UNL d   1       1.089  -0.153  -0.810  0.00  0.00     0.026 A 
ATOM      8  C6  UNL d   1       0.895  -1.135   0.220  0.00  0.00    -0.082 A 
ATOM      9  C7  UNL d   1       1.665  -2.271   0.567  0.00  0.00     0.045 A 
ENDROOT
TORSDOF 0
ENDMDL
