MODEL 1
REMARK minimizedAffinity -3.71550822
REMARK minimizedRMSD -1
REMARK  0 active torsions:
REMARK  status: ('A' for Active; 'I' for Inactive)
ROOT
ATOM      1  C   UNL d   1       0.488  -2.334   2.917  0.00  0.00    -0.002 A 
ATOM      2  C1  UNL d   1      -0.707  -1.628   2.909  0.00  0.00     0.010 A 
ATOM      3  C2  UNL d   1      -0.989  -0.721   1.885  0.00  0.00     0.041 A 
ATOM      4  C3  UNL d   1      -0.042  -0.536   0.858  0.00  0.00    -0.075 A 
ATOM      5  S   UNL d   1      -0.172   0.520  -0.498  0.00  0.00     0.015 SA
ATOM      6  C4  UNL d   1       1.355   0.058  -1.099  0.00  0.00     0.022 A 
ATOM      7  C5  UNL d   1       1.963  -0.878  -0.296  0.00  0.00     0.026 A 
ATOM      8  C6  UNL d   1       1.168  -1.237   0.844  0.00  0.00    -0.082 A 
ATOM      9  C7  UNL d   1       1.425  -2.148   1.897  0.00  0.00     0.045 A 
ENDROOT
TORSDOF 0
ENDMDL
