MODEL 1
REMARK minimizedAffinity -1.96819186
REMARK minimizedRMSD -1
REMARK  0 active torsions:
REMARK  status: ('A' for Active; 'I' for Inactive)
ROOT
ATOM      1  C   UNL d   1      -2.872   0.938  -3.649  0.00  0.00    -0.002 A 
ATOM      2  C1  UNL d   1      -2.695   2.227  -3.166  0.00  0.00     0.010 A 
ATOM      3  C2  UNL d   1      -1.866   2.467  -2.068  0.00  0.00     0.041 A 
ATOM      4  C3  UNL d   1      -1.211   1.379  -1.459  0.00  0.00    -0.075 A 
ATOM      5  S   UNL d   1      -0.147   1.433  -0.103  0.00  0.00     0.015 SA
ATOM      6  C4  UNL d   1       0.098  -0.253  -0.133  0.00  0.00     0.022 A 
ATOM      7  C5  UNL d   1      -0.607  -0.859  -1.146  0.00  0.00     0.026 A 
ATOM      8  C6  UNL d   1      -1.372   0.072  -1.928  0.00  0.00    -0.082 A 
ATOM      9  C7  UNL d   1      -2.220  -0.139  -3.042  0.00  0.00     0.045 A 
ENDROOT
TORSDOF 0
ENDMDL
