MODEL 1
REMARK minimizedAffinity -1.95277977
REMARK minimizedRMSD -1
REMARK  2 active torsions:
REMARK  status: ('A' for Active; 'I' for Inactive)
REMARK    1  A    between atoms: C2'_3  and  C1'_4 
REMARK    2  A    between atoms: C1'_4  and  C1_5 
ROOT
ATOM      1  C1  I4B d   1       0.147   0.409   0.203  0.00  0.00    -0.075 A 
ATOM      2  C2  I4B d   1       1.289   0.580  -0.538  0.00  0.00     0.003 A 
ATOM      3  C3  I4B d   1       2.421  -0.236  -0.302  0.00  0.00     0.002 A 
ATOM      4  C4  I4B d   1       2.385  -1.172   0.712  0.00  0.00    -0.004 A 
ATOM      5  C5  I4B d   1       1.218  -1.360   1.447  0.00  0.00     0.002 A 
ATOM      6  C6  I4B d   1       0.088  -0.574   1.183  0.00  0.00     0.003 A 
ENDROOT
BRANCH   1   7
ATOM      7  C1' I4B d   1      -1.019   1.311  -0.050  0.00  0.00     0.060 C 
BRANCH   7   8
ATOM      8  C2' I4B d   1      -1.284   1.323  -1.542  0.00  0.00    -0.013 C 
ATOM      9  C4' I4B d   1      -2.681   0.851  -1.852  0.00  0.00     0.013 C 
ATOM     10  C3' I4B d   1      -1.062   2.720  -2.040  0.00  0.00     0.013 C 
ENDBRANCH   7   8
ENDBRANCH   1   7
TORSDOF 2
ENDMDL
