MODEL 1
REMARK minimizedAffinity -3.28088832
REMARK minimizedRMSD -1
REMARK  2 active torsions:
REMARK  status: ('A' for Active; 'I' for Inactive)
REMARK    1  A    between atoms: C2'_3  and  C1'_4 
REMARK    2  A    between atoms: C1'_4  and  C1_5 
ROOT
ATOM      1  C1  I4B d   1       0.168   0.245   0.165  0.00  0.00    -0.075 A 
ATOM      2  C2  I4B d   1       1.261   0.302  -0.664  0.00  0.00     0.003 A 
ATOM      3  C3  I4B d   1       2.344  -0.590  -0.479  0.00  0.00     0.002 A 
ATOM      4  C4  I4B d   1       2.316  -1.484   0.572  0.00  0.00    -0.004 A 
ATOM      5  C5  I4B d   1       1.198  -1.557   1.398  0.00  0.00     0.002 A 
ATOM      6  C6  I4B d   1       0.111  -0.695   1.186  0.00  0.00     0.003 A 
ENDROOT
BRANCH   1   7
ATOM      7  C1' I4B d   1      -0.944   1.224  -0.039  0.00  0.00     0.060 C 
BRANCH   7   8
ATOM      8  C2' I4B d   1      -1.244   1.286  -1.523  0.00  0.00    -0.013 C 
ATOM      9  C4' I4B d   1      -2.643   0.811  -1.816  0.00  0.00     0.013 C 
ATOM     10  C3' I4B d   1      -1.047   2.702  -1.976  0.00  0.00     0.013 C 
ENDBRANCH   7   8
ENDBRANCH   1   7
TORSDOF 2
ENDMDL
