MODEL 1
REMARK minimizedAffinity -4.35066223
REMARK minimizedRMSD -1
REMARK  2 active torsions:
REMARK  status: ('A' for Active; 'I' for Inactive)
REMARK    1  A    between atoms: C2'_3  and  C1'_4 
REMARK    2  A    between atoms: C1'_4  and  C1_5 
ROOT
ATOM      1  C1  I4B d   1       0.614   0.277  -0.170  0.00  0.00    -0.075 A 
ATOM      2  C2  I4B d   1       0.530  -0.821   0.651  0.00  0.00     0.003 A 
ATOM      3  C3  I4B d   1       1.620  -1.719   0.753  0.00  0.00     0.002 A 
ATOM      4  C4  I4B d   1       2.747  -1.511  -0.017  0.00  0.00    -0.004 A 
ATOM      5  C5  I4B d   1       2.839  -0.386  -0.830  0.00  0.00     0.002 A 
ATOM      6  C6  I4B d   1       1.771   0.521  -0.899  0.00  0.00     0.003 A 
ENDROOT
BRANCH   1   7
ATOM      7  C1' I4B d   1      -0.568   1.187  -0.279  0.00  0.00     0.060 C 
BRANCH   7   8
ATOM      8  C2' I4B d   1      -0.864   1.394  -1.750  0.00  0.00    -0.013 C 
ATOM      9  C4' I4B d   1      -1.802   0.338  -2.271  0.00  0.00     0.013 C 
ATOM     10  C3' I4B d   1      -1.446   2.766  -1.917  0.00  0.00     0.013 C 
ENDBRANCH   7   8
ENDBRANCH   1   7
TORSDOF 2
ENDMDL
