MODEL 1
REMARK minimizedAffinity -2.33101034
REMARK minimizedRMSD -1
REMARK  2 active torsions:
REMARK  status: ('A' for Active; 'I' for Inactive)
REMARK    1  A    between atoms: C2'_3  and  C1'_4 
REMARK    2  A    between atoms: C1'_4  and  C1_5 
ROOT
ATOM      1  C1  I4B d   1       0.161   0.242  -1.152  0.00  0.00    -0.075 A 
ATOM      2  C2  I4B d   1      -0.583  -0.534  -0.298  0.00  0.00     0.003 A 
ATOM      3  C3  I4B d   1       0.007  -1.077   0.869  0.00  0.00     0.002 A 
ATOM      4  C4  I4B d   1       1.347  -0.863   1.115  0.00  0.00    -0.004 A 
ATOM      5  C5  I4B d   1       2.095  -0.058   0.261  0.00  0.00     0.002 A 
ATOM      6  C6  I4B d   1       1.496   0.509  -0.873  0.00  0.00     0.003 A 
ENDROOT
BRANCH   1   7
ATOM      7  C1' I4B d   1      -0.485   0.773  -2.392  0.00  0.00     0.060 C 
BRANCH   7   8
ATOM      8  C2' I4B d   1      -1.574   1.739  -1.974  0.00  0.00    -0.013 C 
ATOM      9  C4' I4B d   1      -1.100   3.166  -2.061  0.00  0.00     0.013 C 
ATOM     10  C3' I4B d   1      -2.762   1.509  -2.859  0.00  0.00     0.013 C 
ENDBRANCH   7   8
ENDBRANCH   1   7
TORSDOF 2
ENDMDL
