MODEL 1
REMARK minimizedAffinity -4.41890812
REMARK minimizedRMSD -1
REMARK  2 active torsions:
REMARK  status: ('A' for Active; 'I' for Inactive)
REMARK    1  A    between atoms: C2'_3  and  C1'_4 
REMARK    2  A    between atoms: C1'_4  and  C1_5 
ROOT
ATOM      1  C1  I4B d   1       0.631  -0.134   0.166  0.00  0.00    -0.075 A 
ATOM      2  C2  I4B d   1       0.299  -1.166   1.007  0.00  0.00     0.003 A 
ATOM      3  C3  I4B d   1      -0.810  -1.046   1.879  0.00  0.00     0.002 A 
ATOM      4  C4  I4B d   1      -1.524   0.134   1.912  0.00  0.00    -0.004 A 
ATOM      5  C5  I4B d   1      -1.200   1.171   1.042  0.00  0.00     0.002 A 
ATOM      6  C6  I4B d   1      -0.124   1.032   0.154  0.00  0.00     0.003 A 
ENDROOT
BRANCH   1   7
ATOM      7  C1' I4B d   1       1.829  -0.281  -0.719  0.00  0.00     0.060 C 
BRANCH   7   8
ATOM      8  C2' I4B d   1       3.049   0.137   0.076  0.00  0.00    -0.013 C 
ATOM      9  C4' I4B d   1       3.333  -0.834   1.191  0.00  0.00     0.013 C 
ATOM     10  C3' I4B d   1       4.209   0.227  -0.871  0.00  0.00     0.013 C 
ENDBRANCH   7   8
ENDBRANCH   1   7
TORSDOF 2
ENDMDL
