MODEL 1
REMARK minimizedAffinity -4.19075632
REMARK minimizedRMSD -1
REMARK  2 active torsions:
REMARK  status: ('A' for Active; 'I' for Inactive)
REMARK    1  A    between atoms: C2'_3  and  C1'_4 
REMARK    2  A    between atoms: C1'_4  and  C1_5 
ROOT
ATOM      1  C1  I4B d   1       0.154   0.371   0.225  0.00  0.00    -0.075 A 
ATOM      2  C2  I4B d   1       1.457   0.550  -0.166  0.00  0.00     0.003 A 
ATOM      3  C3  I4B d   1       2.420  -0.459   0.080  0.00  0.00     0.002 A 
ATOM      4  C4  I4B d   1       2.049  -1.601   0.760  0.00  0.00    -0.004 A 
ATOM      5  C5  I4B d   1       0.722  -1.791   1.134  0.00  0.00     0.002 A 
ATOM      6  C6  I4B d   1      -0.235  -0.805   0.855  0.00  0.00     0.003 A 
ENDROOT
BRANCH   1   7
ATOM      7  C1' I4B d   1      -0.830   1.471  -0.021  0.00  0.00     0.060 C 
BRANCH   7   8
ATOM      8  C2' I4B d   1      -1.008   1.611  -1.519  0.00  0.00    -0.013 C 
ATOM      9  C4' I4B d   1      -2.438   1.365  -1.924  0.00  0.00     0.013 C 
ATOM     10  C3' I4B d   1      -0.564   2.989  -1.911  0.00  0.00     0.013 C 
ENDBRANCH   7   8
ENDBRANCH   1   7
TORSDOF 2
ENDMDL
