MODEL 1
REMARK minimizedAffinity -5.93994617
REMARK minimizedRMSD -1
REMARK  2 active torsions:
REMARK  status: ('A' for Active; 'I' for Inactive)
REMARK    1  A    between atoms: C2'_3  and  C1'_4 
REMARK    2  A    between atoms: C1'_4  and  C1_5 
ROOT
ATOM      1  C1  I4B d   1      -0.500   2.086  -1.126  0.00  0.00    -0.075 A 
ATOM      2  C2  I4B d   1       0.182   3.149  -1.663  0.00  0.00     0.003 A 
ATOM      3  C3  I4B d   1      -0.242   3.724  -2.886  0.00  0.00     0.002 A 
ATOM      4  C4  I4B d   1      -1.315   3.176  -3.558  0.00  0.00    -0.004 A 
ATOM      5  C5  I4B d   1      -2.019   2.112  -3.001  0.00  0.00     0.002 A 
ATOM      6  C6  I4B d   1      -1.617   1.571  -1.771  0.00  0.00     0.003 A 
ENDROOT
BRANCH   1   7
ATOM      7  C1' I4B d   1      -0.005   1.482   0.150  0.00  0.00     0.060 C 
BRANCH   7   8
ATOM      8  C2' I4B d   1       0.790   0.240  -0.199  0.00  0.00    -0.013 C 
ATOM      9  C4' I4B d   1       2.265   0.460   0.007  0.00  0.00     0.013 C 
ATOM     10  C3' I4B d   1       0.286  -0.886   0.653  0.00  0.00     0.013 C 
ENDBRANCH   7   8
ENDBRANCH   1   7
TORSDOF 2
ENDMDL
