MODEL 1
REMARK minimizedAffinity -4.89996099
REMARK minimizedRMSD -1
REMARK  2 active torsions:
REMARK  status: ('A' for Active; 'I' for Inactive)
REMARK    1  A    between atoms: C2'_3  and  C1'_4 
REMARK    2  A    between atoms: C1'_4  and  C1_5 
ROOT
ATOM      1  C1  I4B d   1      -0.152  -0.043   0.040  0.00  0.00    -0.075 A 
ATOM      2  C2  I4B d   1       1.170   0.101  -0.302  0.00  0.00     0.003 A 
ATOM      3  C3  I4B d   1       2.114  -0.884   0.076  0.00  0.00     0.002 A 
ATOM      4  C4  I4B d   1       1.706  -1.963   0.833  0.00  0.00    -0.004 A 
ATOM      5  C5  I4B d   1       0.362  -2.118   1.159  0.00  0.00     0.002 A 
ATOM      6  C6  I4B d   1      -0.576  -1.159   0.750  0.00  0.00     0.003 A 
ENDROOT
BRANCH   1   7
ATOM      7  C1' I4B d   1      -1.117   1.032  -0.347  0.00  0.00     0.060 C 
BRANCH   7   8
ATOM      8  C2' I4B d   1      -1.124   1.131  -1.859  0.00  0.00    -0.013 C 
ATOM      9  C4' I4B d   1      -2.035   0.098  -2.469  0.00  0.00     0.013 C 
ATOM     10  C3' I4B d   1      -1.555   2.519  -2.230  0.00  0.00     0.013 C 
ENDBRANCH   7   8
ENDBRANCH   1   7
TORSDOF 2
ENDMDL
