MODEL 1
REMARK minimizedAffinity -2.14842987
REMARK minimizedRMSD -1
REMARK  2 active torsions:
REMARK  status: ('A' for Active; 'I' for Inactive)
REMARK    1  A    between atoms: C2'_3  and  C1'_4 
REMARK    2  A    between atoms: C1'_4  and  C1_5 
ROOT
ATOM      1  C1  I4B d   1       0.210  -0.670   0.232  0.00  0.00    -0.075 A 
ATOM      2  C2  I4B d   1      -0.116  -1.966   0.546  0.00  0.00     0.003 A 
ATOM      3  C3  I4B d   1      -1.268  -2.243   1.321  0.00  0.00     0.002 A 
ATOM      4  C4  I4B d   1      -2.033  -1.199   1.800  0.00  0.00    -0.004 A 
ATOM      5  C5  I4B d   1      -1.714   0.113   1.462  0.00  0.00     0.002 A 
ATOM      6  C6  I4B d   1      -0.593   0.379   0.662  0.00  0.00     0.003 A 
ENDROOT
BRANCH   1   7
ATOM      7  C1' I4B d   1       1.452  -0.410  -0.560  0.00  0.00     0.060 C 
BRANCH   7   8
ATOM      8  C2' I4B d   1       2.514   0.103   0.391  0.00  0.00    -0.013 C 
ATOM      9  C4' I4B d   1       3.260  -1.032   1.040  0.00  0.00     0.013 C 
ATOM     10  C3' I4B d   1       3.442   0.988  -0.386  0.00  0.00     0.013 C 
ENDBRANCH   7   8
ENDBRANCH   1   7
TORSDOF 2
ENDMDL
