MODEL 1
REMARK minimizedAffinity 2.73975849
REMARK minimizedRMSD -1
REMARK  2 active torsions:
REMARK  status: ('A' for Active; 'I' for Inactive)
REMARK    1  A    between atoms: C2'_3  and  C1'_4 
REMARK    2  A    between atoms: C1'_4  and  C1_5 
ROOT
ATOM      1  C1  I4B d   1       2.469  -1.512   1.083  0.00  0.00    -0.075 A 
ATOM      2  C2  I4B d   1       2.045  -2.755   1.484  0.00  0.00     0.003 A 
ATOM      3  C3  I4B d   1       0.663  -3.059   1.520  0.00  0.00     0.002 A 
ATOM      4  C4  I4B d   1      -0.257  -2.081   1.198  0.00  0.00    -0.004 A 
ATOM      5  C5  I4B d   1       0.176  -0.829   0.770  0.00  0.00     0.002 A 
ATOM      6  C6  I4B d   1       1.547  -0.546   0.701  0.00  0.00     0.003 A 
ENDROOT
BRANCH   1   7
ATOM      7  C1' I4B d   1       3.935  -1.215   1.088  0.00  0.00     0.060 C 
BRANCH   7   8
ATOM      8  C2' I4B d   1       4.443  -1.392   2.505  0.00  0.00    -0.013 C 
ATOM      9  C4' I4B d   1       5.948  -1.370   2.551  0.00  0.00     0.013 C 
ATOM     10  C3' I4B d   1       3.859  -0.297   3.346  0.00  0.00     0.013 C 
ENDBRANCH   7   8
ENDBRANCH   1   7
TORSDOF 2
ENDMDL
