MODEL 1
REMARK minimizedAffinity -4.95395327
REMARK minimizedRMSD -1
REMARK  2 active torsions:
REMARK  status: ('A' for Active; 'I' for Inactive)
REMARK    1  A    between atoms: C2'_3  and  C1'_4 
REMARK    2  A    between atoms: C1'_4  and  C1_5 
ROOT
ATOM      1  C1  I4B d   1      -0.120   0.484  -0.483  0.00  0.00    -0.075 A 
ATOM      2  C2  I4B d   1      -0.590   1.747  -0.223  0.00  0.00     0.003 A 
ATOM      3  C3  I4B d   1      -1.561   2.334  -1.069  0.00  0.00     0.002 A 
ATOM      4  C4  I4B d   1      -1.995   1.648  -2.185  0.00  0.00    -0.004 A 
ATOM      5  C5  I4B d   1      -1.534   0.359  -2.435  0.00  0.00     0.002 A 
ATOM      6  C6  I4B d   1      -0.600  -0.232  -1.572  0.00  0.00     0.003 A 
ENDROOT
BRANCH   1   7
ATOM      7  C1' I4B d   1       0.930  -0.093   0.412  0.00  0.00     0.060 C 
BRANCH   7   8
ATOM      8  C2' I4B d   1       0.420  -1.421   0.935  0.00  0.00    -0.013 C 
ATOM      9  C4' I4B d   1       1.537  -2.238   1.529  0.00  0.00     0.013 C 
ATOM     10  C3' I4B d   1      -0.645  -1.139   1.952  0.00  0.00     0.013 C 
ENDBRANCH   7   8
ENDBRANCH   1   7
TORSDOF 2
ENDMDL
