MODEL 1
REMARK minimizedAffinity -2.96433449
REMARK minimizedRMSD -1
REMARK  2 active torsions:
REMARK  status: ('A' for Active; 'I' for Inactive)
REMARK    1  A    between atoms: C2'_3  and  C1'_4 
REMARK    2  A    between atoms: C1'_4  and  C1_5 
ROOT
ATOM      1  C1  I4B d   1       0.774  -0.134  -0.043  0.00  0.00    -0.075 A 
ATOM      2  C2  I4B d   1       2.085  -0.123   0.361  0.00  0.00     0.003 A 
ATOM      3  C3  I4B d   1       2.621  -1.224   1.073  0.00  0.00     0.002 A 
ATOM      4  C4  I4B d   1       1.801  -2.284   1.402  0.00  0.00    -0.004 A 
ATOM      5  C5  I4B d   1       0.478  -2.304   0.972  0.00  0.00     0.002 A 
ATOM      6  C6  I4B d   1      -0.037  -1.228   0.234  0.00  0.00     0.003 A 
ENDROOT
BRANCH   1   7
ATOM      7  C1' I4B d   1       0.232   1.059  -0.765  0.00  0.00     0.060 C 
BRANCH   7   8
ATOM      8  C2' I4B d   1      -1.256   1.135  -0.490  0.00  0.00    -0.013 C 
ATOM      9  C4' I4B d   1      -1.554   2.092   0.634  0.00  0.00     0.013 C 
ATOM     10  C3' I4B d   1      -1.940   1.557  -1.756  0.00  0.00     0.013 C 
ENDBRANCH   7   8
ENDBRANCH   1   7
TORSDOF 2
ENDMDL
