MODEL 1
REMARK minimizedAffinity 2.58422494
REMARK minimizedRMSD -1
REMARK  2 active torsions:
REMARK  status: ('A' for Active; 'I' for Inactive)
REMARK    1  A    between atoms: C2'_3  and  C1'_4 
REMARK    2  A    between atoms: C1'_4  and  C1_5 
ROOT
ATOM      1  C1  I4B d   1      -2.175  -1.930  -1.679  0.00  0.00    -0.075 A 
ATOM      2  C2  I4B d   1      -2.276  -1.591  -3.005  0.00  0.00     0.003 A 
ATOM      3  C3  I4B d   1      -2.457  -2.597  -3.986  0.00  0.00     0.002 A 
ATOM      4  C4  I4B d   1      -2.481  -3.922  -3.603  0.00  0.00    -0.004 A 
ATOM      5  C5  I4B d   1      -2.402  -4.262  -2.256  0.00  0.00     0.002 A 
ATOM      6  C6  I4B d   1      -2.261  -3.259  -1.286  0.00  0.00     0.003 A 
ENDROOT
BRANCH   1   7
ATOM      7  C1' I4B d   1      -1.952  -0.845  -0.673  0.00  0.00     0.060 C 
BRANCH   7   8
ATOM      8  C2' I4B d   1      -0.514  -0.933  -0.204  0.00  0.00    -0.013 C 
ATOM      9  C4' I4B d   1       0.372   0.004  -0.983  0.00  0.00     0.013 C 
ATOM     10  C3' I4B d   1      -0.484  -0.613   1.261  0.00  0.00     0.013 C 
ENDBRANCH   7   8
ENDBRANCH   1   7
TORSDOF 2
ENDMDL
