MODEL 1
REMARK minimizedAffinity -1.04056883
REMARK minimizedRMSD -1
REMARK  2 active torsions:
REMARK  status: ('A' for Active; 'I' for Inactive)
REMARK    1  A    between atoms: C2'_3  and  C1'_4 
REMARK    2  A    between atoms: C1'_4  and  C1_5 
ROOT
ATOM      1  C1  I4B d   1      -4.575   5.305   3.293  0.00  0.00    -0.075 A 
ATOM      2  C2  I4B d   1      -5.670   5.999   3.744  0.00  0.00     0.003 A 
ATOM      3  C3  I4B d   1      -5.997   5.997   5.122  0.00  0.00     0.002 A 
ATOM      4  C4  I4B d   1      -5.237   5.252   6.000  0.00  0.00    -0.004 A 
ATOM      5  C5  I4B d   1      -4.114   4.567   5.544  0.00  0.00     0.002 A 
ATOM      6  C6  I4B d   1      -3.773   4.603   4.184  0.00  0.00     0.003 A 
ENDROOT
BRANCH   1   7
ATOM      7  C1' I4B d   1      -4.277   5.302   1.827  0.00  0.00     0.060 C 
BRANCH   7   8
ATOM      8  C2' I4B d   1      -5.487   4.742   1.107  0.00  0.00    -0.013 C 
ATOM      9  C4' I4B d   1      -5.998   5.706   0.069  0.00  0.00     0.013 C 
ATOM     10  C3' I4B d   1      -5.091   3.436   0.484  0.00  0.00     0.013 C 
ENDBRANCH   7   8
ENDBRANCH   1   7
TORSDOF 2
ENDMDL
