MODEL 1
REMARK minimizedAffinity -0.135926858
REMARK minimizedRMSD -1
REMARK  2 active torsions:
REMARK  status: ('A' for Active; 'I' for Inactive)
REMARK    1  A    between atoms: C2'_3  and  C1'_4 
REMARK    2  A    between atoms: C1'_4  and  C1_5 
ROOT
ATOM      1  C1  I4B d   1      -1.900  -1.005  -2.190  0.00  0.00    -0.075 A 
ATOM      2  C2  I4B d   1      -1.335  -1.058  -0.940  0.00  0.00     0.003 A 
ATOM      3  C3  I4B d   1      -0.251  -0.209  -0.612  0.00  0.00     0.002 A 
ATOM      4  C4  I4B d   1       0.265   0.637  -1.572  0.00  0.00    -0.004 A 
ATOM      5  C5  I4B d   1      -0.324   0.706  -2.831  0.00  0.00     0.002 A 
ATOM      6  C6  I4B d   1      -1.422  -0.111  -3.139  0.00  0.00     0.003 A 
ENDROOT
BRANCH   1   7
ATOM      7  C1' I4B d   1      -3.023  -1.939  -2.514  0.00  0.00     0.060 C 
BRANCH   7   8
ATOM      8  C2' I4B d   1      -2.497  -2.984  -3.477  0.00  0.00    -0.013 C 
ATOM      9  C4' I4B d   1      -2.782  -4.376  -2.981  0.00  0.00     0.013 C 
ATOM     10  C3' I4B d   1      -3.136  -2.744  -4.813  0.00  0.00     0.013 C 
ENDBRANCH   7   8
ENDBRANCH   1   7
TORSDOF 2
ENDMDL
