MODEL 1
REMARK minimizedAffinity 1.06907558
REMARK minimizedRMSD -1
REMARK  2 active torsions:
REMARK  status: ('A' for Active; 'I' for Inactive)
REMARK    1  A    between atoms: C2'_3  and  C1'_4 
REMARK    2  A    between atoms: C1'_4  and  C1_5 
ROOT
ATOM      1  C1  I4B d   1      -2.535  -0.057   1.338  0.00  0.00    -0.075 A 
ATOM      2  C2  I4B d   1      -2.823  -1.120   0.519  0.00  0.00     0.003 A 
ATOM      3  C3  I4B d   1      -1.939  -1.471  -0.530  0.00  0.00     0.002 A 
ATOM      4  C4  I4B d   1      -0.812  -0.706  -0.754  0.00  0.00    -0.004 A 
ATOM      5  C5  I4B d   1      -0.510   0.357   0.092  0.00  0.00     0.002 A 
ATOM      6  C6  I4B d   1      -1.371   0.677   1.152  0.00  0.00     0.003 A 
ENDROOT
BRANCH   1   7
ATOM      7  C1' I4B d   1      -3.507   0.307   2.416  0.00  0.00     0.060 C 
BRANCH   7   8
ATOM      8  C2' I4B d   1      -3.059  -0.369   3.696  0.00  0.00    -0.013 C 
ATOM      9  C4' I4B d   1      -1.748   0.194   4.178  0.00  0.00     0.013 C 
ATOM     10  C3' I4B d   1      -4.138  -0.182   4.720  0.00  0.00     0.013 C 
ENDBRANCH   7   8
ENDBRANCH   1   7
TORSDOF 2
ENDMDL
