MODEL 1
REMARK minimizedAffinity 1.66925919
REMARK minimizedRMSD -1
REMARK  2 active torsions:
REMARK  status: ('A' for Active; 'I' for Inactive)
REMARK    1  A    between atoms: C2'_3  and  C1'_4 
REMARK    2  A    between atoms: C1'_4  and  C1_5 
ROOT
ATOM      1  C1  I4B d   1       0.535   0.304  -1.684  0.00  0.00    -0.075 A 
ATOM      2  C2  I4B d   1       1.836  -0.020  -1.390  0.00  0.00     0.003 A 
ATOM      3  C3  I4B d   1       2.749  -0.315  -2.432  0.00  0.00     0.002 A 
ATOM      4  C4  I4B d   1       2.309  -0.323  -3.739  0.00  0.00    -0.004 A 
ATOM      5  C5  I4B d   1       0.996   0.028  -4.037  0.00  0.00     0.002 A 
ATOM      6  C6  I4B d   1       0.106   0.356  -3.004  0.00  0.00     0.003 A 
ENDROOT
BRANCH   1   7
ATOM      7  C1' I4B d   1      -0.411   0.578  -0.558  0.00  0.00     0.060 C 
BRANCH   7   8
ATOM      8  C2' I4B d   1      -0.034  -0.324   0.599  0.00  0.00    -0.013 C 
ATOM      9  C4' I4B d   1      -0.491   0.253   1.912  0.00  0.00     0.013 C 
ATOM     10  C3' I4B d   1      -0.649  -1.670   0.356  0.00  0.00     0.013 C 
ENDBRANCH   7   8
ENDBRANCH   1   7
TORSDOF 2
ENDMDL
