MODEL 1
REMARK minimizedAffinity -2.06363344
REMARK minimizedRMSD -1
REMARK  2 active torsions:
REMARK  status: ('A' for Active; 'I' for Inactive)
REMARK    1  A    between atoms: C2'_3  and  C1'_4 
REMARK    2  A    between atoms: C1'_4  and  C1_5 
ROOT
ATOM      1  C1  I4B d   1      -4.591   5.295   2.212  0.00  0.00    -0.075 A 
ATOM      2  C2  I4B d   1      -5.415   4.211   2.043  0.00  0.00     0.003 A 
ATOM      3  C3  I4B d   1      -5.804   3.808   0.742  0.00  0.00     0.002 A 
ATOM      4  C4  I4B d   1      -5.389   4.543  -0.350  0.00  0.00    -0.004 A 
ATOM      5  C5  I4B d   1      -4.535   5.628  -0.177  0.00  0.00     0.002 A 
ATOM      6  C6  I4B d   1      -4.123   6.000   1.111  0.00  0.00     0.003 A 
ENDROOT
BRANCH   1   7
ATOM      7  C1' I4B d   1      -4.227   5.713   3.602  0.00  0.00     0.060 C 
BRANCH   7   8
ATOM      8  C2' I4B d   1      -5.139   4.980   4.564  0.00  0.00    -0.013 C 
ATOM      9  C4' I4B d   1      -4.346   4.164   5.552  0.00  0.00     0.013 C 
ATOM     10  C3' I4B d   1      -5.991   5.997   5.262  0.00  0.00     0.013 C 
ENDBRANCH   7   8
ENDBRANCH   1   7
TORSDOF 2
ENDMDL
