MODEL 1
REMARK minimizedAffinity -0.604469597
REMARK minimizedRMSD -1
REMARK  2 active torsions:
REMARK  status: ('A' for Active; 'I' for Inactive)
REMARK    1  A    between atoms: C2'_3  and  C1'_4 
REMARK    2  A    between atoms: C1'_4  and  C1_5 
ROOT
ATOM      1  C1  I4B d   1      -4.787   5.874   3.195  0.00  0.00    -0.075 A 
ATOM      2  C2  I4B d   1      -5.963   5.964   3.896  0.00  0.00     0.003 A 
ATOM      3  C3  I4B d   1      -5.965   5.827   5.306  0.00  0.00     0.002 A 
ATOM      4  C4  I4B d   1      -4.783   5.552   5.963  0.00  0.00    -0.004 A 
ATOM      5  C5  I4B d   1      -3.588   5.484   5.252  0.00  0.00     0.002 A 
ATOM      6  C6  I4B d   1      -3.588   5.658   3.861  0.00  0.00     0.003 A 
ENDROOT
BRANCH   1   7
ATOM      7  C1' I4B d   1      -4.827   5.990   1.704  0.00  0.00     0.060 C 
BRANCH   7   8
ATOM      8  C2' I4B d   1      -5.511   4.754   1.157  0.00  0.00    -0.013 C 
ATOM      9  C4' I4B d   1      -5.797   4.895  -0.315  0.00  0.00     0.013 C 
ATOM     10  C3' I4B d   1      -4.623   3.576   1.426  0.00  0.00     0.013 C 
ENDBRANCH   7   8
ENDBRANCH   1   7
TORSDOF 2
ENDMDL
