MODEL 1
REMARK minimizedAffinity -4.89924049
REMARK minimizedRMSD -1
REMARK  2 active torsions:
REMARK  status: ('A' for Active; 'I' for Inactive)
REMARK    1  A    between atoms: C2'_3  and  C1'_4 
REMARK    2  A    between atoms: C1'_4  and  C1_5 
ROOT
ATOM      1  C1  I4B d   1      -4.040  -3.582   0.096  0.00  0.00    -0.075 A 
ATOM      2  C2  I4B d   1      -5.338  -3.585   0.542  0.00  0.00     0.003 A 
ATOM      3  C3  I4B d   1      -5.988  -4.809   0.833  0.00  0.00     0.002 A 
ATOM      4  C4  I4B d   1      -5.325  -6.000   0.617  0.00  0.00    -0.004 A 
ATOM      5  C5  I4B d   1      -4.002  -5.993   0.186  0.00  0.00     0.002 A 
ATOM      6  C6  I4B d   1      -3.350  -4.777  -0.064  0.00  0.00     0.003 A 
ENDROOT
BRANCH   1   7
ATOM      7  C1' I4B d   1      -3.394  -2.273  -0.233  0.00  0.00     0.060 C 
BRANCH   7   8
ATOM      8  C2' I4B d   1      -2.073  -2.563  -0.915  0.00  0.00    -0.013 C 
ATOM      9  C4' I4B d   1      -2.243  -2.682  -2.406  0.00  0.00     0.013 C 
ATOM     10  C3' I4B d   1      -1.119  -1.460  -0.565  0.00  0.00     0.013 C 
ENDBRANCH   7   8
ENDBRANCH   1   7
TORSDOF 2
ENDMDL
