MODEL 1
REMARK minimizedAffinity -1.94472301
REMARK minimizedRMSD -1
REMARK  2 active torsions:
REMARK  status: ('A' for Active; 'I' for Inactive)
REMARK    1  A    between atoms: C2'_3  and  C1'_4 
REMARK    2  A    between atoms: C1'_4  and  C1_5 
ROOT
ATOM      1  C1  I4B d   1      -4.617   3.552   5.265  0.00  0.00    -0.075 A 
ATOM      2  C2  I4B d   1      -4.782   4.700   5.999  0.00  0.00     0.003 A 
ATOM      3  C3  I4B d   1      -5.200   5.897   5.368  0.00  0.00     0.002 A 
ATOM      4  C4  I4B d   1      -5.392   5.912   4.002  0.00  0.00    -0.004 A 
ATOM      5  C5  I4B d   1      -5.247   4.742   3.262  0.00  0.00     0.002 A 
ATOM      6  C6  I4B d   1      -4.869   3.551   3.899  0.00  0.00     0.003 A 
ENDROOT
BRANCH   1   7
ATOM      7  C1' I4B d   1      -4.142   2.315   5.959  0.00  0.00     0.060 C 
BRANCH   7   8
ATOM      8  C2' I4B d   1      -4.508   1.126   5.094  0.00  0.00    -0.013 C 
ATOM      9  C4' I4B d   1      -3.350   0.704   4.229  0.00  0.00     0.013 C 
ATOM     10  C3' I4B d   1      -4.941   0.011   6.000  0.00  0.00     0.013 C 
ENDBRANCH   7   8
ENDBRANCH   1   7
TORSDOF 2
ENDMDL
