MODEL 1
REMARK minimizedAffinity -5.99625921
REMARK minimizedRMSD -1
REMARK  2 active torsions:
REMARK  status: ('A' for Active; 'I' for Inactive)
REMARK    1  A    between atoms: C2'_3  and  C1'_4 
REMARK    2  A    between atoms: C1'_4  and  C1_5 
ROOT
ATOM      1  C1  I4B d   1      -4.452  -2.614  -0.016  0.00  0.00    -0.075 A 
ATOM      2  C2  I4B d   1      -3.622  -3.168  -0.958  0.00  0.00     0.003 A 
ATOM      3  C3  I4B d   1      -2.306  -2.674  -1.127  0.00  0.00     0.002 A 
ATOM      4  C4  I4B d   1      -1.881  -1.598  -0.374  0.00  0.00    -0.004 A 
ATOM      5  C5  I4B d   1      -2.717  -1.053   0.596  0.00  0.00     0.002 A 
ATOM      6  C6  I4B d   1      -4.006  -1.571   0.785  0.00  0.00     0.003 A 
ENDROOT
BRANCH   1   7
ATOM      7  C1' I4B d   1      -5.847  -3.139   0.113  0.00  0.00     0.060 C 
BRANCH   7   8
ATOM      8  C2' I4B d   1      -5.788  -4.430   0.903  0.00  0.00    -0.013 C 
ATOM      9  C4' I4B d   1      -5.768  -5.627  -0.010  0.00  0.00     0.013 C 
ATOM     10  C3' I4B d   1      -4.564  -4.388   1.769  0.00  0.00     0.013 C 
ENDBRANCH   7   8
ENDBRANCH   1   7
TORSDOF 2
ENDMDL
