MODEL 1
REMARK minimizedAffinity 8.13545895
REMARK minimizedRMSD -1
REMARK  2 active torsions:
REMARK  status: ('A' for Active; 'I' for Inactive)
REMARK    1  A    between atoms: C2'_3  and  C1'_4 
REMARK    2  A    between atoms: C1'_4  and  C1_5 
ROOT
ATOM      1  C1  I4B d   1      -2.244  -0.791  -1.788  0.00  0.00    -0.075 A 
ATOM      2  C2  I4B d   1      -3.150  -0.132  -0.995  0.00  0.00     0.003 A 
ATOM      3  C3  I4B d   1      -2.754   0.387   0.261  0.00  0.00     0.002 A 
ATOM      4  C4  I4B d   1      -1.463   0.182   0.704  0.00  0.00    -0.004 A 
ATOM      5  C5  I4B d   1      -0.540  -0.466  -0.111  0.00  0.00     0.002 A 
ATOM      6  C6  I4B d   1      -0.929  -0.945  -1.370  0.00  0.00     0.003 A 
ENDROOT
BRANCH   1   7
ATOM      7  C1' I4B d   1      -2.705  -1.355  -3.095  0.00  0.00     0.060 C 
BRANCH   7   8
ATOM      8  C2' I4B d   1      -2.258  -2.801  -3.163  0.00  0.00    -0.013 C 
ATOM      9  C4' I4B d   1      -2.881  -3.617  -2.061  0.00  0.00     0.013 C 
ATOM     10  C3' I4B d   1      -2.631  -3.338  -4.512  0.00  0.00     0.013 C 
ENDBRANCH   7   8
ENDBRANCH   1   7
TORSDOF 2
ENDMDL
