MODEL 1
REMARK minimizedAffinity 11.0747204
REMARK minimizedRMSD -1
REMARK  2 active torsions:
REMARK  status: ('A' for Active; 'I' for Inactive)
REMARK    1  A    between atoms: C2'_3  and  C1'_4 
REMARK    2  A    between atoms: C1'_4  and  C1_5 
ROOT
ATOM      1  C1  I4B d   1      -1.935  -2.340  -2.144  0.00  0.00    -0.075 A 
ATOM      2  C2  I4B d   1      -1.703  -1.416  -3.133  0.00  0.00     0.003 A 
ATOM      3  C3  I4B d   1      -2.034  -1.713  -4.477  0.00  0.00     0.002 A 
ATOM      4  C4  I4B d   1      -2.545  -2.955  -4.794  0.00  0.00    -0.004 A 
ATOM      5  C5  I4B d   1      -2.801  -3.882  -3.787  0.00  0.00     0.002 A 
ATOM      6  C6  I4B d   1      -2.506  -3.568  -2.452  0.00  0.00     0.003 A 
ENDROOT
BRANCH   1   7
ATOM      7  C1' I4B d   1      -1.543  -2.007  -0.740  0.00  0.00     0.060 C 
BRANCH   7   8
ATOM      8  C2' I4B d   1      -1.304  -0.513  -0.664  0.00  0.00    -0.013 C 
ATOM      9  C4' I4B d   1      -1.882   0.068   0.599  0.00  0.00     0.013 C 
ATOM     10  C3' I4B d   1       0.175  -0.276  -0.742  0.00  0.00     0.013 C 
ENDBRANCH   7   8
ENDBRANCH   1   7
TORSDOF 2
ENDMDL
