MODEL 1
REMARK minimizedAffinity -4.99935436
REMARK minimizedRMSD -1
REMARK  1 active torsions:
REMARK  status: ('A' for Active; 'I' for Inactive)
REMARK    1  A    between atoms: C3_4  and  O_7 
ROOT
ATOM      1  C   UNL d   1       0.342  -0.579  -0.348  0.00  0.00    -0.033 A 
ATOM      2  C1  UNL d   1      -1.017  -0.272  -0.262  0.00  0.00     0.039 A 
ATOM      3  C2  UNL d   1      -1.482   0.565   0.754  0.00  0.00    -0.080 A 
ATOM      4  C3  UNL d   1      -0.579   1.088   1.675  0.00  0.00     0.150 A 
ATOM      5  C4  UNL d   1       0.777   0.789   1.593  0.00  0.00    -0.007 A 
ATOM      6  C5  UNL d   1       1.239  -0.048   0.579  0.00  0.00     0.039 A 
ENDROOT
BRANCH   4   7
ATOM      7  O   UNL d   1      -0.987   1.906   2.687  0.00  0.00    -0.526 OA
ATOM      8  H5  UNL d   1      -1.953   2.001   2.636  0.00  0.00     0.418 HD
ENDBRANCH   4   7
TORSDOF 1
ENDMDL
