MODEL 1
REMARK minimizedAffinity -5.03321409
REMARK minimizedRMSD -1
REMARK  1 active torsions:
REMARK  status: ('A' for Active; 'I' for Inactive)
REMARK    1  A    between atoms: C3_4  and  O_7 
ROOT
ATOM      1  C   UNL d   1      -0.738   0.463  -0.500  0.00  0.00    -0.033 A 
ATOM      2  C1  UNL d   1       0.347   1.046   0.159  0.00  0.00     0.039 A 
ATOM      3  C2  UNL d   1       0.194   1.541   1.455  0.00  0.00    -0.080 A 
ATOM      4  C3  UNL d   1      -1.045   1.447   2.082  0.00  0.00     0.150 A 
ATOM      5  C4  UNL d   1      -2.129   0.865   1.433  0.00  0.00    -0.007 A 
ATOM      6  C5  UNL d   1      -1.976   0.371   0.138  0.00  0.00     0.039 A 
ENDROOT
BRANCH   4   7
ATOM      7  O   UNL d   1      -1.243   1.921   3.344  0.00  0.00    -0.526 OA
ATOM      8  H5  UNL d   1      -0.415   2.322   3.656  0.00  0.00     0.418 HD
ENDBRANCH   4   7
TORSDOF 1
ENDMDL
