MODEL 1
REMARK minimizedAffinity -5.0627284
REMARK minimizedRMSD -1
REMARK  1 active torsions:
REMARK  status: ('A' for Active; 'I' for Inactive)
REMARK    1  A    between atoms: C3_4  and  O_7 
ROOT
ATOM      1  C   UNL d   1      -0.204  -0.128  -0.298  0.00  0.00    -0.033 A 
ATOM      2  C1  UNL d   1       0.911   0.093   0.513  0.00  0.00     0.039 A 
ATOM      3  C2  UNL d   1       0.774   0.787   1.717  0.00  0.00    -0.080 A 
ATOM      4  C3  UNL d   1      -0.480   1.254   2.098  0.00  0.00     0.150 A 
ATOM      5  C4  UNL d   1      -1.596   1.034   1.297  0.00  0.00    -0.007 A 
ATOM      6  C5  UNL d   1      -1.458   0.342   0.095  0.00  0.00     0.039 A 
ENDROOT
BRANCH   4   7
ATOM      7  O   UNL d   1      -0.662   1.941   3.261  0.00  0.00    -0.526 OA
ATOM      8  H5  UNL d   1       0.201   2.042   3.697  0.00  0.00     0.418 HD
ENDBRANCH   4   7
TORSDOF 1
ENDMDL
