MODEL 1
REMARK minimizedAffinity -4.59636784
REMARK minimizedRMSD -1
REMARK  1 active torsions:
REMARK  status: ('A' for Active; 'I' for Inactive)
REMARK    1  A    between atoms: C3_4  and  O_7 
ROOT
ATOM      1  C   UNL d   1      -0.319  -0.353  -0.347  0.00  0.00    -0.033 A 
ATOM      2  C1  UNL d   1       0.725  -0.025   0.519  0.00  0.00     0.039 A 
ATOM      3  C2  UNL d   1       0.468   0.705   1.681  0.00  0.00    -0.080 A 
ATOM      4  C3  UNL d   1      -0.837   1.100   1.965  0.00  0.00     0.150 A 
ATOM      5  C4  UNL d   1      -1.883   0.772   1.108  0.00  0.00    -0.007 A 
ATOM      6  C5  UNL d   1      -1.623   0.044  -0.052  0.00  0.00     0.039 A 
ENDROOT
BRANCH   4   7
ATOM      7  O   UNL d   1      -1.137   1.818   3.084  0.00  0.00    -0.526 OA
ATOM      8  H5  UNL d   1      -0.312   1.995   3.566  0.00  0.00     0.418 HD
ENDBRANCH   4   7
TORSDOF 1
ENDMDL
