MODEL 1
REMARK minimizedAffinity -2.419034
REMARK minimizedRMSD -1
REMARK  1 active torsions:
REMARK  status: ('A' for Active; 'I' for Inactive)
REMARK    1  A    between atoms: C3_4  and  O_7 
ROOT
ATOM      1  C   UNL d   1      -0.367  -0.949  -0.919  0.00  0.00    -0.033 A 
ATOM      2  C1  UNL d   1       1.002  -0.858  -0.661  0.00  0.00     0.039 A 
ATOM      3  C2  UNL d   1       1.475   0.030   0.306  0.00  0.00    -0.080 A 
ATOM      4  C3  UNL d   1       0.570   0.820   1.009  0.00  0.00     0.150 A 
ATOM      5  C4  UNL d   1      -0.796   0.733   0.761  0.00  0.00    -0.007 A 
ATOM      6  C5  UNL d   1      -1.266  -0.154  -0.207  0.00  0.00     0.039 A 
ENDROOT
BRANCH   4   7
ATOM      7  O   UNL d   1       0.985   1.705   1.960  0.00  0.00    -0.526 OA
ATOM      8  H5  UNL d   1       1.955   1.678   2.003  0.00  0.00     0.418 HD
ENDBRANCH   4   7
TORSDOF 1
ENDMDL
