MODEL 1
REMARK minimizedAffinity -5.08542395
REMARK minimizedRMSD -1
REMARK  1 active torsions:
REMARK  status: ('A' for Active; 'I' for Inactive)
REMARK    1  A    between atoms: C3_4  and  O_7 
ROOT
ATOM      1  C   UNL d   1      -1.363   1.487   2.484  0.00  0.00    -0.033 A 
ATOM      2  C1  UNL d   1      -2.137   0.712   1.619  0.00  0.00     0.039 A 
ATOM      3  C2  UNL d   1      -1.535   0.034   0.557  0.00  0.00    -0.080 A 
ATOM      4  C3  UNL d   1      -0.159   0.140   0.372  0.00  0.00     0.150 A 
ATOM      5  C4  UNL d   1       0.619   0.908   1.232  0.00  0.00    -0.007 A 
ATOM      6  C5  UNL d   1       0.015   1.584   2.291  0.00  0.00     0.039 A 
ENDROOT
BRANCH   4   7
ATOM      7  O   UNL d   1       0.474  -0.499  -0.653  0.00  0.00    -0.526 OA
ATOM      8  H5  UNL d   1      -0.194  -0.968  -1.181  0.00  0.00     0.418 HD
ENDBRANCH   4   7
TORSDOF 1
ENDMDL
