MODEL 1
REMARK minimizedAffinity -2.97669792
REMARK minimizedRMSD -1
REMARK  1 active torsions:
REMARK  status: ('A' for Active; 'I' for Inactive)
REMARK    1  A    between atoms: C3_4  and  O_7 
ROOT
ATOM      1  C   UNL d   1      -0.042   0.721   0.021  0.00  0.00    -0.033 A 
ATOM      2  C1  UNL d   1       0.667   1.261   1.097  0.00  0.00     0.039 A 
ATOM      3  C2  UNL d   1       1.745   0.563   1.644  0.00  0.00    -0.080 A 
ATOM      4  C3  UNL d   1       2.105  -0.670   1.108  0.00  0.00     0.150 A 
ATOM      5  C4  UNL d   1       1.406  -1.211   0.034  0.00  0.00    -0.007 A 
ATOM      6  C5  UNL d   1       0.328  -0.514  -0.511  0.00  0.00     0.039 A 
ENDROOT
BRANCH   4   7
ATOM      7  O   UNL d   1       3.147  -1.390   1.612  0.00  0.00    -0.526 OA
ATOM      8  H5  UNL d   1       3.518  -0.906   2.368  0.00  0.00     0.418 HD
ENDBRANCH   4   7
TORSDOF 1
ENDMDL
