MODEL 1
REMARK minimizedAffinity -4.70817947
REMARK minimizedRMSD -1
REMARK  1 active torsions:
REMARK  status: ('A' for Active; 'I' for Inactive)
REMARK    1  A    between atoms: C3_4  and  O_7 
ROOT
ATOM      1  C   UNL d   1       1.058  -0.683  -0.069  0.00  0.00    -0.033 A 
ATOM      2  C1  UNL d   1      -0.249  -0.331  -0.411  0.00  0.00     0.039 A 
ATOM      3  C2  UNL d   1      -1.002   0.479   0.442  0.00  0.00    -0.080 A 
ATOM      4  C3  UNL d   1      -0.437   0.930   1.631  0.00  0.00     0.150 A 
ATOM      5  C4  UNL d   1       0.866   0.587   1.976  0.00  0.00    -0.007 A 
ATOM      6  C5  UNL d   1       1.616  -0.223   1.124  0.00  0.00     0.039 A 
ENDROOT
BRANCH   4   7
ATOM      7  O   UNL d   1      -1.134   1.719   2.497  0.00  0.00    -0.526 OA
ATOM      8  H5  UNL d   1      -2.028   1.851   2.142  0.00  0.00     0.418 HD
ENDBRANCH   4   7
TORSDOF 1
ENDMDL
