MODEL 1
REMARK minimizedAffinity -4.87712717
REMARK minimizedRMSD -1
REMARK  1 active torsions:
REMARK  status: ('A' for Active; 'I' for Inactive)
REMARK    1  A    between atoms: C3_4  and  O_7 
ROOT
ATOM      1  C   UNL d   1      -0.136  -0.386  -0.156  0.00  0.00    -0.033 A 
ATOM      2  C1  UNL d   1       0.837   0.350   0.524  0.00  0.00     0.039 A 
ATOM      3  C2  UNL d   1       0.459   1.327   1.447  0.00  0.00    -0.080 A 
ATOM      4  C3  UNL d   1      -0.894   1.558   1.680  0.00  0.00     0.150 A 
ATOM      5  C4  UNL d   1      -1.869   0.827   1.010  0.00  0.00    -0.007 A 
ATOM      6  C5  UNL d   1      -1.489  -0.148   0.088  0.00  0.00     0.039 A 
ENDROOT
BRANCH   4   7
ATOM      7  O   UNL d   1      -1.312   2.504   2.568  0.00  0.00    -0.526 OA
ATOM      8  H5  UNL d   1      -0.530   2.950   2.934  0.00  0.00     0.418 HD
ENDBRANCH   4   7
TORSDOF 1
ENDMDL
