MODEL 1
REMARK minimizedAffinity -5.13122845
REMARK minimizedRMSD -1
REMARK  1 active torsions:
REMARK  status: ('A' for Active; 'I' for Inactive)
REMARK    1  A    between atoms: C1_2  and  C2_3 
ROOT
ATOM      1  C2  UNL d   1       0.273   0.284   0.083  0.00  0.00    -0.076 A 
ATOM      2  C3  UNL d   1       1.452   0.672  -0.578  0.00  0.00     0.004 A 
ATOM      3  C4  UNL d   1       2.633  -0.052  -0.422  0.00  0.00    -0.003 A 
ATOM      4  C5  UNL d   1       2.655  -1.176   0.396  0.00  0.00     0.000 A 
ATOM      5  C6  UNL d   1       1.491  -1.585   1.045  0.00  0.00     0.000 A 
ATOM      6  C7  UNL d   1       0.287  -0.877   0.887  0.00  0.00    -0.073 A 
ATOM      7  C8  UNL d   1      -0.937  -1.360   1.615  0.00  0.00     0.078 C 
ENDROOT
BRANCH   1   8
ATOM      8  C1  UNL d   1      -0.971   1.123  -0.102  0.00  0.00     0.053 C 
ATOM      9  C   UNL d   1      -1.507   1.064  -1.524  0.00  0.00     0.018 C 
ENDBRANCH   1   8
TORSDOF 1
ENDMDL
