MODEL 1
REMARK minimizedAffinity -4.68343735
REMARK minimizedRMSD -1
REMARK  1 active torsions:
REMARK  status: ('A' for Active; 'I' for Inactive)
REMARK    1  A    between atoms: C1_2  and  C2_3 
ROOT
ATOM      1  C2  UNL d   1      -0.096  -0.296   0.744  0.00  0.00    -0.076 A 
ATOM      2  C3  UNL d   1       1.077  -0.399  -0.023  0.00  0.00     0.004 A 
ATOM      3  C4  UNL d   1       2.007  -1.409   0.219  0.00  0.00    -0.003 A 
ATOM      4  C5  UNL d   1       1.778  -2.333   1.233  0.00  0.00     0.000 A 
ATOM      5  C6  UNL d   1       0.610  -2.257   1.992  0.00  0.00     0.000 A 
ATOM      6  C7  UNL d   1      -0.345  -1.255   1.749  0.00  0.00    -0.073 A 
ATOM      7  C8  UNL d   1      -1.583  -1.216   2.603  0.00  0.00     0.078 C 
ENDROOT
BRANCH   1   8
ATOM      8  C1  UNL d   1      -1.055   0.836   0.453  0.00  0.00     0.053 C 
ATOM      9  C   UNL d   1      -0.989   1.298  -0.994  0.00  0.00     0.018 C 
ENDBRANCH   1   8
TORSDOF 1
ENDMDL
