MODEL 1
REMARK minimizedAffinity -2.46850228
REMARK minimizedRMSD -1
REMARK  1 active torsions:
REMARK  status: ('A' for Active; 'I' for Inactive)
REMARK    1  A    between atoms: C1_2  and  C2_3 
ROOT
ATOM      1  C2  UNL d   1      -0.466  -0.802   1.117  0.00  0.00    -0.076 A 
ATOM      2  C3  UNL d   1      -0.712   0.475   0.583  0.00  0.00     0.004 A 
ATOM      3  C4  UNL d   1       0.255   1.133  -0.175  0.00  0.00    -0.003 A 
ATOM      4  C5  UNL d   1       1.483   0.526  -0.411  0.00  0.00     0.000 A 
ATOM      5  C6  UNL d   1       1.737  -0.748   0.096  0.00  0.00     0.000 A 
ATOM      6  C7  UNL d   1       0.767  -1.433   0.848  0.00  0.00    -0.073 A 
ATOM      7  C8  UNL d   1       1.097  -2.802   1.377  0.00  0.00     0.078 C 
ENDROOT
BRANCH   1   8
ATOM      8  C1  UNL d   1      -1.542  -1.456   1.954  0.00  0.00     0.053 C 
ATOM      9  C   UNL d   1      -2.384  -0.444   2.716  0.00  0.00     0.018 C 
ENDBRANCH   1   8
TORSDOF 1
ENDMDL
