MODEL 1
REMARK minimizedAffinity -4.44494915
REMARK minimizedRMSD -1
REMARK  1 active torsions:
REMARK  status: ('A' for Active; 'I' for Inactive)
REMARK    1  A    between atoms: C1_2  and  C2_3 
ROOT
ATOM      1  C2  UNL d   1      -0.270  -0.196   0.390  0.00  0.00    -0.076 A 
ATOM      2  C3  UNL d   1       0.996  -0.226  -0.219  0.00  0.00     0.004 A 
ATOM      3  C4  UNL d   1       1.897  -1.255   0.049  0.00  0.00    -0.003 A 
ATOM      4  C5  UNL d   1       1.546  -2.271   0.931  0.00  0.00     0.000 A 
ATOM      5  C6  UNL d   1       0.287  -2.266   1.531  0.00  0.00     0.000 A 
ATOM      6  C7  UNL d   1      -0.639  -1.245   1.258  0.00  0.00    -0.073 A 
ATOM      7  C8  UNL d   1      -1.980  -1.287   1.938  0.00  0.00     0.078 C 
ENDROOT
BRANCH   1   8
ATOM      8  C1  UNL d   1      -1.195   0.960   0.081  0.00  0.00     0.053 C 
ATOM      9  C   UNL d   1      -1.599   1.008  -1.384  0.00  0.00     0.018 C 
ENDBRANCH   1   8
TORSDOF 1
ENDMDL
