MODEL 1
REMARK minimizedAffinity 0.112495527
REMARK minimizedRMSD -1
REMARK  1 active torsions:
REMARK  status: ('A' for Active; 'I' for Inactive)
REMARK    1  A    between atoms: C1_2  and  C2_3 
ROOT
ATOM      1  C2  UNL d   1      -0.512   1.158  -1.121  0.00  0.00    -0.076 A 
ATOM      2  C3  UNL d   1       0.493   0.543  -1.889  0.00  0.00     0.004 A 
ATOM      3  C4  UNL d   1       1.365  -0.383  -1.319  0.00  0.00    -0.003 A 
ATOM      4  C5  UNL d   1       1.247  -0.709   0.028  0.00  0.00     0.000 A 
ATOM      5  C6  UNL d   1       0.245  -0.122   0.800  0.00  0.00     0.000 A 
ATOM      6  C7  UNL d   1      -0.653   0.801   0.237  0.00  0.00    -0.073 A 
ATOM      7  C8  UNL d   1      -1.711   1.409   1.117  0.00  0.00     0.078 C 
ENDROOT
BRANCH   1   8
ATOM      8  C1  UNL d   1      -1.411   2.175  -1.787  0.00  0.00     0.053 C 
ATOM      9  C   UNL d   1      -2.659   1.545  -2.386  0.00  0.00     0.018 C 
ENDBRANCH   1   8
TORSDOF 1
ENDMDL
