MODEL 1
REMARK minimizedAffinity -4.7926755
REMARK minimizedRMSD -1
REMARK  1 active torsions:
REMARK  status: ('A' for Active; 'I' for Inactive)
REMARK    1  A    between atoms: C1_2  and  C2_3 
ROOT
ATOM      1  C2  UNL d   1       0.435  -1.396   0.436  0.00  0.00    -0.076 A 
ATOM      2  C3  UNL d   1       1.208  -0.578  -0.406  0.00  0.00     0.004 A 
ATOM      3  C4  UNL d   1       0.836   0.740  -0.665  0.00  0.00    -0.003 A 
ATOM      4  C5  UNL d   1      -0.316   1.261  -0.085  0.00  0.00     0.000 A 
ATOM      5  C6  UNL d   1      -1.085   0.469   0.767  0.00  0.00     0.000 A 
ATOM      6  C7  UNL d   1      -0.714  -0.857   1.051  0.00  0.00    -0.073 A 
ATOM      7  C8  UNL d   1      -1.584  -1.668   1.971  0.00  0.00     0.078 C 
ENDROOT
BRANCH   1   8
ATOM      8  C1  UNL d   1       0.874  -2.826   0.658  0.00  0.00     0.053 C 
ATOM      9  C   UNL d   1       1.664  -3.000   1.946  0.00  0.00     0.018 C 
ENDBRANCH   1   8
TORSDOF 1
ENDMDL
