MODEL 1
REMARK minimizedAffinity -4.30463886
REMARK minimizedRMSD -1
REMARK  1 active torsions:
REMARK  status: ('A' for Active; 'I' for Inactive)
REMARK    1  A    between atoms: C1_2  and  C2_3 
ROOT
ATOM      1  C2  UNL d   1       0.460  -1.401   0.676  0.00  0.00    -0.076 A 
ATOM      2  C3  UNL d   1       1.022  -0.626  -0.353  0.00  0.00     0.004 A 
ATOM      3  C4  UNL d   1       0.389   0.529  -0.809  0.00  0.00    -0.003 A 
ATOM      4  C5  UNL d   1      -0.816   0.928  -0.242  0.00  0.00     0.000 A 
ATOM      5  C6  UNL d   1      -1.379   0.181   0.792  0.00  0.00     0.000 A 
ATOM      6  C7  UNL d   1      -0.745  -0.977   1.275  0.00  0.00    -0.073 A 
ATOM      7  C8  UNL d   1      -1.400  -1.748   2.388  0.00  0.00     0.078 C 
ENDROOT
BRANCH   1   8
ATOM      8  C1  UNL d   1       1.179  -2.659   1.111  0.00  0.00     0.053 C 
ATOM      9  C   UNL d   1       2.324  -2.374   2.070  0.00  0.00     0.018 C 
ENDBRANCH   1   8
TORSDOF 1
ENDMDL
