MODEL 1
REMARK minimizedAffinity -4.4458375
REMARK minimizedRMSD -1
REMARK  1 active torsions:
REMARK  status: ('A' for Active; 'I' for Inactive)
REMARK    1  A    between atoms: C1_2  and  C2_3 
ROOT
ATOM      1  C2  UNL d   1       0.756  -1.369   0.820  0.00  0.00    -0.076 A 
ATOM      2  C3  UNL d   1       1.264  -0.493  -0.155  0.00  0.00     0.004 A 
ATOM      3  C4  UNL d   1       0.497   0.567  -0.635  0.00  0.00    -0.003 A 
ATOM      4  C5  UNL d   1      -0.789   0.769  -0.147  0.00  0.00     0.000 A 
ATOM      5  C6  UNL d   1      -1.302  -0.079   0.833  0.00  0.00     0.000 A 
ATOM      6  C7  UNL d   1      -0.536  -1.144   1.340  0.00  0.00    -0.073 A 
ATOM      7  C8  UNL d   1      -1.141  -2.032   2.392  0.00  0.00     0.078 C 
ENDROOT
BRANCH   1   8
ATOM      8  C1  UNL d   1       1.624  -2.518   1.283  0.00  0.00     0.053 C 
ATOM      9  C   UNL d   1       2.510  -2.142   2.460  0.00  0.00     0.018 C 
ENDBRANCH   1   8
TORSDOF 1
ENDMDL
