MODEL 1
REMARK minimizedAffinity -3.66877556
REMARK minimizedRMSD -1
REMARK  1 active torsions:
REMARK  status: ('A' for Active; 'I' for Inactive)
REMARK    1  A    between atoms: C1_2  and  C2_3 
ROOT
ATOM      1  C2  UNL d   1       0.007   0.247  -0.373  0.00  0.00    -0.076 A 
ATOM      2  C3  UNL d   1      -0.862  -0.713   0.174  0.00  0.00     0.004 A 
ATOM      3  C4  UNL d   1      -0.367  -1.872   0.769  0.00  0.00    -0.003 A 
ATOM      4  C5  UNL d   1       1.006  -2.089   0.828  0.00  0.00     0.000 A 
ATOM      5  C6  UNL d   1       1.883  -1.139   0.307  0.00  0.00     0.000 A 
ATOM      6  C7  UNL d   1       1.401   0.043  -0.282  0.00  0.00    -0.073 A 
ATOM      7  C8  UNL d   1       2.392   1.031  -0.834  0.00  0.00     0.078 C 
ENDROOT
BRANCH   1   8
ATOM      8  C1  UNL d   1      -0.588   1.472  -1.030  0.00  0.00     0.053 C 
ATOM      9  C   UNL d   1      -1.528   1.121  -2.173  0.00  0.00     0.018 C 
ENDBRANCH   1   8
TORSDOF 1
ENDMDL
