MODEL 1
REMARK minimizedAffinity -4.92213583
REMARK minimizedRMSD -1
REMARK  1 active torsions:
REMARK  status: ('A' for Active; 'I' for Inactive)
REMARK    1  A    between atoms: C1_2  and  C2_3 
ROOT
ATOM      1  C2  UNL d   1       0.067  -0.218   0.369  0.00  0.00    -0.076 A 
ATOM      2  C3  UNL d   1      -0.605  -1.222   1.087  0.00  0.00     0.004 A 
ATOM      3  C4  UNL d   1       0.025  -2.426   1.396  0.00  0.00    -0.003 A 
ATOM      4  C5  UNL d   1       1.338  -2.645   0.994  0.00  0.00     0.000 A 
ATOM      5  C6  UNL d   1       2.026  -1.652   0.297  0.00  0.00     0.000 A 
ATOM      6  C7  UNL d   1       1.410  -0.426  -0.009  0.00  0.00    -0.073 A 
ATOM      7  C8  UNL d   1       2.197   0.607  -0.768  0.00  0.00     0.078 C 
ENDROOT
BRANCH   1   8
ATOM      8  C1  UNL d   1      -0.677   1.057   0.039  0.00  0.00     0.053 C 
ATOM      9  C   UNL d   1      -1.232   1.057  -1.377  0.00  0.00     0.018 C 
ENDBRANCH   1   8
TORSDOF 1
ENDMDL
