MODEL 1
REMARK minimizedAffinity -4.81951189
REMARK minimizedRMSD -1
REMARK  1 active torsions:
REMARK  status: ('A' for Active; 'I' for Inactive)
REMARK    1  A    between atoms: C1_2  and  C2_3 
ROOT
ATOM      1  C2  UNL d   1      -0.062  -0.384   0.489  0.00  0.00    -0.076 A 
ATOM      2  C3  UNL d   1      -0.904  -0.763   1.549  0.00  0.00     0.004 A 
ATOM      3  C4  UNL d   1      -0.574  -1.833   2.379  0.00  0.00    -0.003 A 
ATOM      4  C5  UNL d   1       0.603  -2.540   2.164  0.00  0.00     0.000 A 
ATOM      5  C6  UNL d   1       1.459  -2.166   1.128  0.00  0.00     0.000 A 
ATOM      6  C7  UNL d   1       1.149  -1.080   0.292  0.00  0.00    -0.073 A 
ATOM      7  C8  UNL d   1       2.105  -0.725  -0.814  0.00  0.00     0.078 C 
ENDROOT
BRANCH   1   8
ATOM      8  C1  UNL d   1      -0.485   0.767  -0.396  0.00  0.00     0.053 C 
ATOM      9  C   UNL d   1      -0.150   2.121   0.210  0.00  0.00     0.018 C 
ENDBRANCH   1   8
TORSDOF 1
ENDMDL
