MODEL 1
REMARK minimizedAffinity -4.35141516
REMARK minimizedRMSD -1
REMARK  1 active torsions:
REMARK  status: ('A' for Active; 'I' for Inactive)
REMARK    1  A    between atoms: C1_2  and  C2_3 
ROOT
ATOM      1  C2  UNL d   1      -0.102  -0.439   0.436  0.00  0.00    -0.076 A 
ATOM      2  C3  UNL d   1      -0.802  -1.220   1.372  0.00  0.00     0.004 A 
ATOM      3  C4  UNL d   1      -0.214  -2.344   1.950  0.00  0.00    -0.003 A 
ATOM      4  C5  UNL d   1       1.083  -2.705   1.601  0.00  0.00     0.000 A 
ATOM      5  C6  UNL d   1       1.798  -1.931   0.687  0.00  0.00     0.000 A 
ATOM      6  C7  UNL d   1       1.226  -0.786   0.108  0.00  0.00    -0.073 A 
ATOM      7  C8  UNL d   1       2.040   0.008  -0.877  0.00  0.00     0.078 C 
ENDROOT
BRANCH   1   8
ATOM      8  C1  UNL d   1      -0.801   0.754  -0.179  0.00  0.00     0.053 C 
ATOM      9  C   UNL d   1      -1.611   1.542   0.839  0.00  0.00     0.018 C 
ENDBRANCH   1   8
TORSDOF 1
ENDMDL
