MODEL 1
REMARK minimizedAffinity -4.58068991
REMARK minimizedRMSD -1
REMARK  0 active torsions:
REMARK  status: ('A' for Active; 'I' for Inactive)
ROOT
ATOM      1  C   UNL d   1      -0.632  -0.744   0.280  0.00  0.00     0.020 A 
ATOM      2  C1  UNL d   1      -1.405   0.415   0.335  0.00  0.00     0.020 A 
ATOM      3  C2  UNL d   1      -0.786   1.666   0.379  0.00  0.00     0.034 A 
ATOM      4  C3  UNL d   1       0.611   1.761   0.367  0.00  0.00     0.017 A 
ATOM      5  C4  UNL d   1       1.386   0.597   0.312  0.00  0.00     0.017 A 
ATOM      6  C5  UNL d   1       0.761  -0.653   0.269  0.00  0.00     0.034 A 
ATOM      7 Cl   UNL d   1       3.114   0.634   0.295  0.00  0.00    -0.070 Cl
ATOM      8 Cl1  UNL d   1       1.309   3.340   0.423  0.00  0.00    -0.070 Cl
ENDROOT
TORSDOF 0
ENDMDL
