MODEL 1
REMARK minimizedAffinity -4.2693882
REMARK minimizedRMSD -1
REMARK  0 active torsions:
REMARK  status: ('A' for Active; 'I' for Inactive)
ROOT
ATOM      1  C   UNL d   1       0.261   3.315  -0.066  0.00  0.00     0.020 A 
ATOM      2  C1  UNL d   1       1.338   2.467  -0.318  0.00  0.00     0.020 A 
ATOM      3  C2  UNL d   1       1.143   1.085  -0.367  0.00  0.00     0.034 A 
ATOM      4  C3  UNL d   1      -0.133   0.547  -0.163  0.00  0.00     0.017 A 
ATOM      5  C4  UNL d   1      -1.214   1.399   0.090  0.00  0.00     0.017 A 
ATOM      6  C5  UNL d   1      -1.013   2.782   0.138  0.00  0.00     0.034 A 
ATOM      7 Cl   UNL d   1      -2.817   0.809   0.352  0.00  0.00    -0.070 Cl
ATOM      8 Cl1  UNL d   1      -0.301  -1.171  -0.237  0.00  0.00    -0.070 Cl
ENDROOT
TORSDOF 0
ENDMDL
