MODEL 1
REMARK minimizedAffinity -4.72679234
REMARK minimizedRMSD -1
REMARK  0 active torsions:
REMARK  status: ('A' for Active; 'I' for Inactive)
ROOT
ATOM      1  C   UNL d   1       1.162   2.127  -0.491  0.00  0.00     0.020 A 
ATOM      2  C1  UNL d   1       0.133   2.919   0.017  0.00  0.00     0.020 A 
ATOM      3  C2  UNL d   1      -1.012   2.320   0.546  0.00  0.00     0.034 A 
ATOM      4  C3  UNL d   1      -1.132   0.925   0.567  0.00  0.00     0.017 A 
ATOM      5  C4  UNL d   1      -0.098   0.132   0.057  0.00  0.00     0.017 A 
ATOM      6  C5  UNL d   1       1.047   0.736  -0.471  0.00  0.00     0.034 A 
ATOM      7 Cl   UNL d   1      -0.173  -1.595   0.049  0.00  0.00    -0.070 Cl
ATOM      8 Cl1  UNL d   1      -2.576   0.253   1.236  0.00  0.00    -0.070 Cl
ENDROOT
TORSDOF 0
ENDMDL
