MODEL 1
REMARK minimizedAffinity -4.39803934
REMARK minimizedRMSD -1
REMARK  0 active torsions:
REMARK  status: ('A' for Active; 'I' for Inactive)
ROOT
ATOM      1  C   UNL d   1       0.236   3.052   0.524  0.00  0.00     0.020 A 
ATOM      2  C1  UNL d   1      -0.953   2.331   0.423  0.00  0.00     0.020 A 
ATOM      3  C2  UNL d   1      -0.920   0.937   0.340  0.00  0.00     0.034 A 
ATOM      4  C3  UNL d   1       0.305   0.260   0.359  0.00  0.00     0.017 A 
ATOM      5  C4  UNL d   1       1.498   0.985   0.461  0.00  0.00     0.017 A 
ATOM      6  C5  UNL d   1       1.459   2.380   0.543  0.00  0.00     0.034 A 
ATOM      7 Cl   UNL d   1       3.048   0.219   0.490  0.00  0.00    -0.070 Cl
ATOM      8 Cl1  UNL d   1       0.272  -1.464   0.254  0.00  0.00    -0.070 Cl
ENDROOT
TORSDOF 0
ENDMDL
