MODEL 1
REMARK minimizedAffinity -3.43922305
REMARK minimizedRMSD -1
REMARK  0 active torsions:
REMARK  status: ('A' for Active; 'I' for Inactive)
ROOT
ATOM      1  C   UNL d   1       1.333   2.514  -0.928  0.00  0.00     0.020 A 
ATOM      2  C1  UNL d   1       0.078   3.108  -0.807  0.00  0.00     0.020 A 
ATOM      3  C2  UNL d   1      -0.967   2.413  -0.194  0.00  0.00     0.034 A 
ATOM      4  C3  UNL d   1      -0.759   1.120   0.299  0.00  0.00     0.017 A 
ATOM      5  C4  UNL d   1       0.502   0.524   0.176  0.00  0.00     0.017 A 
ATOM      6  C5  UNL d   1       1.545   1.225  -0.438  0.00  0.00     0.034 A 
ATOM      7 Cl   UNL d   1       0.836  -1.068   0.760  0.00  0.00    -0.070 Cl
ATOM      8 Cl1  UNL d   1      -2.096   0.319   1.045  0.00  0.00    -0.070 Cl
ENDROOT
TORSDOF 0
ENDMDL
