MODEL 1
REMARK minimizedAffinity -2.73636413
REMARK minimizedRMSD -1
REMARK  0 active torsions:
REMARK  status: ('A' for Active; 'I' for Inactive)
ROOT
ATOM      1  C   UNL d   1      -1.816   1.472   0.549  0.00  0.00     0.020 A 
ATOM      2  C1  UNL d   1      -0.805   2.428   0.642  0.00  0.00     0.020 A 
ATOM      3  C2  UNL d   1       0.530   2.049   0.485  0.00  0.00     0.034 A 
ATOM      4  C3  UNL d   1       0.858   0.712   0.234  0.00  0.00     0.017 A 
ATOM      5  C4  UNL d   1      -0.158  -0.247   0.141  0.00  0.00     0.017 A 
ATOM      6  C5  UNL d   1      -1.493   0.137   0.300  0.00  0.00     0.034 A 
ATOM      7 Cl   UNL d   1       0.169  -1.916  -0.166  0.00  0.00    -0.070 Cl
ATOM      8 Cl1  UNL d   1       2.529   0.315   0.050  0.00  0.00    -0.070 Cl
ENDROOT
TORSDOF 0
ENDMDL
