MODEL 1
REMARK minimizedAffinity -2.95980072
REMARK minimizedRMSD -1
REMARK  0 active torsions:
REMARK  status: ('A' for Active; 'I' for Inactive)
ROOT
ATOM      1  C   UNL d   1      -1.853   1.562   0.575  0.00  0.00     0.020 A 
ATOM      2  C1  UNL d   1      -0.971   2.638   0.482  0.00  0.00     0.020 A 
ATOM      3  C2  UNL d   1       0.384   2.410   0.234  0.00  0.00     0.034 A 
ATOM      4  C3  UNL d   1       0.861   1.104   0.078  0.00  0.00     0.017 A 
ATOM      5  C4  UNL d   1      -0.025   0.024   0.170  0.00  0.00     0.017 A 
ATOM      6  C5  UNL d   1      -1.381   0.258   0.419  0.00  0.00     0.034 A 
ATOM      7 Cl   UNL d   1       0.490  -1.616  -0.012  0.00  0.00    -0.070 Cl
ATOM      8 Cl1  UNL d   1       2.549   0.896  -0.227  0.00  0.00    -0.070 Cl
ENDROOT
TORSDOF 0
ENDMDL
