MODEL 1
REMARK minimizedAffinity -2.7171638
REMARK minimizedRMSD -1
REMARK  0 active torsions:
REMARK  status: ('A' for Active; 'I' for Inactive)
ROOT
ATOM      1  C   UNL d   1      -0.026   2.999   0.006  0.00  0.00     0.020 A 
ATOM      2  C1  UNL d   1       0.854   2.444  -0.922  0.00  0.00     0.020 A 
ATOM      3  C2  UNL d   1       0.806   1.076  -1.199  0.00  0.00     0.034 A 
ATOM      4  C3  UNL d   1      -0.125   0.259  -0.548  0.00  0.00     0.017 A 
ATOM      5  C4  UNL d   1      -1.009   0.816   0.383  0.00  0.00     0.017 A 
ATOM      6  C5  UNL d   1      -0.956   2.187   0.657  0.00  0.00     0.034 A 
ATOM      7 Cl   UNL d   1      -2.185  -0.129   1.226  0.00  0.00    -0.070 Cl
ATOM      8 Cl1  UNL d   1      -0.129  -1.424  -0.941  0.00  0.00    -0.070 Cl
ENDROOT
TORSDOF 0
ENDMDL
