MODEL 1
REMARK minimizedAffinity -1.11251307
REMARK minimizedRMSD -1
REMARK  0 active torsions:
REMARK  status: ('A' for Active; 'I' for Inactive)
ROOT
ATOM      1  C   UNL d   1      -0.741  -3.485  -2.249  0.00  0.00     0.020 A 
ATOM      2  C1  UNL d   1      -1.850  -2.645  -2.343  0.00  0.00     0.020 A 
ATOM      3  C2  UNL d   1      -1.879  -1.445  -1.630  0.00  0.00     0.034 A 
ATOM      4  C3  UNL d   1      -0.798  -1.082  -0.819  0.00  0.00     0.017 A 
ATOM      5  C4  UNL d   1       0.315  -1.926  -0.725  0.00  0.00     0.017 A 
ATOM      6  C5  UNL d   1       0.339  -3.126  -1.442  0.00  0.00     0.034 A 
ATOM      7 Cl   UNL d   1       1.687  -1.545   0.255  0.00  0.00    -0.070 Cl
ATOM      8 Cl1  UNL d   1      -0.902   0.416   0.035  0.00  0.00    -0.070 Cl
ENDROOT
TORSDOF 0
ENDMDL
