MODEL 1
REMARK minimizedAffinity -4.68987656
REMARK minimizedRMSD -1
REMARK  0 active torsions:
REMARK  status: ('A' for Active; 'I' for Inactive)
ROOT
ATOM      1  C   UNL d   1      -0.101   3.218  -0.247  0.00  0.00     0.020 A 
ATOM      2  C1  UNL d   1      -1.162   2.342  -0.020  0.00  0.00     0.020 A 
ATOM      3  C2  UNL d   1      -0.924   0.969   0.081  0.00  0.00     0.034 A 
ATOM      4  C3  UNL d   1       0.376   0.469  -0.045  0.00  0.00     0.017 A 
ATOM      5  C4  UNL d   1       1.440   1.349  -0.273  0.00  0.00     0.017 A 
ATOM      6  C5  UNL d   1       1.197   2.722  -0.374  0.00  0.00     0.034 A 
ATOM      7 Cl   UNL d   1       3.073   0.806  -0.440  0.00  0.00    -0.070 Cl
ATOM      8 Cl1  UNL d   1       0.597  -1.240   0.091  0.00  0.00    -0.070 Cl
ENDROOT
TORSDOF 0
ENDMDL
