MODEL 1
REMARK minimizedAffinity -3.47927022
REMARK minimizedRMSD -1
REMARK  0 active torsions:
REMARK  status: ('A' for Active; 'I' for Inactive)
ROOT
ATOM      1  C   UNL d   1      -1.797   1.733   0.238  0.00  0.00     0.020 A 
ATOM      2  C1  UNL d   1      -0.813   2.642   0.626  0.00  0.00     0.020 A 
ATOM      3  C2  UNL d   1       0.522   2.239   0.695  0.00  0.00     0.034 A 
ATOM      4  C3  UNL d   1       0.877   0.924   0.376  0.00  0.00     0.017 A 
ATOM      5  C4  UNL d   1      -0.111   0.012  -0.013  0.00  0.00     0.017 A 
ATOM      6  C5  UNL d   1      -1.446   0.421  -0.081  0.00  0.00     0.034 A 
ATOM      7 Cl   UNL d   1       0.251  -1.628  -0.422  0.00  0.00    -0.070 Cl
ATOM      8 Cl1  UNL d   1       2.548   0.494   0.482  0.00  0.00    -0.070 Cl
ENDROOT
TORSDOF 0
ENDMDL
