MODEL 1
REMARK minimizedAffinity -2.00673771
REMARK minimizedRMSD -1
REMARK  0 active torsions:
REMARK  status: ('A' for Active; 'I' for Inactive)
ROOT
ATOM      1  C   UNL d   1       0.942   1.571  -1.160  0.00  0.00     0.020 A 
ATOM      2  C1  UNL d   1       1.268   2.819  -0.630  0.00  0.00     0.020 A 
ATOM      3  C2  UNL d   1       0.712   3.228   0.584  0.00  0.00     0.034 A 
ATOM      4  C3  UNL d   1      -0.171   2.389   1.273  0.00  0.00     0.017 A 
ATOM      5  C4  UNL d   1      -0.497   1.136   0.740  0.00  0.00     0.017 A 
ATOM      6  C5  UNL d   1       0.062   0.732  -0.476  0.00  0.00     0.034 A 
ATOM      7 Cl   UNL d   1      -1.579   0.046   1.531  0.00  0.00    -0.070 Cl
ATOM      8 Cl1  UNL d   1      -0.820   2.959   2.769  0.00  0.00    -0.070 Cl
ENDROOT
TORSDOF 0
ENDMDL
