MODEL 1
REMARK minimizedAffinity 8.9317131
REMARK minimizedRMSD -1
REMARK  0 active torsions:
REMARK  status: ('A' for Active; 'I' for Inactive)
ROOT
ATOM      1  C   UNL d   1      -0.885   1.843   1.263  0.00  0.00     0.020 A 
ATOM      2  C1  UNL d   1      -2.034   1.105   0.981  0.00  0.00     0.020 A 
ATOM      3  C2  UNL d   1      -1.924  -0.178   0.441  0.00  0.00     0.034 A 
ATOM      4  C3  UNL d   1      -0.663  -0.727   0.182  0.00  0.00     0.017 A 
ATOM      5  C4  UNL d   1       0.490   0.015   0.465  0.00  0.00     0.017 A 
ATOM      6  C5  UNL d   1       0.374   1.299   1.005  0.00  0.00     0.034 A 
ATOM      7 Cl   UNL d   1       2.080  -0.595   0.172  0.00  0.00    -0.070 Cl
ATOM      8 Cl1  UNL d   1      -0.602  -2.320  -0.486  0.00  0.00    -0.070 Cl
ENDROOT
TORSDOF 0
ENDMDL
