MODEL 1
REMARK minimizedAffinity 1.34872818
REMARK minimizedRMSD -1
REMARK  0 active torsions:
REMARK  status: ('A' for Active; 'I' for Inactive)
ROOT
ATOM      1  C   UNL d   1      -0.318  -3.828  -3.016  0.00  0.00     0.020 A 
ATOM      2  C1  UNL d   1       0.857  -3.100  -3.203  0.00  0.00     0.020 A 
ATOM      3  C2  UNL d   1       1.213  -2.103  -2.292  0.00  0.00     0.034 A 
ATOM      4  C3  UNL d   1       0.395  -1.832  -1.190  0.00  0.00     0.017 A 
ATOM      5  C4  UNL d   1      -0.783  -2.563  -1.002  0.00  0.00     0.017 A 
ATOM      6  C5  UNL d   1      -1.136  -3.560  -1.918  0.00  0.00     0.034 A 
ATOM      7 Cl   UNL d   1      -1.844  -2.286   0.334  0.00  0.00    -0.070 Cl
ATOM      8 Cl1  UNL d   1       0.898  -0.586  -0.103  0.00  0.00    -0.070 Cl
ENDROOT
TORSDOF 0
ENDMDL
