MODEL 1
REMARK minimizedAffinity 0.749651492
REMARK minimizedRMSD -1
REMARK  0 active torsions:
REMARK  status: ('A' for Active; 'I' for Inactive)
ROOT
ATOM      1  C   UNL d   1       1.155   1.317   0.027  0.00  0.00     0.020 A 
ATOM      2  C1  UNL d   1       1.835   0.209  -0.478  0.00  0.00     0.020 A 
ATOM      3  C2  UNL d   1       1.178  -1.017  -0.597  0.00  0.00     0.034 A 
ATOM      4  C3  UNL d   1      -0.161  -1.139  -0.211  0.00  0.00     0.017 A 
ATOM      5  C4  UNL d   1      -0.843  -0.027   0.296  0.00  0.00     0.017 A 
ATOM      6  C5  UNL d   1      -0.180   1.199   0.413  0.00  0.00     0.034 A 
ATOM      7 Cl   UNL d   1      -2.496  -0.100   0.793  0.00  0.00    -0.070 Cl
ATOM      8 Cl1  UNL d   1      -0.911  -2.687  -0.386  0.00  0.00    -0.070 Cl
ENDROOT
TORSDOF 0
ENDMDL
