MODEL 1
REMARK minimizedAffinity -1.87782907
REMARK minimizedRMSD -1
REMARK  0 active torsions:
REMARK  status: ('A' for Active; 'I' for Inactive)
ROOT
ATOM      1  C1  BNZ d   1       1.632   0.251  -0.890  0.00  0.00     0.000 A 
ATOM      2  C2  BNZ d   1       0.785   0.288  -1.966  0.00  0.00     0.000 A 
ATOM      3  C3  BNZ d   1      -0.570   0.237  -1.792  0.00  0.00     0.000 A 
ATOM      4  C4  BNZ d   1      -1.075   0.107  -0.548  0.00  0.00     0.000 A 
ATOM      5  C5  BNZ d   1      -0.234   0.059   0.546  0.00  0.00     0.000 A 
ATOM      6  C6  BNZ d   1       1.128   0.150   0.370  0.00  0.00     0.000 A 
ENDROOT
TORSDOF 0
ENDMDL
