MODEL 1
REMARK minimizedAffinity -4.48906231
REMARK minimizedRMSD -1
REMARK  0 active torsions:
REMARK  status: ('A' for Active; 'I' for Inactive)
ROOT
ATOM      1  C1  BNZ d   1       0.063  -0.520   0.104  0.00  0.00     0.000 A 
ATOM      2  C2  BNZ d   1      -1.122  -1.193   0.238  0.00  0.00     0.000 A 
ATOM      3  C3  BNZ d   1      -2.170  -0.939  -0.601  0.00  0.00     0.000 A 
ATOM      4  C4  BNZ d   1      -2.047   0.016  -1.546  0.00  0.00     0.000 A 
ATOM      5  C5  BNZ d   1      -0.862   0.710  -1.688  0.00  0.00     0.000 A 
ATOM      6  C6  BNZ d   1       0.205   0.424  -0.867  0.00  0.00     0.000 A 
ENDROOT
TORSDOF 0
ENDMDL
