MODEL 1
REMARK minimizedAffinity -3.5531323
REMARK minimizedRMSD -1
REMARK  0 active torsions:
REMARK  status: ('A' for Active; 'I' for Inactive)
ROOT
ATOM      1  C1  BNZ d   1       2.989   1.529  -0.095  0.00  0.00     0.000 A 
ATOM      2  C2  BNZ d   1       1.966   0.680  -0.422  0.00  0.00     0.000 A 
ATOM      3  C3  BNZ d   1       0.822   0.643   0.326  0.00  0.00     0.000 A 
ATOM      4  C4  BNZ d   1       0.719   1.425   1.420  0.00  0.00     0.000 A 
ATOM      5  C5  BNZ d   1       1.746   2.280   1.767  0.00  0.00     0.000 A 
ATOM      6  C6  BNZ d   1       2.880   2.343   0.990  0.00  0.00     0.000 A 
ENDROOT
TORSDOF 0
ENDMDL
