MODEL 1
REMARK minimizedAffinity -3.4226594
REMARK minimizedRMSD -1
REMARK  0 active torsions:
REMARK  status: ('A' for Active; 'I' for Inactive)
ROOT
ATOM      1  C1  BNZ d   1      -0.268  -0.761   0.518  0.00  0.00     0.000 A 
ATOM      2  C2  BNZ d   1      -1.565  -1.096   0.235  0.00  0.00     0.000 A 
ATOM      3  C3  BNZ d   1      -2.137  -0.740  -0.955  0.00  0.00     0.000 A 
ATOM      4  C4  BNZ d   1      -1.424  -0.017  -1.842  0.00  0.00     0.000 A 
ATOM      5  C5  BNZ d   1      -0.118   0.337  -1.568  0.00  0.00     0.000 A 
ATOM      6  C6  BNZ d   1       0.466  -0.057  -0.385  0.00  0.00     0.000 A 
ENDROOT
TORSDOF 0
ENDMDL
