MODEL 1
REMARK minimizedAffinity -1.54199553
REMARK minimizedRMSD -1
REMARK  0 active torsions:
REMARK  status: ('A' for Active; 'I' for Inactive)
ROOT
ATOM      1  C1  BNZ d   1       0.412   0.943  -0.969  0.00  0.00     0.000 A 
ATOM      2  C2  BNZ d   1       1.047   0.437   0.134  0.00  0.00     0.000 A 
ATOM      3  C3  BNZ d   1       0.523  -0.623   0.820  0.00  0.00     0.000 A 
ATOM      4  C4  BNZ d   1      -0.655  -1.149   0.427  0.00  0.00     0.000 A 
ATOM      5  C5  BNZ d   1      -1.312  -0.645  -0.677  0.00  0.00     0.000 A 
ATOM      6  C6  BNZ d   1      -0.762   0.397  -1.388  0.00  0.00     0.000 A 
ENDROOT
TORSDOF 0
ENDMDL
