MODEL 1
REMARK minimizedAffinity -2.71759033
REMARK minimizedRMSD -1
REMARK  0 active torsions:
REMARK  status: ('A' for Active; 'I' for Inactive)
ROOT
ATOM      1  C1  BNZ d   1       2.293  -0.473   0.878  0.00  0.00     0.000 A 
ATOM      2  C2  BNZ d   1       1.468  -1.393   1.468  0.00  0.00     0.000 A 
ATOM      3  C3  BNZ d   1       0.126  -1.397   1.210  0.00  0.00     0.000 A 
ATOM      4  C4  BNZ d   1      -0.395  -0.457   0.394  0.00  0.00     0.000 A 
ATOM      5  C5  BNZ d   1       0.423   0.483  -0.201  0.00  0.00     0.000 A 
ATOM      6  C6  BNZ d   1       1.779   0.459   0.030  0.00  0.00     0.000 A 
ENDROOT
TORSDOF 0
ENDMDL
