MODEL 1
REMARK minimizedAffinity -2.46802855
REMARK minimizedRMSD -1
REMARK  0 active torsions:
REMARK  status: ('A' for Active; 'I' for Inactive)
ROOT
ATOM      1  C1  BNZ d   1       1.818   0.913   1.142  0.00  0.00     0.000 A 
ATOM      2  C2  BNZ d   1       1.714   2.029   1.928  0.00  0.00     0.000 A 
ATOM      3  C3  BNZ d   1       2.424   3.160   1.635  0.00  0.00     0.000 A 
ATOM      4  C4  BNZ d   1       3.264   3.161   0.581  0.00  0.00     0.000 A 
ATOM      5  C5  BNZ d   1       3.387   2.040  -0.216  0.00  0.00     0.000 A 
ATOM      6  C6  BNZ d   1       2.642   0.916   0.059  0.00  0.00     0.000 A 
ENDROOT
TORSDOF 0
ENDMDL
