MODEL 1
REMARK minimizedAffinity 6.51398659
REMARK minimizedRMSD -1
REMARK  0 active torsions:
REMARK  status: ('A' for Active; 'I' for Inactive)
ROOT
ATOM      1  C1  BNZ d   1      -3.510  -5.648   5.999  0.00  0.00     0.000 A 
ATOM      2  C2  BNZ d   1      -2.270  -5.066   5.999  0.00  0.00     0.000 A 
ATOM      3  C3  BNZ d   1      -2.096  -3.791   5.538  0.00  0.00     0.000 A 
ATOM      4  C4  BNZ d   1      -3.152  -3.116   5.041  0.00  0.00     0.000 A 
ATOM      5  C5  BNZ d   1      -4.406  -3.692   5.025  0.00  0.00     0.000 A 
ATOM      6  C6  BNZ d   1      -4.585  -4.961   5.526  0.00  0.00     0.000 A 
ENDROOT
TORSDOF 0
ENDMDL
