MODEL 1
REMARK minimizedAffinity 0.412900418
REMARK minimizedRMSD -1
REMARK  0 active torsions:
REMARK  status: ('A' for Active; 'I' for Inactive)
ROOT
ATOM      1  C1  BNZ d   1      -2.905  -1.613   0.105  0.00  0.00     0.000 A 
ATOM      2  C2  BNZ d   1      -3.071  -0.949  -1.082  0.00  0.00     0.000 A 
ATOM      3  C3  BNZ d   1      -2.023  -0.301  -1.673  0.00  0.00     0.000 A 
ATOM      4  C4  BNZ d   1      -0.822  -0.282  -1.058  0.00  0.00     0.000 A 
ATOM      5  C5  BNZ d   1      -0.642  -0.939   0.143  0.00  0.00     0.000 A 
ATOM      6  C6  BNZ d   1      -1.689  -1.624   0.715  0.00  0.00     0.000 A 
ENDROOT
TORSDOF 0
ENDMDL
