MODEL 1
REMARK minimizedAffinity -3.65254235
REMARK minimizedRMSD -1
REMARK  0 active torsions:
REMARK  status: ('A' for Active; 'I' for Inactive)
ROOT
ATOM      1  C1  BNZ d   1      -2.081   0.103  -1.839  0.00  0.00     0.000 A 
ATOM      2  C2  BNZ d   1      -1.059   0.948  -1.498  0.00  0.00     0.000 A 
ATOM      3  C3  BNZ d   1      -0.134   0.586  -0.559  0.00  0.00     0.000 A 
ATOM      4  C4  BNZ d   1      -0.255  -0.603   0.066  0.00  0.00     0.000 A 
ATOM      5  C5  BNZ d   1      -1.285  -1.463  -0.260  0.00  0.00     0.000 A 
ATOM      6  C6  BNZ d   1      -2.191  -1.111  -1.233  0.00  0.00     0.000 A 
ENDROOT
TORSDOF 0
ENDMDL
