MODEL 1
REMARK minimizedAffinity -2.94822073
REMARK minimizedRMSD -1
REMARK  0 active torsions:
REMARK  status: ('A' for Active; 'I' for Inactive)
ROOT
ATOM      1  C1  BNZ d   1       0.059  -0.804   0.472  0.00  0.00     0.000 A 
ATOM      2  C2  BNZ d   1      -1.062  -1.373  -0.070  0.00  0.00     0.000 A 
ATOM      3  C3  BNZ d   1      -1.730  -0.763  -1.095  0.00  0.00     0.000 A 
ATOM      4  C4  BNZ d   1      -1.300   0.432  -1.549  0.00  0.00     0.000 A 
ATOM      5  C5  BNZ d   1      -0.177   1.023  -1.006  0.00  0.00     0.000 A 
ATOM      6  C6  BNZ d   1       0.516   0.388  -0.001  0.00  0.00     0.000 A 
ENDROOT
TORSDOF 0
ENDMDL
