MODEL 1
REMARK minimizedAffinity -3.06140852
REMARK minimizedRMSD -1
REMARK  0 active torsions:
REMARK  status: ('A' for Active; 'I' for Inactive)
ROOT
ATOM      1  C1  BNZ d   1       3.043   1.603  -0.871  0.00  0.00     0.000 A 
ATOM      2  C2  BNZ d   1       3.248   2.742  -0.139  0.00  0.00     0.000 A 
ATOM      3  C3  BNZ d   1       2.551   2.967   1.015  0.00  0.00     0.000 A 
ATOM      4  C4  BNZ d   1       1.624   2.073   1.415  0.00  0.00     0.000 A 
ATOM      5  C5  BNZ d   1       1.399   0.924   0.683  0.00  0.00     0.000 A 
ATOM      6  C6  BNZ d   1       2.129   0.682  -0.458  0.00  0.00     0.000 A 
ENDROOT
TORSDOF 0
ENDMDL
