MODEL 1
REMARK minimizedAffinity -2.37010193
REMARK minimizedRMSD -1
REMARK  0 active torsions:
REMARK  status: ('A' for Active; 'I' for Inactive)
ROOT
ATOM      1  C1  BNZ d   1       0.098  -0.055  -0.201  0.00  0.00     0.000 A 
ATOM      2  C2  BNZ d   1       1.451   0.156  -0.247  0.00  0.00     0.000 A 
ATOM      3  C3  BNZ d   1       2.309  -0.653   0.444  0.00  0.00     0.000 A 
ATOM      4  C4  BNZ d   1       1.813  -1.644   1.211  0.00  0.00     0.000 A 
ATOM      5  C5  BNZ d   1       0.451  -1.863   1.276  0.00  0.00     0.000 A 
ATOM      6  C6  BNZ d   1      -0.407  -1.072   0.548  0.00  0.00     0.000 A 
ENDROOT
TORSDOF 0
ENDMDL
