MODEL 1
REMARK minimizedAffinity -3.97733283
REMARK minimizedRMSD -1
REMARK  0 active torsions:
REMARK  status: ('A' for Active; 'I' for Inactive)
ROOT
ATOM      1  C1  BNZ d   1       1.235   1.474   1.264  0.00  0.00     0.000 A 
ATOM      2  C2  BNZ d   1       2.141   1.140   0.293  0.00  0.00     0.000 A 
ATOM      3  C3  BNZ d   1       2.999   2.074  -0.215  0.00  0.00     0.000 A 
ATOM      4  C4  BNZ d   1       2.924   3.349   0.219  0.00  0.00     0.000 A 
ATOM      5  C5  BNZ d   1       2.010   3.704   1.190  0.00  0.00     0.000 A 
ATOM      6  C6  BNZ d   1       1.174   2.752   1.728  0.00  0.00     0.000 A 
ENDROOT
TORSDOF 0
ENDMDL
