MODEL 1
REMARK minimizedAffinity -1.8554529
REMARK minimizedRMSD -1
REMARK  0 active torsions:
REMARK  status: ('A' for Active; 'I' for Inactive)
ROOT
ATOM      1  C1  BNZ d   1       0.650  -0.041   0.211  0.00  0.00     0.000 A 
ATOM      2  C2  BNZ d   1      -0.251   0.304  -0.761  0.00  0.00     0.000 A 
ATOM      3  C3  BNZ d   1      -1.479  -0.294  -0.822  0.00  0.00     0.000 A 
ATOM      4  C4  BNZ d   1      -1.788  -1.264   0.064  0.00  0.00     0.000 A 
ATOM      5  C5  BNZ d   1      -0.887  -1.629   1.044  0.00  0.00     0.000 A 
ATOM      6  C6  BNZ d   1       0.333  -0.997   1.126  0.00  0.00     0.000 A 
ENDROOT
TORSDOF 0
ENDMDL
