MODEL 1
REMARK minimizedAffinity -3.64688921
REMARK minimizedRMSD -1
REMARK  0 active torsions:
REMARK  status: ('A' for Active; 'I' for Inactive)
ROOT
ATOM      1  C1  BNZ d   1      -2.469  -0.217  -1.538  0.00  0.00     0.000 A 
ATOM      2  C2  BNZ d   1      -1.410   0.650  -1.491  0.00  0.00     0.000 A 
ATOM      3  C3  BNZ d   1      -0.368   0.437  -0.634  0.00  0.00     0.000 A 
ATOM      4  C4  BNZ d   1      -0.404  -0.620   0.203  0.00  0.00     0.000 A 
ATOM      5  C5  BNZ d   1      -1.468  -1.499   0.175  0.00  0.00     0.000 A 
ATOM      6  C6  BNZ d   1      -2.498  -1.302  -0.717  0.00  0.00     0.000 A 
ENDROOT
TORSDOF 0
ENDMDL
