MODEL 1
REMARK minimizedAffinity 1.63508594
REMARK minimizedRMSD -1
REMARK  0 active torsions:
REMARK  status: ('A' for Active; 'I' for Inactive)
ROOT
ATOM      1  C   UNL d   1       2.777   3.572  -2.356  0.00  0.00     0.172 C 
ATOM      2  N   UNL d   1       2.118   2.295  -2.492  0.00  0.00    -0.070 N 
ATOM      3  C1  UNL d   1       1.467   1.847  -3.610  0.00  0.00    -0.004 A 
ATOM      4  C2  UNL d   1       0.977   0.588  -3.338  0.00  0.00    -0.047 A 
ATOM      5  C3  UNL d   1       1.346   0.268  -2.010  0.00  0.00    -0.047 A 
ATOM      6  C4  UNL d   1       2.051   1.342  -1.509  0.00  0.00    -0.004 A 
ENDROOT
TORSDOF 0
ENDMDL
