MODEL 1
REMARK minimizedAffinity 9.23667049
REMARK minimizedRMSD -1
REMARK  0 active torsions:
REMARK  status: ('A' for Active; 'I' for Inactive)
ROOT
ATOM      1  C   UNL d   1       0.508   3.009  -5.999  0.00  0.00     0.172 C 
ATOM      2  N   UNL d   1       0.372   2.141  -4.853  0.00  0.00    -0.070 N 
ATOM      3  C1  UNL d   1       0.013   0.820  -4.890  0.00  0.00    -0.004 A 
ATOM      4  C2  UNL d   1      -0.002   0.350  -3.595  0.00  0.00    -0.047 A 
ATOM      5  C3  UNL d   1       0.360   1.426  -2.750  0.00  0.00    -0.047 A 
ATOM      6  C4  UNL d   1       0.586   2.522  -3.555  0.00  0.00    -0.004 A 
ENDROOT
TORSDOF 0
ENDMDL
