MODEL 1
REMARK minimizedAffinity 0.956718385
REMARK minimizedRMSD -1
REMARK  0 active torsions:
REMARK  status: ('A' for Active; 'I' for Inactive)
ROOT
ATOM      1  C   UNL d   1       0.541  -1.153  -1.857  0.00  0.00     0.172 C 
ATOM      2  N   UNL d   1       1.025  -0.124  -2.746  0.00  0.00    -0.070 N 
ATOM      3  C1  UNL d   1       2.189   0.581  -2.593  0.00  0.00    -0.004 A 
ATOM      4  C2  UNL d   1       2.289   1.465  -3.646  0.00  0.00    -0.047 A 
ATOM      5  C3  UNL d   1       1.145   1.285  -4.460  0.00  0.00    -0.047 A 
ATOM      6  C4  UNL d   1       0.380   0.296  -3.879  0.00  0.00    -0.004 A 
ENDROOT
TORSDOF 0
ENDMDL
