MODEL 1
REMARK minimizedAffinity 5.96451139
REMARK minimizedRMSD -1
REMARK  0 active torsions:
REMARK  status: ('A' for Active; 'I' for Inactive)
ROOT
ATOM      1  C   UNL d   1      -0.494  -5.109   1.556  0.00  0.00     0.172 C 
ATOM      2  N   UNL d   1      -1.436  -4.245   0.885  0.00  0.00    -0.070 N 
ATOM      3  C1  UNL d   1      -2.306  -3.384   1.498  0.00  0.00    -0.004 A 
ATOM      4  C2  UNL d   1      -3.030  -2.744   0.516  0.00  0.00    -0.047 A 
ATOM      5  C3  UNL d   1      -2.580  -3.239  -0.732  0.00  0.00    -0.047 A 
ATOM      6  C4  UNL d   1      -1.594  -4.167  -0.473  0.00  0.00    -0.004 A 
ENDROOT
TORSDOF 0
ENDMDL
