MODEL 1
REMARK minimizedAffinity 8.94370079
REMARK minimizedRMSD -1
REMARK  0 active torsions:
REMARK  status: ('A' for Active; 'I' for Inactive)
ROOT
ATOM      1  C   UNL d   1      -4.959  -0.416   3.903  0.00  0.00     0.172 C 
ATOM      2  N   UNL d   1      -3.983   0.513   3.382  0.00  0.00    -0.070 N 
ATOM      3  C1  UNL d   1      -2.912   0.187   2.593  0.00  0.00    -0.004 A 
ATOM      4  C2  UNL d   1      -2.228   1.349   2.310  0.00  0.00    -0.047 A 
ATOM      5  C3  UNL d   1      -2.911   2.410   2.951  0.00  0.00    -0.047 A 
ATOM      6  C4  UNL d   1      -3.994   1.864   3.607  0.00  0.00    -0.004 A 
ENDROOT
TORSDOF 0
ENDMDL
