MODEL 1
REMARK minimizedAffinity 4.83330011
REMARK minimizedRMSD -1
REMARK  0 active torsions:
REMARK  status: ('A' for Active; 'I' for Inactive)
ROOT
ATOM      1  C   UNL d   1      -2.968   3.279   3.498  0.00  0.00     0.172 C 
ATOM      2  N   UNL d   1      -3.040   4.336   4.478  0.00  0.00    -0.070 N 
ATOM      3  C1  UNL d   1      -4.169   4.729   5.147  0.00  0.00    -0.004 A 
ATOM      4  C2  UNL d   1      -3.821   5.762   5.991  0.00  0.00    -0.047 A 
ATOM      5  C3  UNL d   1      -2.436   5.999   5.822  0.00  0.00    -0.047 A 
ATOM      6  C4  UNL d   1      -1.978   5.103   4.880  0.00  0.00    -0.004 A 
ENDROOT
TORSDOF 0
ENDMDL
