MODEL 1
REMARK minimizedAffinity 4.88831806
REMARK minimizedRMSD -1
REMARK  0 active torsions:
REMARK  status: ('A' for Active; 'I' for Inactive)
ROOT
ATOM      1  C   UNL d   1      -1.128   0.596  -1.199  0.00  0.00     0.172 C 
ATOM      2  N   UNL d   1       0.175   0.703  -1.812  0.00  0.00    -0.070 N 
ATOM      3  C1  UNL d   1       1.285   1.264  -1.238  0.00  0.00    -0.004 A 
ATOM      4  C2  UNL d   1       2.321   1.171  -2.141  0.00  0.00    -0.047 A 
ATOM      5  C3  UNL d   1       1.817   0.532  -3.299  0.00  0.00    -0.047 A 
ATOM      6  C4  UNL d   1       0.487   0.253  -3.068  0.00  0.00    -0.004 A 
ENDROOT
TORSDOF 0
ENDMDL
