MODEL 1
REMARK minimizedAffinity 6.54398823
REMARK minimizedRMSD -1
REMARK  0 active torsions:
REMARK  status: ('A' for Active; 'I' for Inactive)
ROOT
ATOM      1  C   UNL d   1      -3.029   2.805   3.817  0.00  0.00     0.172 C 
ATOM      2  N   UNL d   1      -3.069   4.037   4.569  0.00  0.00    -0.070 N 
ATOM      3  C1  UNL d   1      -4.104   4.456   5.362  0.00  0.00    -0.004 A 
ATOM      4  C2  UNL d   1      -3.755   5.675   5.902  0.00  0.00    -0.047 A 
ATOM      5  C3  UNL d   1      -2.465   6.000   5.417  0.00  0.00    -0.047 A 
ATOM      6  C4  UNL d   1      -2.064   4.968   4.594  0.00  0.00    -0.004 A 
ENDROOT
TORSDOF 0
ENDMDL
