MODEL 1
REMARK minimizedAffinity 1.79357374
REMARK minimizedRMSD -1
REMARK  0 active torsions:
REMARK  status: ('A' for Active; 'I' for Inactive)
ROOT
ATOM      1  C   UNL d   1       1.272   1.119  -5.433  0.00  0.00     0.172 C 
ATOM      2  N   UNL d   1       1.590   0.906  -4.041  0.00  0.00    -0.070 N 
ATOM      3  C1  UNL d   1       0.695   0.931  -3.005  0.00  0.00    -0.004 A 
ATOM      4  C2  UNL d   1       1.390   0.682  -1.841  0.00  0.00    -0.047 A 
ATOM      5  C3  UNL d   1       2.750   0.503  -2.189  0.00  0.00    -0.047 A 
ATOM      6  C4  UNL d   1       2.845   0.647  -3.557  0.00  0.00    -0.004 A 
ENDROOT
TORSDOF 0
ENDMDL
