MODEL 1
REMARK minimizedAffinity 7.71550179
REMARK minimizedRMSD -1
REMARK  0 active torsions:
REMARK  status: ('A' for Active; 'I' for Inactive)
ROOT
ATOM      1  C   UNL d   1       2.340   3.840  -3.783  0.00  0.00     0.172 C 
ATOM      2  N   UNL d   1       1.600   2.601  -3.750  0.00  0.00    -0.070 N 
ATOM      3  C1  UNL d   1       0.577   2.259  -4.593  0.00  0.00    -0.004 A 
ATOM      4  C2  UNL d   1       0.137   1.002  -4.236  0.00  0.00    -0.047 A 
ATOM      5  C3  UNL d   1       0.923   0.575  -3.140  0.00  0.00    -0.047 A 
ATOM      6  C4  UNL d   1       1.820   1.583  -2.859  0.00  0.00    -0.004 A 
ENDROOT
TORSDOF 0
ENDMDL
