MODEL 1
REMARK minimizedAffinity -0.02203881
REMARK minimizedRMSD -1
REMARK  0 active torsions:
REMARK  status: ('A' for Active; 'I' for Inactive)
ROOT
ATOM      1  C   UNL d   1       2.862   2.920  -3.783  0.00  0.00     0.172 C 
ATOM      2  N   UNL d   1       2.149   1.901  -3.050  0.00  0.00    -0.070 N 
ATOM      3  C1  UNL d   1       1.738   1.995  -1.747  0.00  0.00    -0.004 A 
ATOM      4  C2  UNL d   1       1.095   0.821  -1.421  0.00  0.00    -0.047 A 
ATOM      5  C3  UNL d   1       1.121  -0.009  -2.568  0.00  0.00    -0.047 A 
ATOM      6  C4  UNL d   1       1.779   0.685  -3.561  0.00  0.00    -0.004 A 
ENDROOT
TORSDOF 0
ENDMDL
