MODEL 1
REMARK minimizedAffinity 4.0733223
REMARK minimizedRMSD -1
REMARK  0 active torsions:
REMARK  status: ('A' for Active; 'I' for Inactive)
ROOT
ATOM      1  C   UNL d   1       1.451  -2.789  -2.267  0.00  0.00     0.172 C 
ATOM      2  N   UNL d   1       2.323  -1.664  -2.019  0.00  0.00    -0.070 N 
ATOM      3  C1  UNL d   1       2.507  -0.597  -2.857  0.00  0.00    -0.004 A 
ATOM      4  C2  UNL d   1       3.411   0.256  -2.261  0.00  0.00    -0.047 A 
ATOM      5  C3  UNL d   1       3.784  -0.319  -1.023  0.00  0.00    -0.047 A 
ATOM      6  C4  UNL d   1       3.095  -1.507  -0.898  0.00  0.00    -0.004 A 
ENDROOT
TORSDOF 0
ENDMDL
