MODEL 1
REMARK minimizedAffinity 4.42170382
REMARK minimizedRMSD -1
REMARK  0 active torsions:
REMARK  status: ('A' for Active; 'I' for Inactive)
ROOT
ATOM      1  C   UNL d   1       0.089   1.876  -5.812  0.00  0.00     0.172 C 
ATOM      2  N   UNL d   1       0.281   1.440  -4.449  0.00  0.00    -0.070 N 
ATOM      3  C1  UNL d   1       0.664   0.184  -4.059  0.00  0.00    -0.004 A 
ATOM      4  C2  UNL d   1       0.733   0.172  -2.683  0.00  0.00    -0.047 A 
ATOM      5  C3  UNL d   1       0.379   1.464  -2.230  0.00  0.00    -0.047 A 
ATOM      6  C4  UNL d   1       0.103   2.229  -3.344  0.00  0.00    -0.004 A 
ENDROOT
TORSDOF 0
ENDMDL
