MODEL 1
REMARK minimizedAffinity 6.14092445
REMARK minimizedRMSD -1
REMARK  0 active torsions:
REMARK  status: ('A' for Active; 'I' for Inactive)
ROOT
ATOM      1  C   UNL d   1       0.010   1.480  -5.883  0.00  0.00     0.172 C 
ATOM      2  N   UNL d   1       0.221   1.055  -4.519  0.00  0.00    -0.070 N 
ATOM      3  C1  UNL d   1      -0.481   0.074  -3.870  0.00  0.00    -0.004 A 
ATOM      4  C2  UNL d   1       0.021  -0.029  -2.591  0.00  0.00    -0.047 A 
ATOM      5  C3  UNL d   1       1.060   0.923  -2.466  0.00  0.00    -0.047 A 
ATOM      6  C4  UNL d   1       1.163   1.580  -3.674  0.00  0.00    -0.004 A 
ENDROOT
TORSDOF 0
ENDMDL
