MODEL 1
REMARK minimizedAffinity 2.10202551
REMARK minimizedRMSD -1
REMARK  0 active torsions:
REMARK  status: ('A' for Active; 'I' for Inactive)
ROOT
ATOM      1  C   UNL d   1      -5.999   4.638   4.434  0.00  0.00     0.172 C 
ATOM      2  N   UNL d   1      -4.684   5.096   4.814  0.00  0.00    -0.070 N 
ATOM      3  C1  UNL d   1      -3.549   4.982   4.055  0.00  0.00    -0.004 A 
ATOM      4  C2  UNL d   1      -2.508   5.538   4.767  0.00  0.00    -0.047 A 
ATOM      5  C3  UNL d   1      -3.035   6.000   5.996  0.00  0.00    -0.047 A 
ATOM      6  C4  UNL d   1      -4.384   5.714   5.999  0.00  0.00    -0.004 A 
ENDROOT
TORSDOF 0
ENDMDL
