MODEL 1
REMARK minimizedAffinity 4.14016008
REMARK minimizedRMSD -1
REMARK  0 active torsions:
REMARK  status: ('A' for Active; 'I' for Inactive)
ROOT
ATOM      1  C   UNL d   1      -0.508   1.045  -4.666  0.00  0.00     0.172 C 
ATOM      2  N   UNL d   1      -0.109   0.796  -3.300  0.00  0.00    -0.070 N 
ATOM      3  C1  UNL d   1      -0.738  -0.051  -2.427  0.00  0.00    -0.004 A 
ATOM      4  C2  UNL d   1      -0.053  -0.009  -1.232  0.00  0.00    -0.047 A 
ATOM      5  C3  UNL d   1       1.024   0.895  -1.392  0.00  0.00    -0.047 A 
ATOM      6  C4  UNL d   1       0.965   1.378  -2.682  0.00  0.00    -0.004 A 
ENDROOT
TORSDOF 0
ENDMDL
