MODEL 1
REMARK minimizedAffinity -4.17884541
REMARK minimizedRMSD -1
REMARK  0 active torsions:
REMARK  status: ('A' for Active; 'I' for Inactive)
ROOT
ATOM      1  C   UNL d   1      -2.796   3.131   1.836  0.00  0.00     0.172 C 
ATOM      2  N   UNL d   1      -3.148   1.788   2.233  0.00  0.00    -0.070 N 
ATOM      3  C1  UNL d   1      -3.328   1.357   3.520  0.00  0.00    -0.004 A 
ATOM      4  C2  UNL d   1      -3.653   0.019   3.475  0.00  0.00    -0.047 A 
ATOM      5  C3  UNL d   1      -3.668  -0.368   2.114  0.00  0.00    -0.047 A 
ATOM      6  C4  UNL d   1      -3.352   0.746   1.367  0.00  0.00    -0.004 A 
ENDROOT
TORSDOF 0
ENDMDL
