MODEL 1
REMARK minimizedAffinity -5.32976484
REMARK minimizedRMSD -1
REMARK  0 active torsions:
REMARK  status: ('A' for Active; 'I' for Inactive)
ROOT
ATOM      1  C4' PXY d   1      -1.149   1.887  -1.048  0.00  0.00     0.077 C 
ATOM      2  C1' PXY d   1       1.720  -2.509   1.372  0.00  0.00     0.077 C 
ATOM      3  C1  PXY d   1       0.957  -1.362   0.739  0.00  0.00    -0.082 A 
ATOM      4  C2  PXY d   1       1.574  -0.553  -0.106  0.00  0.00     0.003 A 
ATOM      5  C3  PXY d   1       0.907   0.508  -0.663  0.00  0.00     0.003 A 
ATOM      6  C4  PXY d   1      -0.420   0.711  -0.393  0.00  0.00    -0.082 A 
ATOM      7  C5  PXY d   1      -1.059  -0.116   0.461  0.00  0.00     0.003 A 
ATOM      8  C6  PXY d   1      -0.354  -1.163   1.047  0.00  0.00     0.003 A 
ENDROOT
TORSDOF 0
ENDMDL
