MODEL 1
REMARK minimizedAffinity -5.03907442
REMARK minimizedRMSD -1
REMARK  0 active torsions:
REMARK  status: ('A' for Active; 'I' for Inactive)
ROOT
ATOM      1  C4' PXY d   1      -1.004   1.310  -0.817  0.00  0.00     0.077 C 
ATOM      2  C1' PXY d   1       1.219  -3.154   2.106  0.00  0.00     0.077 C 
ATOM      3  C1  PXY d   1       0.648  -1.979   1.337  0.00  0.00    -0.082 A 
ATOM      4  C2  PXY d   1      -0.584  -1.569   1.590  0.00  0.00     0.003 A 
ATOM      5  C3  PXY d   1      -1.128  -0.528   0.881  0.00  0.00     0.003 A 
ATOM      6  C4  PXY d   1      -0.383   0.134  -0.058  0.00  0.00    -0.082 A 
ATOM      7  C5  PXY d   1       0.879  -0.272  -0.314  0.00  0.00     0.003 A 
ATOM      8  C6  PXY d   1       1.397  -1.357   0.387  0.00  0.00     0.003 A 
ENDROOT
TORSDOF 0
ENDMDL
