MODEL 1
REMARK minimizedAffinity -5.50675964
REMARK minimizedRMSD -1
REMARK  0 active torsions:
REMARK  status: ('A' for Active; 'I' for Inactive)
ROOT
ATOM      1  C4' PXY d   1       0.971  -3.137   2.310  0.00  0.00     0.077 C 
ATOM      2  C1' PXY d   1      -0.699   1.568  -0.603  0.00  0.00     0.077 C 
ATOM      3  C1  PXY d   1      -0.253   0.331   0.151  0.00  0.00    -0.082 A 
ATOM      4  C2  PXY d   1      -1.053  -0.207   1.057  0.00  0.00     0.003 A 
ATOM      5  C3  PXY d   1      -0.653  -1.307   1.771  0.00  0.00     0.003 A 
ATOM      6  C4  PXY d   1       0.558  -1.894   1.518  0.00  0.00    -0.082 A 
ATOM      7  C5  PXY d   1       1.376  -1.358   0.587  0.00  0.00     0.003 A 
ATOM      8  C6  PXY d   1       0.968  -0.217  -0.097  0.00  0.00     0.003 A 
ENDROOT
TORSDOF 0
ENDMDL
