MODEL 1
REMARK minimizedAffinity -4.33418274
REMARK minimizedRMSD -1
REMARK  0 active torsions:
REMARK  status: ('A' for Active; 'I' for Inactive)
ROOT
ATOM      1  C4' PXY d   1       1.455  -2.670   1.144  0.00  0.00     0.077 C 
ATOM      2  C1' PXY d   1      -0.822   2.057  -1.281  0.00  0.00     0.077 C 
ATOM      3  C1  PXY d   1      -0.215   0.818  -0.654  0.00  0.00    -0.082 A 
ATOM      4  C2  PXY d   1      -0.979   0.003   0.055  0.00  0.00     0.003 A 
ATOM      5  C3  PXY d   1      -0.440  -1.106   0.656  0.00  0.00     0.003 A 
ATOM      6  C4  PXY d   1       0.883  -1.412   0.485  0.00  0.00    -0.082 A 
ATOM      7  C5  PXY d   1       1.667  -0.591  -0.246  0.00  0.00     0.003 A 
ATOM      8  C6  PXY d   1       1.110   0.551  -0.814  0.00  0.00     0.003 A 
ENDROOT
TORSDOF 0
ENDMDL
