MODEL 1
REMARK minimizedAffinity -1.20625138
REMARK minimizedRMSD -1
REMARK  0 active torsions:
REMARK  status: ('A' for Active; 'I' for Inactive)
ROOT
ATOM      1  C4' PXY d   1       1.197  -1.173   0.686  0.00  0.00     0.077 C 
ATOM      2  C1' PXY d   1      -2.270   2.001  -2.679  0.00  0.00     0.077 C 
ATOM      3  C1  PXY d   1      -1.361   1.178  -1.787  0.00  0.00    -0.082 A 
ATOM      4  C2  PXY d   1      -0.509   0.324  -2.331  0.00  0.00     0.003 A 
ATOM      5  C3  PXY d   1       0.297  -0.452  -1.538  0.00  0.00     0.003 A 
ATOM      6  C4  PXY d   1       0.268  -0.314  -0.176  0.00  0.00    -0.082 A 
ATOM      7  C5  PXY d   1      -0.592   0.563   0.386  0.00  0.00     0.003 A 
ATOM      8  C6  PXY d   1      -1.430   1.311  -0.435  0.00  0.00     0.003 A 
ENDROOT
TORSDOF 0
ENDMDL
