MODEL 1
REMARK minimizedAffinity -5.14999151
REMARK minimizedRMSD -1
REMARK  0 active torsions:
REMARK  status: ('A' for Active; 'I' for Inactive)
ROOT
ATOM      1  C4' PXY d   1      -0.647   1.363  -0.986  0.00  0.00     0.077 C 
ATOM      2  C1' PXY d   1       1.633  -3.001   2.043  0.00  0.00     0.077 C 
ATOM      3  C1  PXY d   1       1.047  -1.852   1.246  0.00  0.00    -0.082 A 
ATOM      4  C2  PXY d   1      -0.213  -1.497   1.440  0.00  0.00     0.003 A 
ATOM      5  C3  PXY d   1      -0.768  -0.481   0.705  0.00  0.00     0.003 A 
ATOM      6  C4  PXY d   1      -0.010   0.215  -0.198  0.00  0.00    -0.082 A 
ATOM      7  C5  PXY d   1       1.279  -0.134  -0.393  0.00  0.00     0.003 A 
ATOM      8  C6  PXY d   1       1.812  -1.195   0.333  0.00  0.00     0.003 A 
ENDROOT
TORSDOF 0
ENDMDL
