MODEL 1
REMARK minimizedAffinity -4.50473499
REMARK minimizedRMSD -1
REMARK  0 active torsions:
REMARK  status: ('A' for Active; 'I' for Inactive)
ROOT
ATOM      1  C4' PXY d   1      -0.813   1.972  -0.965  0.00  0.00     0.077 C 
ATOM      2  C1' PXY d   1       1.638  -2.754   1.286  0.00  0.00     0.077 C 
ATOM      3  C1  PXY d   1       1.007  -1.509   0.694  0.00  0.00    -0.082 A 
ATOM      4  C2  PXY d   1      -0.237  -1.191   1.014  0.00  0.00     0.003 A 
ATOM      5  C3  PXY d   1      -0.833  -0.087   0.462  0.00  0.00     0.003 A 
ATOM      6  C4  PXY d   1      -0.132   0.730  -0.384  0.00  0.00    -0.082 A 
ATOM      7  C5  PXY d   1       1.141   0.418  -0.706  0.00  0.00     0.003 A 
ATOM      8  C6  PXY d   1       1.715  -0.730  -0.168  0.00  0.00     0.003 A 
ENDROOT
TORSDOF 0
ENDMDL
