MODEL 1
REMARK minimizedAffinity -4.10310125
REMARK minimizedRMSD -1
REMARK  0 active torsions:
REMARK  status: ('A' for Active; 'I' for Inactive)
ROOT
ATOM      1  C4' PXY d   1      -1.227  -2.049   2.879  0.00  0.00     0.077 C 
ATOM      2  C1' PXY d   1       1.727   0.266  -1.518  0.00  0.00     0.077 C 
ATOM      3  C1  PXY d   1       0.958  -0.353  -0.367  0.00  0.00    -0.082 A 
ATOM      4  C2  PXY d   1      -0.176   0.198   0.033  0.00  0.00     0.003 A 
ATOM      5  C3  PXY d   1      -0.868  -0.329   1.093  0.00  0.00     0.003 A 
ATOM      6  C4  PXY d   1      -0.422  -1.464   1.715  0.00  0.00    -0.082 A 
ATOM      7  C5  PXY d   1       0.729  -2.039   1.306  0.00  0.00     0.003 A 
ATOM      8  C6  PXY d   1       1.438  -1.464   0.255  0.00  0.00     0.003 A 
ENDROOT
TORSDOF 0
ENDMDL
