MODEL 1
REMARK minimizedAffinity -2.42394567
REMARK minimizedRMSD -1
REMARK  0 active torsions:
REMARK  status: ('A' for Active; 'I' for Inactive)
ROOT
ATOM      1  C4' PXY d   1       2.979  -0.981   4.713  0.00  0.00     0.077 C 
ATOM      2  C1' PXY d   1       0.401  -2.636  -0.189  0.00  0.00     0.077 C 
ATOM      3  C1  PXY d   1       1.089  -2.206   1.092  0.00  0.00    -0.082 A 
ATOM      4  C2  PXY d   1       0.396  -2.145   2.217  0.00  0.00     0.003 A 
ATOM      5  C3  PXY d   1       0.994  -1.727   3.378  0.00  0.00     0.003 A 
ATOM      6  C4  PXY d   1       2.328  -1.419   3.398  0.00  0.00    -0.082 A 
ATOM      7  C5  PXY d   1       3.044  -1.489   2.256  0.00  0.00     0.003 A 
ATOM      8  C6  PXY d   1       2.409  -1.876   1.080  0.00  0.00     0.003 A 
ENDROOT
TORSDOF 0
ENDMDL
