MODEL 1
REMARK minimizedAffinity -3.97880316
REMARK minimizedRMSD -1
REMARK  0 active torsions:
REMARK  status: ('A' for Active; 'I' for Inactive)
ROOT
ATOM      1  C4' PXY d   1      -1.371   1.473  -0.269  0.00  0.00     0.077 C 
ATOM      2  C1' PXY d   1       1.104  -3.005   2.420  0.00  0.00     0.077 C 
ATOM      3  C1  PXY d   1       0.444  -1.834   1.720  0.00  0.00    -0.082 A 
ATOM      4  C2  PXY d   1       0.999  -1.324   0.633  0.00  0.00     0.003 A 
ATOM      5  C3  PXY d   1       0.432  -0.244   0.006  0.00  0.00     0.003 A 
ATOM      6  C4  PXY d   1      -0.744   0.285   0.465  0.00  0.00    -0.082 A 
ATOM      7  C5  PXY d   1      -1.323  -0.237   1.567  0.00  0.00     0.003 A 
ATOM      8  C6  PXY d   1      -0.709  -1.307   2.213  0.00  0.00     0.003 A 
ENDROOT
TORSDOF 0
ENDMDL
