MODEL 1
REMARK minimizedAffinity -3.81871271
REMARK minimizedRMSD -1
REMARK  0 active torsions:
REMARK  status: ('A' for Active; 'I' for Inactive)
ROOT
ATOM      1  C4' PXY d   1      -0.656   1.634  -0.848  0.00  0.00     0.077 C 
ATOM      2  C1' PXY d   1       1.911  -3.017   1.431  0.00  0.00     0.077 C 
ATOM      3  C1  PXY d   1       1.250  -1.792   0.832  0.00  0.00    -0.082 A 
ATOM      4  C2  PXY d   1      -0.016  -1.529   1.113  0.00  0.00     0.003 A 
ATOM      5  C3  PXY d   1      -0.639  -0.442   0.555  0.00  0.00     0.003 A 
ATOM      6  C4  PXY d   1       0.055   0.413  -0.258  0.00  0.00    -0.082 A 
ATOM      7  C5  PXY d   1       1.350   0.157  -0.542  0.00  0.00     0.003 A 
ATOM      8  C6  PXY d   1       1.953  -0.974   0.003  0.00  0.00     0.003 A 
ENDROOT
TORSDOF 0
ENDMDL
