MODEL 1
REMARK minimizedAffinity -5.50123358
REMARK minimizedRMSD -1
REMARK  0 active torsions:
REMARK  status: ('A' for Active; 'I' for Inactive)
ROOT
ATOM      1  C4' PXY d   1      -0.799  -2.448   2.914  0.00  0.00     0.077 C 
ATOM      2  C1' PXY d   1       2.230  -0.661  -1.674  0.00  0.00     0.077 C 
ATOM      3  C1  PXY d   1       1.440  -1.142  -0.473  0.00  0.00    -0.082 A 
ATOM      4  C2  PXY d   1       0.394  -0.446  -0.057  0.00  0.00     0.003 A 
ATOM      5  C3  PXY d   1      -0.312  -0.849   1.047  0.00  0.00     0.003 A 
ATOM      6  C4  PXY d   1       0.022  -2.005   1.700  0.00  0.00    -0.082 A 
ATOM      7  C5  PXY d   1       1.081  -2.727   1.274  0.00  0.00     0.003 A 
ATOM      8  C6  PXY d   1       1.810  -2.279   0.177  0.00  0.00     0.003 A 
ENDROOT
TORSDOF 0
ENDMDL
