MODEL 1
REMARK minimizedAffinity -2.35174751
REMARK minimizedRMSD -1
REMARK  0 active torsions:
REMARK  status: ('A' for Active; 'I' for Inactive)
ROOT
ATOM      1  C4' PXY d   1      -1.374   1.604  -1.326  0.00  0.00     0.077 C 
ATOM      2  C1' PXY d   1       2.188  -1.985   1.476  0.00  0.00     0.077 C 
ATOM      3  C1  PXY d   1       1.243  -1.050   0.746  0.00  0.00    -0.082 A 
ATOM      4  C2  PXY d   1       1.657  -0.420  -0.341  0.00  0.00     0.003 A 
ATOM      5  C3  PXY d   1       0.827   0.454  -0.995  0.00  0.00     0.003 A 
ATOM      6  C4  PXY d   1      -0.458   0.643  -0.562  0.00  0.00    -0.082 A 
ATOM      7  C5  PXY d   1      -0.892  -0.005   0.540  0.00  0.00     0.003 A 
ATOM      8  C6  PXY d   1      -0.020  -0.856   1.213  0.00  0.00     0.003 A 
ENDROOT
TORSDOF 0
ENDMDL
