MODEL 1
REMARK minimizedAffinity -5.77020884
REMARK minimizedRMSD -1
REMARK  0 active torsions:
REMARK  status: ('A' for Active; 'I' for Inactive)
ROOT
ATOM      1  C4' PXY d   1      -0.470   1.675  -0.084  0.00  0.00     0.077 C 
ATOM      2  C1' PXY d   1       1.141  -3.330   2.319  0.00  0.00     0.077 C 
ATOM      3  C1  PXY d   1       0.731  -2.015   1.686  0.00  0.00    -0.082 A 
ATOM      4  C2  PXY d   1      -0.402  -1.437   2.053  0.00  0.00     0.003 A 
ATOM      5  C3  PXY d   1      -0.803  -0.264   1.468  0.00  0.00     0.003 A 
ATOM      6  C4  PXY d   1      -0.012   0.351   0.535  0.00  0.00    -0.082 A 
ATOM      7  C5  PXY d   1       1.150  -0.226   0.164  0.00  0.00     0.003 A 
ATOM      8  C6  PXY d   1       1.520  -1.438   0.740  0.00  0.00     0.003 A 
ENDROOT
TORSDOF 0
ENDMDL
