MODEL 1
REMARK minimizedAffinity -4.84205627
REMARK minimizedRMSD -1
REMARK  0 active torsions:
REMARK  status: ('A' for Active; 'I' for Inactive)
ROOT
ATOM      1  C4' PXY d   1      -0.513   1.218  -0.312  0.00  0.00     0.077 C 
ATOM      2  C1' PXY d   1       1.248  -3.695   2.173  0.00  0.00     0.077 C 
ATOM      3  C1  PXY d   1       0.798  -2.405   1.517  0.00  0.00    -0.082 A 
ATOM      4  C2  PXY d   1      -0.243  -1.750   2.006  0.00  0.00     0.003 A 
ATOM      5  C3  PXY d   1      -0.682  -0.598   1.405  0.00  0.00     0.003 A 
ATOM      6  C4  PXY d   1      -0.018  -0.083   0.324  0.00  0.00    -0.082 A 
ATOM      7  C5  PXY d   1       1.051  -0.740  -0.174  0.00  0.00     0.003 A 
ATOM      8  C6  PXY d   1       1.457  -1.929   0.425  0.00  0.00     0.003 A 
ENDROOT
TORSDOF 0
ENDMDL
