MODEL 1
REMARK minimizedAffinity -2.10725379
REMARK minimizedRMSD -1
REMARK  0 active torsions:
REMARK  status: ('A' for Active; 'I' for Inactive)
ROOT
ATOM      1  C4' PXY d   1      -1.426   1.961  -1.765  0.00  0.00     0.077 C 
ATOM      2  C1' PXY d   1       2.397  -1.547   0.783  0.00  0.00     0.077 C 
ATOM      3  C1  PXY d   1       1.385  -0.635   0.119  0.00  0.00    -0.082 A 
ATOM      4  C2  PXY d   1       1.769   0.162  -0.865  0.00  0.00     0.003 A 
ATOM      5  C3  PXY d   1       0.874   1.016  -1.455  0.00  0.00     0.003 A 
ATOM      6  C4  PXY d   1      -0.440   1.017  -1.071  0.00  0.00    -0.082 A 
ATOM      7  C5  PXY d   1      -0.843   0.199  -0.075  0.00  0.00     0.003 A 
ATOM      8  C6  PXY d   1       0.091  -0.631   0.539  0.00  0.00     0.003 A 
ENDROOT
TORSDOF 0
ENDMDL
