MODEL 1
REMARK minimizedAffinity -4.16145086
REMARK minimizedRMSD -1
REMARK  0 active torsions:
REMARK  status: ('A' for Active; 'I' for Inactive)
ROOT
ATOM      1  C4' PXY d   1      -1.176   1.250  -0.717  0.00  0.00     0.077 C 
ATOM      2  C1' PXY d   1       2.001  -2.777   1.948  0.00  0.00     0.077 C 
ATOM      3  C1  PXY d   1       1.157  -1.727   1.253  0.00  0.00    -0.082 A 
ATOM      4  C2  PXY d   1       1.641  -1.091   0.198  0.00  0.00     0.003 A 
ATOM      5  C3  PXY d   1       0.904  -0.116  -0.422  0.00  0.00     0.003 A 
ATOM      6  C4  PXY d   1      -0.363   0.175   0.009  0.00  0.00    -0.082 A 
ATOM      7  C5  PXY d   1      -0.868  -0.476   1.078  0.00  0.00     0.003 A 
ATOM      8  C6  PXY d   1      -0.087  -1.434   1.719  0.00  0.00     0.003 A 
ENDROOT
TORSDOF 0
ENDMDL
