MODEL 1
REMARK minimizedAffinity -1.0935601
REMARK minimizedRMSD -1
REMARK  0 active torsions:
REMARK  status: ('A' for Active; 'I' for Inactive)
ROOT
ATOM      1  C4' PXY d   1      -1.372   1.897  -1.774  0.00  0.00     0.077 C 
ATOM      2  C1' PXY d   1       1.876  -1.777   1.288  0.00  0.00     0.077 C 
ATOM      3  C1  PXY d   1       1.013  -0.819   0.490  0.00  0.00    -0.082 A 
ATOM      4  C2  PXY d   1       1.492  -0.275  -0.617  0.00  0.00     0.003 A 
ATOM      5  C3  PXY d   1       0.737   0.618  -1.333  0.00  0.00     0.003 A 
ATOM      6  C4  PXY d   1      -0.540   0.917  -0.941  0.00  0.00    -0.082 A 
ATOM      7  C5  PXY d   1      -1.040   0.358   0.181  0.00  0.00     0.003 A 
ATOM      8  C6  PXY d   1      -0.243  -0.515   0.917  0.00  0.00     0.003 A 
ENDROOT
TORSDOF 0
ENDMDL
