MODEL 1
REMARK minimizedAffinity -1.85122561
REMARK minimizedRMSD -1
REMARK  0 active torsions:
REMARK  status: ('A' for Active; 'I' for Inactive)
ROOT
ATOM      1  C4' PXY d   1      -1.148   2.106  -1.125  0.00  0.00     0.077 C 
ATOM      2  C1' PXY d   1       2.369  -1.841   1.211  0.00  0.00     0.077 C 
ATOM      3  C1  PXY d   1       1.437  -0.814   0.600  0.00  0.00    -0.082 A 
ATOM      4  C2  PXY d   1       1.929   0.134  -0.181  0.00  0.00     0.003 A 
ATOM      5  C3  PXY d   1       1.105   1.089  -0.716  0.00  0.00     0.003 A 
ATOM      6  C4  PXY d   1      -0.245   1.043  -0.494  0.00  0.00    -0.082 A 
ATOM      7  C5  PXY d   1      -0.757   0.073   0.293  0.00  0.00     0.003 A 
ATOM      8  C6  PXY d   1       0.102  -0.864   0.861  0.00  0.00     0.003 A 
ENDROOT
TORSDOF 0
ENDMDL
