MODEL 1
REMARK minimizedAffinity -5.01904058
REMARK minimizedRMSD -1
REMARK  2 active torsions:
REMARK  status: ('A' for Active; 'I' for Inactive)
REMARK    1  A    between atoms: C1_2  and  C2_3 
REMARK    2  A    between atoms: C2_3  and  C3_4 
ROOT
ATOM      1  C3  UNL d   1      -0.036   0.356   0.034  0.00  0.00    -0.075 A 
ATOM      2  C4  UNL d   1       0.973  -0.437   0.599  0.00  0.00     0.002 A 
ATOM      3  C5  UNL d   1       2.283   0.037   0.683  0.00  0.00     0.002 A 
ATOM      4  C6  UNL d   1       2.601   1.303   0.196  0.00  0.00    -0.004 A 
ATOM      5  C7  UNL d   1       1.610   2.092  -0.383  0.00  0.00     0.002 A 
ATOM      6  C8  UNL d   1       0.298   1.622  -0.464  0.00  0.00     0.002 A 
ENDROOT
BRANCH   1   7
ATOM      7  C2  UNL d   1      -1.461  -0.139  -0.033  0.00  0.00     0.056 C 
BRANCH   7   8
ATOM      8  C1  UNL d   1      -2.237   0.357  -1.258  0.00  0.00     0.007 C 
ATOM      9  C   UNL d   1      -2.595  -0.756  -2.233  0.00  0.00     0.009 C 
ENDBRANCH   7   8
ENDBRANCH   1   7
TORSDOF 2
ENDMDL
