MODEL 1
REMARK minimizedAffinity -2.5580163
REMARK minimizedRMSD -1
REMARK  2 active torsions:
REMARK  status: ('A' for Active; 'I' for Inactive)
REMARK    1  A    between atoms: C1_2  and  C2_3 
REMARK    2  A    between atoms: C2_3  and  C3_4 
ROOT
ATOM      1  C3  UNL d   1      -1.166   0.065  -1.491  0.00  0.00    -0.075 A 
ATOM      2  C4  UNL d   1      -0.606  -0.027  -2.773  0.00  0.00     0.002 A 
ATOM      3  C5  UNL d   1      -1.424  -0.085  -3.902  0.00  0.00     0.002 A 
ATOM      4  C6  UNL d   1      -2.810  -0.062  -3.763  0.00  0.00    -0.004 A 
ATOM      5  C7  UNL d   1      -3.378   0.013  -2.493  0.00  0.00     0.002 A 
ATOM      6  C8  UNL d   1      -2.562   0.075  -1.362  0.00  0.00     0.002 A 
ENDROOT
BRANCH   1   7
ATOM      7  C2  UNL d   1      -0.286   0.158  -0.268  0.00  0.00     0.056 C 
BRANCH   7   8
ATOM      8  C1  UNL d   1       0.358   1.534  -0.066  0.00  0.00     0.007 C 
ATOM      9  C   UNL d   1       1.812   1.588  -0.513  0.00  0.00     0.009 C 
ENDBRANCH   7   8
ENDBRANCH   1   7
TORSDOF 2
ENDMDL
