MODEL 1
REMARK minimizedAffinity -3.92595506
REMARK minimizedRMSD -1
REMARK  2 active torsions:
REMARK  status: ('A' for Active; 'I' for Inactive)
REMARK    1  A    between atoms: C1_2  and  C2_3 
REMARK    2  A    between atoms: C2_3  and  C3_4 
ROOT
ATOM      1  C3  UNL d   1       0.800  -0.255   0.909  0.00  0.00    -0.075 A 
ATOM      2  C4  UNL d   1       2.100   0.122   1.277  0.00  0.00     0.002 A 
ATOM      3  C5  UNL d   1       2.860  -0.689   2.120  0.00  0.00     0.002 A 
ATOM      4  C6  UNL d   1       2.329  -1.878   2.614  0.00  0.00    -0.004 A 
ATOM      5  C7  UNL d   1       1.032  -2.254   2.268  0.00  0.00     0.002 A 
ATOM      6  C8  UNL d   1       0.271  -1.447   1.421  0.00  0.00     0.002 A 
ENDROOT
BRANCH   1   7
ATOM      7  C2  UNL d   1      -0.017   0.604  -0.027  0.00  0.00     0.056 C 
BRANCH   7   8
ATOM      8  C1  UNL d   1      -1.364  -0.011  -0.421  0.00  0.00     0.007 C 
ATOM      9  C   UNL d   1      -2.051   0.728  -1.562  0.00  0.00     0.009 C 
ENDBRANCH   7   8
ENDBRANCH   1   7
TORSDOF 2
ENDMDL
