MODEL 1
REMARK minimizedAffinity -1.17574799
REMARK minimizedRMSD -1
REMARK  2 active torsions:
REMARK  status: ('A' for Active; 'I' for Inactive)
REMARK    1  A    between atoms: C1_2  and  C2_3 
REMARK    2  A    between atoms: C2_3  and  C3_4 
ROOT
ATOM      1  C3  UNL d   1      -0.759   0.614  -1.717  0.00  0.00    -0.075 A 
ATOM      2  C4  UNL d   1      -0.984   0.276  -3.060  0.00  0.00     0.002 A 
ATOM      3  C5  UNL d   1      -2.282   0.217  -3.568  0.00  0.00     0.002 A 
ATOM      4  C6  UNL d   1      -3.370   0.484  -2.740  0.00  0.00    -0.004 A 
ATOM      5  C7  UNL d   1      -3.160   0.804  -1.400  0.00  0.00     0.002 A 
ATOM      6  C8  UNL d   1      -1.862   0.868  -0.890  0.00  0.00     0.002 A 
ENDROOT
BRANCH   1   7
ATOM      7  C2  UNL d   1       0.644   0.708  -1.169  0.00  0.00     0.056 C 
BRANCH   7   8
ATOM      8  C1  UNL d   1       0.719   1.244   0.265  0.00  0.00     0.007 C 
ATOM      9  C   UNL d   1       2.052   0.960   0.944  0.00  0.00     0.009 C 
ENDBRANCH   7   8
ENDBRANCH   1   7
TORSDOF 2
ENDMDL
