MODEL 1
REMARK minimizedAffinity -4.62950659
REMARK minimizedRMSD -1
REMARK  2 active torsions:
REMARK  status: ('A' for Active; 'I' for Inactive)
REMARK    1  A    between atoms: C1_2  and  C2_3 
REMARK    2  A    between atoms: C2_3  and  C3_4 
ROOT
ATOM      1  C3  UNL d   1      -0.136  -0.244   0.444  0.00  0.00    -0.075 A 
ATOM      2  C4  UNL d   1       0.278  -1.193   1.390  0.00  0.00     0.002 A 
ATOM      3  C5  UNL d   1       1.525  -1.081   2.006  0.00  0.00     0.002 A 
ATOM      4  C6  UNL d   1       2.376  -0.028   1.678  0.00  0.00    -0.004 A 
ATOM      5  C7  UNL d   1       1.982   0.911   0.727  0.00  0.00     0.002 A 
ATOM      6  C8  UNL d   1       0.733   0.804   0.112  0.00  0.00     0.002 A 
ENDROOT
BRANCH   1   7
ATOM      7  C2  UNL d   1      -1.496  -0.343  -0.206  0.00  0.00     0.056 C 
BRANCH   7   8
ATOM      8  C1  UNL d   1      -1.545   0.203  -1.637  0.00  0.00     0.007 C 
ATOM      9  C   UNL d   1      -2.604  -0.470  -2.500  0.00  0.00     0.009 C 
ENDBRANCH   7   8
ENDBRANCH   1   7
TORSDOF 2
ENDMDL
