MODEL 1
REMARK minimizedAffinity -4.00816822
REMARK minimizedRMSD -1
REMARK  2 active torsions:
REMARK  status: ('A' for Active; 'I' for Inactive)
REMARK    1  A    between atoms: C1_2  and  C2_3 
REMARK    2  A    between atoms: C2_3  and  C3_4 
ROOT
ATOM      1  C3  UNL d   1       0.302  -0.167   0.598  0.00  0.00    -0.075 A 
ATOM      2  C4  UNL d   1       0.574  -1.261   1.432  0.00  0.00     0.002 A 
ATOM      3  C5  UNL d   1       1.785  -1.343   2.120  0.00  0.00     0.002 A 
ATOM      4  C6  UNL d   1       2.741  -0.341   1.976  0.00  0.00    -0.004 A 
ATOM      5  C7  UNL d   1       2.488   0.743   1.137  0.00  0.00     0.002 A 
ATOM      6  C8  UNL d   1       1.275   0.830   0.451  0.00  0.00     0.002 A 
ENDROOT
BRANCH   1   7
ATOM      7  C2  UNL d   1      -1.019  -0.058  -0.126  0.00  0.00     0.056 C 
BRANCH   7   8
ATOM      8  C1  UNL d   1      -0.897  -0.087  -1.653  0.00  0.00     0.007 C 
ATOM      9  C   UNL d   1      -2.184   0.306  -2.366  0.00  0.00     0.009 C 
ENDBRANCH   7   8
ENDBRANCH   1   7
TORSDOF 2
ENDMDL
