MODEL 1
REMARK minimizedAffinity -5.93963528
REMARK minimizedRMSD -1
REMARK  2 active torsions:
REMARK  status: ('A' for Active; 'I' for Inactive)
REMARK    1  A    between atoms: C1_2  and  C2_3 
REMARK    2  A    between atoms: C2_3  and  C3_4 
ROOT
ATOM      1  C3  UNL d   1       0.286  -0.035   0.264  0.00  0.00    -0.075 A 
ATOM      2  C4  UNL d   1       0.876  -1.234   0.688  0.00  0.00     0.002 A 
ATOM      3  C5  UNL d   1       2.144  -1.233   1.270  0.00  0.00     0.002 A 
ATOM      4  C6  UNL d   1       2.841  -0.037   1.426  0.00  0.00    -0.004 A 
ATOM      5  C7  UNL d   1       2.272   1.159   0.993  0.00  0.00     0.002 A 
ATOM      6  C8  UNL d   1       1.001   1.161   0.414  0.00  0.00     0.002 A 
ENDROOT
BRANCH   1   7
ATOM      7  C2  UNL d   1      -1.098  -0.026  -0.339  0.00  0.00     0.056 C 
BRANCH   7   8
ATOM      8  C1  UNL d   1      -1.172  -0.642  -1.740  0.00  0.00     0.007 C 
ATOM      9  C   UNL d   1      -2.314  -0.087  -2.581  0.00  0.00     0.009 C 
ENDBRANCH   7   8
ENDBRANCH   1   7
TORSDOF 2
ENDMDL
