MODEL 1
REMARK minimizedAffinity -4.60609627
REMARK minimizedRMSD -1
REMARK  2 active torsions:
REMARK  status: ('A' for Active; 'I' for Inactive)
REMARK    1  A    between atoms: C1_2  and  C2_3 
REMARK    2  A    between atoms: C2_3  and  C3_4 
ROOT
ATOM      1  C3  UNL d   1      -0.191   0.234   0.024  0.00  0.00    -0.075 A 
ATOM      2  C4  UNL d   1       0.551  -0.785   0.638  0.00  0.00     0.002 A 
ATOM      3  C5  UNL d   1       1.910  -0.611   0.901  0.00  0.00     0.002 A 
ATOM      4  C6  UNL d   1       2.545   0.576   0.546  0.00  0.00    -0.004 A 
ATOM      5  C7  UNL d   1       1.821   1.589  -0.079  0.00  0.00     0.002 A 
ATOM      6  C8  UNL d   1       0.460   1.420  -0.340  0.00  0.00     0.002 A 
ENDROOT
BRANCH   1   7
ATOM      7  C2  UNL d   1      -1.669   0.064  -0.237  0.00  0.00     0.056 C 
BRANCH   7   8
ATOM      8  C1  UNL d   1      -2.180   0.835  -1.458  0.00  0.00     0.007 C 
ATOM      9  C   UNL d   1      -2.683  -0.072  -2.573  0.00  0.00     0.009 C 
ENDBRANCH   7   8
ENDBRANCH   1   7
TORSDOF 2
ENDMDL
