MODEL 1
REMARK minimizedAffinity -4.31042194
REMARK minimizedRMSD -1
REMARK  0 active torsions:
REMARK  status: ('A' for Active; 'I' for Inactive)
ROOT
ATOM      1  C   UNL d   1       0.307  -0.801  -2.366  0.00  0.00     0.077 C 
ATOM      2  C1  UNL d   1       0.080  -0.320  -0.964  0.00  0.00    -0.074 A 
ATOM      3  C2  UNL d   1      -1.214  -0.098  -0.481  0.00  0.00    -0.005 A 
ATOM      4  C3  UNL d   1      -1.411   0.341   0.828  0.00  0.00     0.006 A 
ATOM      5  C4  UNL d   1      -0.317   0.561   1.667  0.00  0.00    -0.005 A 
ATOM      6  C5  UNL d   1       0.984   0.343   1.202  0.00  0.00    -0.074 A 
ATOM      7  C6  UNL d   1       2.169   0.566   2.093  0.00  0.00     0.077 C 
ATOM      8  C7  UNL d   1       1.173  -0.104  -0.113  0.00  0.00    -0.001 A 
ENDROOT
TORSDOF 0
ENDMDL
