MODEL 1
REMARK minimizedAffinity -5.07778502
REMARK minimizedRMSD -1
REMARK  0 active torsions:
REMARK  status: ('A' for Active; 'I' for Inactive)
ROOT
ATOM      1  C   UNL d   1      -0.063   1.771   3.297  0.00  0.00     0.077 C 
ATOM      2  C1  UNL d   1      -0.415   1.085   2.011  0.00  0.00    -0.074 A 
ATOM      3  C2  UNL d   1      -1.746   0.966   1.600  0.00  0.00    -0.005 A 
ATOM      4  C3  UNL d   1      -2.057   0.333   0.397  0.00  0.00     0.006 A 
ATOM      5  C4  UNL d   1      -1.041  -0.187  -0.407  0.00  0.00    -0.005 A 
ATOM      6  C5  UNL d   1       0.296  -0.076  -0.012  0.00  0.00    -0.074 A 
ATOM      7  C6  UNL d   1       1.400  -0.621  -0.869  0.00  0.00     0.077 C 
ATOM      8  C7  UNL d   1       0.601   0.567   1.195  0.00  0.00    -0.001 A 
ENDROOT
TORSDOF 0
ENDMDL
