MODEL 1
REMARK minimizedAffinity -4.94007206
REMARK minimizedRMSD -1
REMARK  0 active torsions:
REMARK  status: ('A' for Active; 'I' for Inactive)
ROOT
ATOM      1  C   UNL d   1      -0.608   1.549   3.686  0.00  0.00     0.077 C 
ATOM      2  C1  UNL d   1      -0.328   0.900   2.363  0.00  0.00    -0.074 A 
ATOM      3  C2  UNL d   1       0.984   0.651   1.948  0.00  0.00    -0.005 A 
ATOM      4  C3  UNL d   1       1.228   0.038   0.719  0.00  0.00     0.006 A 
ATOM      5  C4  UNL d   1       0.165  -0.332  -0.105  0.00  0.00    -0.005 A 
ATOM      6  C5  UNL d   1      -1.154  -0.092   0.294  0.00  0.00    -0.074 A 
ATOM      7  C6  UNL d   1      -2.309  -0.492  -0.576  0.00  0.00     0.077 C 
ATOM      8  C7  UNL d   1      -1.392   0.518   1.533  0.00  0.00    -0.001 A 
ENDROOT
TORSDOF 0
ENDMDL
