MODEL 1
REMARK minimizedAffinity -3.73742986
REMARK minimizedRMSD -1
REMARK  0 active torsions:
REMARK  status: ('A' for Active; 'I' for Inactive)
ROOT
ATOM      1  C   UNL d   1      -0.711   2.051   2.861  0.00  0.00     0.077 C 
ATOM      2  C1  UNL d   1      -0.759   1.052   1.744  0.00  0.00    -0.074 A 
ATOM      3  C2  UNL d   1      -1.964   0.751   1.100  0.00  0.00    -0.005 A 
ATOM      4  C3  UNL d   1      -1.991  -0.174   0.056  0.00  0.00     0.006 A 
ATOM      5  C4  UNL d   1      -0.817  -0.807  -0.353  0.00  0.00    -0.005 A 
ATOM      6  C5  UNL d   1       0.397  -0.518   0.279  0.00  0.00    -0.074 A 
ATOM      7  C6  UNL d   1       1.670  -1.182  -0.156  0.00  0.00     0.077 C 
ATOM      8  C7  UNL d   1       0.418   0.418   1.322  0.00  0.00    -0.001 A 
ENDROOT
TORSDOF 0
ENDMDL
