MODEL 1
REMARK minimizedAffinity -2.32085085
REMARK minimizedRMSD -1
REMARK  0 active torsions:
REMARK  status: ('A' for Active; 'I' for Inactive)
ROOT
ATOM      1  C   UNL d   1       0.236  -0.574  -2.902  0.00  0.00     0.077 C 
ATOM      2  C1  UNL d   1       0.046  -0.250  -1.450  0.00  0.00    -0.074 A 
ATOM      3  C2  UNL d   1      -1.185   0.208  -0.970  0.00  0.00    -0.005 A 
ATOM      4  C3  UNL d   1      -1.349   0.496   0.385  0.00  0.00     0.006 A 
ATOM      5  C4  UNL d   1      -0.285   0.329   1.273  0.00  0.00    -0.005 A 
ATOM      6  C5  UNL d   1       0.953  -0.129   0.811  0.00  0.00    -0.074 A 
ATOM      7  C6  UNL d   1       2.104  -0.323   1.753  0.00  0.00     0.077 C 
ATOM      8  C7  UNL d   1       1.108  -0.423  -0.550  0.00  0.00    -0.001 A 
ENDROOT
TORSDOF 0
ENDMDL
