MODEL 1
REMARK minimizedAffinity -4.34975433
REMARK minimizedRMSD -1
REMARK  0 active torsions:
REMARK  status: ('A' for Active; 'I' for Inactive)
ROOT
ATOM      1  C   UNL d   1      -0.713   1.718   2.803  0.00  0.00     0.077 C 
ATOM      2  C1  UNL d   1      -0.593   0.811   1.614  0.00  0.00    -0.074 A 
ATOM      3  C2  UNL d   1      -1.683   0.590   0.766  0.00  0.00    -0.005 A 
ATOM      4  C3  UNL d   1      -1.554  -0.248  -0.341  0.00  0.00     0.006 A 
ATOM      5  C4  UNL d   1      -0.336  -0.873  -0.611  0.00  0.00    -0.005 A 
ATOM      6  C5  UNL d   1       0.765  -0.664   0.226  0.00  0.00    -0.074 A 
ATOM      7  C6  UNL d   1       2.084  -1.320  -0.055  0.00  0.00     0.077 C 
ATOM      8  C7  UNL d   1       0.630   0.186   1.332  0.00  0.00    -0.001 A 
ENDROOT
TORSDOF 0
ENDMDL
