MODEL 1
REMARK minimizedAffinity 0.148311809
REMARK minimizedRMSD -1
REMARK  0 active torsions:
REMARK  status: ('A' for Active; 'I' for Inactive)
ROOT
ATOM      1  C   UNL d   1       1.122  -1.099  -0.709  0.00  0.00     0.077 C 
ATOM      2  C1  UNL d   1       1.246  -0.448  -2.054  0.00  0.00    -0.074 A 
ATOM      3  C2  UNL d   1       2.403   0.252  -2.410  0.00  0.00    -0.005 A 
ATOM      4  C3  UNL d   1       2.509   0.844  -3.668  0.00  0.00     0.006 A 
ATOM      5  C4  UNL d   1       1.459   0.743  -4.582  0.00  0.00    -0.005 A 
ATOM      6  C5  UNL d   1       0.294   0.046  -4.245  0.00  0.00    -0.074 A 
ATOM      7  C6  UNL d   1      -0.839  -0.080  -5.219  0.00  0.00     0.077 C 
ATOM      8  C7  UNL d   1       0.199  -0.552  -2.981  0.00  0.00    -0.001 A 
ENDROOT
TORSDOF 0
ENDMDL
