MODEL 1
REMARK minimizedAffinity -4.02105808
REMARK minimizedRMSD -1
REMARK  1 active torsions:
REMARK  status: ('A' for Active; 'I' for Inactive)
REMARK    1  A    between atoms: C1_2  and  C2_3 
ROOT
ATOM      1  C2  UNL d   1       1.401  -0.210  -1.848  0.00  0.00    -0.077 A 
ATOM      2  C3  UNL d   1       0.313  -0.110  -0.969  0.00  0.00     0.002 A 
ATOM      3  C4  UNL d   1       0.017  -1.154  -0.090  0.00  0.00     0.002 A 
ATOM      4  C5  UNL d   1       0.806  -2.302  -0.078  0.00  0.00    -0.004 A 
ATOM      5  C6  UNL d   1       1.888  -2.412  -0.950  0.00  0.00     0.002 A 
ATOM      6  C7  UNL d   1       2.185  -1.371  -1.830  0.00  0.00     0.002 A 
ENDROOT
BRANCH   1   7
ATOM      7  C1  UNL d   1       1.751   0.934  -2.762  0.00  0.00     0.055 C 
ATOM      8  C   UNL d   1       0.924   2.171  -2.443  0.00  0.00     0.019 C 
ENDBRANCH   1   7
TORSDOF 1
ENDMDL
