MODEL 1
REMARK minimizedAffinity -5.2564249
REMARK minimizedRMSD -1
REMARK  1 active torsions:
REMARK  status: ('A' for Active; 'I' for Inactive)
REMARK    1  A    between atoms: C1_2  and  C2_3 
ROOT
ATOM      1  C2  UNL d   1       0.013   0.060  -0.453  0.00  0.00    -0.077 A 
ATOM      2  C3  UNL d   1       0.959   0.857  -1.113  0.00  0.00     0.002 A 
ATOM      3  C4  UNL d   1       2.134   0.293  -1.612  0.00  0.00     0.002 A 
ATOM      4  C5  UNL d   1       2.373  -1.071  -1.460  0.00  0.00    -0.004 A 
ATOM      5  C6  UNL d   1       1.440  -1.873  -0.804  0.00  0.00     0.002 A 
ATOM      6  C7  UNL d   1       0.265  -1.310  -0.303  0.00  0.00     0.002 A 
ENDROOT
BRANCH   1   7
ATOM      7  C1  UNL d   1      -1.278   0.657   0.042  0.00  0.00     0.055 C 
ATOM      8  C   UNL d   1      -1.377   0.581   1.559  0.00  0.00     0.019 C 
ENDBRANCH   1   7
TORSDOF 1
ENDMDL
