MODEL 1
REMARK minimizedAffinity -2.49448419
REMARK minimizedRMSD -1
REMARK  1 active torsions:
REMARK  status: ('A' for Active; 'I' for Inactive)
REMARK    1  A    between atoms: C1_2  and  C2_3 
ROOT
ATOM      1  C2  UNL d   1       0.074  -0.273  -0.361  0.00  0.00    -0.077 A 
ATOM      2  C3  UNL d   1       0.797  -1.470  -0.463  0.00  0.00     0.002 A 
ATOM      3  C4  UNL d   1       1.747  -1.638  -1.472  0.00  0.00     0.002 A 
ATOM      4  C5  UNL d   1       1.986  -0.612  -2.384  0.00  0.00    -0.004 A 
ATOM      5  C6  UNL d   1       1.271   0.581  -2.293  0.00  0.00     0.002 A 
ATOM      6  C7  UNL d   1       0.320   0.751  -1.286  0.00  0.00     0.002 A 
ENDROOT
BRANCH   1   7
ATOM      7  C1  UNL d   1      -0.916  -0.071   0.756  0.00  0.00     0.055 C 
ATOM      8  C   UNL d   1      -0.218   0.319   2.050  0.00  0.00     0.019 C 
ENDBRANCH   1   7
TORSDOF 1
ENDMDL
