MODEL 1
REMARK minimizedAffinity -4.28983212
REMARK minimizedRMSD -1
REMARK  1 active torsions:
REMARK  status: ('A' for Active; 'I' for Inactive)
REMARK    1  A    between atoms: C1_2  and  C2_3 
ROOT
ATOM      1  C2  UNL d   1      -0.116  -0.104  -0.358  0.00  0.00    -0.077 A 
ATOM      2  C3  UNL d   1       0.049  -1.475  -0.601  0.00  0.00     0.002 A 
ATOM      3  C4  UNL d   1       1.308  -1.991  -0.913  0.00  0.00     0.002 A 
ATOM      4  C5  UNL d   1       2.412  -1.144  -0.982  0.00  0.00    -0.004 A 
ATOM      5  C6  UNL d   1       2.259   0.221  -0.743  0.00  0.00     0.002 A 
ATOM      6  C7  UNL d   1       1.001   0.738  -0.432  0.00  0.00     0.002 A 
ENDROOT
BRANCH   1   7
ATOM      7  C1  UNL d   1      -1.464   0.446   0.028  0.00  0.00     0.055 C 
ATOM      8  C   UNL d   1      -1.643   0.463   1.539  0.00  0.00     0.019 C 
ENDBRANCH   1   7
TORSDOF 1
ENDMDL
