MODEL 1
REMARK minimizedAffinity -6.04468775
REMARK minimizedRMSD -1
REMARK  1 active torsions:
REMARK  status: ('A' for Active; 'I' for Inactive)
REMARK    1  A    between atoms: C1_2  and  C2_3 
ROOT
ATOM      1  C2  UNL d   1       0.633  -0.327  -0.791  0.00  0.00    -0.077 A 
ATOM      2  C3  UNL d   1       0.044   0.927  -1.005  0.00  0.00     0.002 A 
ATOM      3  C4  UNL d   1       0.486   1.746  -2.046  0.00  0.00     0.002 A 
ATOM      4  C5  UNL d   1       1.514   1.318  -2.883  0.00  0.00    -0.004 A 
ATOM      5  C6  UNL d   1       2.107   0.073  -2.677  0.00  0.00     0.002 A 
ATOM      6  C7  UNL d   1       1.668  -0.746  -1.637  0.00  0.00     0.002 A 
ENDROOT
BRANCH   1   7
ATOM      7  C1  UNL d   1       0.125  -1.233   0.301  0.00  0.00     0.055 C 
ATOM      8  C   UNL d   1       0.153  -2.691  -0.132  0.00  0.00     0.019 C 
ENDBRANCH   1   7
TORSDOF 1
ENDMDL
