MODEL 1
REMARK minimizedAffinity -5.04494762
REMARK minimizedRMSD -1
REMARK  1 active torsions:
REMARK  status: ('A' for Active; 'I' for Inactive)
REMARK    1  A    between atoms: C1_2  and  C2_3 
ROOT
ATOM      1  C2  UNL d   1       0.408   0.294  -1.216  0.00  0.00    -0.077 A 
ATOM      2  C3  UNL d   1       0.148  -0.566  -0.140  0.00  0.00     0.002 A 
ATOM      3  C4  UNL d   1       0.968  -1.671   0.094  0.00  0.00     0.002 A 
ATOM      4  C5  UNL d   1       2.055  -1.924  -0.740  0.00  0.00    -0.004 A 
ATOM      5  C6  UNL d   1       2.320  -1.076  -1.814  0.00  0.00     0.002 A 
ATOM      6  C7  UNL d   1       1.501   0.029  -2.051  0.00  0.00     0.002 A 
ENDROOT
BRANCH   1   7
ATOM      7  C1  UNL d   1      -0.445   1.515  -1.441  0.00  0.00     0.055 C 
ATOM      8  C   UNL d   1       0.361   2.649  -2.058  0.00  0.00     0.019 C 
ENDBRANCH   1   7
TORSDOF 1
ENDMDL
