MODEL 1
REMARK minimizedAffinity -5.40561676
REMARK minimizedRMSD -1
REMARK  1 active torsions:
REMARK  status: ('A' for Active; 'I' for Inactive)
REMARK    1  A    between atoms: C1_2  and  C2_3 
ROOT
ATOM      1  C2  UNL d   1       1.460   0.550  -1.459  0.00  0.00    -0.077 A 
ATOM      2  C3  UNL d   1       2.233  -0.552  -1.849  0.00  0.00     0.002 A 
ATOM      3  C4  UNL d   1       1.989  -1.815  -1.304  0.00  0.00     0.002 A 
ATOM      4  C5  UNL d   1       0.970  -1.987  -0.370  0.00  0.00    -0.004 A 
ATOM      5  C6  UNL d   1       0.196  -0.896   0.026  0.00  0.00     0.002 A 
ATOM      6  C7  UNL d   1       0.439   0.366  -0.517  0.00  0.00     0.002 A 
ENDROOT
BRANCH   1   7
ATOM      7  C1  UNL d   1       1.689   1.902  -2.082  0.00  0.00     0.055 C 
ATOM      8  C   UNL d   1       0.374   2.562  -2.473  0.00  0.00     0.019 C 
ENDBRANCH   1   7
TORSDOF 1
ENDMDL
