MODEL 1
REMARK minimizedAffinity -3.78364134
REMARK minimizedRMSD -1
REMARK  1 active torsions:
REMARK  status: ('A' for Active; 'I' for Inactive)
REMARK    1  A    between atoms: C1_2  and  C2_3 
ROOT
ATOM      1  C2  UNL d   1       1.006  -1.731  -0.804  0.00  0.00    -0.077 A 
ATOM      2  C3  UNL d   1       2.213  -1.132  -1.189  0.00  0.00     0.002 A 
ATOM      3  C4  UNL d   1       2.430   0.229  -0.964  0.00  0.00     0.002 A 
ATOM      4  C5  UNL d   1       1.446   1.000  -0.350  0.00  0.00    -0.004 A 
ATOM      5  C6  UNL d   1       0.241   0.414   0.035  0.00  0.00     0.002 A 
ATOM      6  C7  UNL d   1       0.022  -0.946  -0.190  0.00  0.00     0.002 A 
ENDROOT
BRANCH   1   7
ATOM      7  C1  UNL d   1       0.790  -3.209  -1.001  0.00  0.00     0.055 C 
ATOM      8  C   UNL d   1       0.205  -3.854   0.247  0.00  0.00     0.019 C 
ENDBRANCH   1   7
TORSDOF 1
ENDMDL
