MODEL 1
REMARK minimizedAffinity -4.7274828
REMARK minimizedRMSD -1
REMARK  1 active torsions:
REMARK  status: ('A' for Active; 'I' for Inactive)
REMARK    1  A    between atoms: C1_2  and  C2_3 
ROOT
ATOM      1  C2  UNL d   1      -0.085  -0.211   0.122  0.00  0.00    -0.077 A 
ATOM      2  C3  UNL d   1      -0.174  -1.588   0.369  0.00  0.00     0.002 A 
ATOM      3  C4  UNL d   1       0.842  -2.449  -0.052  0.00  0.00     0.002 A 
ATOM      4  C5  UNL d   1       1.955  -1.941  -0.719  0.00  0.00    -0.004 A 
ATOM      5  C6  UNL d   1       2.052  -0.573  -0.971  0.00  0.00     0.002 A 
ATOM      6  C7  UNL d   1       1.037   0.288  -0.552  0.00  0.00     0.002 A 
ENDROOT
BRANCH   1   7
ATOM      7  C1  UNL d   1      -1.156   0.724   0.619  0.00  0.00     0.055 C 
ATOM      8  C   UNL d   1      -1.618   0.344   2.018  0.00  0.00     0.019 C 
ENDBRANCH   1   7
TORSDOF 1
ENDMDL
