MODEL 1
REMARK minimizedAffinity 2.80058479
REMARK minimizedRMSD -1
REMARK  1 active torsions:
REMARK  status: ('A' for Active; 'I' for Inactive)
REMARK    1  A    between atoms: C1_2  and  C2_3 
ROOT
ATOM      1  C2  UNL d   1      -3.787  -0.698   3.800  0.00  0.00    -0.077 A 
ATOM      2  C3  UNL d   1      -4.211  -1.607   4.779  0.00  0.00     0.002 A 
ATOM      3  C4  UNL d   1      -5.315  -2.430   4.548  0.00  0.00     0.002 A 
ATOM      4  C5  UNL d   1      -6.000  -2.356   3.337  0.00  0.00    -0.004 A 
ATOM      5  C6  UNL d   1      -5.587  -1.454   2.357  0.00  0.00     0.002 A 
ATOM      6  C7  UNL d   1      -4.485  -0.629   2.587  0.00  0.00     0.002 A 
ENDROOT
BRANCH   1   7
ATOM      7  C1  UNL d   1      -2.567   0.156   4.028  0.00  0.00     0.055 C 
ATOM      8  C   UNL d   1      -2.872   1.630   3.801  0.00  0.00     0.019 C 
ENDBRANCH   1   7
TORSDOF 1
ENDMDL
