MODEL 1
REMARK minimizedAffinity -0.339820921
REMARK minimizedRMSD -1
REMARK  0 active torsions:
REMARK  status: ('A' for Active; 'I' for Inactive)
ROOT
ATOM      1  C   UNL d   1       0.035   1.861  -1.132  0.00  0.00     0.078 C 
ATOM      2  C1  UNL d   1      -1.279   2.350  -0.599  0.00  0.00    -0.077 A 
ATOM      3  C2  UNL d   1      -1.948   1.658   0.418  0.00  0.00    -0.001 A 
ATOM      4  C3  UNL d   1      -3.174   2.120   0.898  0.00  0.00     0.003 A 
ATOM      5  C4  UNL d   1      -3.744   3.275   0.365  0.00  0.00    -0.005 A 
ATOM      6  C5  UNL d   1      -3.087   3.969  -0.648  0.00  0.00     0.003 A 
ATOM      7  C6  UNL d   1      -1.860   3.509  -1.129  0.00  0.00    -0.001 A 
ENDROOT
TORSDOF 0
ENDMDL
