MODEL 1
REMARK minimizedAffinity -3.77070594
REMARK minimizedRMSD -1
REMARK  0 active torsions:
REMARK  status: ('A' for Active; 'I' for Inactive)
ROOT
ATOM      1  C   UNL d   1      -2.460   1.843   0.033  0.00  0.00     0.078 C 
ATOM      2  C1  UNL d   1      -2.456   0.804   1.114  0.00  0.00    -0.077 A 
ATOM      3  C2  UNL d   1      -2.324  -0.556   0.807  0.00  0.00    -0.001 A 
ATOM      4  C3  UNL d   1      -2.331  -1.513   1.823  0.00  0.00     0.003 A 
ATOM      5  C4  UNL d   1      -2.472  -1.121   3.153  0.00  0.00    -0.005 A 
ATOM      6  C5  UNL d   1      -2.606   0.230   3.468  0.00  0.00     0.003 A 
ATOM      7  C6  UNL d   1      -2.599   1.188   2.453  0.00  0.00    -0.001 A 
ENDROOT
TORSDOF 0
ENDMDL
