MODEL 1
REMARK minimizedAffinity 4.3006649
REMARK minimizedRMSD -1
REMARK  0 active torsions:
REMARK  status: ('A' for Active; 'I' for Inactive)
ROOT
ATOM      1  C   UNL d   1      -2.688  -0.970   0.182  0.00  0.00     0.078 C 
ATOM      2  C1  UNL d   1      -2.923  -0.944   1.663  0.00  0.00    -0.077 A 
ATOM      3  C2  UNL d   1      -4.056  -1.547   2.224  0.00  0.00    -0.001 A 
ATOM      4  C3  UNL d   1      -4.267  -1.507   3.603  0.00  0.00     0.003 A 
ATOM      5  C4  UNL d   1      -3.351  -0.863   4.433  0.00  0.00    -0.005 A 
ATOM      6  C5  UNL d   1      -2.223  -0.258   3.884  0.00  0.00     0.003 A 
ATOM      7  C6  UNL d   1      -2.010  -0.297   2.505  0.00  0.00    -0.001 A 
ENDROOT
TORSDOF 0
ENDMDL
