MODEL 1
REMARK minimizedAffinity -4.68959188
REMARK minimizedRMSD -1
REMARK  0 active torsions:
REMARK  status: ('A' for Active; 'I' for Inactive)
ROOT
ATOM      1  C   UNL d   1      -2.837   0.145   4.160  0.00  0.00     0.078 C 
ATOM      2  C1  UNL d   1      -2.906   0.482   2.700  0.00  0.00    -0.077 A 
ATOM      3  C2  UNL d   1      -2.394   1.691   2.215  0.00  0.00    -0.001 A 
ATOM      4  C3  UNL d   1      -2.474   1.997   0.855  0.00  0.00     0.003 A 
ATOM      5  C4  UNL d   1      -3.067   1.098  -0.030  0.00  0.00    -0.005 A 
ATOM      6  C5  UNL d   1      -3.581  -0.106   0.444  0.00  0.00     0.003 A 
ATOM      7  C6  UNL d   1      -3.502  -0.413   1.803  0.00  0.00    -0.001 A 
ENDROOT
TORSDOF 0
ENDMDL
