MODEL 1
REMARK minimizedAffinity 0.344291538
REMARK minimizedRMSD -1
REMARK  0 active torsions:
REMARK  status: ('A' for Active; 'I' for Inactive)
ROOT
ATOM      1  C   UNL d   1       6.000   1.541   4.981  0.00  0.00     0.078 C 
ATOM      2  C1  UNL d   1       5.277   0.228   5.028  0.00  0.00    -0.077 A 
ATOM      3  C2  UNL d   1       3.882   0.168   4.915  0.00  0.00    -0.001 A 
ATOM      4  C3  UNL d   1       3.221  -1.060   4.969  0.00  0.00     0.003 A 
ATOM      5  C4  UNL d   1       3.947  -2.238   5.138  0.00  0.00    -0.005 A 
ATOM      6  C5  UNL d   1       5.334  -2.188   5.253  0.00  0.00     0.003 A 
ATOM      7  C6  UNL d   1       5.997  -0.961   5.199  0.00  0.00    -0.001 A 
ENDROOT
TORSDOF 0
ENDMDL
