MODEL 1
REMARK minimizedAffinity -0.995011568
REMARK minimizedRMSD -1
REMARK  0 active torsions:
REMARK  status: ('A' for Active; 'I' for Inactive)
ROOT
ATOM      1  C   UNL d   1       6.000   3.718   3.447  0.00  0.00     0.078 C 
ATOM      2  C1  UNL d   1       5.617   2.269   3.381  0.00  0.00    -0.077 A 
ATOM      3  C2  UNL d   1       4.866   1.770   2.310  0.00  0.00    -0.001 A 
ATOM      4  C3  UNL d   1       4.508   0.422   2.267  0.00  0.00     0.003 A 
ATOM      5  C4  UNL d   1       4.895  -0.438   3.292  0.00  0.00    -0.005 A 
ATOM      6  C5  UNL d   1       5.641   0.050   4.363  0.00  0.00     0.003 A 
ATOM      7  C6  UNL d   1       6.000   1.398   4.408  0.00  0.00    -0.001 A 
ENDROOT
TORSDOF 0
ENDMDL
