MODEL 1
REMARK minimizedAffinity 3.96242023
REMARK minimizedRMSD -1
REMARK  0 active torsions:
REMARK  status: ('A' for Active; 'I' for Inactive)
ROOT
ATOM      1  C   UNL d   1       3.760   2.633   2.227  0.00  0.00     0.078 C 
ATOM      2  C1  UNL d   1       4.537   1.558   2.925  0.00  0.00    -0.077 A 
ATOM      3  C2  UNL d   1       5.264   1.834   4.090  0.00  0.00    -0.001 A 
ATOM      4  C3  UNL d   1       5.992   0.825   4.723  0.00  0.00     0.003 A 
ATOM      5  C4  UNL d   1       6.000  -0.466   4.200  0.00  0.00    -0.005 A 
ATOM      6  C5  UNL d   1       5.281  -0.750   3.040  0.00  0.00     0.003 A 
ATOM      7  C6  UNL d   1       4.553   0.257   2.405  0.00  0.00    -0.001 A 
ENDROOT
TORSDOF 0
ENDMDL
