MODEL 1
REMARK minimizedAffinity 3.23374915
REMARK minimizedRMSD -1
REMARK  0 active torsions:
REMARK  status: ('A' for Active; 'I' for Inactive)
ROOT
ATOM      1  C   UNL d   1       5.354  -0.596   4.116  0.00  0.00     0.078 C 
ATOM      2  C1  UNL d   1       5.302   0.903   4.102  0.00  0.00    -0.077 A 
ATOM      3  C2  UNL d   1       5.995   1.658   5.056  0.00  0.00    -0.001 A 
ATOM      4  C3  UNL d   1       5.929   3.052   5.036  0.00  0.00     0.003 A 
ATOM      5  C4  UNL d   1       5.171   3.703   4.065  0.00  0.00    -0.005 A 
ATOM      6  C5  UNL d   1       4.476   2.960   3.113  0.00  0.00     0.003 A 
ATOM      7  C6  UNL d   1       4.541   1.566   3.131  0.00  0.00    -0.001 A 
ENDROOT
TORSDOF 0
ENDMDL
