MODEL 1
REMARK minimizedAffinity -2.81626678
REMARK minimizedRMSD -1
REMARK  0 active torsions:
REMARK  status: ('A' for Active; 'I' for Inactive)
ROOT
ATOM      1  C   UNL d   1       2.529  -2.074   1.165  0.00  0.00     0.078 C 
ATOM      2  C1  UNL d   1       1.352  -2.937   0.823  0.00  0.00    -0.077 A 
ATOM      3  C2  UNL d   1       0.511  -2.619  -0.250  0.00  0.00    -0.001 A 
ATOM      4  C3  UNL d   1      -0.586  -3.426  -0.551  0.00  0.00     0.003 A 
ATOM      5  C4  UNL d   1      -0.855  -4.557   0.218  0.00  0.00    -0.005 A 
ATOM      6  C5  UNL d   1      -0.025  -4.881   1.289  0.00  0.00     0.003 A 
ATOM      7  C6  UNL d   1       1.073  -4.075   1.591  0.00  0.00    -0.001 A 
ENDROOT
TORSDOF 0
ENDMDL
