MODEL 1
REMARK minimizedAffinity -0.721329808
REMARK minimizedRMSD -1
REMARK  0 active torsions:
REMARK  status: ('A' for Active; 'I' for Inactive)
ROOT
ATOM      1  C   UNL d   1      -2.631  -0.042   1.591  0.00  0.00     0.078 C 
ATOM      2  C1  UNL d   1      -2.966   1.300   1.010  0.00  0.00    -0.077 A 
ATOM      3  C2  UNL d   1      -2.490   2.479   1.596  0.00  0.00    -0.001 A 
ATOM      4  C3  UNL d   1      -2.819   3.721   1.050  0.00  0.00     0.003 A 
ATOM      5  C4  UNL d   1      -3.626   3.796  -0.083  0.00  0.00    -0.005 A 
ATOM      6  C5  UNL d   1      -4.106   2.628  -0.672  0.00  0.00     0.003 A 
ATOM      7  C6  UNL d   1      -3.779   1.385  -0.127  0.00  0.00    -0.001 A 
ENDROOT
TORSDOF 0
ENDMDL
