MODEL 1
REMARK minimizedAffinity -2.50205183
REMARK minimizedRMSD -1
REMARK  0 active torsions:
REMARK  status: ('A' for Active; 'I' for Inactive)
ROOT
ATOM      1  C   UNL d   1       6.000   0.366   5.592  0.00  0.00     0.078 C 
ATOM      2  C1  UNL d   1       4.965   0.020   4.563  0.00  0.00    -0.077 A 
ATOM      3  C2  UNL d   1       4.030  -0.997   4.795  0.00  0.00    -0.001 A 
ATOM      4  C3  UNL d   1       3.078  -1.314   3.824  0.00  0.00     0.003 A 
ATOM      5  C4  UNL d   1       3.053  -0.621   2.616  0.00  0.00    -0.005 A 
ATOM      6  C5  UNL d   1       3.980   0.390   2.376  0.00  0.00     0.003 A 
ATOM      7  C6  UNL d   1       4.933   0.710   3.345  0.00  0.00    -0.001 A 
ENDROOT
TORSDOF 0
ENDMDL
