MODEL 1
REMARK minimizedAffinity 7.58966684
REMARK minimizedRMSD -1
REMARK  0 active torsions:
REMARK  status: ('A' for Active; 'I' for Inactive)
ROOT
ATOM      1  C   UNL d   1       3.705   2.640   1.510  0.00  0.00     0.078 C 
ATOM      2  C1  UNL d   1       4.507   1.992   2.598  0.00  0.00    -0.077 A 
ATOM      3  C2  UNL d   1       4.512   0.601   2.760  0.00  0.00    -0.001 A 
ATOM      4  C3  UNL d   1       5.256   0.013   3.784  0.00  0.00     0.003 A 
ATOM      5  C4  UNL d   1       6.000   0.807   4.654  0.00  0.00    -0.005 A 
ATOM      6  C5  UNL d   1       6.000   2.192   4.502  0.00  0.00     0.003 A 
ATOM      7  C6  UNL d   1       5.256   2.783   3.479  0.00  0.00    -0.001 A 
ENDROOT
TORSDOF 0
ENDMDL
