MODEL 1
REMARK minimizedAffinity 0.453297287
REMARK minimizedRMSD -1
REMARK  0 active torsions:
REMARK  status: ('A' for Active; 'I' for Inactive)
ROOT
ATOM      1  C   UNL d   1      -3.055   1.172  -0.051  0.00  0.00     0.078 C 
ATOM      2  C1  UNL d   1      -3.002   2.659   0.139  0.00  0.00    -0.077 A 
ATOM      3  C2  UNL d   1      -1.794   3.358   0.025  0.00  0.00    -0.001 A 
ATOM      4  C3  UNL d   1      -1.758   4.740   0.214  0.00  0.00     0.003 A 
ATOM      5  C4  UNL d   1      -2.926   5.436   0.519  0.00  0.00    -0.005 A 
ATOM      6  C5  UNL d   1      -4.133   4.748   0.636  0.00  0.00     0.003 A 
ATOM      7  C6  UNL d   1      -4.171   3.366   0.447  0.00  0.00    -0.001 A 
ENDROOT
TORSDOF 0
ENDMDL
