MODEL 1
REMARK minimizedAffinity -2.58532476
REMARK minimizedRMSD -1
REMARK  0 active torsions:
REMARK  status: ('A' for Active; 'I' for Inactive)
ROOT
ATOM      1  C   UNL d   1       5.999   0.612   5.760  0.00  0.00     0.078 C 
ATOM      2  C1  UNL d   1       5.074   0.244   4.638  0.00  0.00    -0.077 A 
ATOM      3  C2  UNL d   1       4.917   1.083   3.528  0.00  0.00    -0.001 A 
ATOM      4  C3  UNL d   1       4.045   0.732   2.496  0.00  0.00     0.003 A 
ATOM      5  C4  UNL d   1       3.323  -0.458   2.564  0.00  0.00    -0.005 A 
ATOM      6  C5  UNL d   1       3.471  -1.298   3.665  0.00  0.00     0.003 A 
ATOM      7  C6  UNL d   1       4.343  -0.949   4.699  0.00  0.00    -0.001 A 
ENDROOT
TORSDOF 0
ENDMDL
