MODEL 1
REMARK minimizedAffinity -1.20580518
REMARK minimizedRMSD -1
REMARK  0 active torsions:
REMARK  status: ('A' for Active; 'I' for Inactive)
ROOT
ATOM      1  C   UNL d   1       0.749  -1.827  -2.787  0.00  0.00     0.078 C 
ATOM      2  C1  UNL d   1       0.636  -2.603  -1.509  0.00  0.00    -0.077 A 
ATOM      3  C2  UNL d   1      -0.568  -2.646  -0.795  0.00  0.00    -0.001 A 
ATOM      4  C3  UNL d   1      -0.655  -3.364   0.399  0.00  0.00     0.003 A 
ATOM      5  C4  UNL d   1       0.458  -4.045   0.889  0.00  0.00    -0.005 A 
ATOM      6  C5  UNL d   1       1.660  -4.006   0.186  0.00  0.00     0.003 A 
ATOM      7  C6  UNL d   1       1.750  -3.288  -1.007  0.00  0.00    -0.001 A 
ENDROOT
TORSDOF 0
ENDMDL
