MODEL 1
REMARK minimizedAffinity -1.3483237
REMARK minimizedRMSD -1
REMARK  0 active torsions:
REMARK  status: ('A' for Active; 'I' for Inactive)
ROOT
ATOM      1  C   UNL d   1      -3.988  -0.083   0.021  0.00  0.00     0.078 C 
ATOM      2  C1  UNL d   1      -3.607   1.367   0.033  0.00  0.00    -0.077 A 
ATOM      3  C2  UNL d   1      -2.340   1.783  -0.395  0.00  0.00    -0.001 A 
ATOM      4  C3  UNL d   1      -1.996   3.135  -0.369  0.00  0.00     0.003 A 
ATOM      5  C4  UNL d   1      -2.912   4.083   0.085  0.00  0.00    -0.005 A 
ATOM      6  C5  UNL d   1      -4.174   3.678   0.514  0.00  0.00     0.003 A 
ATOM      7  C6  UNL d   1      -4.520   2.326   0.489  0.00  0.00    -0.001 A 
ENDROOT
TORSDOF 0
ENDMDL
