MODEL 1
REMARK minimizedAffinity -3.75630093
REMARK minimizedRMSD -1
REMARK  0 active torsions:
REMARK  status: ('A' for Active; 'I' for Inactive)
ROOT
ATOM      1  C1  BNZ d   1       0.482  -0.648  -0.247  0.00  0.00     0.000 A 
ATOM      2  C2  BNZ d   1       1.504  -1.265   0.425  0.00  0.00     0.000 A 
ATOM      3  C3  BNZ d   1       2.028  -0.713   1.561  0.00  0.00     0.000 A 
ATOM      4  C4  BNZ d   1       1.558   0.472   2.000  0.00  0.00     0.000 A 
ATOM      5  C5  BNZ d   1       0.535   1.111   1.328  0.00  0.00     0.000 A 
ATOM      6  C6  BNZ d   1      -0.017   0.533   0.207  0.00  0.00     0.000 A 
ENDROOT
TORSDOF 0
ENDMDL
