MODEL 1
REMARK minimizedAffinity -2.66551375
REMARK minimizedRMSD -1
REMARK  0 active torsions:
REMARK  status: ('A' for Active; 'I' for Inactive)
ROOT
ATOM      1  C1  BNZ d   1       0.433  -0.399  -1.222  0.00  0.00     0.000 A 
ATOM      2  C2  BNZ d   1       0.114   0.872  -0.826  0.00  0.00     0.000 A 
ATOM      3  C3  BNZ d   1      -0.961   1.103  -0.013  0.00  0.00     0.000 A 
ATOM      4  C4  BNZ d   1      -1.737   0.069   0.370  0.00  0.00     0.000 A 
ATOM      5  C5  BNZ d   1      -1.433  -1.218  -0.028  0.00  0.00     0.000 A 
ATOM      6  C6  BNZ d   1      -0.328  -1.451  -0.814  0.00  0.00     0.000 A 
ENDROOT
TORSDOF 0
ENDMDL
