MODEL 1
REMARK minimizedAffinity -4.59825468
REMARK minimizedRMSD -1
REMARK  0 active torsions:
REMARK  status: ('A' for Active; 'I' for Inactive)
ROOT
ATOM      1  C1  BNZ d   1       0.865   1.125   1.504  0.00  0.00     0.000 A 
ATOM      2  C2  BNZ d   1       0.378   1.877   2.540  0.00  0.00     0.000 A 
ATOM      3  C3  BNZ d   1      -0.951   1.851   2.859  0.00  0.00     0.000 A 
ATOM      4  C4  BNZ d   1      -1.797   1.107   2.118  0.00  0.00     0.000 A 
ATOM      5  C5  BNZ d   1      -1.322   0.351   1.064  0.00  0.00     0.000 A 
ATOM      6  C6  BNZ d   1       0.022   0.349   0.770  0.00  0.00     0.000 A 
ENDROOT
TORSDOF 0
ENDMDL
