MODEL 1
REMARK minimizedAffinity -1.78155792
REMARK minimizedRMSD -1
REMARK  0 active torsions:
REMARK  status: ('A' for Active; 'I' for Inactive)
ROOT
ATOM      1  C1  BNZ d   1       0.051  -0.157  -0.615  0.00  0.00     0.000 A 
ATOM      2  C2  BNZ d   1      -0.427   0.741   0.302  0.00  0.00     0.000 A 
ATOM      3  C3  BNZ d   1       0.193   0.905   1.510  0.00  0.00     0.000 A 
ATOM      4  C4  BNZ d   1       1.264   0.144   1.814  0.00  0.00     0.000 A 
ATOM      5  C5  BNZ d   1       1.752  -0.772   0.903  0.00  0.00     0.000 A 
ATOM      6  C6  BNZ d   1       1.149  -0.907  -0.326  0.00  0.00     0.000 A 
ENDROOT
TORSDOF 0
ENDMDL
