MODEL 1
REMARK minimizedAffinity -1.32404733
REMARK minimizedRMSD -1
REMARK  0 active torsions:
REMARK  status: ('A' for Active; 'I' for Inactive)
ROOT
ATOM      1  C1  BNZ d   1       1.198   0.689   1.823  0.00  0.00     0.000 A 
ATOM      2  C2  BNZ d   1       0.312   1.315   0.988  0.00  0.00     0.000 A 
ATOM      3  C3  BNZ d   1      -0.122   0.705  -0.156  0.00  0.00     0.000 A 
ATOM      4  C4  BNZ d   1       0.361  -0.511  -0.484  0.00  0.00     0.000 A 
ATOM      5  C5  BNZ d   1       1.262  -1.151   0.344  0.00  0.00     0.000 A 
ATOM      6  C6  BNZ d   1       1.667  -0.551   1.514  0.00  0.00     0.000 A 
ENDROOT
TORSDOF 0
ENDMDL
