MODEL 1
REMARK minimizedAffinity -3.43782306
REMARK minimizedRMSD -1
REMARK  1 active torsions:
REMARK  status: ('A' for Active; 'I' for Inactive)
REMARK    1  A    between atoms: N_2  and  C1_3 
ROOT
ATOM      1  C1  UNL d   1       0.018  -0.518   0.120  0.00  0.00     0.143 A 
ATOM      2  C2  UNL d   1      -0.445  -1.039   1.333  0.00  0.00    -0.057 A 
ATOM      3  C3  UNL d   1       0.409  -1.736   2.197  0.00  0.00     0.033 A 
ATOM      4  C4  UNL d   1       1.738  -1.951   1.847  0.00  0.00    -0.042 A 
ATOM      5  C5  UNL d   1       2.213  -1.465   0.635  0.00  0.00     0.033 A 
ATOM      6  C6  UNL d   1       1.358  -0.763  -0.220  0.00  0.00    -0.057 A 
ENDROOT
BRANCH   1   7
ATOM      7  N   UNL d   1      -0.804   0.098  -0.826  0.00  0.00    -0.732 N 
ATOM      8  C   UNL d   1      -1.214   1.476  -0.660  0.00  0.00     0.284 C 
ATOM      9  H3  UNL d   1      -0.551  -0.148  -1.780  0.00  0.00     0.395 HD
ENDBRANCH   1   7
TORSDOF 1
ENDMDL
