MODEL 1
REMARK minimizedAffinity -5.20223761
REMARK minimizedRMSD -1
REMARK  1 active torsions:
REMARK  status: ('A' for Active; 'I' for Inactive)
REMARK    1  A    between atoms: N_2  and  C1_3 
ROOT
ATOM      1  C1  UNL d   1       0.030  -0.188   0.588  0.00  0.00     0.143 A 
ATOM      2  C2  UNL d   1       1.209  -0.638  -0.014  0.00  0.00    -0.057 A 
ATOM      3  C3  UNL d   1       1.919  -1.728   0.505  0.00  0.00     0.033 A 
ATOM      4  C4  UNL d   1       1.476  -2.369   1.657  0.00  0.00    -0.042 A 
ATOM      5  C5  UNL d   1       0.319  -1.923   2.286  0.00  0.00     0.033 A 
ATOM      6  C6  UNL d   1      -0.389  -0.839   1.759  0.00  0.00    -0.057 A 
ENDROOT
BRANCH   1   7
ATOM      7  N   UNL d   1      -0.668   0.951   0.177  0.00  0.00    -0.732 N 
ATOM      8  C   UNL d   1      -1.229   1.031  -1.155  0.00  0.00     0.284 C 
ATOM      9  H3  UNL d   1      -1.274   1.320   0.906  0.00  0.00     0.395 HD
ENDBRANCH   1   7
TORSDOF 1
ENDMDL
