MODEL 1
REMARK minimizedAffinity -3.30301785
REMARK minimizedRMSD -1
REMARK  1 active torsions:
REMARK  status: ('A' for Active; 'I' for Inactive)
REMARK    1  A    between atoms: N_2  and  C1_3 
ROOT
ATOM      1  C1  UNL d   1       0.289  -0.584   0.571  0.00  0.00     0.143 A 
ATOM      2  C2  UNL d   1      -0.274  -1.056   1.762  0.00  0.00    -0.057 A 
ATOM      3  C3  UNL d   1       0.385  -2.006   2.551  0.00  0.00     0.033 A 
ATOM      4  C4  UNL d   1       1.611  -2.525   2.146  0.00  0.00    -0.042 A 
ATOM      5  C5  UNL d   1       2.178  -2.089   0.954  0.00  0.00     0.033 A 
ATOM      6  C6  UNL d   1       1.518  -1.135   0.174  0.00  0.00    -0.057 A 
ENDROOT
BRANCH   1   7
ATOM      7  N   UNL d   1      -0.361   0.287  -0.306  0.00  0.00    -0.732 N 
ATOM      8  C   UNL d   1      -0.837   1.575   0.151  0.00  0.00     0.284 C 
ATOM      9  H3  UNL d   1       0.072   0.307  -1.226  0.00  0.00     0.395 HD
ENDBRANCH   1   7
TORSDOF 1
ENDMDL
