MODEL 1
REMARK minimizedAffinity -5.92188597
REMARK minimizedRMSD -1
REMARK  1 active torsions:
REMARK  status: ('A' for Active; 'I' for Inactive)
REMARK    1  A    between atoms: N_2  and  C1_3 
ROOT
ATOM      1  C1  UNL d   1      -0.408  -0.754   0.819  0.00  0.00     0.143 A 
ATOM      2  C2  UNL d   1       0.747  -1.273   0.224  0.00  0.00    -0.057 A 
ATOM      3  C3  UNL d   1       1.466  -2.315   0.822  0.00  0.00     0.033 A 
ATOM      4  C4  UNL d   1       1.058  -2.838   2.044  0.00  0.00    -0.042 A 
ATOM      5  C5  UNL d   1      -0.072  -2.321   2.667  0.00  0.00     0.033 A 
ATOM      6  C6  UNL d   1      -0.790  -1.285   2.061  0.00  0.00    -0.057 A 
ENDROOT
BRANCH   1   7
ATOM      7  N   UNL d   1      -1.111   0.347   0.324  0.00  0.00    -0.732 N 
ATOM      8  C   UNL d   1      -0.496   1.246  -0.629  0.00  0.00     0.284 C 
ATOM      9  H3  UNL d   1      -2.083   0.128   0.121  0.00  0.00     0.395 HD
ENDBRANCH   1   7
TORSDOF 1
ENDMDL
