MODEL 1
REMARK minimizedAffinity -4.53782797
REMARK minimizedRMSD -1
REMARK  1 active torsions:
REMARK  status: ('A' for Active; 'I' for Inactive)
REMARK    1  A    between atoms: N_2  and  C1_3 
ROOT
ATOM      1  C1  UNL d   1       0.342  -0.805   0.356  0.00  0.00     0.143 A 
ATOM      2  C2  UNL d   1       1.285  -1.801   0.628  0.00  0.00    -0.057 A 
ATOM      3  C3  UNL d   1       1.219  -2.562   1.802  0.00  0.00     0.033 A 
ATOM      4  C4  UNL d   1       0.222  -2.318   2.741  0.00  0.00    -0.042 A 
ATOM      5  C5  UNL d   1      -0.711  -1.315   2.502  0.00  0.00     0.033 A 
ATOM      6  C6  UNL d   1      -0.643  -0.564   1.325  0.00  0.00    -0.057 A 
ENDROOT
BRANCH   1   7
ATOM      7  N   UNL d   1       0.412   0.051  -0.746  0.00  0.00    -0.732 N 
ATOM      8  C   UNL d   1      -0.756   0.786  -1.184  0.00  0.00     0.284 C 
ATOM      9  H3  UNL d   1       1.274   0.592  -0.765  0.00  0.00     0.395 HD
ENDBRANCH   1   7
TORSDOF 1
ENDMDL
