MODEL 1
REMARK minimizedAffinity -2.42407227
REMARK minimizedRMSD -1
REMARK  1 active torsions:
REMARK  status: ('A' for Active; 'I' for Inactive)
REMARK    1  A    between atoms: N_2  and  C1_3 
ROOT
ATOM      1  C1  UNL d   1       0.259  -0.249   0.592  0.00  0.00     0.143 A 
ATOM      2  C2  UNL d   1       1.551  -0.701   0.304  0.00  0.00    -0.057 A 
ATOM      3  C3  UNL d   1       2.161  -1.697   1.076  0.00  0.00     0.033 A 
ATOM      4  C4  UNL d   1       1.497  -2.241   2.171  0.00  0.00    -0.042 A 
ATOM      5  C5  UNL d   1       0.222  -1.789   2.491  0.00  0.00     0.033 A 
ATOM      6  C6  UNL d   1      -0.385  -0.799   1.712  0.00  0.00    -0.057 A 
ENDROOT
BRANCH   1   7
ATOM      7  N   UNL d   1      -0.363   0.807  -0.078  0.00  0.00    -0.732 N 
ATOM      8  C   UNL d   1      -1.243   0.554  -1.199  0.00  0.00     0.284 C 
ATOM      9  H3  UNL d   1      -0.697   1.528   0.558  0.00  0.00     0.395 HD
ENDBRANCH   1   7
TORSDOF 1
ENDMDL
