MODEL 1
REMARK minimizedAffinity -4.20496321
REMARK minimizedRMSD -1
REMARK  1 active torsions:
REMARK  status: ('A' for Active; 'I' for Inactive)
REMARK    1  A    between atoms: N_2  and  C1_3 
ROOT
ATOM      1  C1  UNL d   1       0.530  -0.888   0.396  0.00  0.00     0.143 A 
ATOM      2  C2  UNL d   1       1.558  -1.823   0.230  0.00  0.00    -0.057 A 
ATOM      3  C3  UNL d   1       1.701  -2.907   1.104  0.00  0.00     0.033 A 
ATOM      4  C4  UNL d   1       0.833  -3.060   2.180  0.00  0.00    -0.042 A 
ATOM      5  C5  UNL d   1      -0.181  -2.130   2.378  0.00  0.00     0.033 A 
ATOM      6  C6  UNL d   1      -0.323  -1.053   1.498  0.00  0.00    -0.057 A 
ENDROOT
BRANCH   1   7
ATOM      7  N   UNL d   1       0.395   0.265  -0.381  0.00  0.00    -0.732 N 
ATOM      8  C   UNL d   1      -0.699   1.185  -0.151  0.00  0.00     0.284 C 
ATOM      9  H3  UNL d   1       1.288   0.718  -0.563  0.00  0.00     0.395 HD
ENDBRANCH   1   7
TORSDOF 1
ENDMDL
