MODEL 1
REMARK minimizedAffinity -5.29046392
REMARK minimizedRMSD -1
REMARK  1 active torsions:
REMARK  status: ('A' for Active; 'I' for Inactive)
REMARK    1  A    between atoms: N_2  and  C1_3 
ROOT
ATOM      1  C1  UNL d   1       0.314  -0.606   0.290  0.00  0.00     0.143 A 
ATOM      2  C2  UNL d   1       1.505  -1.060  -0.289  0.00  0.00    -0.057 A 
ATOM      3  C3  UNL d   1       2.136  -2.223   0.167  0.00  0.00     0.033 A 
ATOM      4  C4  UNL d   1       1.603  -2.940   1.233  0.00  0.00    -0.042 A 
ATOM      5  C5  UNL d   1       0.434  -2.494   1.840  0.00  0.00     0.033 A 
ATOM      6  C6  UNL d   1      -0.196  -1.335   1.375  0.00  0.00    -0.057 A 
ENDROOT
BRANCH   1   7
ATOM      7  N   UNL d   1      -0.309   0.596  -0.054  0.00  0.00    -0.732 N 
ATOM      8  C   UNL d   1      -0.978   0.741  -1.329  0.00  0.00     0.284 C 
ATOM      9  H3  UNL d   1      -0.809   1.011   0.728  0.00  0.00     0.395 HD
ENDBRANCH   1   7
TORSDOF 1
ENDMDL
