MODEL 1
REMARK minimizedAffinity -2.64778566
REMARK minimizedRMSD -1
REMARK  1 active torsions:
REMARK  status: ('A' for Active; 'I' for Inactive)
REMARK    1  A    between atoms: N_2  and  C1_3 
ROOT
ATOM      1  C1  UNL d   1       0.144  -0.038   0.651  0.00  0.00     0.143 A 
ATOM      2  C2  UNL d   1      -0.479  -0.572   1.784  0.00  0.00    -0.057 A 
ATOM      3  C3  UNL d   1       0.169  -1.512   2.594  0.00  0.00     0.033 A 
ATOM      4  C4  UNL d   1       1.446  -1.957   2.267  0.00  0.00    -0.042 A 
ATOM      5  C5  UNL d   1       2.075  -1.459   1.132  0.00  0.00     0.033 A 
ATOM      6  C6  UNL d   1       1.424  -0.515   0.331  0.00  0.00    -0.057 A 
ENDROOT
BRANCH   1   7
ATOM      7  N   UNL d   1      -0.486   0.825  -0.249  0.00  0.00    -0.732 N 
ATOM      8  C   UNL d   1      -1.157   0.307  -1.421  0.00  0.00     0.284 C 
ATOM      9  H3  UNL d   1      -0.989   1.576   0.220  0.00  0.00     0.395 HD
ENDBRANCH   1   7
TORSDOF 1
ENDMDL
