MODEL 1
REMARK minimizedAffinity -3.74652529
REMARK minimizedRMSD -1
REMARK  1 active torsions:
REMARK  status: ('A' for Active; 'I' for Inactive)
REMARK    1  A    between atoms: N_2  and  C1_3 
ROOT
ATOM      1  C1  UNL d   1      -0.335  -0.634   0.760  0.00  0.00     0.143 A 
ATOM      2  C2  UNL d   1       0.824  -1.127   0.151  0.00  0.00    -0.057 A 
ATOM      3  C3  UNL d   1       1.590  -2.133   0.753  0.00  0.00     0.033 A 
ATOM      4  C4  UNL d   1       1.224  -2.645   1.994  0.00  0.00    -0.042 A 
ATOM      5  C5  UNL d   1       0.090  -2.152   2.630  0.00  0.00     0.033 A 
ATOM      6  C6  UNL d   1      -0.674  -1.153   2.020  0.00  0.00    -0.057 A 
ENDROOT
BRANCH   1   7
ATOM      7  N   UNL d   1      -1.084   0.433   0.259  0.00  0.00    -0.732 N 
ATOM      8  C   UNL d   1      -0.580   1.237  -0.834  0.00  0.00     0.284 C 
ATOM      9  H3  UNL d   1      -2.075   0.215   0.192  0.00  0.00     0.395 HD
ENDBRANCH   1   7
TORSDOF 1
ENDMDL
