MODEL 1
REMARK minimizedAffinity -3.20230627
REMARK minimizedRMSD -1
REMARK  1 active torsions:
REMARK  status: ('A' for Active; 'I' for Inactive)
REMARK    1  A    between atoms: N_2  and  C1_3 
ROOT
ATOM      1  C1  UNL d   1       0.378   0.087  -0.271  0.00  0.00     0.143 A 
ATOM      2  C2  UNL d   1       1.098  -0.315   0.860  0.00  0.00    -0.057 A 
ATOM      3  C3  UNL d   1       2.073  -1.316   0.782  0.00  0.00     0.033 A 
ATOM      4  C4  UNL d   1       2.326  -1.956  -0.427  0.00  0.00    -0.042 A 
ATOM      5  C5  UNL d   1       1.605  -1.591  -1.558  0.00  0.00     0.033 A 
ATOM      6  C6  UNL d   1       0.637  -0.586  -1.475  0.00  0.00    -0.057 A 
ENDROOT
BRANCH   1   7
ATOM      7  N   UNL d   1      -0.673   1.007  -0.238  0.00  0.00    -0.732 N 
ATOM      8  C   UNL d   1      -1.440   1.293  -1.431  0.00  0.00     0.284 C 
ATOM      9  H3  UNL d   1      -1.234   0.926   0.608  0.00  0.00     0.395 HD
ENDBRANCH   1   7
TORSDOF 1
ENDMDL
