MODEL 1
REMARK minimizedAffinity -5.45473242
REMARK minimizedRMSD -1
REMARK  0 active torsions:
REMARK  status: ('A' for Active; 'I' for Inactive)
ROOT
ATOM      1  C   UNL d   1      -1.069  -0.711  -1.122  0.00  0.00     0.077 C 
ATOM      2  C1  UNL d   1      -0.093   0.158  -0.386  0.00  0.00    -0.074 A 
ATOM      3  C2  UNL d   1      -0.448   0.779   0.816  0.00  0.00    -0.005 A 
ATOM      4  C3  UNL d   1       0.473   1.577   1.495  0.00  0.00     0.006 A 
ATOM      5  C4  UNL d   1       1.756   1.762   0.980  0.00  0.00    -0.005 A 
ATOM      6  C5  UNL d   1       2.130   1.148  -0.221  0.00  0.00    -0.074 A 
ATOM      7  C6  UNL d   1       3.508   1.329  -0.783  0.00  0.00     0.077 C 
ATOM      8  C7  UNL d   1       1.201   0.343  -0.893  0.00  0.00    -0.001 A 
ENDROOT
TORSDOF 0
ENDMDL
