MODEL 1
REMARK minimizedAffinity -4.55011177
REMARK minimizedRMSD -1
REMARK  0 active torsions:
REMARK  status: ('A' for Active; 'I' for Inactive)
ROOT
ATOM      1  C   UNL d   1       1.547  -1.410  -1.091  0.00  0.00     0.077 C 
ATOM      2  C1  UNL d   1       0.903  -0.402  -0.186  0.00  0.00    -0.074 A 
ATOM      3  C2  UNL d   1      -0.323  -0.670   0.432  0.00  0.00    -0.005 A 
ATOM      4  C3  UNL d   1      -0.904   0.273   1.279  0.00  0.00     0.006 A 
ATOM      5  C4  UNL d   1      -0.268   1.492   1.515  0.00  0.00    -0.005 A 
ATOM      6  C5  UNL d   1       0.958   1.778   0.906  0.00  0.00    -0.074 A 
ATOM      7  C6  UNL d   1       1.660   3.079   1.158  0.00  0.00     0.077 C 
ATOM      8  C7  UNL d   1       1.540   0.822   0.063  0.00  0.00    -0.001 A 
ENDROOT
TORSDOF 0
ENDMDL
