MODEL 1
REMARK minimizedAffinity 2.54551482
REMARK minimizedRMSD -1
REMARK  0 active torsions:
REMARK  status: ('A' for Active; 'I' for Inactive)
ROOT
ATOM      1  C   UNL d   1      -5.507  -4.853   0.566  0.00  0.00     0.077 C 
ATOM      2  C1  UNL d   1      -4.862  -3.878  -0.374  0.00  0.00    -0.074 A 
ATOM      3  C2  UNL d   1      -5.554  -3.384  -1.484  0.00  0.00    -0.005 A 
ATOM      4  C3  UNL d   1      -4.944  -2.471  -2.344  0.00  0.00     0.006 A 
ATOM      5  C4  UNL d   1      -3.638  -2.043  -2.103  0.00  0.00    -0.005 A 
ATOM      6  C5  UNL d   1      -2.930  -2.526  -0.997  0.00  0.00    -0.074 A 
ATOM      7  C6  UNL d   1      -1.529  -2.069  -0.718  0.00  0.00     0.077 C 
ATOM      8  C7  UNL d   1      -3.552  -3.438  -0.134  0.00  0.00    -0.001 A 
ENDROOT
TORSDOF 0
ENDMDL
