MODEL 1
REMARK minimizedAffinity -2.85640407
REMARK minimizedRMSD -1
REMARK  0 active torsions:
REMARK  status: ('A' for Active; 'I' for Inactive)
ROOT
ATOM      1  C   UNL d   1       2.139  -1.046  -1.194  0.00  0.00     0.077 C 
ATOM      2  C1  UNL d   1       1.277  -0.270  -0.243  0.00  0.00    -0.074 A 
ATOM      3  C2  UNL d   1       0.019  -0.747   0.139  0.00  0.00    -0.005 A 
ATOM      4  C3  UNL d   1      -0.768  -0.018   1.031  0.00  0.00     0.006 A 
ATOM      5  C4  UNL d   1      -0.306   1.192   1.548  0.00  0.00    -0.005 A 
ATOM      6  C5  UNL d   1       0.949   1.684   1.179  0.00  0.00    -0.074 A 
ATOM      7  C6  UNL d   1       1.465   2.979   1.733  0.00  0.00     0.077 C 
ATOM      8  C7  UNL d   1       1.737   0.943   0.287  0.00  0.00    -0.001 A 
ENDROOT
TORSDOF 0
ENDMDL
