MODEL 1
REMARK minimizedAffinity -5.34661293
REMARK minimizedRMSD -1
REMARK  0 active torsions:
REMARK  status: ('A' for Active; 'I' for Inactive)
ROOT
ATOM      1  C   UNL d   1      -0.657  -1.186  -0.753  0.00  0.00     0.077 C 
ATOM      2  C1  UNL d   1       0.606  -0.409  -0.527  0.00  0.00    -0.074 A 
ATOM      3  C2  UNL d   1       1.847  -0.924  -0.917  0.00  0.00    -0.005 A 
ATOM      4  C3  UNL d   1       3.011  -0.185  -0.709  0.00  0.00     0.006 A 
ATOM      5  C4  UNL d   1       2.948   1.074  -0.109  0.00  0.00    -0.005 A 
ATOM      6  C5  UNL d   1       1.716   1.605   0.286  0.00  0.00    -0.074 A 
ATOM      7  C6  UNL d   1       1.629   2.960   0.923  0.00  0.00     0.077 C 
ATOM      8  C7  UNL d   1       0.549   0.860   0.068  0.00  0.00    -0.001 A 
ENDROOT
TORSDOF 0
ENDMDL
