MODEL 1
REMARK minimizedAffinity -3.93713117
REMARK minimizedRMSD -1
REMARK  0 active torsions:
REMARK  status: ('A' for Active; 'I' for Inactive)
ROOT
ATOM      1  C   UNL d   1      -0.949  -0.845  -0.876  0.00  0.00     0.077 C 
ATOM      2  C1  UNL d   1      -0.225   0.090   0.046  0.00  0.00    -0.074 A 
ATOM      3  C2  UNL d   1      -0.920   0.842   0.998  0.00  0.00    -0.005 A 
ATOM      4  C3  UNL d   1      -0.232   1.700   1.856  0.00  0.00     0.006 A 
ATOM      5  C4  UNL d   1       1.156   1.815   1.771  0.00  0.00    -0.005 A 
ATOM      6  C5  UNL d   1       1.868   1.069   0.826  0.00  0.00    -0.074 A 
ATOM      7  C6  UNL d   1       3.362   1.173   0.727  0.00  0.00     0.077 C 
ATOM      8  C7  UNL d   1       1.170   0.204  -0.028  0.00  0.00    -0.001 A 
ENDROOT
TORSDOF 0
ENDMDL
