MODEL 1
REMARK minimizedAffinity -3.77376151
REMARK minimizedRMSD -1
REMARK  0 active torsions:
REMARK  status: ('A' for Active; 'I' for Inactive)
ROOT
ATOM      1  C   UNL d   1       1.376   2.763   1.401  0.00  0.00     0.077 C 
ATOM      2  C1  UNL d   1       1.386   1.500   0.592  0.00  0.00    -0.074 A 
ATOM      3  C2  UNL d   1       2.509   1.136  -0.159  0.00  0.00    -0.005 A 
ATOM      4  C3  UNL d   1       2.508  -0.046  -0.898  0.00  0.00     0.006 A 
ATOM      5  C4  UNL d   1       1.386  -0.876  -0.894  0.00  0.00    -0.005 A 
ATOM      6  C5  UNL d   1       0.254  -0.530  -0.149  0.00  0.00    -0.074 A 
ATOM      7  C6  UNL d   1      -0.956  -1.415  -0.126  0.00  0.00     0.077 C 
ATOM      8  C7  UNL d   1       0.266   0.657   0.597  0.00  0.00    -0.001 A 
ENDROOT
TORSDOF 0
ENDMDL
