MODEL 1
REMARK minimizedAffinity -2.34394336
REMARK minimizedRMSD -1
REMARK  0 active torsions:
REMARK  status: ('A' for Active; 'I' for Inactive)
ROOT
ATOM      1  C   UNL d   1       0.951   3.270   0.804  0.00  0.00     0.077 C 
ATOM      2  C1  UNL d   1       0.169   1.990   0.820  0.00  0.00    -0.074 A 
ATOM      3  C2  UNL d   1      -0.922   1.826   1.679  0.00  0.00    -0.005 A 
ATOM      4  C3  UNL d   1      -1.646   0.633   1.676  0.00  0.00     0.006 A 
ATOM      5  C4  UNL d   1      -1.287  -0.405   0.815  0.00  0.00    -0.005 A 
ATOM      6  C5  UNL d   1      -0.199  -0.258  -0.052  0.00  0.00    -0.074 A 
ATOM      7  C6  UNL d   1       0.194  -1.360  -0.990  0.00  0.00     0.077 C 
ATOM      8  C7  UNL d   1       0.519   0.946  -0.048  0.00  0.00    -0.001 A 
ENDROOT
TORSDOF 0
ENDMDL
