MODEL 1
REMARK minimizedAffinity -2.08305192
REMARK minimizedRMSD -1
REMARK  0 active torsions:
REMARK  status: ('A' for Active; 'I' for Inactive)
ROOT
ATOM      1  C   UNL d   1       2.224  -0.670  -1.316  0.00  0.00     0.077 C 
ATOM      2  C1  UNL d   1       1.016  -0.399  -0.468  0.00  0.00    -0.074 A 
ATOM      3  C2  UNL d   1      -0.174  -1.107  -0.666  0.00  0.00    -0.005 A 
ATOM      4  C3  UNL d   1      -1.286  -0.852   0.137  0.00  0.00     0.006 A 
ATOM      5  C4  UNL d   1      -1.219   0.113   1.142  0.00  0.00    -0.005 A 
ATOM      6  C5  UNL d   1      -0.038   0.831   1.355  0.00  0.00    -0.074 A 
ATOM      7  C6  UNL d   1       0.053   1.864   2.438  0.00  0.00     0.077 C 
ATOM      8  C7  UNL d   1       1.077   0.563   0.549  0.00  0.00    -0.001 A 
ENDROOT
TORSDOF 0
ENDMDL
