MODEL 1
REMARK minimizedAffinity -3.31712031
REMARK minimizedRMSD -1
REMARK  0 active torsions:
REMARK  status: ('A' for Active; 'I' for Inactive)
ROOT
ATOM      1  C   UNL d   1      -4.540  -3.326  -1.990  0.00  0.00     0.077 C 
ATOM      2  C1  UNL d   1      -3.607  -2.329  -2.611  0.00  0.00    -0.074 A 
ATOM      3  C2  UNL d   1      -3.553  -1.010  -2.149  0.00  0.00    -0.005 A 
ATOM      4  C3  UNL d   1      -2.673  -0.097  -2.730  0.00  0.00     0.006 A 
ATOM      5  C4  UNL d   1      -1.840  -0.493  -3.777  0.00  0.00    -0.005 A 
ATOM      6  C5  UNL d   1      -1.880  -1.807  -4.252  0.00  0.00    -0.074 A 
ATOM      7  C6  UNL d   1      -0.985  -2.252  -5.370  0.00  0.00     0.077 C 
ATOM      8  C7  UNL d   1      -2.762  -2.721  -3.658  0.00  0.00    -0.001 A 
ENDROOT
TORSDOF 0
ENDMDL
