MODEL 1
REMARK minimizedAffinity -6.25617313
REMARK minimizedRMSD -1
REMARK  0 active torsions:
REMARK  status: ('A' for Active; 'I' for Inactive)
ROOT
ATOM      1  C   UNL d   1      -0.602  -0.960  -0.113  0.00  0.00     0.077 C 
ATOM      2  C1  UNL d   1       0.265   0.193   0.296  0.00  0.00    -0.074 A 
ATOM      3  C2  UNL d   1      -0.203   1.162   1.190  0.00  0.00    -0.005 A 
ATOM      4  C3  UNL d   1       0.619   2.224   1.569  0.00  0.00     0.006 A 
ATOM      5  C4  UNL d   1       1.913   2.328   1.058  0.00  0.00    -0.005 A 
ATOM      6  C5  UNL d   1       2.398   1.369   0.164  0.00  0.00    -0.074 A 
ATOM      7  C6  UNL d   1       3.790   1.460  -0.387  0.00  0.00     0.077 C 
ATOM      8  C7  UNL d   1       1.569   0.301  -0.207  0.00  0.00    -0.001 A 
ENDROOT
TORSDOF 0
ENDMDL
