MODEL 1
REMARK minimizedAffinity -5.41961098
REMARK minimizedRMSD -1
REMARK  0 active torsions:
REMARK  status: ('A' for Active; 'I' for Inactive)
ROOT
ATOM      1  C   UNL d   1      -0.624  -0.947  -0.776  0.00  0.00     0.077 C 
ATOM      2  C1  UNL d   1       0.050   0.167  -0.032  0.00  0.00    -0.074 A 
ATOM      3  C2  UNL d   1      -0.680   1.019   0.803  0.00  0.00    -0.005 A 
ATOM      4  C3  UNL d   1      -0.037   2.045   1.497  0.00  0.00     0.006 A 
ATOM      5  C4  UNL d   1       1.339   2.228   1.362  0.00  0.00    -0.005 A 
ATOM      6  C5  UNL d   1       2.086   1.386   0.533  0.00  0.00    -0.074 A 
ATOM      7  C6  UNL d   1       3.568   1.564   0.385  0.00  0.00     0.077 C 
ATOM      8  C7  UNL d   1       1.434   0.353  -0.155  0.00  0.00    -0.001 A 
ENDROOT
TORSDOF 0
ENDMDL
