MODEL 1
REMARK minimizedAffinity -3.96026778
REMARK minimizedRMSD -1
REMARK  0 active torsions:
REMARK  status: ('A' for Active; 'I' for Inactive)
ROOT
ATOM      1  C   UNL d   1      -1.781   1.235   1.428  0.00  0.00     0.077 C 
ATOM      2  C1  UNL d   1      -1.270   0.187   0.485  0.00  0.00    -0.074 A 
ATOM      3  C2  UNL d   1       0.026  -0.323   0.611  0.00  0.00    -0.005 A 
ATOM      4  C3  UNL d   1       0.484  -1.305  -0.268  0.00  0.00     0.006 A 
ATOM      5  C4  UNL d   1      -0.347  -1.785  -1.280  0.00  0.00    -0.005 A 
ATOM      6  C5  UNL d   1      -1.647  -1.287  -1.422  0.00  0.00    -0.074 A 
ATOM      7  C6  UNL d   1      -2.557  -1.800  -2.498  0.00  0.00     0.077 C 
ATOM      8  C7  UNL d   1      -2.102  -0.306  -0.530  0.00  0.00    -0.001 A 
ENDROOT
TORSDOF 0
ENDMDL
