MODEL 1
REMARK minimizedAffinity -3.13473225
REMARK minimizedRMSD -1
REMARK  0 active torsions:
REMARK  status: ('A' for Active; 'I' for Inactive)
ROOT
ATOM      1  C   UNL d   1       3.498   0.824   0.513  0.00  0.00     0.077 C 
ATOM      2  C1  UNL d   1       2.018   0.789   0.754  0.00  0.00    -0.074 A 
ATOM      3  C2  UNL d   1       1.424   1.632   1.699  0.00  0.00    -0.005 A 
ATOM      4  C3  UNL d   1       0.045   1.595   1.906  0.00  0.00     0.006 A 
ATOM      5  C4  UNL d   1      -0.752   0.716   1.171  0.00  0.00    -0.005 A 
ATOM      6  C5  UNL d   1      -0.176  -0.133   0.221  0.00  0.00    -0.074 A 
ATOM      7  C6  UNL d   1      -1.019  -1.076  -0.585  0.00  0.00     0.077 C 
ATOM      8  C7  UNL d   1       1.210  -0.085   0.014  0.00  0.00    -0.001 A 
ENDROOT
TORSDOF 0
ENDMDL
