MODEL 1
REMARK minimizedAffinity -3.22002983
REMARK minimizedRMSD -1
REMARK  0 active torsions:
REMARK  status: ('A' for Active; 'I' for Inactive)
ROOT
ATOM      1  C   UNL d   1       3.496   0.615   0.828  0.00  0.00     0.077 C 
ATOM      2  C1  UNL d   1       2.003   0.512   0.931  0.00  0.00    -0.074 A 
ATOM      3  C2  UNL d   1       1.303   1.187   1.936  0.00  0.00    -0.005 A 
ATOM      4  C3  UNL d   1      -0.086   1.090   2.014  0.00  0.00     0.006 A 
ATOM      5  C4  UNL d   1      -0.789   0.318   1.088  0.00  0.00    -0.005 A 
ATOM      6  C5  UNL d   1      -0.107  -0.364   0.075  0.00  0.00    -0.074 A 
ATOM      7  C6  UNL d   1      -0.848  -1.190  -0.934  0.00  0.00     0.077 C 
ATOM      8  C7  UNL d   1       1.289  -0.255  -0.000  0.00  0.00    -0.001 A 
ENDROOT
TORSDOF 0
ENDMDL
