MODEL 1
REMARK minimizedAffinity -4.94666004
REMARK minimizedRMSD -1
REMARK  0 active torsions:
REMARK  status: ('A' for Active; 'I' for Inactive)
ROOT
ATOM      1  C   UNL d   1       3.141   0.182  -0.177  0.00  0.00     0.077 C 
ATOM      2  C1  UNL d   1       1.675   0.139   0.139  0.00  0.00    -0.074 A 
ATOM      3  C2  UNL d   1       1.148   0.876   1.204  0.00  0.00    -0.005 A 
ATOM      4  C3  UNL d   1      -0.219   0.833   1.480  0.00  0.00     0.006 A 
ATOM      5  C4  UNL d   1      -1.071   0.055   0.695  0.00  0.00    -0.005 A 
ATOM      6  C5  UNL d   1      -0.561  -0.687  -0.376  0.00  0.00    -0.074 A 
ATOM      7  C6  UNL d   1      -1.464  -1.520  -1.236  0.00  0.00     0.077 C 
ATOM      8  C7  UNL d   1       0.812  -0.634  -0.651  0.00  0.00    -0.001 A 
ENDROOT
TORSDOF 0
ENDMDL
