MODEL 1
REMARK minimizedAffinity -2.73452425
REMARK minimizedRMSD -1
REMARK  1 active torsions:
REMARK  status: ('A' for Active; 'I' for Inactive)
REMARK    1  A    between atoms: C1_2  and  C2_3 
ROOT
ATOM      1  C2  UNL d   1       0.115   0.890   1.824  0.00  0.00    -0.076 A 
ATOM      2  C3  UNL d   1       1.062   1.924   1.732  0.00  0.00     0.004 A 
ATOM      3  C4  UNL d   1       1.648   2.253   0.510  0.00  0.00    -0.003 A 
ATOM      4  C5  UNL d   1       1.296   1.553  -0.638  0.00  0.00     0.000 A 
ATOM      5  C6  UNL d   1       0.345   0.536  -0.568  0.00  0.00     0.000 A 
ATOM      6  C7  UNL d   1      -0.268   0.202   0.652  0.00  0.00    -0.073 A 
ATOM      7  C8  UNL d   1      -1.282  -0.908   0.672  0.00  0.00     0.078 C 
ENDROOT
BRANCH   1   8
ATOM      8  C1  UNL d   1      -0.467   0.560   3.180  0.00  0.00     0.053 C 
ATOM      9  C   UNL d   1       0.468   0.930   4.321  0.00  0.00     0.018 C 
ENDBRANCH   1   8
TORSDOF 1
ENDMDL
