MODEL 1
REMARK minimizedAffinity -5.42096806
REMARK minimizedRMSD -1
REMARK  1 active torsions:
REMARK  status: ('A' for Active; 'I' for Inactive)
REMARK    1  A    between atoms: C1_2  and  C2_3 
ROOT
ATOM      1  C2  UNL d   1       0.329   0.537   0.753  0.00  0.00    -0.076 A 
ATOM      2  C3  UNL d   1       0.468   1.708   1.519  0.00  0.00     0.004 A 
ATOM      3  C4  UNL d   1       1.629   2.476   1.451  0.00  0.00    -0.003 A 
ATOM      4  C5  UNL d   1       2.670   2.086   0.616  0.00  0.00     0.000 A 
ATOM      5  C6  UNL d   1       2.543   0.937  -0.164  0.00  0.00     0.000 A 
ATOM      6  C7  UNL d   1       1.372   0.160  -0.120  0.00  0.00    -0.073 A 
ATOM      7  C8  UNL d   1       1.291  -1.072  -0.978  0.00  0.00     0.078 C 
ENDROOT
BRANCH   1   8
ATOM      8  C1  UNL d   1      -0.942  -0.270   0.888  0.00  0.00     0.053 C 
ATOM      9  C   UNL d   1      -1.984   0.423   1.752  0.00  0.00     0.018 C 
ENDBRANCH   1   8
TORSDOF 1
ENDMDL
