MODEL 1
REMARK minimizedAffinity -3.47442794
REMARK minimizedRMSD -1
REMARK  1 active torsions:
REMARK  status: ('A' for Active; 'I' for Inactive)
REMARK    1  A    between atoms: C1_2  and  C2_3 
ROOT
ATOM      1  C2  UNL d   1      -0.297   0.044   0.074  0.00  0.00    -0.076 A 
ATOM      2  C3  UNL d   1       0.496   0.984  -0.608  0.00  0.00     0.004 A 
ATOM      3  C4  UNL d   1       0.995   2.109   0.046  0.00  0.00    -0.003 A 
ATOM      4  C5  UNL d   1       0.711   2.312   1.392  0.00  0.00     0.000 A 
ATOM      5  C6  UNL d   1      -0.059   1.381   2.088  0.00  0.00     0.000 A 
ATOM      6  C7  UNL d   1      -0.557   0.233   1.448  0.00  0.00    -0.073 A 
ATOM      7  C8  UNL d   1      -1.387  -0.735   2.246  0.00  0.00     0.078 C 
ENDROOT
BRANCH   1   8
ATOM      8  C1  UNL d   1      -0.833  -1.143  -0.693  0.00  0.00     0.053 C 
ATOM      9  C   UNL d   1      -0.961  -0.865  -2.183  0.00  0.00     0.018 C 
ENDBRANCH   1   8
TORSDOF 1
ENDMDL
