MODEL 1
REMARK minimizedAffinity -1.43628705
REMARK minimizedRMSD -1
REMARK  1 active torsions:
REMARK  status: ('A' for Active; 'I' for Inactive)
REMARK    1  A    between atoms: C1_2  and  C2_3 
ROOT
ATOM      1  C2  UNL d   1       0.108  -0.331   0.121  0.00  0.00    -0.076 A 
ATOM      2  C3  UNL d   1       0.820   0.721  -0.482  0.00  0.00     0.004 A 
ATOM      3  C4  UNL d   1       0.964   1.949   0.160  0.00  0.00    -0.003 A 
ATOM      4  C5  UNL d   1       0.400   2.146   1.415  0.00  0.00     0.000 A 
ATOM      5  C6  UNL d   1      -0.294   1.108   2.036  0.00  0.00     0.000 A 
ATOM      6  C7  UNL d   1      -0.435  -0.142   1.410  0.00  0.00    -0.073 A 
ATOM      7  C8  UNL d   1      -1.199  -1.224   2.122  0.00  0.00     0.078 C 
ENDROOT
BRANCH   1   8
ATOM      8  C1  UNL d   1      -0.039  -1.633  -0.635  0.00  0.00     0.053 C 
ATOM      9  C   UNL d   1      -0.971  -1.510  -1.830  0.00  0.00     0.018 C 
ENDBRANCH   1   8
TORSDOF 1
ENDMDL
