MODEL 1
REMARK minimizedAffinity -2.0179534
REMARK minimizedRMSD -1
REMARK  1 active torsions:
REMARK  status: ('A' for Active; 'I' for Inactive)
REMARK    1  A    between atoms: C1_2  and  C2_3 
ROOT
ATOM      1  C2  UNL d   1       0.396   0.155   0.077  0.00  0.00    -0.076 A 
ATOM      2  C3  UNL d   1       1.241   1.037  -0.617  0.00  0.00     0.004 A 
ATOM      3  C4  UNL d   1       1.454   2.336  -0.159  0.00  0.00    -0.003 A 
ATOM      4  C5  UNL d   1       0.825   2.773   1.002  0.00  0.00     0.000 A 
ATOM      5  C6  UNL d   1      -0.003   1.906   1.713  0.00  0.00     0.000 A 
ATOM      6  C7  UNL d   1      -0.215   0.588   1.273  0.00  0.00    -0.073 A 
ATOM      7  C8  UNL d   1      -1.123  -0.304   2.076  0.00  0.00     0.078 C 
ENDROOT
BRANCH   1   8
ATOM      8  C1  UNL d   1       0.181  -1.234  -0.483  0.00  0.00     0.053 C 
ATOM      9  C   UNL d   1      -0.970  -1.291  -1.474  0.00  0.00     0.018 C 
ENDBRANCH   1   8
TORSDOF 1
ENDMDL
