MODEL 1
REMARK minimizedAffinity -2.9235549
REMARK minimizedRMSD -1
REMARK  1 active torsions:
REMARK  status: ('A' for Active; 'I' for Inactive)
REMARK    1  A    between atoms: C1_2  and  C2_3 
ROOT
ATOM      1  C2  UNL d   1      -0.198  -0.129   0.070  0.00  0.00    -0.076 A 
ATOM      2  C3  UNL d   1       0.752   0.580  -0.685  0.00  0.00     0.004 A 
ATOM      3  C4  UNL d   1       1.229   1.818  -0.258  0.00  0.00    -0.003 A 
ATOM      4  C5  UNL d   1       0.764   2.367   0.932  0.00  0.00     0.000 A 
ATOM      5  C6  UNL d   1      -0.165   1.669   1.703  0.00  0.00     0.000 A 
ATOM      6  C7  UNL d   1      -0.644   0.412   1.295  0.00  0.00    -0.073 A 
ATOM      7  C8  UNL d   1      -1.650  -0.293   2.162  0.00  0.00     0.078 C 
ENDROOT
BRANCH   1   8
ATOM      8  C1  UNL d   1      -0.699  -1.454  -0.457  0.00  0.00     0.053 C 
ATOM      9  C   UNL d   1      -0.932  -1.434  -1.960  0.00  0.00     0.018 C 
ENDBRANCH   1   8
TORSDOF 1
ENDMDL
