MODEL 1
REMARK minimizedAffinity -2.63109326
REMARK minimizedRMSD -1
REMARK  1 active torsions:
REMARK  status: ('A' for Active; 'I' for Inactive)
REMARK    1  A    between atoms: C1_2  and  C2_3 
ROOT
ATOM      1  C2  UNL d   1       0.517   0.306   0.186  0.00  0.00    -0.076 A 
ATOM      2  C3  UNL d   1       1.904   0.329  -0.041  0.00  0.00     0.004 A 
ATOM      3  C4  UNL d   1       2.759   1.026   0.810  0.00  0.00    -0.003 A 
ATOM      4  C5  UNL d   1       2.241   1.712   1.903  0.00  0.00     0.000 A 
ATOM      5  C6  UNL d   1       0.870   1.685   2.154  0.00  0.00     0.000 A 
ATOM      6  C7  UNL d   1      -0.004   0.973   1.315  0.00  0.00    -0.073 A 
ATOM      7  C8  UNL d   1      -1.475   0.984   1.630  0.00  0.00     0.078 C 
ENDROOT
BRANCH   1   8
ATOM      8  C1  UNL d   1      -0.364  -0.445  -0.786  0.00  0.00     0.053 C 
ATOM      9  C   UNL d   1      -0.411  -1.937  -0.497  0.00  0.00     0.018 C 
ENDBRANCH   1   8
TORSDOF 1
ENDMDL
