MODEL 1
REMARK minimizedAffinity -2.5843246
REMARK minimizedRMSD -1
REMARK  1 active torsions:
REMARK  status: ('A' for Active; 'I' for Inactive)
REMARK    1  A    between atoms: C1_2  and  C2_3 
ROOT
ATOM      1  C2  UNL d   1      -1.475  -2.613  -1.803  0.00  0.00    -0.076 A 
ATOM      2  C3  UNL d   1      -2.539  -3.193  -1.090  0.00  0.00     0.004 A 
ATOM      3  C4  UNL d   1      -3.801  -3.327  -1.667  0.00  0.00    -0.003 A 
ATOM      4  C5  UNL d   1      -4.020  -2.883  -2.967  0.00  0.00     0.000 A 
ATOM      5  C6  UNL d   1      -2.971  -2.321  -3.695  0.00  0.00     0.000 A 
ATOM      6  C7  UNL d   1      -1.689  -2.193  -3.134  0.00  0.00    -0.073 A 
ATOM      7  C8  UNL d   1      -0.597  -1.574  -3.962  0.00  0.00     0.078 C 
ENDROOT
BRANCH   1   8
ATOM      8  C1  UNL d   1      -0.136  -2.469  -1.116  0.00  0.00     0.053 C 
ATOM      9  C   UNL d   1      -0.060  -1.228  -0.241  0.00  0.00     0.018 C 
ENDBRANCH   1   8
TORSDOF 1
ENDMDL
