MODEL 1
REMARK minimizedAffinity -2.88059378
REMARK minimizedRMSD -1
REMARK  1 active torsions:
REMARK  status: ('A' for Active; 'I' for Inactive)
REMARK    1  A    between atoms: C1_2  and  C2_3 
ROOT
ATOM      1  C2  UNL d   1       0.347   0.115   0.367  0.00  0.00    -0.076 A 
ATOM      2  C3  UNL d   1       0.971   1.132  -0.376  0.00  0.00     0.004 A 
ATOM      3  C4  UNL d   1       1.294   2.355   0.212  0.00  0.00    -0.003 A 
ATOM      4  C5  UNL d   1       0.998   2.579   1.552  0.00  0.00     0.000 A 
ATOM      5  C6  UNL d   1       0.395   1.574   2.308  0.00  0.00     0.000 A 
ATOM      6  C7  UNL d   1       0.078   0.331   1.736  0.00  0.00    -0.073 A 
ATOM      7  C8  UNL d   1      -0.577  -0.715   2.597  0.00  0.00     0.078 C 
ENDROOT
BRANCH   1   8
ATOM      8  C1  UNL d   1      -0.004  -1.180  -0.331  0.00  0.00     0.053 C 
ATOM      9  C   UNL d   1      -1.424  -1.182  -0.875  0.00  0.00     0.018 C 
ENDBRANCH   1   8
TORSDOF 1
ENDMDL
