MODEL 1
REMARK minimizedAffinity -2.10179591
REMARK minimizedRMSD -1
REMARK  1 active torsions:
REMARK  status: ('A' for Active; 'I' for Inactive)
REMARK    1  A    between atoms: C1_2  and  C2_3 
ROOT
ATOM      1  C2  UNL d   1      -0.363  -0.682  -0.091  0.00  0.00    -0.076 A 
ATOM      2  C3  UNL d   1       0.866  -0.568  -0.763  0.00  0.00     0.004 A 
ATOM      3  C4  UNL d   1       1.845   0.320  -0.323  0.00  0.00    -0.003 A 
ATOM      4  C5  UNL d   1       1.612   1.109   0.798  0.00  0.00     0.000 A 
ATOM      5  C6  UNL d   1       0.406   0.996   1.489  0.00  0.00     0.000 A 
ATOM      6  C7  UNL d   1      -0.586   0.094   1.067  0.00  0.00    -0.073 A 
ATOM      7  C8  UNL d   1      -1.871   0.018   1.845  0.00  0.00     0.078 C 
ENDROOT
BRANCH   1   8
ATOM      8  C1  UNL d   1      -1.398  -1.643  -0.631  0.00  0.00     0.053 C 
ATOM      9  C   UNL d   1      -1.646  -1.456  -2.119  0.00  0.00     0.018 C 
ENDBRANCH   1   8
TORSDOF 1
ENDMDL
