MODEL 1
REMARK minimizedAffinity 3.505162
REMARK minimizedRMSD -1
REMARK  1 active torsions:
REMARK  status: ('A' for Active; 'I' for Inactive)
REMARK    1  A    between atoms: C1_2  and  C2_3 
ROOT
ATOM      1  C2  UNL d   1      -1.849  -0.980  -1.801  0.00  0.00    -0.076 A 
ATOM      2  C3  UNL d   1      -2.101  -1.111  -0.425  0.00  0.00     0.004 A 
ATOM      3  C4  UNL d   1      -1.093  -0.894   0.513  0.00  0.00    -0.003 A 
ATOM      4  C5  UNL d   1       0.184  -0.543   0.089  0.00  0.00     0.000 A 
ATOM      5  C6  UNL d   1       0.447  -0.391  -1.271  0.00  0.00     0.000 A 
ATOM      6  C7  UNL d   1      -0.562  -0.590  -2.229  0.00  0.00    -0.073 A 
ATOM      7  C8  UNL d   1      -0.220  -0.419  -3.684  0.00  0.00     0.078 C 
ENDROOT
BRANCH   1   8
ATOM      8  C1  UNL d   1      -2.975  -1.253  -2.773  0.00  0.00     0.053 C 
ATOM      9  C   UNL d   1      -3.798  -2.471  -2.383  0.00  0.00     0.018 C 
ENDBRANCH   1   8
TORSDOF 1
ENDMDL
