MODEL 1
REMARK minimizedAffinity -2.07129073
REMARK minimizedRMSD -1
REMARK  1 active torsions:
REMARK  status: ('A' for Active; 'I' for Inactive)
REMARK    1  A    between atoms: C1_2  and  C2_3 
ROOT
ATOM      1  C2  UNL d   1       0.484   0.942   0.929  0.00  0.00    -0.076 A 
ATOM      2  C3  UNL d   1       1.359   0.966  -0.171  0.00  0.00     0.004 A 
ATOM      3  C4  UNL d   1       1.265   0.013  -1.183  0.00  0.00    -0.003 A 
ATOM      4  C5  UNL d   1       0.294  -0.980  -1.112  0.00  0.00     0.000 A 
ATOM      5  C6  UNL d   1      -0.593  -1.009  -0.036  0.00  0.00     0.000 A 
ATOM      6  C7  UNL d   1      -0.523  -0.045   0.984  0.00  0.00    -0.073 A 
ATOM      7  C8  UNL d   1      -1.501  -0.127   2.124  0.00  0.00     0.078 C 
ENDROOT
BRANCH   1   8
ATOM      8  C1  UNL d   1       0.651   1.986   2.010  0.00  0.00     0.053 C 
ATOM      9  C   UNL d   1       1.511   3.158   1.561  0.00  0.00     0.018 C 
ENDBRANCH   1   8
TORSDOF 1
ENDMDL
