MODEL 1
REMARK minimizedAffinity -3.76873183
REMARK minimizedRMSD -1
REMARK  1 active torsions:
REMARK  status: ('A' for Active; 'I' for Inactive)
REMARK    1  A    between atoms: C1_2  and  C2_3 
ROOT
ATOM      1  C2  UNL d   1       0.100   0.918   0.904  0.00  0.00    -0.076 A 
ATOM      2  C3  UNL d   1       1.164   0.392   0.151  0.00  0.00     0.004 A 
ATOM      3  C4  UNL d   1       1.004  -0.768  -0.605  0.00  0.00    -0.003 A 
ATOM      4  C5  UNL d   1      -0.224  -1.421  -0.620  0.00  0.00     0.000 A 
ATOM      5  C6  UNL d   1      -1.295  -0.904   0.108  0.00  0.00     0.000 A 
ATOM      6  C7  UNL d   1      -1.155   0.274   0.862  0.00  0.00    -0.073 A 
ATOM      7  C8  UNL d   1      -2.342   0.783   1.632  0.00  0.00     0.078 C 
ENDROOT
BRANCH   1   8
ATOM      8  C1  UNL d   1       0.341   2.164   1.726  0.00  0.00     0.053 C 
ATOM      9  C   UNL d   1       1.785   2.636   1.659  0.00  0.00     0.018 C 
ENDBRANCH   1   8
TORSDOF 1
ENDMDL
