MODEL 1
REMARK minimizedAffinity 10.9358864
REMARK minimizedRMSD -1
REMARK  0 active torsions:
REMARK  status: ('A' for Active; 'I' for Inactive)
ROOT
ATOM      1  C1  DEN d   1      -3.891   2.201  -2.316  0.00  0.00     0.130 A 
ATOM      2  C2  DEN d   1      -2.610   1.597  -1.960  0.00  0.00    -0.031 A 
ATOM      3  C3  DEN d   1      -2.420   1.754  -0.504  0.00  0.00     0.027 A 
ATOM      4  C4  DEN d   1      -3.978   2.865   1.225  0.00  0.00     0.027 A 
ATOM      5  C5  DEN d   1      -5.172   3.530   1.397  0.00  0.00    -0.003 A 
ATOM      6  C6  DEN d   1      -6.000   3.826   0.346  0.00  0.00     0.001 A 
ATOM      7  C7  DEN d   1      -5.666   3.417  -0.918  0.00  0.00     0.017 A 
ATOM      8  C8  DEN d   1      -4.460   2.752  -1.099  0.00  0.00    -0.094 A 
ATOM      9  C9  DEN d   1      -3.643   2.451  -0.023  0.00  0.00    -0.072 A 
ENDROOT
TORSDOF 0
ENDMDL
