MODEL 1
REMARK minimizedAffinity 7.60948753
REMARK minimizedRMSD -1
REMARK  0 active torsions:
REMARK  status: ('A' for Active; 'I' for Inactive)
ROOT
ATOM      1  C1  DEN d   1       2.206  -5.953  -5.011  0.00  0.00     0.130 A 
ATOM      2  C2  DEN d   1       3.334  -5.981  -5.938  0.00  0.00    -0.031 A 
ATOM      3  C3  DEN d   1       4.578  -5.996  -5.144  0.00  0.00     0.027 A 
ATOM      4  C4  DEN d   1       4.868  -5.984  -2.581  0.00  0.00     0.027 A 
ATOM      5  C5  DEN d   1       4.201  -5.951  -1.376  0.00  0.00    -0.003 A 
ATOM      6  C6  DEN d   1       2.835  -5.882  -1.299  0.00  0.00     0.001 A 
ATOM      7  C7  DEN d   1       2.089  -5.890  -2.448  0.00  0.00     0.017 A 
ATOM      8  C8  DEN d   1       2.755  -5.916  -3.667  0.00  0.00    -0.094 A 
ATOM      9  C9  DEN d   1       4.135  -5.998  -3.724  0.00  0.00    -0.072 A 
ENDROOT
TORSDOF 0
ENDMDL
