MODEL 1
REMARK minimizedAffinity 3.83547235
REMARK minimizedRMSD -1
REMARK  0 active torsions:
REMARK  status: ('A' for Active; 'I' for Inactive)
ROOT
ATOM      1  C1  DEN d   1       2.764   1.048   1.584  0.00  0.00     0.130 A 
ATOM      2  C2  DEN d   1       2.717   2.286   2.358  0.00  0.00    -0.031 A 
ATOM      3  C3  DEN d   1       2.177   1.968   3.695  0.00  0.00     0.027 A 
ATOM      4  C4  DEN d   1       1.417  -0.309   4.638  0.00  0.00     0.027 A 
ATOM      5  C5  DEN d   1       1.258  -1.647   4.351  0.00  0.00    -0.003 A 
ATOM      6  C6  DEN d   1       1.556  -2.170   3.120  0.00  0.00     0.001 A 
ATOM      7  C7  DEN d   1       2.071  -1.358   2.144  0.00  0.00     0.017 A 
ATOM      8  C8  DEN d   1       2.227  -0.007   2.424  0.00  0.00    -0.094 A 
ATOM      9  C9  DEN d   1       1.932   0.501   3.678  0.00  0.00    -0.072 A 
ENDROOT
TORSDOF 0
ENDMDL
