MODEL 1
REMARK minimizedAffinity 0.579471767
REMARK minimizedRMSD -1
REMARK  0 active torsions:
REMARK  status: ('A' for Active; 'I' for Inactive)
ROOT
ATOM      1  C1  DEN d   1       1.431  -1.075   4.088  0.00  0.00     0.130 A 
ATOM      2  C2  DEN d   1       1.557  -0.855   2.650  0.00  0.00    -0.031 A 
ATOM      3  C3  DEN d   1       1.994  -2.122   2.030  0.00  0.00     0.027 A 
ATOM      4  C4  DEN d   1       2.478  -4.394   3.153  0.00  0.00     0.027 A 
ATOM      5  C5  DEN d   1       2.521  -5.066   4.354  0.00  0.00    -0.003 A 
ATOM      6  C6  DEN d   1       2.238  -4.451   5.545  0.00  0.00     0.001 A 
ATOM      7  C7  DEN d   1       1.856  -3.135   5.556  0.00  0.00     0.017 A 
ATOM      8  C8  DEN d   1       1.818  -2.449   4.349  0.00  0.00    -0.094 A 
ATOM      9  C9  DEN d   1       2.096  -3.092   3.155  0.00  0.00    -0.072 A 
ENDROOT
TORSDOF 0
ENDMDL
