MODEL 1
REMARK minimizedAffinity 8.53658104
REMARK minimizedRMSD -1
REMARK  0 active torsions:
REMARK  status: ('A' for Active; 'I' for Inactive)
ROOT
ATOM      1  C1  DEN d   1      -5.014   2.628  -3.256  0.00  0.00     0.130 A 
ATOM      2  C2  DEN d   1      -3.750   1.947  -3.525  0.00  0.00    -0.031 A 
ATOM      3  C3  DEN d   1      -2.997   1.867  -2.257  0.00  0.00     0.027 A 
ATOM      4  C4  DEN d   1      -3.664   2.721   0.084  0.00  0.00     0.027 A 
ATOM      5  C5  DEN d   1      -4.638   3.375   0.804  0.00  0.00    -0.003 A 
ATOM      6  C6  DEN d   1      -5.782   3.852   0.221  0.00  0.00     0.001 A 
ATOM      7  C7  DEN d   1      -6.000   3.642  -1.115  0.00  0.00     0.017 A 
ATOM      8  C8  DEN d   1      -5.019   2.990  -1.850  0.00  0.00    -0.094 A 
ATOM      9  C9  DEN d   1      -3.875   2.504  -1.239  0.00  0.00    -0.072 A 
ENDROOT
TORSDOF 0
ENDMDL
