MODEL 1
REMARK minimizedAffinity 7.62734461
REMARK minimizedRMSD -1
REMARK  0 active torsions:
REMARK  status: ('A' for Active; 'I' for Inactive)
ROOT
ATOM      1  C1  DEN d   1       4.384  -3.433   5.117  0.00  0.00     0.130 A 
ATOM      2  C2  DEN d   1       5.610  -3.085   4.405  0.00  0.00    -0.031 A 
ATOM      3  C3  DEN d   1       5.231  -2.465   3.119  0.00  0.00     0.027 A 
ATOM      4  C4  DEN d   1       2.877  -2.007   2.170  0.00  0.00     0.027 A 
ATOM      5  C5  DEN d   1       1.527  -2.138   2.407  0.00  0.00    -0.003 A 
ATOM      6  C6  DEN d   1       1.038  -2.735   3.538  0.00  0.00     0.001 A 
ATOM      7  C7  DEN d   1       1.906  -3.183   4.498  0.00  0.00     0.017 A 
ATOM      8  C8  DEN d   1       3.270  -3.062   4.263  0.00  0.00    -0.094 A 
ATOM      9  C9  DEN d   1       3.744  -2.445   3.118  0.00  0.00    -0.072 A 
ENDROOT
TORSDOF 0
ENDMDL
