MODEL 1
REMARK minimizedAffinity 9.42439175
REMARK minimizedRMSD -1
REMARK  0 active torsions:
REMARK  status: ('A' for Active; 'I' for Inactive)
ROOT
ATOM      1  C1  DEN d   1      -2.781  -0.699  -2.741  0.00  0.00     0.130 A 
ATOM      2  C2  DEN d   1      -3.392  -0.034  -3.888  0.00  0.00    -0.031 A 
ATOM      3  C3  DEN d   1      -3.527   1.400  -3.566  0.00  0.00     0.027 A 
ATOM      4  C4  DEN d   1      -2.846   2.651  -1.415  0.00  0.00     0.027 A 
ATOM      5  C5  DEN d   1      -2.299   2.509  -0.159  0.00  0.00    -0.003 A 
ATOM      6  C6  DEN d   1      -1.909   1.292   0.333  0.00  0.00     0.001 A 
ATOM      7  C7  DEN d   1      -2.018   0.175  -0.452  0.00  0.00     0.017 A 
ATOM      8  C8  DEN d   1      -2.576   0.309  -1.717  0.00  0.00    -0.094 A 
ATOM      9  C9  DEN d   1      -2.953   1.550  -2.201  0.00  0.00    -0.072 A 
ENDROOT
TORSDOF 0
ENDMDL
