MODEL 1
REMARK minimizedAffinity 1.28627169
REMARK minimizedRMSD -1
REMARK  0 active torsions:
REMARK  status: ('A' for Active; 'I' for Inactive)
ROOT
ATOM      1  C1  DEN d   1       1.431   0.155   1.694  0.00  0.00     0.130 A 
ATOM      2  C2  DEN d   1       2.663   0.519   0.999  0.00  0.00    -0.031 A 
ATOM      3  C3  DEN d   1       3.700  -0.467   1.360  0.00  0.00     0.027 A 
ATOM      4  C4  DEN d   1       3.519  -2.516   2.917  0.00  0.00     0.027 A 
ATOM      5  C5  DEN d   1       2.677  -3.226   3.744  0.00  0.00    -0.003 A 
ATOM      6  C6  DEN d   1       1.382  -2.843   3.971  0.00  0.00     0.001 A 
ATOM      7  C7  DEN d   1       0.876  -1.744   3.327  0.00  0.00     0.017 A 
ATOM      8  C8  DEN d   1       1.721  -1.019   2.498  0.00  0.00    -0.094 A 
ATOM      9  C9  DEN d   1       3.024  -1.429   2.272  0.00  0.00    -0.072 A 
ENDROOT
TORSDOF 0
ENDMDL
