MODEL 1
REMARK minimizedAffinity 7.82515955
REMARK minimizedRMSD -1
REMARK  0 active torsions:
REMARK  status: ('A' for Active; 'I' for Inactive)
ROOT
ATOM      1  C1  DEN d   1       1.467  -5.998  -4.207  0.00  0.00     0.130 A 
ATOM      2  C2  DEN d   1       2.206  -5.997  -5.466  0.00  0.00    -0.031 A 
ATOM      3  C3  DEN d   1       3.648  -5.984  -5.148  0.00  0.00     0.027 A 
ATOM      4  C4  DEN d   1       4.802  -5.969  -2.842  0.00  0.00     0.027 A 
ATOM      5  C5  DEN d   1       4.590  -5.953  -1.481  0.00  0.00    -0.003 A 
ATOM      6  C6  DEN d   1       3.333  -5.918  -0.938  0.00  0.00     0.001 A 
ATOM      7  C7  DEN d   1       2.237  -5.942  -1.760  0.00  0.00     0.017 A 
ATOM      8  C8  DEN d   1       2.443  -5.950  -3.133  0.00  0.00    -0.094 A 
ATOM      9  C9  DEN d   1       3.722  -5.998  -3.663  0.00  0.00    -0.072 A 
ENDROOT
TORSDOF 0
ENDMDL
