MODEL 1
REMARK minimizedAffinity 4.53448153
REMARK minimizedRMSD -1
REMARK  0 active torsions:
REMARK  status: ('A' for Active; 'I' for Inactive)
ROOT
ATOM      1  C1  DEN d   1       5.698  -5.801  -3.267  0.00  0.00     0.130 A 
ATOM      2  C2  DEN d   1       5.559  -5.854  -4.720  0.00  0.00    -0.031 A 
ATOM      3  C3  DEN d   1       4.119  -5.943  -5.037  0.00  0.00     0.027 A 
ATOM      4  C4  DEN d   1       2.104  -5.999  -3.429  0.00  0.00     0.027 A 
ATOM      5  C5  DEN d   1       1.723  -5.990  -2.105  0.00  0.00    -0.003 A 
ATOM      6  C6  DEN d   1       2.635  -5.953  -1.084  0.00  0.00     0.001 A 
ATOM      7  C7  DEN d   1       3.972  -5.877  -1.370  0.00  0.00     0.017 A 
ATOM      8  C8  DEN d   1       4.364  -5.892  -2.702  0.00  0.00    -0.094 A 
ATOM      9  C9  DEN d   1       3.427  -5.919  -3.721  0.00  0.00    -0.072 A 
ENDROOT
TORSDOF 0
ENDMDL
