MODEL 1
REMARK minimizedAffinity -3.64471865
REMARK minimizedRMSD -1
REMARK  0 active torsions:
REMARK  status: ('A' for Active; 'I' for Inactive)
ROOT
ATOM      1  C1  DEN d   1       3.061   0.989   1.434  0.00  0.00     0.130 A 
ATOM      2  C2  DEN d   1       2.963   1.220  -0.004  0.00  0.00    -0.031 A 
ATOM      3  C3  DEN d   1       2.039   0.215  -0.567  0.00  0.00     0.027 A 
ATOM      4  C4  DEN d   1       0.754  -1.665   0.644  0.00  0.00     0.027 A 
ATOM      5  C5  DEN d   1       0.526  -2.264   1.863  0.00  0.00    -0.003 A 
ATOM      6  C6  DEN d   1       1.148  -1.846   3.010  0.00  0.00     0.001 A 
ATOM      7  C7  DEN d   1       1.994  -0.769   2.969  0.00  0.00     0.017 A 
ATOM      8  C8  DEN d   1       2.235  -0.165   1.742  0.00  0.00    -0.094 A 
ATOM      9  C9  DEN d   1       1.587  -0.595   0.596  0.00  0.00    -0.072 A 
ENDROOT
TORSDOF 0
ENDMDL
