MODEL 1
REMARK minimizedAffinity 12.6696711
REMARK minimizedRMSD -1
REMARK  0 active torsions:
REMARK  status: ('A' for Active; 'I' for Inactive)
ROOT
ATOM      1  C1  DEN d   1      -4.082   3.445  -0.554  0.00  0.00     0.130 A 
ATOM      2  C2  DEN d   1      -5.074   4.365  -0.003  0.00  0.00    -0.031 A 
ATOM      3  C3  DEN d   1      -6.000   4.742  -1.089  0.00  0.00     0.027 A 
ATOM      4  C4  DEN d   1      -5.997   3.993  -3.557  0.00  0.00     0.027 A 
ATOM      5  C5  DEN d   1      -5.343   3.228  -4.497  0.00  0.00    -0.003 A 
ATOM      6  C6  DEN d   1      -4.213   2.514  -4.200  0.00  0.00     0.001 A 
ATOM      7  C7  DEN d   1      -3.727   2.515  -2.919  0.00  0.00     0.017 A 
ATOM      8  C8  DEN d   1      -4.377   3.290  -1.967  0.00  0.00    -0.094 A 
ATOM      9  C9  DEN d   1      -5.525   3.995  -2.285  0.00  0.00    -0.072 A 
ENDROOT
TORSDOF 0
ENDMDL
