MODEL 1
REMARK minimizedAffinity 2.13554692
REMARK minimizedRMSD -1
REMARK  0 active torsions:
REMARK  status: ('A' for Active; 'I' for Inactive)
ROOT
ATOM      1  C4' PXY d   1       5.996  -5.992  -5.349  0.00  0.00     0.077 C 
ATOM      2  C1' PXY d   1       2.338  -5.985  -0.873  0.00  0.00     0.077 C 
ATOM      3  C1  PXY d   1       3.307  -5.981  -2.039  0.00  0.00    -0.082 A 
ATOM      4  C2  PXY d   1       2.840  -5.969  -3.277  0.00  0.00     0.003 A 
ATOM      5  C3  PXY d   1       3.701  -5.999  -4.343  0.00  0.00     0.003 A 
ATOM      6  C4  PXY d   1       5.055  -5.986  -4.141  0.00  0.00    -0.082 A 
ATOM      7  C5  PXY d   1       5.540  -5.988  -2.881  0.00  0.00     0.003 A 
ATOM      8  C6  PXY d   1       4.648  -6.000  -1.812  0.00  0.00     0.003 A 
ENDROOT
TORSDOF 0
ENDMDL
