MODEL 1
REMARK minimizedAffinity 8.23882675
REMARK minimizedRMSD -1
REMARK  0 active torsions:
REMARK  status: ('A' for Active; 'I' for Inactive)
ROOT
ATOM      1  C4' PXY d   1       0.757  -6.000   5.999  0.00  0.00     0.077 C 
ATOM      2  C1' PXY d   1       1.946  -1.444   2.645  0.00  0.00     0.077 C 
ATOM      3  C1  PXY d   1       1.637  -2.647   3.515  0.00  0.00    -0.082 A 
ATOM      4  C2  PXY d   1       0.801  -2.521   4.532  0.00  0.00     0.003 A 
ATOM      5  C3  PXY d   1       0.536  -3.590   5.348  0.00  0.00     0.003 A 
ATOM      6  C4  PXY d   1       1.091  -4.815   5.088  0.00  0.00    -0.082 A 
ATOM      7  C5  PXY d   1       1.936  -4.954   4.046  0.00  0.00     0.003 A 
ATOM      8  C6  PXY d   1       2.225  -3.846   3.254  0.00  0.00     0.003 A 
ENDROOT
TORSDOF 0
ENDMDL
