MODEL 1
REMARK minimizedAffinity 4.91822815
REMARK minimizedRMSD -1
REMARK  0 active torsions:
REMARK  status: ('A' for Active; 'I' for Inactive)
ROOT
ATOM      1  C4' PXY d   1      -0.410  -1.297   0.339  0.00  0.00     0.077 C 
ATOM      2  C1' PXY d   1       3.073  -4.389   3.763  0.00  0.00     0.077 C 
ATOM      3  C1  PXY d   1       2.158  -3.570   2.874  0.00  0.00    -0.082 A 
ATOM      4  C2  PXY d   1       1.537  -4.151   1.861  0.00  0.00     0.003 A 
ATOM      5  C3  PXY d   1       0.731  -3.418   1.028  0.00  0.00     0.003 A 
ATOM      6  C4  PXY d   1       0.516  -2.088   1.267  0.00  0.00    -0.082 A 
ATOM      7  C5  PXY d   1       1.137  -1.489   2.306  0.00  0.00     0.003 A 
ATOM      8  C6  PXY d   1       1.984  -2.242   3.114  0.00  0.00     0.003 A 
ENDROOT
TORSDOF 0
ENDMDL
