MODEL 1
REMARK minimizedAffinity -0.238195345
REMARK minimizedRMSD -1
REMARK  0 active torsions:
REMARK  status: ('A' for Active; 'I' for Inactive)
ROOT
ATOM      1  C4' PXY d   1       1.958  -5.925  -6.000  0.00  0.00     0.077 C 
ATOM      2  C1' PXY d   1       4.763  -5.999  -0.946  0.00  0.00     0.077 C 
ATOM      3  C1  PXY d   1       4.016  -5.985  -2.265  0.00  0.00    -0.082 A 
ATOM      4  C2  PXY d   1       4.696  -5.998  -3.401  0.00  0.00     0.003 A 
ATOM      5  C3  PXY d   1       4.038  -5.953  -4.603  0.00  0.00     0.003 A 
ATOM      6  C4  PXY d   1       2.669  -5.948  -4.644  0.00  0.00    -0.082 A 
ATOM      7  C5  PXY d   1       1.969  -5.945  -3.490  0.00  0.00     0.003 A 
ATOM      8  C6  PXY d   1       2.656  -5.950  -2.280  0.00  0.00     0.003 A 
ENDROOT
TORSDOF 0
ENDMDL
