MODEL 1
REMARK minimizedAffinity 1.09114242
REMARK minimizedRMSD -1
REMARK  0 active torsions:
REMARK  status: ('A' for Active; 'I' for Inactive)
ROOT
ATOM      1  C4' PXY d   1       2.085   0.283   2.704  0.00  0.00     0.077 C 
ATOM      2  C1' PXY d   1       2.357  -4.987   5.064  0.00  0.00     0.077 C 
ATOM      3  C1  PXY d   1       2.282  -3.611   4.434  0.00  0.00    -0.082 A 
ATOM      4  C2  PXY d   1       2.995  -2.619   4.942  0.00  0.00     0.003 A 
ATOM      5  C3  PXY d   1       2.915  -1.360   4.404  0.00  0.00     0.003 A 
ATOM      6  C4  PXY d   1       2.137  -1.126   3.302  0.00  0.00    -0.082 A 
ATOM      7  C5  PXY d   1       1.415  -2.135   2.771  0.00  0.00     0.003 A 
ATOM      8  C6  PXY d   1       1.479  -3.396   3.357  0.00  0.00     0.003 A 
ENDROOT
TORSDOF 0
ENDMDL
