MODEL 1
REMARK minimizedAffinity -5.17022133
REMARK minimizedRMSD -1
REMARK  0 active torsions:
REMARK  status: ('A' for Active; 'I' for Inactive)
ROOT
ATOM      1  C   UNL d   1      -2.851  -1.854   0.226  0.00  0.00     0.020 A 
ATOM      2  C1  UNL d   1      -1.967  -2.318   1.199  0.00  0.00     0.020 A 
ATOM      3  C2  UNL d   1      -0.694  -1.757   1.310  0.00  0.00     0.034 A 
ATOM      4  C3  UNL d   1      -0.300  -0.728   0.446  0.00  0.00     0.017 A 
ATOM      5  C4  UNL d   1      -1.188  -0.263  -0.530  0.00  0.00     0.017 A 
ATOM      6  C5  UNL d   1      -2.462  -0.828  -0.637  0.00  0.00     0.034 A 
ATOM      7 Cl   UNL d   1      -0.774   1.003  -1.632  0.00  0.00    -0.070 Cl
ATOM      8 Cl1  UNL d   1       1.290  -0.081   0.641  0.00  0.00    -0.070 Cl
ENDROOT
TORSDOF 0
ENDMDL
