MODEL 1
REMARK minimizedAffinity -1.98560739
REMARK minimizedRMSD -1
REMARK  0 active torsions:
REMARK  status: ('A' for Active; 'I' for Inactive)
ROOT
ATOM      1  C   UNL d   1      -2.884  -0.650  -0.481  0.00  0.00     0.020 A 
ATOM      2  C1  UNL d   1      -2.386  -0.429   0.802  0.00  0.00     0.020 A 
ATOM      3  C2  UNL d   1      -1.066  -0.006   0.975  0.00  0.00     0.034 A 
ATOM      4  C3  UNL d   1      -0.240   0.196  -0.136  0.00  0.00     0.017 A 
ATOM      5  C4  UNL d   1      -0.742  -0.026  -1.424  0.00  0.00     0.017 A 
ATOM      6  C5  UNL d   1      -2.064  -0.449  -1.592  0.00  0.00     0.034 A 
ATOM      7 Cl   UNL d   1       0.217   0.202  -2.844  0.00  0.00    -0.070 Cl
ATOM      8 Cl1  UNL d   1       1.381   0.719   0.152  0.00  0.00    -0.070 Cl
ENDROOT
TORSDOF 0
ENDMDL
