MODEL 1
REMARK minimizedAffinity 0.502640963
REMARK minimizedRMSD -1
REMARK  0 active torsions:
REMARK  status: ('A' for Active; 'I' for Inactive)
ROOT
ATOM      1  C   UNL d   1      -2.807  -1.763   0.913  0.00  0.00     0.020 A 
ATOM      2  C1  UNL d   1      -1.821  -0.902   1.393  0.00  0.00     0.020 A 
ATOM      3  C2  UNL d   1      -0.992  -0.222   0.499  0.00  0.00     0.034 A 
ATOM      4  C3  UNL d   1      -1.147  -0.402  -0.880  0.00  0.00     0.017 A 
ATOM      5  C4  UNL d   1      -2.137  -1.267  -1.362  0.00  0.00     0.017 A 
ATOM      6  C5  UNL d   1      -2.965  -1.945  -0.461  0.00  0.00     0.034 A 
ATOM      7 Cl   UNL d   1      -2.389  -1.540  -3.050  0.00  0.00    -0.070 Cl
ATOM      8 Cl1  UNL d   1      -0.086   0.471  -1.929  0.00  0.00    -0.070 Cl
ENDROOT
TORSDOF 0
ENDMDL
