MODEL 1
REMARK minimizedAffinity -5.27920103
REMARK minimizedRMSD -1
REMARK  0 active torsions:
REMARK  status: ('A' for Active; 'I' for Inactive)
ROOT
ATOM      1  C   UNL d   1      -3.079  -0.223  -0.829  0.00  0.00     0.020 A 
ATOM      2  C1  UNL d   1      -3.541  -1.249  -0.006  0.00  0.00     0.020 A 
ATOM      3  C2  UNL d   1      -2.641  -1.972   0.781  0.00  0.00     0.034 A 
ATOM      4  C3  UNL d   1      -1.275  -1.669   0.746  0.00  0.00     0.017 A 
ATOM      5  C4  UNL d   1      -0.812  -0.639  -0.081  0.00  0.00     0.017 A 
ATOM      6  C5  UNL d   1      -1.718   0.081  -0.866  0.00  0.00     0.034 A 
ATOM      7 Cl   UNL d   1       0.858  -0.207  -0.178  0.00  0.00    -0.070 Cl
ATOM      8 Cl1  UNL d   1      -0.219  -2.603   1.745  0.00  0.00    -0.070 Cl
ENDROOT
TORSDOF 0
ENDMDL
