MODEL 1
REMARK minimizedAffinity -3.08836341
REMARK minimizedRMSD -1
REMARK  0 active torsions:
REMARK  status: ('A' for Active; 'I' for Inactive)
ROOT
ATOM      1  C   UNL d   1       0.943   0.463  -0.441  0.00  0.00     0.020 A 
ATOM      2  C1  UNL d   1      -0.079   0.754  -1.344  0.00  0.00     0.020 A 
ATOM      3  C2  UNL d   1      -1.334   0.162  -1.193  0.00  0.00     0.034 A 
ATOM      4  C3  UNL d   1      -1.572  -0.724  -0.135  0.00  0.00     0.017 A 
ATOM      5  C4  UNL d   1      -0.546  -1.016   0.771  0.00  0.00     0.017 A 
ATOM      6  C5  UNL d   1       0.710  -0.420   0.614  0.00  0.00     0.034 A 
ATOM      7 Cl   UNL d   1      -0.763  -2.099   2.100  0.00  0.00    -0.070 Cl
ATOM      8 Cl1  UNL d   1      -3.148  -1.420  -0.009  0.00  0.00    -0.070 Cl
ENDROOT
TORSDOF 0
ENDMDL
