MODEL 1
REMARK minimizedAffinity -3.03212547
REMARK minimizedRMSD -1
REMARK  0 active torsions:
REMARK  status: ('A' for Active; 'I' for Inactive)
ROOT
ATOM      1  C   UNL d   1       0.574   0.490  -1.056  0.00  0.00     0.020 A 
ATOM      2  C1  UNL d   1       1.363  -0.030  -0.032  0.00  0.00     0.020 A 
ATOM      3  C2  UNL d   1       0.793  -0.859   0.937  0.00  0.00     0.034 A 
ATOM      4  C3  UNL d   1      -0.571  -1.169   0.883  0.00  0.00     0.017 A 
ATOM      5  C4  UNL d   1      -1.363  -0.646  -0.146  0.00  0.00     0.017 A 
ATOM      6  C5  UNL d   1      -0.786   0.183  -1.113  0.00  0.00     0.034 A 
ATOM      7 Cl   UNL d   1      -3.053  -0.984  -0.278  0.00  0.00    -0.070 Cl
ATOM      8 Cl1  UNL d   1      -1.209  -2.200   2.114  0.00  0.00    -0.070 Cl
ENDROOT
TORSDOF 0
ENDMDL
