MODEL 1
REMARK minimizedAffinity -1.22313166
REMARK minimizedRMSD -1
REMARK  0 active torsions:
REMARK  status: ('A' for Active; 'I' for Inactive)
ROOT
ATOM      1  C   UNL d   1       0.892   0.771  -0.365  0.00  0.00     0.020 A 
ATOM      2  C1  UNL d   1       1.293   0.164   0.825  0.00  0.00     0.020 A 
ATOM      3  C2  UNL d   1       0.562  -0.908   1.342  0.00  0.00     0.034 A 
ATOM      4  C3  UNL d   1      -0.573  -1.375   0.671  0.00  0.00     0.017 A 
ATOM      5  C4  UNL d   1      -0.975  -0.765  -0.523  0.00  0.00     0.017 A 
ATOM      6  C5  UNL d   1      -0.240   0.308  -1.037  0.00  0.00     0.034 A 
ATOM      7 Cl   UNL d   1      -2.365  -1.285  -1.408  0.00  0.00    -0.070 Cl
ATOM      8 Cl1  UNL d   1      -1.429  -2.704   1.369  0.00  0.00    -0.070 Cl
ENDROOT
TORSDOF 0
ENDMDL
