MODEL 1
REMARK minimizedAffinity -4.24440861
REMARK minimizedRMSD -1
REMARK  0 active torsions:
REMARK  status: ('A' for Active; 'I' for Inactive)
ROOT
ATOM      1  C   UNL d   1      -2.653  -3.084   1.346  0.00  0.00     0.020 A 
ATOM      2  C1  UNL d   1      -1.520  -2.858   2.127  0.00  0.00     0.020 A 
ATOM      3  C2  UNL d   1      -0.668  -1.792   1.829  0.00  0.00     0.034 A 
ATOM      4  C3  UNL d   1      -0.949  -0.948   0.749  0.00  0.00     0.017 A 
ATOM      5  C4  UNL d   1      -2.086  -1.175  -0.034  0.00  0.00     0.017 A 
ATOM      6  C5  UNL d   1      -2.935  -2.245   0.268  0.00  0.00     0.034 A 
ATOM      7 Cl   UNL d   1      -2.498  -0.177  -1.383  0.00  0.00    -0.070 Cl
ATOM      8 Cl1  UNL d   1       0.147   0.352   0.439  0.00  0.00    -0.070 Cl
ENDROOT
TORSDOF 0
ENDMDL
