MODEL 1
REMARK minimizedAffinity -4.14345598
REMARK minimizedRMSD -1
REMARK  0 active torsions:
REMARK  status: ('A' for Active; 'I' for Inactive)
ROOT
ATOM      1  C   UNL d   1       0.068   0.784  -1.619  0.00  0.00     0.020 A 
ATOM      2  C1  UNL d   1      -1.184   0.769  -2.233  0.00  0.00     0.020 A 
ATOM      3  C2  UNL d   1      -2.161  -0.131  -1.803  0.00  0.00     0.034 A 
ATOM      4  C3  UNL d   1      -1.889  -1.019  -0.756  0.00  0.00     0.017 A 
ATOM      5  C4  UNL d   1      -0.632  -1.002  -0.140  0.00  0.00     0.017 A 
ATOM      6  C5  UNL d   1       0.343  -0.099  -0.575  0.00  0.00     0.034 A 
ATOM      7 Cl   UNL d   1      -0.222  -2.067   1.158  0.00  0.00    -0.070 Cl
ATOM      8 Cl1  UNL d   1      -3.145  -2.104  -0.275  0.00  0.00    -0.070 Cl
ENDROOT
TORSDOF 0
ENDMDL
