MODEL 1
REMARK minimizedAffinity -3.01363015
REMARK minimizedRMSD -1
REMARK  0 active torsions:
REMARK  status: ('A' for Active; 'I' for Inactive)
ROOT
ATOM      1  C   UNL d   1       0.166   0.608  -0.267  0.00  0.00     0.020 A 
ATOM      2  C1  UNL d   1      -0.942   0.801  -1.092  0.00  0.00     0.020 A 
ATOM      3  C2  UNL d   1      -2.062  -0.022  -0.961  0.00  0.00     0.034 A 
ATOM      4  C3  UNL d   1      -2.078  -1.041  -0.002  0.00  0.00     0.017 A 
ATOM      5  C4  UNL d   1      -0.966  -1.234   0.826  0.00  0.00     0.017 A 
ATOM      6  C5  UNL d   1       0.154  -0.407   0.690  0.00  0.00     0.034 A 
ATOM      7 Cl   UNL d   1      -0.911  -2.471   2.032  0.00  0.00    -0.070 Cl
ATOM      8 Cl1  UNL d   1      -3.497  -2.021   0.106  0.00  0.00    -0.070 Cl
ENDROOT
TORSDOF 0
ENDMDL
