MODEL 1
REMARK minimizedAffinity -4.62727213
REMARK minimizedRMSD -1
REMARK  0 active torsions:
REMARK  status: ('A' for Active; 'I' for Inactive)
ROOT
ATOM      1  C   UNL d   1      -3.246  -1.404  -0.022  0.00  0.00     0.020 A 
ATOM      2  C1  UNL d   1      -2.689  -0.382  -0.789  0.00  0.00     0.020 A 
ATOM      3  C2  UNL d   1      -1.349  -0.028  -0.614  0.00  0.00     0.034 A 
ATOM      4  C3  UNL d   1      -0.562  -0.698   0.330  0.00  0.00     0.017 A 
ATOM      5  C4  UNL d   1      -1.123  -1.724   1.099  0.00  0.00     0.017 A 
ATOM      6  C5  UNL d   1      -2.465  -2.074   0.920  0.00  0.00     0.034 A 
ATOM      7 Cl   UNL d   1      -0.215  -2.596   2.284  0.00  0.00    -0.070 Cl
ATOM      8 Cl1  UNL d   1       1.087  -0.209   0.493  0.00  0.00    -0.070 Cl
ENDROOT
TORSDOF 0
ENDMDL
