MODEL 1
REMARK minimizedAffinity -5.48594427
REMARK minimizedRMSD -1
REMARK  0 active torsions:
REMARK  status: ('A' for Active; 'I' for Inactive)
ROOT
ATOM      1  C   UNL d   1      -2.609  -2.686   1.237  0.00  0.00     0.020 A 
ATOM      2  C1  UNL d   1      -3.327  -1.797   0.438  0.00  0.00     0.020 A 
ATOM      3  C2  UNL d   1      -2.660  -0.781  -0.250  0.00  0.00     0.034 A 
ATOM      4  C3  UNL d   1      -1.271  -0.651  -0.139  0.00  0.00     0.017 A 
ATOM      5  C4  UNL d   1      -0.551  -1.544   0.663  0.00  0.00     0.017 A 
ATOM      6  C5  UNL d   1      -1.224  -2.560   1.349  0.00  0.00     0.034 A 
ATOM      7 Cl   UNL d   1       1.165  -1.448   0.848  0.00  0.00    -0.070 Cl
ATOM      8 Cl1  UNL d   1      -0.511   0.628  -1.018  0.00  0.00    -0.070 Cl
ENDROOT
TORSDOF 0
ENDMDL
