MODEL 1
REMARK minimizedAffinity -3.4381988
REMARK minimizedRMSD -1
REMARK  0 active torsions:
REMARK  status: ('A' for Active; 'I' for Inactive)
ROOT
ATOM      1  C   UNL d   1      -3.157  -1.084  -1.129  0.00  0.00     0.020 A 
ATOM      2  C1  UNL d   1      -3.553  -2.216  -0.418  0.00  0.00     0.020 A 
ATOM      3  C2  UNL d   1      -2.776  -2.678   0.647  0.00  0.00     0.034 A 
ATOM      4  C3  UNL d   1      -1.600  -2.008   1.004  0.00  0.00     0.017 A 
ATOM      5  C4  UNL d   1      -1.204  -0.872   0.289  0.00  0.00     0.017 A 
ATOM      6  C5  UNL d   1      -1.985  -0.414  -0.776  0.00  0.00     0.034 A 
ATOM      7 Cl   UNL d   1       0.234   0.007   0.670  0.00  0.00    -0.070 Cl
ATOM      8 Cl1  UNL d   1      -0.689  -2.635   2.332  0.00  0.00    -0.070 Cl
ENDROOT
TORSDOF 0
ENDMDL
