MODEL 1
REMARK minimizedAffinity -5.4997654
REMARK minimizedRMSD -1
REMARK  0 active torsions:
REMARK  status: ('A' for Active; 'I' for Inactive)
ROOT
ATOM      1  C   UNL d   1      -3.200  -1.705  -0.012  0.00  0.00     0.020 A 
ATOM      2  C1  UNL d   1      -2.466  -2.288   1.020  0.00  0.00     0.020 A 
ATOM      3  C2  UNL d   1      -1.120  -1.957   1.193  0.00  0.00     0.034 A 
ATOM      4  C3  UNL d   1      -0.505  -1.040   0.333  0.00  0.00     0.017 A 
ATOM      5  C4  UNL d   1      -1.242  -0.455  -0.702  0.00  0.00     0.017 A 
ATOM      6  C5  UNL d   1      -2.589  -0.790  -0.871  0.00  0.00     0.034 A 
ATOM      7 Cl   UNL d   1      -0.552   0.684  -1.803  0.00  0.00    -0.070 Cl
ATOM      8 Cl1  UNL d   1       1.162  -0.677   0.607  0.00  0.00    -0.070 Cl
ENDROOT
TORSDOF 0
ENDMDL
