MODEL 1
REMARK minimizedAffinity -5.67996931
REMARK minimizedRMSD -1
REMARK  0 active torsions:
REMARK  status: ('A' for Active; 'I' for Inactive)
ROOT
ATOM      1  C   UNL d   1      -2.651  -2.928   0.941  0.00  0.00     0.020 A 
ATOM      2  C1  UNL d   1      -3.183  -1.955   0.096  0.00  0.00     0.020 A 
ATOM      3  C2  UNL d   1      -2.363  -0.943  -0.407  0.00  0.00     0.034 A 
ATOM      4  C3  UNL d   1      -1.006  -0.902  -0.066  0.00  0.00     0.017 A 
ATOM      5  C4  UNL d   1      -0.473  -1.879   0.782  0.00  0.00     0.017 A 
ATOM      6  C5  UNL d   1      -1.299  -2.890   1.283  0.00  0.00     0.034 A 
ATOM      7 Cl   UNL d   1       1.192  -1.894   1.247  0.00  0.00    -0.070 Cl
ATOM      8 Cl1  UNL d   1      -0.051   0.378  -0.726  0.00  0.00    -0.070 Cl
ENDROOT
TORSDOF 0
ENDMDL
