MODEL 1
REMARK minimizedAffinity -3.25156498
REMARK minimizedRMSD -1
REMARK  0 active torsions:
REMARK  status: ('A' for Active; 'I' for Inactive)
ROOT
ATOM      1  C   UNL d   1      -2.862  -1.280  -0.827  0.00  0.00     0.020 A 
ATOM      2  C1  UNL d   1      -2.355  -1.650   0.418  0.00  0.00     0.020 A 
ATOM      3  C2  UNL d   1      -1.089  -1.214   0.813  0.00  0.00     0.034 A 
ATOM      4  C3  UNL d   1      -0.325  -0.406  -0.037  0.00  0.00     0.017 A 
ATOM      5  C4  UNL d   1      -0.835  -0.035  -1.286  0.00  0.00     0.017 A 
ATOM      6  C5  UNL d   1      -2.104  -0.474  -1.677  0.00  0.00     0.034 A 
ATOM      7 Cl   UNL d   1       0.048   0.960  -2.389  0.00  0.00    -0.070 Cl
ATOM      8 Cl1  UNL d   1       1.233   0.097   0.517  0.00  0.00    -0.070 Cl
ENDROOT
TORSDOF 0
ENDMDL
