MODEL 1
REMARK minimizedAffinity -0.966977656
REMARK minimizedRMSD -1
REMARK  0 active torsions:
REMARK  status: ('A' for Active; 'I' for Inactive)
ROOT
ATOM      1  N1  IND d   1       5.445  -5.810  -2.255  0.00  0.00    -0.196 N 
ATOM      2  C2  IND d   1       4.303  -5.804  -1.504  0.00  0.00     0.054 A 
ATOM      3  C3  IND d   1       3.214  -5.832  -2.305  0.00  0.00    -0.031 A 
ATOM      4  C4  IND d   1       3.073  -5.992  -4.870  0.00  0.00     0.051 A 
ATOM      5  C5  IND d   1       3.850  -5.987  -5.994  0.00  0.00    -0.031 A 
ATOM      6  C6  IND d   1       5.227  -5.925  -5.928  0.00  0.00     0.015 A 
ATOM      7  C7  IND d   1       5.881  -5.876  -4.729  0.00  0.00    -0.016 A 
ATOM      8  C8  IND d   1       5.095  -5.873  -3.586  0.00  0.00    -0.047 A 
ATOM      9  C9  IND d   1       3.695  -5.893  -3.648  0.00  0.00    -0.096 A 
ATOM     10  HN1 IND d   1       6.248  -5.779  -1.948  0.00  0.00     0.298 HD
ENDROOT
TORSDOF 0
ENDMDL
