MODEL 1
REMARK minimizedAffinity 11.928854
REMARK minimizedRMSD -1
REMARK  0 active torsions:
REMARK  status: ('A' for Active; 'I' for Inactive)
ROOT
ATOM      1  N1  IND d   1       0.544   2.240   2.426  0.00  0.00    -0.196 N 
ATOM      2  C2  IND d   1       1.083   1.338   3.300  0.00  0.00     0.054 A 
ATOM      3  C3  IND d   1       2.240   0.841   2.808  0.00  0.00    -0.031 A 
ATOM      4  C4  IND d   1       3.485   1.440   0.636  0.00  0.00     0.051 A 
ATOM      5  C5  IND d   1       3.366   2.185  -0.504  0.00  0.00    -0.031 A 
ATOM      6  C6  IND d   1       2.279   3.004  -0.728  0.00  0.00     0.015 A 
ATOM      7  C7  IND d   1       1.272   3.119   0.188  0.00  0.00    -0.016 A 
ATOM      8  C8  IND d   1       1.386   2.359   1.343  0.00  0.00    -0.047 A 
ATOM      9  C9  IND d   1       2.466   1.494   1.558  0.00  0.00    -0.096 A 
ATOM     10  HN1 IND d   1      -0.198   2.662   2.535  0.00  0.00     0.298 HD
ENDROOT
TORSDOF 0
ENDMDL
