MODEL 1
REMARK minimizedAffinity 7.16731215
REMARK minimizedRMSD -1
REMARK  0 active torsions:
REMARK  status: ('A' for Active; 'I' for Inactive)
ROOT
ATOM      1  N1  IND d   1       2.433   0.064   4.164  0.00  0.00    -0.196 N 
ATOM      2  C2  IND d   1       1.977   1.316   4.469  0.00  0.00     0.054 A 
ATOM      3  C3  IND d   1       2.248   2.175   3.461  0.00  0.00    -0.031 A 
ATOM      4  C4  IND d   1       3.340   1.720   1.174  0.00  0.00     0.051 A 
ATOM      5  C5  IND d   1       3.955   0.737   0.451  0.00  0.00    -0.031 A 
ATOM      6  C6  IND d   1       4.095  -0.547   0.937  0.00  0.00     0.015 A 
ATOM      7  C7  IND d   1       3.612  -0.900   2.166  0.00  0.00    -0.016 A 
ATOM      8  C8  IND d   1       2.993   0.097   2.906  0.00  0.00    -0.047 A 
ATOM      9  C9  IND d   1       2.886   1.412   2.435  0.00  0.00    -0.096 A 
ATOM     10  HN1 IND d   1       2.380  -0.627   4.672  0.00  0.00     0.298 HD
ENDROOT
TORSDOF 0
ENDMDL
