MODEL 1
REMARK minimizedAffinity 2.02476192
REMARK minimizedRMSD -1
REMARK  0 active torsions:
REMARK  status: ('A' for Active; 'I' for Inactive)
ROOT
ATOM      1  N1  IND d   1       4.921  -5.999  -1.029  0.00  0.00    -0.196 N 
ATOM      2  C2  IND d   1       4.654  -5.992  -2.369  0.00  0.00     0.054 A 
ATOM      3  C3  IND d   1       3.319  -5.995  -2.583  0.00  0.00    -0.031 A 
ATOM      4  C4  IND d   1       1.390  -5.908  -0.881  0.00  0.00     0.051 A 
ATOM      5  C5  IND d   1       1.136  -5.939   0.461  0.00  0.00    -0.031 A 
ATOM      6  C6  IND d   1       2.151  -5.989   1.395  0.00  0.00     0.015 A 
ATOM      7  C7  IND d   1       3.464  -6.000   1.019  0.00  0.00    -0.016 A 
ATOM      8  C8  IND d   1       3.726  -5.976  -0.344  0.00  0.00    -0.047 A 
ATOM      9  C9  IND d   1       2.699  -5.967  -1.297  0.00  0.00    -0.096 A 
ATOM     10  HN1 IND d   1       5.704  -6.015  -0.673  0.00  0.00     0.298 HD
ENDROOT
TORSDOF 0
ENDMDL
