MODEL 1
REMARK minimizedAffinity 5.34118176
REMARK minimizedRMSD -1
REMARK  0 active torsions:
REMARK  status: ('A' for Active; 'I' for Inactive)
ROOT
ATOM      1  N1  IND d   1       4.283  -5.943  -1.122  0.00  0.00    -0.196 N 
ATOM      2  C2  IND d   1       2.917  -5.982  -1.073  0.00  0.00     0.054 A 
ATOM      3  C3  IND d   1       2.400  -5.973  -2.322  0.00  0.00    -0.031 A 
ATOM      4  C4  IND d   1       3.612  -6.000  -4.593  0.00  0.00     0.051 A 
ATOM      5  C5  IND d   1       4.858  -5.933  -5.150  0.00  0.00    -0.031 A 
ATOM      6  C6  IND d   1       6.000  -5.868  -4.377  0.00  0.00     0.015 A 
ATOM      7  C7  IND d   1       5.937  -5.878  -3.012  0.00  0.00    -0.016 A 
ATOM      8  C8  IND d   1       4.673  -5.939  -2.443  0.00  0.00    -0.047 A 
ATOM      9  C9  IND d   1       3.509  -5.962  -3.223  0.00  0.00    -0.096 A 
ATOM     10  HN1 IND d   1       4.809  -5.925  -0.443  0.00  0.00     0.298 HD
ENDROOT
TORSDOF 0
ENDMDL
