MODEL 1
REMARK minimizedAffinity 1.53118014
REMARK minimizedRMSD -1
REMARK  0 active torsions:
REMARK  status: ('A' for Active; 'I' for Inactive)
ROOT
ATOM      1  N1  IND d   1       1.141  -5.900  -1.860  0.00  0.00    -0.196 N 
ATOM      2  C2  IND d   1       1.544  -5.870  -0.554  0.00  0.00     0.054 A 
ATOM      3  C3  IND d   1       2.894  -5.881  -0.478  0.00  0.00    -0.031 A 
ATOM      4  C4  IND d   1       4.639  -5.844  -2.371  0.00  0.00     0.051 A 
ATOM      5  C5  IND d   1       4.754  -5.903  -3.731  0.00  0.00    -0.031 A 
ATOM      6  C6  IND d   1       3.648  -5.962  -4.554  0.00  0.00     0.015 A 
ATOM      7  C7  IND d   1       2.380  -5.953  -4.046  0.00  0.00    -0.016 A 
ATOM      8  C8  IND d   1       2.260  -5.901  -2.664  0.00  0.00    -0.047 A 
ATOM      9  C9  IND d   1       3.379  -5.884  -1.822  0.00  0.00    -0.096 A 
ATOM     10  HN1 IND d   1       0.326  -5.916  -2.133  0.00  0.00     0.298 HD
ENDROOT
TORSDOF 0
ENDMDL
