MODEL 1
REMARK minimizedAffinity 2.34580064
REMARK minimizedRMSD -1
REMARK  0 active torsions:
REMARK  status: ('A' for Active; 'I' for Inactive)
ROOT
ATOM      1  N1  IND d   1       3.918  -5.768  -4.131  0.00  0.00    -0.196 N 
ATOM      2  C2  IND d   1       5.251  -5.923  -3.868  0.00  0.00     0.054 A 
ATOM      3  C3  IND d   1       5.461  -6.000  -2.535  0.00  0.00    -0.031 A 
ATOM      4  C4  IND d   1       3.755  -5.998  -0.607  0.00  0.00     0.051 A 
ATOM      5  C5  IND d   1       2.422  -5.842  -0.349  0.00  0.00    -0.031 A 
ATOM      6  C6  IND d   1       1.501  -5.652  -1.358  0.00  0.00     0.015 A 
ATOM      7  C7  IND d   1       1.879  -5.623  -2.671  0.00  0.00    -0.016 A 
ATOM      8  C8  IND d   1       3.232  -5.773  -2.937  0.00  0.00    -0.047 A 
ATOM      9  C9  IND d   1       4.177  -5.924  -1.914  0.00  0.00    -0.096 A 
ATOM     10  HN1 IND d   1       3.568  -5.681  -4.912  0.00  0.00     0.298 HD
ENDROOT
TORSDOF 0
ENDMDL
