MODEL 1
REMARK minimizedAffinity 7.81613207
REMARK minimizedRMSD -1
REMARK  0 active torsions:
REMARK  status: ('A' for Active; 'I' for Inactive)
ROOT
ATOM      1  N1  IND d   1       0.161   1.390   1.474  0.00  0.00    -0.196 N 
ATOM      2  C2  IND d   1      -0.193   2.546   0.837  0.00  0.00     0.054 A 
ATOM      3  C3  IND d   1      -0.057   2.407  -0.501  0.00  0.00    -0.031 A 
ATOM      4  C4  IND d   1       0.632   0.337  -1.868  0.00  0.00     0.051 A 
ATOM      5  C5  IND d   1       1.085  -0.945  -1.727  0.00  0.00    -0.031 A 
ATOM      6  C6  IND d   1       1.253  -1.527  -0.487  0.00  0.00     0.015 A 
ATOM      7  C7  IND d   1       0.963  -0.849   0.663  0.00  0.00    -0.016 A 
ATOM      8  C8  IND d   1       0.510   0.455   0.524  0.00  0.00    -0.047 A 
ATOM      9  C9  IND d   1       0.378   1.065  -0.730  0.00  0.00    -0.096 A 
ATOM     10  HN1 IND d   1       0.164   1.267   2.325  0.00  0.00     0.298 HD
ENDROOT
TORSDOF 0
ENDMDL
