MODEL 1
REMARK minimizedAffinity -2.85514021
REMARK minimizedRMSD -1
REMARK  0 active torsions:
REMARK  status: ('A' for Active; 'I' for Inactive)
ROOT
ATOM      1  N1  IND d   1       3.761  -0.582  -5.959  0.00  0.00    -0.196 N 
ATOM      2  C2  IND d   1       4.979   0.039  -5.918  0.00  0.00     0.054 A 
ATOM      3  C3  IND d   1       5.972  -0.877  -5.883  0.00  0.00    -0.031 A 
ATOM      4  C4  IND d   1       5.834  -3.445  -5.986  0.00  0.00     0.051 A 
ATOM      5  C5  IND d   1       4.937  -4.476  -5.993  0.00  0.00    -0.031 A 
ATOM      6  C6  IND d   1       3.574  -4.257  -5.991  0.00  0.00     0.015 A 
ATOM      7  C7  IND d   1       3.056  -2.993  -5.995  0.00  0.00    -0.016 A 
ATOM      8  C8  IND d   1       3.964  -1.944  -5.980  0.00  0.00    -0.047 A 
ATOM      9  C9  IND d   1       5.348  -2.160  -5.939  0.00  0.00    -0.096 A 
ATOM     10  HN1 IND d   1       2.997  -0.187  -5.969  0.00  0.00     0.298 HD
ENDROOT
TORSDOF 0
ENDMDL
