MODEL 1
REMARK minimizedAffinity -3.83529305
REMARK minimizedRMSD -1
REMARK  1 active torsions:
REMARK  status: ('A' for Active; 'I' for Inactive)
REMARK    1  A    between atoms: C1_2  and  C2_3 
ROOT
ATOM      1  C2  UNL d   1       0.324   0.923   0.115  0.00  0.00    -0.081 A 
ATOM      2  C3  UNL d   1       0.766  -0.320  -0.355  0.00  0.00     0.006 A 
ATOM      3  C4  UNL d   1       0.177  -1.501   0.105  0.00  0.00     0.002 A 
ATOM      4  C5  UNL d   1      -0.866  -1.458   1.036  0.00  0.00    -0.080 A 
ATOM      5  C6  UNL d   1      -1.527  -2.717   1.515  0.00  0.00     0.076 C 
ATOM      6  C7  UNL d   1      -1.296  -0.217   1.518  0.00  0.00     0.002 A 
ATOM      7  C8  UNL d   1      -0.708   0.964   1.059  0.00  0.00     0.006 A 
ENDROOT
BRANCH   1   8
ATOM      8  C1  UNL d   1       0.912   2.200  -0.427  0.00  0.00     0.054 C 
ATOM      9  C   UNL d   1       2.234   2.532   0.250  0.00  0.00     0.018 C 
ENDBRANCH   1   8
TORSDOF 1
ENDMDL
