MODEL 1
REMARK minimizedAffinity -3.42116332
REMARK minimizedRMSD -1
REMARK  1 active torsions:
REMARK  status: ('A' for Active; 'I' for Inactive)
REMARK    1  A    between atoms: C1_2  and  C2_3 
ROOT
ATOM      1  C2  UNL d   1      -1.716  -2.621   0.408  0.00  0.00    -0.081 A 
ATOM      2  C3  UNL d   1      -0.704  -3.557   0.163  0.00  0.00     0.006 A 
ATOM      3  C4  UNL d   1       0.626  -3.147   0.043  0.00  0.00     0.002 A 
ATOM      4  C5  UNL d   1       0.967  -1.796   0.174  0.00  0.00    -0.080 A 
ATOM      5  C6  UNL d   1       2.394  -1.346   0.077  0.00  0.00     0.076 C 
ATOM      6  C7  UNL d   1      -0.047  -0.859   0.401  0.00  0.00     0.002 A 
ATOM      7  C8  UNL d   1      -1.377  -1.269   0.521  0.00  0.00     0.006 A 
ENDROOT
BRANCH   1   8
ATOM      8  C1  UNL d   1      -3.142  -3.068   0.603  0.00  0.00     0.054 C 
ATOM      9  C   UNL d   1      -3.767  -3.514  -0.712  0.00  0.00     0.018 C 
ENDBRANCH   1   8
TORSDOF 1
ENDMDL
