MODEL 1
REMARK minimizedAffinity -0.228341147
REMARK minimizedRMSD -1
REMARK  1 active torsions:
REMARK  status: ('A' for Active; 'I' for Inactive)
REMARK    1  A    between atoms: C1_2  and  C2_3 
ROOT
ATOM      1  C2  UNL d   1      -0.045   1.016   0.120  0.00  0.00    -0.081 A 
ATOM      2  C3  UNL d   1       0.351  -0.049  -0.698  0.00  0.00     0.006 A 
ATOM      3  C4  UNL d   1      -0.172  -1.329  -0.497  0.00  0.00     0.002 A 
ATOM      4  C5  UNL d   1      -1.104  -1.563   0.519  0.00  0.00    -0.080 A 
ATOM      5  C6  UNL d   1      -1.696  -2.925   0.726  0.00  0.00     0.076 C 
ATOM      6  C7  UNL d   1      -1.486  -0.502   1.348  0.00  0.00     0.002 A 
ATOM      7  C8  UNL d   1      -0.963   0.777   1.147  0.00  0.00     0.006 A 
ENDROOT
BRANCH   1   8
ATOM      8  C1  UNL d   1       0.468   2.411  -0.136  0.00  0.00     0.054 C 
ATOM      9  C   UNL d   1       1.790   2.654   0.579  0.00  0.00     0.018 C 
ENDBRANCH   1   8
TORSDOF 1
ENDMDL
