MODEL 1
REMARK minimizedAffinity 1.56177044
REMARK minimizedRMSD -1
REMARK  1 active torsions:
REMARK  status: ('A' for Active; 'I' for Inactive)
REMARK    1  A    between atoms: C1_2  and  C2_3 
ROOT
ATOM      1  C2  UNL d   1       0.153  -0.778  -0.696  0.00  0.00    -0.081 A 
ATOM      2  C3  UNL d   1      -0.241   0.494  -0.265  0.00  0.00     0.006 A 
ATOM      3  C4  UNL d   1      -1.108   0.637   0.821  0.00  0.00     0.002 A 
ATOM      4  C5  UNL d   1      -1.590  -0.488   1.497  0.00  0.00    -0.080 A 
ATOM      5  C6  UNL d   1      -2.497  -0.348   2.683  0.00  0.00     0.076 C 
ATOM      6  C7  UNL d   1      -1.210  -1.760   1.056  0.00  0.00     0.002 A 
ATOM      7  C8  UNL d   1      -0.344  -1.904  -0.030  0.00  0.00     0.006 A 
ENDROOT
BRANCH   1   8
ATOM      8  C1  UNL d   1       1.139  -0.934  -1.826  0.00  0.00     0.054 C 
ATOM      9  C   UNL d   1       0.696  -2.014  -2.803  0.00  0.00     0.018 C 
ENDBRANCH   1   8
TORSDOF 1
ENDMDL
