MODEL 1
REMARK minimizedAffinity -3.90850353
REMARK minimizedRMSD -1
REMARK  1 active torsions:
REMARK  status: ('A' for Active; 'I' for Inactive)
REMARK    1  A    between atoms: C1_2  and  C2_3 
ROOT
ATOM      1  C2  UNL d   1      -0.041   0.219  -0.342  0.00  0.00    -0.081 A 
ATOM      2  C3  UNL d   1       0.579  -0.515  -1.360  0.00  0.00     0.006 A 
ATOM      3  C4  UNL d   1       0.607  -1.910  -1.311  0.00  0.00     0.002 A 
ATOM      4  C5  UNL d   1       0.010  -2.595  -0.247  0.00  0.00    -0.080 A 
ATOM      5  C6  UNL d   1       0.007  -4.094  -0.198  0.00  0.00     0.076 C 
ATOM      6  C7  UNL d   1      -0.594  -1.862   0.779  0.00  0.00     0.002 A 
ATOM      7  C8  UNL d   1      -0.622  -0.466   0.731  0.00  0.00     0.006 A 
ENDROOT
BRANCH   1   8
ATOM      8  C1  UNL d   1      -0.130   1.722  -0.425  0.00  0.00     0.054 C 
ATOM      9  C   UNL d   1       0.566   2.383   0.756  0.00  0.00     0.018 C 
ENDBRANCH   1   8
TORSDOF 1
ENDMDL
