MODEL 1
REMARK minimizedAffinity -4.99361372
REMARK minimizedRMSD -1
REMARK  1 active torsions:
REMARK  status: ('A' for Active; 'I' for Inactive)
REMARK    1  A    between atoms: C1_2  and  C2_3 
ROOT
ATOM      1  C2  UNL d   1       0.543  -0.182   0.274  0.00  0.00    -0.081 A 
ATOM      2  C3  UNL d   1       1.625   0.262   1.045  0.00  0.00     0.006 A 
ATOM      3  C4  UNL d   1       2.014   1.604   1.014  0.00  0.00     0.002 A 
ATOM      4  C5  UNL d   1       1.323   2.524   0.218  0.00  0.00    -0.080 A 
ATOM      5  C6  UNL d   1       1.711   3.973   0.199  0.00  0.00     0.076 C 
ATOM      6  C7  UNL d   1       0.253   2.078  -0.565  0.00  0.00     0.002 A 
ATOM      7  C8  UNL d   1      -0.135   0.737  -0.535  0.00  0.00     0.006 A 
ENDROOT
BRANCH   1   8
ATOM      8  C1  UNL d   1       0.081  -1.614   0.355  0.00  0.00     0.054 C 
ATOM      9  C   UNL d   1      -0.558  -1.914   1.703  0.00  0.00     0.018 C 
ENDBRANCH   1   8
TORSDOF 1
ENDMDL
