MODEL 1
REMARK minimizedAffinity -4.64051485
REMARK minimizedRMSD -1
REMARK  1 active torsions:
REMARK  status: ('A' for Active; 'I' for Inactive)
REMARK    1  A    between atoms: C1_2  and  C2_3 
ROOT
ATOM      1  C2  UNL d   1      -0.073   0.159  -0.440  0.00  0.00    -0.081 A 
ATOM      2  C3  UNL d   1       0.396  -0.774  -1.373  0.00  0.00     0.006 A 
ATOM      3  C4  UNL d   1       0.309  -2.143  -1.111  0.00  0.00     0.002 A 
ATOM      4  C5  UNL d   1      -0.254  -2.602   0.085  0.00  0.00    -0.080 A 
ATOM      5  C6  UNL d   1      -0.380  -4.070   0.366  0.00  0.00     0.076 C 
ATOM      6  C7  UNL d   1      -0.705  -1.670   1.025  0.00  0.00     0.002 A 
ATOM      7  C8  UNL d   1      -0.618  -0.301   0.764  0.00  0.00     0.006 A 
ENDROOT
BRANCH   1   8
ATOM      8  C1  UNL d   1      -0.040   1.634  -0.748  0.00  0.00     0.054 C 
ATOM      9  C   UNL d   1       0.967   2.361   0.132  0.00  0.00     0.018 C 
ENDBRANCH   1   8
TORSDOF 1
ENDMDL
