MODEL 1
REMARK minimizedAffinity -4.20824862
REMARK minimizedRMSD -1
REMARK  1 active torsions:
REMARK  status: ('A' for Active; 'I' for Inactive)
REMARK    1  A    between atoms: C1_2  and  C2_3 
ROOT
ATOM      1  C2  UNL d   1       0.058   1.185  -0.043  0.00  0.00    -0.081 A 
ATOM      2  C3  UNL d   1      -0.731   0.690   1.003  0.00  0.00     0.006 A 
ATOM      3  C4  UNL d   1      -0.922  -0.685   1.155  0.00  0.00     0.002 A 
ATOM      4  C5  UNL d   1      -0.323  -1.588   0.271  0.00  0.00    -0.080 A 
ATOM      5  C6  UNL d   1      -0.496  -3.068   0.441  0.00  0.00     0.076 C 
ATOM      6  C7  UNL d   1       0.451  -1.092  -0.785  0.00  0.00     0.002 A 
ATOM      7  C8  UNL d   1       0.643   0.283  -0.938  0.00  0.00     0.006 A 
ENDROOT
BRANCH   1   8
ATOM      8  C1  UNL d   1       0.320   2.664  -0.172  0.00  0.00     0.054 C 
ATOM      9  C   UNL d   1       1.506   3.093   0.680  0.00  0.00     0.018 C 
ENDBRANCH   1   8
TORSDOF 1
ENDMDL
