MODEL 1
REMARK minimizedAffinity -2.80989122
REMARK minimizedRMSD -1
REMARK  1 active torsions:
REMARK  status: ('A' for Active; 'I' for Inactive)
REMARK    1  A    between atoms: C1_2  and  C2_3 
ROOT
ATOM      1  C2  UNL d   1      -0.314  -1.514  -1.228  0.00  0.00    -0.081 A 
ATOM      2  C3  UNL d   1      -0.794  -2.581  -0.459  0.00  0.00     0.006 A 
ATOM      3  C4  UNL d   1      -1.020  -2.422   0.910  0.00  0.00     0.002 A 
ATOM      4  C5  UNL d   1      -0.779  -1.192   1.531  0.00  0.00    -0.080 A 
ATOM      5  C6  UNL d   1      -1.047  -0.999   2.994  0.00  0.00     0.076 C 
ATOM      6  C7  UNL d   1      -0.284  -0.130   0.767  0.00  0.00     0.002 A 
ATOM      7  C8  UNL d   1      -0.056  -0.289  -0.602  0.00  0.00     0.006 A 
ENDROOT
BRANCH   1   8
ATOM      8  C1  UNL d   1      -0.130  -1.663  -2.717  0.00  0.00     0.054 C 
ATOM      9  C   UNL d   1      -0.945  -2.828  -3.261  0.00  0.00     0.018 C 
ENDBRANCH   1   8
TORSDOF 1
ENDMDL
