MODEL 1
REMARK minimizedAffinity -4.25308084
REMARK minimizedRMSD -1
REMARK  1 active torsions:
REMARK  status: ('A' for Active; 'I' for Inactive)
REMARK    1  A    between atoms: C1_2  and  C2_3 
ROOT
ATOM      1  C2  UNL d   1      -0.286  -1.417   0.052  0.00  0.00    -0.081 A 
ATOM      2  C3  UNL d   1       0.532  -0.804  -0.906  0.00  0.00     0.006 A 
ATOM      3  C4  UNL d   1       0.826   0.558  -0.818  0.00  0.00     0.002 A 
ATOM      4  C5  UNL d   1       0.314   1.329   0.232  0.00  0.00    -0.080 A 
ATOM      5  C6  UNL d   1       0.647   2.786   0.355  0.00  0.00     0.076 C 
ATOM      6  C7  UNL d   1      -0.517   0.720   1.179  0.00  0.00     0.002 A 
ATOM      7  C8  UNL d   1      -0.812  -0.642   1.091  0.00  0.00     0.006 A 
ENDROOT
BRANCH   1   8
ATOM      8  C1  UNL d   1      -0.553  -2.900  -0.004  0.00  0.00     0.054 C 
ATOM      9  C   UNL d   1      -0.391  -3.543   1.366  0.00  0.00     0.018 C 
ENDBRANCH   1   8
TORSDOF 1
ENDMDL
