MODEL 1
REMARK minimizedAffinity 7.2520566
REMARK minimizedRMSD -1
REMARK  0 active torsions:
REMARK  status: ('A' for Active; 'I' for Inactive)
ROOT
ATOM      1  C   UNL d   1       0.943  -0.245  -2.330  0.00  0.00     0.124 A 
ATOM      2  C1  UNL d   1       1.169   0.586  -1.241  0.00  0.00     0.062 A 
ATOM      3  C2  UNL d   1       2.463   0.786  -0.770  0.00  0.00     0.162 A 
ATOM      4  C3  UNL d   1       3.542   0.155  -1.388  0.00  0.00    -0.034 A 
ATOM      5  C4  UNL d   1       3.307  -0.680  -2.482  0.00  0.00     0.162 A 
ATOM      6  C5  UNL d   1       2.012  -0.877  -2.949  0.00  0.00     0.062 A 
ATOM      7  F   UNL d   1       1.795  -1.680  -4.001  0.00  0.00    -0.097 F 
ATOM      8  F1  UNL d   1       4.322  -1.303  -3.100  0.00  0.00    -0.096 F 
ATOM      9  I   UNL d   1       5.479   0.451  -0.687  0.00  0.00    -0.060 I 
ATOM     10  F2  UNL d   1       2.652   1.594   0.284  0.00  0.00    -0.096 F 
ATOM     11  F3  UNL d   1       0.137   1.197  -0.641  0.00  0.00    -0.097 F 
ATOM     12  F4  UNL d   1      -0.304  -0.436  -2.780  0.00  0.00    -0.092 F 
ENDROOT
TORSDOF 0
ENDMDL
