MODEL 1
REMARK minimizedAffinity 4.87220335
REMARK minimizedRMSD -1
REMARK  0 active torsions:
REMARK  status: ('A' for Active; 'I' for Inactive)
ROOT
ATOM      1  C   UNL d   1      -2.862   3.400  -4.983  0.00  0.00     0.124 A 
ATOM      2  C1  UNL d   1      -1.978   2.470  -4.454  0.00  0.00     0.062 A 
ATOM      3  C2  UNL d   1      -2.316   1.120  -4.427  0.00  0.00     0.162 A 
ATOM      4  C3  UNL d   1      -3.544   0.691  -4.931  0.00  0.00    -0.034 A 
ATOM      5  C4  UNL d   1      -4.428   1.633  -5.460  0.00  0.00     0.162 A 
ATOM      6  C5  UNL d   1      -4.086   2.981  -5.485  0.00  0.00     0.062 A 
ATOM      7  F   UNL d   1      -4.941   3.879  -5.996  0.00  0.00    -0.097 F 
ATOM      8  F1  UNL d   1      -5.617   1.256  -5.953  0.00  0.00    -0.096 F 
ATOM      9  I   UNL d   1      -4.053  -1.326  -4.891  0.00  0.00    -0.060 I 
ATOM     10  F2  UNL d   1      -1.442   0.243  -3.910  0.00  0.00    -0.096 F 
ATOM     11  F3  UNL d   1      -0.795   2.872  -3.968  0.00  0.00    -0.097 F 
ATOM     12  F4  UNL d   1      -2.534   4.698  -5.008  0.00  0.00    -0.092 F 
ENDROOT
TORSDOF 0
ENDMDL
