MODEL 1
REMARK minimizedAffinity 6.48633862
REMARK minimizedRMSD -1
REMARK  0 active torsions:
REMARK  status: ('A' for Active; 'I' for Inactive)
ROOT
ATOM      1  C   UNL d   1      -1.327  -1.590  -1.350  0.00  0.00     0.124 A 
ATOM      2  C1  UNL d   1      -0.761  -1.338  -0.108  0.00  0.00     0.062 A 
ATOM      3  C2  UNL d   1       0.310  -0.457   0.008  0.00  0.00     0.162 A 
ATOM      4  C3  UNL d   1       0.822   0.181  -1.123  0.00  0.00    -0.034 A 
ATOM      5  C4  UNL d   1       0.247  -0.078  -2.369  0.00  0.00     0.162 A 
ATOM      6  C5  UNL d   1      -0.823  -0.959  -2.478  0.00  0.00     0.062 A 
ATOM      7  F   UNL d   1      -1.369  -1.201  -3.679  0.00  0.00    -0.097 F 
ATOM      8  F1  UNL d   1       0.714   0.519  -3.476  0.00  0.00    -0.096 F 
ATOM      9  I   UNL d   1       2.423   1.500  -0.955  0.00  0.00    -0.060 I 
ATOM     10  F2  UNL d   1       0.838  -0.233   1.220  0.00  0.00    -0.096 F 
ATOM     11  F3  UNL d   1      -1.246  -1.946   0.984  0.00  0.00    -0.097 F 
ATOM     12  F4  UNL d   1      -2.357  -2.439  -1.458  0.00  0.00    -0.092 F 
ENDROOT
TORSDOF 0
ENDMDL
