MODEL 1
REMARK minimizedAffinity 4.5929203
REMARK minimizedRMSD -1
REMARK  0 active torsions:
REMARK  status: ('A' for Active; 'I' for Inactive)
ROOT
ATOM      1  C   UNL d   1      -2.648  -1.747  -3.237  0.00  0.00     0.124 A 
ATOM      2  C1  UNL d   1      -4.027  -1.832  -3.100  0.00  0.00     0.062 A 
ATOM      3  C2  UNL d   1      -4.611  -1.759  -1.838  0.00  0.00     0.162 A 
ATOM      4  C3  UNL d   1      -3.816  -1.600  -0.703  0.00  0.00    -0.034 A 
ATOM      5  C4  UNL d   1      -2.430  -1.517  -0.849  0.00  0.00     0.162 A 
ATOM      6  C5  UNL d   1      -1.851  -1.590  -2.112  0.00  0.00     0.062 A 
ATOM      7  F   UNL d   1      -0.519  -1.507  -2.242  0.00  0.00    -0.097 F 
ATOM      8  F1  UNL d   1      -1.636  -1.364   0.221  0.00  0.00    -0.096 F 
ATOM      9  I   UNL d   1      -4.685  -1.492   1.185  0.00  0.00    -0.060 I 
ATOM     10  F2  UNL d   1      -5.945  -1.844  -1.736  0.00  0.00    -0.096 F 
ATOM     11  F3  UNL d   1      -4.799  -1.985  -4.185  0.00  0.00    -0.097 F 
ATOM     12  F4  UNL d   1      -2.089  -1.818  -4.452  0.00  0.00    -0.092 F 
ENDROOT
TORSDOF 0
ENDMDL
