MODEL 1
REMARK minimizedAffinity -0.567035317
REMARK minimizedRMSD -1
REMARK  0 active torsions:
REMARK  status: ('A' for Active; 'I' for Inactive)
ROOT
ATOM      1  C   UNL d   1      -3.700   3.926  -5.459  0.00  0.00     0.124 A 
ATOM      2  C1  UNL d   1      -2.526   3.247  -5.162  0.00  0.00     0.062 A 
ATOM      3  C2  UNL d   1      -2.514   1.856  -5.118  0.00  0.00     0.162 A 
ATOM      4  C3  UNL d   1      -3.680   1.134  -5.373  0.00  0.00    -0.034 A 
ATOM      5  C4  UNL d   1      -4.857   1.824  -5.669  0.00  0.00     0.162 A 
ATOM      6  C5  UNL d   1      -4.864   3.214  -5.712  0.00  0.00     0.062 A 
ATOM      7  F   UNL d   1      -5.998   3.868  -5.998  0.00  0.00    -0.097 F 
ATOM      8  F1  UNL d   1      -5.996   1.161  -5.919  0.00  0.00    -0.096 F 
ATOM      9  I   UNL d   1      -3.666  -0.946  -5.309  0.00  0.00    -0.060 I 
ATOM     10  F2  UNL d   1      -1.365   1.226  -4.829  0.00  0.00    -0.096 F 
ATOM     11  F3  UNL d   1      -1.400   3.933  -4.916  0.00  0.00    -0.097 F 
ATOM     12  F4  UNL d   1      -3.709   5.265  -5.499  0.00  0.00    -0.092 F 
ENDROOT
TORSDOF 0
ENDMDL
