MODEL 1
REMARK minimizedAffinity 10.3695049
REMARK minimizedRMSD -1
REMARK  0 active torsions:
REMARK  status: ('A' for Active; 'I' for Inactive)
ROOT
ATOM      1  C   UNL d   1      -2.516  -2.238  -3.378  0.00  0.00     0.124 A 
ATOM      2  C1  UNL d   1      -3.875  -1.989  -3.245  0.00  0.00     0.062 A 
ATOM      3  C2  UNL d   1      -4.397  -1.591  -2.017  0.00  0.00     0.162 A 
ATOM      4  C3  UNL d   1      -3.559  -1.438  -0.912  0.00  0.00    -0.034 A 
ATOM      5  C4  UNL d   1      -2.193  -1.692  -1.054  0.00  0.00     0.162 A 
ATOM      6  C5  UNL d   1      -1.677  -2.089  -2.282  0.00  0.00     0.062 A 
ATOM      7  F   UNL d   1      -0.363  -2.330  -2.409  0.00  0.00    -0.097 F 
ATOM      8  F1  UNL d   1      -1.360  -1.555  -0.012  0.00  0.00    -0.096 F 
ATOM      9  I   UNL d   1      -4.335  -0.843   0.925  0.00  0.00    -0.060 I 
ATOM     10  F2  UNL d   1      -5.714  -1.357  -1.918  0.00  0.00    -0.096 F 
ATOM     11  F3  UNL d   1      -4.688  -2.133  -4.301  0.00  0.00    -0.097 F 
ATOM     12  F4  UNL d   1      -2.017  -2.622  -4.559  0.00  0.00    -0.092 F 
ENDROOT
TORSDOF 0
ENDMDL
