MODEL 1
REMARK minimizedAffinity 0.441500157
REMARK minimizedRMSD -1
REMARK  0 active torsions:
REMARK  status: ('A' for Active; 'I' for Inactive)
ROOT
ATOM      1  C   UNL d   1       1.340   1.239   0.277  0.00  0.00     0.124 A 
ATOM      2  C1  UNL d   1       0.238   0.535   0.743  0.00  0.00     0.062 A 
ATOM      3  C2  UNL d   1      -0.441  -0.340  -0.099  0.00  0.00     0.162 A 
ATOM      4  C3  UNL d   1      -0.020  -0.518  -1.417  0.00  0.00    -0.034 A 
ATOM      5  C4  UNL d   1       1.088   0.194  -1.879  0.00  0.00     0.162 A 
ATOM      6  C5  UNL d   1       1.764   1.068  -1.033  0.00  0.00     0.062 A 
ATOM      7  F   UNL d   1       2.828   1.747  -1.485  0.00  0.00    -0.097 F 
ATOM      8  F1  UNL d   1       1.520   0.047  -3.141  0.00  0.00    -0.096 F 
ATOM      9  I   UNL d   1      -1.033  -1.826  -2.680  0.00  0.00    -0.060 I 
ATOM     10  F2  UNL d   1      -1.503  -1.007   0.378  0.00  0.00    -0.096 F 
ATOM     11  F3  UNL d   1      -0.174   0.699   2.008  0.00  0.00    -0.097 F 
ATOM     12  F4  UNL d   1       1.991   2.081   1.089  0.00  0.00    -0.092 F 
ENDROOT
TORSDOF 0
ENDMDL
