MODEL 1
REMARK minimizedAffinity 3.53095579
REMARK minimizedRMSD -1
REMARK  0 active torsions:
REMARK  status: ('A' for Active; 'I' for Inactive)
ROOT
ATOM      1  C   UNL d   1      -1.807   2.567  -5.439  0.00  0.00     0.124 A 
ATOM      2  C1  UNL d   1      -3.014   1.882  -5.423  0.00  0.00     0.062 A 
ATOM      3  C2  UNL d   1      -4.212   2.572  -5.583  0.00  0.00     0.162 A 
ATOM      4  C3  UNL d   1      -4.210   3.955  -5.761  0.00  0.00    -0.034 A 
ATOM      5  C4  UNL d   1      -2.992   4.637  -5.774  0.00  0.00     0.162 A 
ATOM      6  C5  UNL d   1      -1.797   3.944  -5.614  0.00  0.00     0.062 A 
ATOM      7  F   UNL d   1      -0.632   4.607  -5.629  0.00  0.00    -0.097 F 
ATOM      8  F1  UNL d   1      -2.953   5.968  -5.942  0.00  0.00    -0.096 F 
ATOM      9  I   UNL d   1      -5.999   4.990  -6.000  0.00  0.00    -0.060 I 
ATOM     10  F2  UNL d   1      -5.363   1.884  -5.564  0.00  0.00    -0.096 F 
ATOM     11  F3  UNL d   1      -3.026   0.552  -5.253  0.00  0.00    -0.097 F 
ATOM     12  F4  UNL d   1      -0.655   1.901  -5.284  0.00  0.00    -0.092 F 
ENDROOT
TORSDOF 0
ENDMDL
