MODEL 1
REMARK minimizedAffinity 18.4595299
REMARK minimizedRMSD -1
REMARK  0 active torsions:
REMARK  status: ('A' for Active; 'I' for Inactive)
ROOT
ATOM      1  C   UNL d   1      -3.016  -2.333  -3.746  0.00  0.00     0.124 A 
ATOM      2  C1  UNL d   1      -4.331  -2.009  -3.443  0.00  0.00     0.062 A 
ATOM      3  C2  UNL d   1      -4.722  -1.835  -2.119  0.00  0.00     0.162 A 
ATOM      4  C3  UNL d   1      -3.796  -1.983  -1.086  0.00  0.00    -0.034 A 
ATOM      5  C4  UNL d   1      -2.475  -2.310  -1.398  0.00  0.00     0.162 A 
ATOM      6  C5  UNL d   1      -2.090  -2.483  -2.723  0.00  0.00     0.062 A 
ATOM      7  F   UNL d   1      -0.818  -2.796  -3.014  0.00  0.00    -0.097 F 
ATOM      8  F1  UNL d   1      -1.559  -2.460  -0.430  0.00  0.00    -0.096 F 
ATOM      9  I   UNL d   1      -4.377  -1.724   0.896  0.00  0.00    -0.060 I 
ATOM     10  F2  UNL d   1      -6.000  -1.522  -1.855  0.00  0.00    -0.096 F 
ATOM     11  F3  UNL d   1      -5.228  -1.864  -4.429  0.00  0.00    -0.097 F 
ATOM     12  F4  UNL d   1      -2.643  -2.501  -5.021  0.00  0.00    -0.092 F 
ENDROOT
TORSDOF 0
ENDMDL
