MODEL 1
REMARK minimizedAffinity -0.711395323
REMARK minimizedRMSD -1
REMARK  0 active torsions:
REMARK  status: ('A' for Active; 'I' for Inactive)
ROOT
ATOM      1  C   UNL d   1      -2.397   4.089  -5.594  0.00  0.00     0.124 A 
ATOM      2  C1  UNL d   1      -3.709   4.513  -5.753  0.00  0.00     0.062 A 
ATOM      3  C2  UNL d   1      -4.739   3.582  -5.845  0.00  0.00     0.162 A 
ATOM      4  C3  UNL d   1      -4.462   2.217  -5.777  0.00  0.00    -0.034 A 
ATOM      5  C4  UNL d   1      -3.139   1.798  -5.618  0.00  0.00     0.162 A 
ATOM      6  C5  UNL d   1      -2.113   2.733  -5.527  0.00  0.00     0.062 A 
ATOM      7  F   UNL d   1      -0.846   2.321  -5.373  0.00  0.00    -0.097 F 
ATOM      8  F1  UNL d   1      -2.837   0.493  -5.549  0.00  0.00    -0.096 F 
ATOM      9  I   UNL d   1      -5.999   0.821  -5.914  0.00  0.00    -0.060 I 
ATOM     10  F2  UNL d   1      -5.997   4.020  -5.998  0.00  0.00    -0.096 F 
ATOM     11  F3  UNL d   1      -3.985   5.824  -5.819  0.00  0.00    -0.097 F 
ATOM     12  F4  UNL d   1      -1.407   4.988  -5.507  0.00  0.00    -0.092 F 
ENDROOT
TORSDOF 0
ENDMDL
