MODEL 1
REMARK minimizedAffinity 9.93460941
REMARK minimizedRMSD -1
REMARK  0 active torsions:
REMARK  status: ('A' for Active; 'I' for Inactive)
ROOT
ATOM      1  C   UNL d   1       3.769  -0.088  -1.349  0.00  0.00     0.124 A 
ATOM      2  C1  UNL d   1       2.617  -0.832  -1.135  0.00  0.00     0.062 A 
ATOM      3  C2  UNL d   1       1.459  -0.212  -0.676  0.00  0.00     0.162 A 
ATOM      4  C3  UNL d   1       1.446   1.160  -0.427  0.00  0.00    -0.034 A 
ATOM      5  C4  UNL d   1       2.609   1.902  -0.643  0.00  0.00     0.162 A 
ATOM      6  C5  UNL d   1       3.764   1.278  -1.103  0.00  0.00     0.062 A 
ATOM      7  F   UNL d   1       4.876   1.999  -1.308  0.00  0.00    -0.097 F 
ATOM      8  F1  UNL d   1       2.631   3.223  -0.414  0.00  0.00    -0.096 F 
ATOM      9  I   UNL d   1      -0.284   2.090   0.261  0.00  0.00    -0.060 I 
ATOM     10  F2  UNL d   1       0.360  -0.956  -0.478  0.00  0.00    -0.096 F 
ATOM     11  F3  UNL d   1       2.620  -2.152  -1.372  0.00  0.00    -0.097 F 
ATOM     12  F4  UNL d   1       4.883  -0.686  -1.791  0.00  0.00    -0.092 F 
ENDROOT
TORSDOF 0
ENDMDL
