MODEL 1
REMARK minimizedAffinity 1.97224033
REMARK minimizedRMSD -1
REMARK  0 active torsions:
REMARK  status: ('A' for Active; 'I' for Inactive)
ROOT
ATOM      1  C   UNL d   1      -3.241  -3.072  -5.615  0.00  0.00     0.124 A 
ATOM      2  C1  UNL d   1      -2.184  -2.193  -5.419  0.00  0.00     0.062 A 
ATOM      3  C2  UNL d   1      -2.408  -0.820  -5.418  0.00  0.00     0.162 A 
ATOM      4  C3  UNL d   1      -3.693  -0.315  -5.612  0.00  0.00    -0.034 A 
ATOM      5  C4  UNL d   1      -4.751  -1.205  -5.810  0.00  0.00     0.162 A 
ATOM      6  C5  UNL d   1      -4.523  -2.577  -5.810  0.00  0.00     0.062 A 
ATOM      7  F   UNL d   1      -5.545  -3.424  -6.000  0.00  0.00    -0.097 F 
ATOM      8  F1  UNL d   1      -6.000  -0.754  -5.999  0.00  0.00    -0.096 F 
ATOM      9  I   UNL d   1      -4.031   1.739  -5.611  0.00  0.00    -0.060 I 
ATOM     10  F2  UNL d   1      -1.368   0.006  -5.226  0.00  0.00    -0.096 F 
ATOM     11  F3  UNL d   1      -0.945  -2.669  -5.231  0.00  0.00    -0.097 F 
ATOM     12  F4  UNL d   1      -3.023  -4.393  -5.617  0.00  0.00    -0.092 F 
ENDROOT
TORSDOF 0
ENDMDL
