MODEL 1
REMARK minimizedAffinity -1.42681611
REMARK minimizedRMSD -1
REMARK  0 active torsions:
REMARK  status: ('A' for Active; 'I' for Inactive)
ROOT
ATOM      1  C   UNL d   1       2.632  -1.347  -2.700  0.00  0.00     0.124 A 
ATOM      2  C1  UNL d   1       3.451  -2.446  -2.477  0.00  0.00     0.062 A 
ATOM      3  C2  UNL d   1       4.412  -2.806  -3.418  0.00  0.00     0.162 A 
ATOM      4  C3  UNL d   1       4.560  -2.066  -4.591  0.00  0.00    -0.034 A 
ATOM      5  C4  UNL d   1       3.732  -0.963  -4.809  0.00  0.00     0.162 A 
ATOM      6  C5  UNL d   1       2.774  -0.607  -3.865  0.00  0.00     0.062 A 
ATOM      7  F   UNL d   1       1.984   0.454  -4.083  0.00  0.00    -0.097 F 
ATOM      8  F1  UNL d   1       3.848  -0.229  -5.926  0.00  0.00    -0.096 F 
ATOM      9  I   UNL d   1       5.995  -2.601  -6.000  0.00  0.00    -0.060 I 
ATOM     10  F2  UNL d   1       5.189  -3.872  -3.176  0.00  0.00    -0.096 F 
ATOM     11  F3  UNL d   1       3.316  -3.163  -1.352  0.00  0.00    -0.097 F 
ATOM     12  F4  UNL d   1       1.708  -1.004  -1.794  0.00  0.00    -0.092 F 
ENDROOT
TORSDOF 0
ENDMDL
