MODEL 1
REMARK minimizedAffinity 19.3538265
REMARK minimizedRMSD -1
REMARK  0 active torsions:
REMARK  status: ('A' for Active; 'I' for Inactive)
ROOT
ATOM      1  C   UNL d   1      -2.482   4.095  -5.286  0.00  0.00     0.124 A 
ATOM      2  C1  UNL d   1      -3.798   4.348  -5.646  0.00  0.00     0.062 A 
ATOM      3  C2  UNL d   1      -4.735   3.318  -5.647  0.00  0.00     0.162 A 
ATOM      4  C3  UNL d   1      -4.358   2.025  -5.285  0.00  0.00    -0.034 A 
ATOM      5  C4  UNL d   1      -3.032   1.778  -4.925  0.00  0.00     0.162 A 
ATOM      6  C5  UNL d   1      -2.100   2.811  -4.926  0.00  0.00     0.062 A 
ATOM      7  F   UNL d   1      -0.829   2.564  -4.577  0.00  0.00    -0.097 F 
ATOM      8  F1  UNL d   1      -2.636   0.546  -4.571  0.00  0.00    -0.096 F 
ATOM      9  I   UNL d   1      -5.755   0.482  -5.285  0.00  0.00    -0.060 I 
ATOM     10  F2  UNL d   1      -5.999   3.592  -6.000  0.00  0.00    -0.096 F 
ATOM     11  F3  UNL d   1      -4.170   5.588  -5.996  0.00  0.00    -0.097 F 
ATOM     12  F4  UNL d   1      -1.583   5.088  -5.287  0.00  0.00    -0.092 F 
ENDROOT
TORSDOF 0
ENDMDL
