MODEL 1
REMARK minimizedAffinity -1.91609538
REMARK minimizedRMSD -1
REMARK  0 active torsions:
REMARK  status: ('A' for Active; 'I' for Inactive)
ROOT
ATOM      1  C   UNL d   1      -1.303  -3.907  -4.685  0.00  0.00     0.124 A 
ATOM      2  C1  UNL d   1      -1.437  -2.529  -4.582  0.00  0.00     0.062 A 
ATOM      3  C2  UNL d   1      -2.627  -1.912  -4.956  0.00  0.00     0.162 A 
ATOM      4  C3  UNL d   1      -3.693  -2.672  -5.438  0.00  0.00    -0.034 A 
ATOM      5  C4  UNL d   1      -3.550  -4.057  -5.540  0.00  0.00     0.162 A 
ATOM      6  C5  UNL d   1      -2.359  -4.669  -5.164  0.00  0.00     0.062 A 
ATOM      7  F   UNL d   1      -2.231  -6.000  -5.265  0.00  0.00    -0.097 F 
ATOM      8  F1  UNL d   1      -4.555  -4.817  -5.999  0.00  0.00    -0.096 F 
ATOM      9  I   UNL d   1      -5.474  -1.752  -5.999  0.00  0.00    -0.060 I 
ATOM     10  F2  UNL d   1      -2.729  -0.579  -4.845  0.00  0.00    -0.096 F 
ATOM     11  F3  UNL d   1      -0.418  -1.791  -4.120  0.00  0.00    -0.097 F 
ATOM     12  F4  UNL d   1      -0.157  -4.498  -4.325  0.00  0.00    -0.092 F 
ENDROOT
TORSDOF 0
ENDMDL
