MODEL 1
REMARK minimizedAffinity 3.17999148
REMARK minimizedRMSD -1
REMARK  0 active torsions:
REMARK  status: ('A' for Active; 'I' for Inactive)
ROOT
ATOM      1  C   UNL d   1      -0.354  -1.193  -2.388  0.00  0.00     0.124 A 
ATOM      2  C1  UNL d   1      -0.568   0.144  -2.085  0.00  0.00     0.062 A 
ATOM      3  C2  UNL d   1      -1.619   0.837  -2.679  0.00  0.00     0.162 A 
ATOM      4  C3  UNL d   1      -2.466   0.193  -3.581  0.00  0.00    -0.034 A 
ATOM      5  C4  UNL d   1      -2.243  -1.152  -3.882  0.00  0.00     0.162 A 
ATOM      6  C5  UNL d   1      -1.192  -1.840  -3.286  0.00  0.00     0.062 A 
ATOM      7  F   UNL d   1      -0.986  -3.132  -3.581  0.00  0.00    -0.097 F 
ATOM      8  F1  UNL d   1      -3.038  -1.801  -4.746  0.00  0.00    -0.096 F 
ATOM      9  I   UNL d   1      -4.039   1.226  -4.471  0.00  0.00    -0.060 I 
ATOM     10  F2  UNL d   1      -1.803   2.129  -2.367  0.00  0.00    -0.096 F 
ATOM     11  F3  UNL d   1       0.240   0.771  -1.218  0.00  0.00    -0.097 F 
ATOM     12  F4  UNL d   1       0.659  -1.857  -1.816  0.00  0.00    -0.092 F 
ENDROOT
TORSDOF 0
ENDMDL
