MODEL 1
REMARK minimizedAffinity -3.9775722
REMARK minimizedRMSD -1
REMARK  2 active torsions:
REMARK  status: ('A' for Active; 'I' for Inactive)
REMARK    1  A    between atoms: C1_2  and  C2_3 
REMARK    2  A    between atoms: C2_3  and  C3_4 
ROOT
ATOM      1  C3  UNL d   1      -0.109   0.443   0.029  0.00  0.00    -0.075 A 
ATOM      2  C4  UNL d   1       0.361  -0.691  -0.649  0.00  0.00     0.002 A 
ATOM      3  C5  UNL d   1      -0.000  -1.970  -0.226  0.00  0.00     0.002 A 
ATOM      4  C6  UNL d   1      -0.826  -2.132   0.884  0.00  0.00    -0.004 A 
ATOM      5  C7  UNL d   1      -1.286  -1.014   1.576  0.00  0.00     0.002 A 
ATOM      6  C8  UNL d   1      -0.930   0.268   1.152  0.00  0.00     0.002 A 
ENDROOT
BRANCH   1   7
ATOM      7  C2  UNL d   1       0.254   1.831  -0.441  0.00  0.00     0.056 C 
BRANCH   7   8
ATOM      8  C1  UNL d   1       0.722   2.767   0.678  0.00  0.00     0.007 C 
ATOM      9  C   UNL d   1       2.088   3.385   0.412  0.00  0.00     0.009 C 
ENDBRANCH   7   8
ENDBRANCH   1   7
TORSDOF 2
ENDMDL
