MODEL 1
REMARK minimizedAffinity -3.47818327
REMARK minimizedRMSD -1
REMARK  2 active torsions:
REMARK  status: ('A' for Active; 'I' for Inactive)
REMARK    1  A    between atoms: C1_2  and  C2_3 
REMARK    2  A    between atoms: C2_3  and  C3_4 
ROOT
ATOM      1  C3  UNL d   1       0.340   0.761  -0.160  0.00  0.00    -0.075 A 
ATOM      2  C4  UNL d   1       0.118  -0.230   0.808  0.00  0.00     0.002 A 
ATOM      3  C5  UNL d   1       0.124  -1.579   0.455  0.00  0.00     0.002 A 
ATOM      4  C6  UNL d   1       0.340  -1.955  -0.868  0.00  0.00    -0.004 A 
ATOM      5  C7  UNL d   1       0.545  -0.979  -1.841  0.00  0.00     0.002 A 
ATOM      6  C8  UNL d   1       0.545   0.372  -1.490  0.00  0.00     0.002 A 
ENDROOT
BRANCH   1   7
ATOM      7  C2  UNL d   1       0.365   2.222   0.221  0.00  0.00     0.056 C 
BRANCH   7   8
ATOM      8  C1  UNL d   1       1.765   2.844   0.214  0.00  0.00     0.007 C 
ATOM      9  C   UNL d   1       2.165   3.438   1.558  0.00  0.00     0.009 C 
ENDBRANCH   7   8
ENDBRANCH   1   7
TORSDOF 2
ENDMDL
