MODEL 1
REMARK minimizedAffinity -5.1154294
REMARK minimizedRMSD -1
REMARK  2 active torsions:
REMARK  status: ('A' for Active; 'I' for Inactive)
REMARK    1  A    between atoms: C1_2  and  C2_3 
REMARK    2  A    between atoms: C2_3  and  C3_4 
ROOT
ATOM      1  C3  UNL d   1      -1.091  -0.813   0.939  0.00  0.00    -0.075 A 
ATOM      2  C4  UNL d   1      -0.588   0.022  -0.069  0.00  0.00     0.002 A 
ATOM      3  C5  UNL d   1       0.048  -0.520  -1.186  0.00  0.00     0.002 A 
ATOM      4  C6  UNL d   1       0.198  -1.900  -1.305  0.00  0.00    -0.004 A 
ATOM      5  C7  UNL d   1      -0.282  -2.738  -0.301  0.00  0.00     0.002 A 
ATOM      6  C8  UNL d   1      -0.923  -2.199   0.815  0.00  0.00     0.002 A 
ENDROOT
BRANCH   1   7
ATOM      7  C2  UNL d   1      -1.806  -0.234   2.136  0.00  0.00     0.056 C 
BRANCH   7   8
ATOM      8  C1  UNL d   1      -2.983   0.679   1.778  0.00  0.00     0.007 C 
ATOM      9  C   UNL d   1      -3.847   1.044   2.978  0.00  0.00     0.009 C 
ENDBRANCH   7   8
ENDBRANCH   1   7
TORSDOF 2
ENDMDL
