MODEL 1
REMARK minimizedAffinity 1.0642066
REMARK minimizedRMSD -1
REMARK  2 active torsions:
REMARK  status: ('A' for Active; 'I' for Inactive)
REMARK    1  A    between atoms: C1_2  and  C2_3 
REMARK    2  A    between atoms: C2_3  and  C3_4 
ROOT
ATOM      1  C3  UNL d   1      -1.001  -1.177   0.352  0.00  0.00    -0.075 A 
ATOM      2  C4  UNL d   1      -1.677  -2.389   0.553  0.00  0.00     0.002 A 
ATOM      3  C5  UNL d   1      -1.007  -3.605   0.411  0.00  0.00     0.002 A 
ATOM      4  C6  UNL d   1       0.340  -3.625   0.057  0.00  0.00    -0.004 A 
ATOM      5  C7  UNL d   1       1.017  -2.427  -0.161  0.00  0.00     0.002 A 
ATOM      6  C8  UNL d   1       0.350  -1.209  -0.015  0.00  0.00     0.002 A 
ENDROOT
BRANCH   1   7
ATOM      7  C2  UNL d   1      -1.713   0.143   0.533  0.00  0.00     0.056 C 
BRANCH   7   8
ATOM      8  C1  UNL d   1      -2.192   0.402   1.966  0.00  0.00     0.007 C 
ATOM      9  C   UNL d   1      -3.549   1.089   2.030  0.00  0.00     0.009 C 
ENDBRANCH   7   8
ENDBRANCH   1   7
TORSDOF 2
ENDMDL
