MODEL 1
REMARK minimizedAffinity -5.06781769
REMARK minimizedRMSD -1
REMARK  2 active torsions:
REMARK  status: ('A' for Active; 'I' for Inactive)
REMARK    1  A    between atoms: C1_2  and  C2_3 
REMARK    2  A    between atoms: C2_3  and  C3_4 
ROOT
ATOM      1  C3  UNL d   1      -0.055  -0.376   0.193  0.00  0.00    -0.075 A 
ATOM      2  C4  UNL d   1      -0.692  -0.985   1.283  0.00  0.00     0.002 A 
ATOM      3  C5  UNL d   1      -0.715  -2.375   1.403  0.00  0.00     0.002 A 
ATOM      4  C6  UNL d   1      -0.113  -3.172   0.432  0.00  0.00    -0.004 A 
ATOM      5  C7  UNL d   1       0.509  -2.577  -0.664  0.00  0.00     0.002 A 
ATOM      6  C8  UNL d   1       0.538  -1.187  -0.784  0.00  0.00     0.002 A 
ENDROOT
BRANCH   1   7
ATOM      7  C2  UNL d   1       0.000   1.128   0.072  0.00  0.00     0.056 C 
BRANCH   7   8
ATOM      8  C1  UNL d   1       1.421   1.697  -0.007  0.00  0.00     0.007 C 
ATOM      9  C   UNL d   1       1.627   2.924   0.871  0.00  0.00     0.009 C 
ENDBRANCH   7   8
ENDBRANCH   1   7
TORSDOF 2
ENDMDL
