MODEL 1
REMARK minimizedAffinity -6.16715336
REMARK minimizedRMSD -1
REMARK  2 active torsions:
REMARK  status: ('A' for Active; 'I' for Inactive)
REMARK    1  A    between atoms: C1_2  and  C2_3 
REMARK    2  A    between atoms: C2_3  and  C3_4 
ROOT
ATOM      1  C3  UNL d   1      -0.208  -0.399   0.140  0.00  0.00    -0.075 A 
ATOM      2  C4  UNL d   1      -0.998  -0.822   1.219  0.00  0.00     0.002 A 
ATOM      3  C5  UNL d   1      -0.844  -2.103   1.750  0.00  0.00     0.002 A 
ATOM      4  C6  UNL d   1       0.092  -2.979   1.205  0.00  0.00    -0.004 A 
ATOM      5  C7  UNL d   1       0.871  -2.575   0.123  0.00  0.00     0.002 A 
ATOM      6  C8  UNL d   1       0.722  -1.293  -0.408  0.00  0.00     0.002 A 
ENDROOT
BRANCH   1   7
ATOM      7  C2  UNL d   1      -0.349   0.996  -0.421  0.00  0.00     0.056 C 
BRANCH   7   8
ATOM      8  C1  UNL d   1       0.705   1.983   0.092  0.00  0.00     0.007 C 
ATOM      9  C   UNL d   1       0.103   3.183   0.812  0.00  0.00     0.009 C 
ENDBRANCH   7   8
ENDBRANCH   1   7
TORSDOF 2
ENDMDL
