MODEL 1
REMARK minimizedAffinity -2.05009246
REMARK minimizedRMSD -1
REMARK  2 active torsions:
REMARK  status: ('A' for Active; 'I' for Inactive)
REMARK    1  A    between atoms: C1_2  and  C2_3 
REMARK    2  A    between atoms: C2_3  and  C3_4 
ROOT
ATOM      1  C3  UNL d   1       0.256   0.542  -0.052  0.00  0.00    -0.075 A 
ATOM      2  C4  UNL d   1      -0.253  -0.424   0.828  0.00  0.00     0.002 A 
ATOM      3  C5  UNL d   1      -0.455  -1.736   0.400  0.00  0.00     0.002 A 
ATOM      4  C6  UNL d   1      -0.161  -2.096  -0.914  0.00  0.00    -0.004 A 
ATOM      5  C7  UNL d   1       0.329  -1.141  -1.801  0.00  0.00     0.002 A 
ATOM      6  C8  UNL d   1       0.536   0.172  -1.374  0.00  0.00     0.002 A 
ENDROOT
BRANCH   1   7
ATOM      7  C2  UNL d   1       0.504   1.957   0.414  0.00  0.00     0.056 C 
BRANCH   7   8
ATOM      8  C1  UNL d   1       1.982   2.360   0.424  0.00  0.00     0.007 C 
ATOM      9  C   UNL d   1       2.322   3.372   1.510  0.00  0.00     0.009 C 
ENDBRANCH   7   8
ENDBRANCH   1   7
TORSDOF 2
ENDMDL
