MODEL 1
REMARK minimizedAffinity -5.40379
REMARK minimizedRMSD -1
REMARK  2 active torsions:
REMARK  status: ('A' for Active; 'I' for Inactive)
REMARK    1  A    between atoms: C1_2  and  C2_3 
REMARK    2  A    between atoms: C2_3  and  C3_4 
ROOT
ATOM      1  C3  UNL d   1      -0.136  -0.973  -0.322  0.00  0.00    -0.075 A 
ATOM      2  C4  UNL d   1      -0.212  -1.563   0.948  0.00  0.00     0.002 A 
ATOM      3  C5  UNL d   1       0.013  -2.931   1.108  0.00  0.00     0.002 A 
ATOM      4  C6  UNL d   1       0.307  -3.725   0.002  0.00  0.00    -0.004 A 
ATOM      5  C7  UNL d   1       0.369  -3.153  -1.266  0.00  0.00     0.002 A 
ATOM      6  C8  UNL d   1       0.148  -1.784  -1.429  0.00  0.00     0.002 A 
ENDROOT
BRANCH   1   7
ATOM      7  C2  UNL d   1      -0.350   0.512  -0.498  0.00  0.00     0.056 C 
BRANCH   7   8
ATOM      8  C1  UNL d   1      -0.089   1.334   0.769  0.00  0.00     0.007 C 
ATOM      9  C   UNL d   1       1.238   2.081   0.737  0.00  0.00     0.009 C 
ENDBRANCH   7   8
ENDBRANCH   1   7
TORSDOF 2
ENDMDL
