MODEL 1
REMARK minimizedAffinity -6.01543093
REMARK minimizedRMSD -1
REMARK  2 active torsions:
REMARK  status: ('A' for Active; 'I' for Inactive)
REMARK    1  A    between atoms: C1_2  and  C2_3 
REMARK    2  A    between atoms: C2_3  and  C3_4 
ROOT
ATOM      1  C3  UNL d   1       0.047   0.055  -0.160  0.00  0.00    -0.075 A 
ATOM      2  C4  UNL d   1       0.980  -0.971  -0.368  0.00  0.00     0.002 A 
ATOM      3  C5  UNL d   1       0.785  -2.231   0.199  0.00  0.00     0.002 A 
ATOM      4  C6  UNL d   1      -0.336  -2.478   0.987  0.00  0.00    -0.004 A 
ATOM      5  C7  UNL d   1      -1.261  -1.461   1.214  0.00  0.00     0.002 A 
ATOM      6  C8  UNL d   1      -1.071  -0.201   0.644  0.00  0.00     0.002 A 
ENDROOT
BRANCH   1   7
ATOM      7  C2  UNL d   1       0.237   1.412  -0.795  0.00  0.00     0.056 C 
BRANCH   7   8
ATOM      8  C1  UNL d   1       0.594   2.521   0.200  0.00  0.00     0.007 C 
ATOM      9  C   UNL d   1       2.081   2.845   0.230  0.00  0.00     0.009 C 
ENDBRANCH   7   8
ENDBRANCH   1   7
TORSDOF 2
ENDMDL
