MODEL 1
REMARK minimizedAffinity -4.90613556
REMARK minimizedRMSD -1
REMARK  2 active torsions:
REMARK  status: ('A' for Active; 'I' for Inactive)
REMARK    1  A    between atoms: C1_2  and  C2_3 
REMARK    2  A    between atoms: C2_3  and  C3_4 
ROOT
ATOM      1  C3  UNL d   1      -0.067   0.222  -0.042  0.00  0.00    -0.075 A 
ATOM      2  C4  UNL d   1      -1.126  -0.137   0.804  0.00  0.00     0.002 A 
ATOM      3  C5  UNL d   1      -1.452  -1.479   1.001  0.00  0.00     0.002 A 
ATOM      4  C6  UNL d   1      -0.731  -2.477   0.349  0.00  0.00    -0.004 A 
ATOM      5  C7  UNL d   1       0.313  -2.131  -0.506  0.00  0.00     0.002 A 
ATOM      6  C8  UNL d   1       0.644  -0.789  -0.702  0.00  0.00     0.002 A 
ENDROOT
BRANCH   1   7
ATOM      7  C2  UNL d   1       0.310   1.672  -0.236  0.00  0.00     0.056 C 
BRANCH   7   8
ATOM      8  C1  UNL d   1       1.723   2.019   0.245  0.00  0.00     0.007 C 
ATOM      9  C   UNL d   1       1.959   3.517   0.383  0.00  0.00     0.009 C 
ENDBRANCH   7   8
ENDBRANCH   1   7
TORSDOF 2
ENDMDL
