MODEL 1
REMARK minimizedAffinity -4.40923834
REMARK minimizedRMSD -1
REMARK  2 active torsions:
REMARK  status: ('A' for Active; 'I' for Inactive)
REMARK    1  A    between atoms: C1_2  and  C2_3 
REMARK    2  A    between atoms: C2_3  and  C3_4 
ROOT
ATOM      1  C3  UNL d   1      -0.610  -0.958  -0.199  0.00  0.00    -0.075 A 
ATOM      2  C4  UNL d   1      -0.082  -0.624  -1.455  0.00  0.00     0.002 A 
ATOM      3  C5  UNL d   1       0.099  -1.605  -2.430  0.00  0.00     0.002 A 
ATOM      4  C6  UNL d   1      -0.236  -2.930  -2.160  0.00  0.00    -0.004 A 
ATOM      5  C7  UNL d   1      -0.746  -3.276  -0.911  0.00  0.00     0.002 A 
ATOM      6  C8  UNL d   1      -0.932  -2.295   0.066  0.00  0.00     0.002 A 
ENDROOT
BRANCH   1   7
ATOM      7  C2  UNL d   1      -0.835   0.104   0.851  0.00  0.00     0.056 C 
BRANCH   7   8
ATOM      8  C1  UNL d   1      -2.312   0.381   1.152  0.00  0.00     0.007 C 
ATOM      9  C   UNL d   1      -2.633   0.378   2.640  0.00  0.00     0.009 C 
ENDBRANCH   7   8
ENDBRANCH   1   7
TORSDOF 2
ENDMDL
