MODEL 1
REMARK minimizedAffinity -3.55193305
REMARK minimizedRMSD -1
REMARK  1 active torsions:
REMARK  status: ('A' for Active; 'I' for Inactive)
REMARK    1  A    between atoms: C1_2  and  C2_3 
ROOT
ATOM      1  C2  UNL d   1       0.268   0.148  -0.121  0.00  0.00    -0.077 A 
ATOM      2  C3  UNL d   1      -0.675   1.138  -0.429  0.00  0.00     0.002 A 
ATOM      3  C4  UNL d   1      -1.086   2.049   0.546  0.00  0.00     0.002 A 
ATOM      4  C5  UNL d   1      -0.558   1.981   1.833  0.00  0.00    -0.004 A 
ATOM      5  C6  UNL d   1       0.379   0.998   2.150  0.00  0.00     0.002 A 
ATOM      6  C7  UNL d   1       0.791   0.086   1.177  0.00  0.00     0.002 A 
ENDROOT
BRANCH   1   7
ATOM      7  C1  UNL d   1       0.751  -0.804  -1.184  0.00  0.00     0.055 C 
ATOM      8  C   UNL d   1      -0.028  -2.112  -1.150  0.00  0.00     0.019 C 
ENDBRANCH   1   7
TORSDOF 1
ENDMDL
