MODEL 1
REMARK minimizedAffinity -3.48632288
REMARK minimizedRMSD -1
REMARK  1 active torsions:
REMARK  status: ('A' for Active; 'I' for Inactive)
REMARK    1  A    between atoms: C1_2  and  C2_3 
ROOT
ATOM      1  C2  UNL d   1      -0.080  -0.215  -0.091  0.00  0.00    -0.077 A 
ATOM      2  C3  UNL d   1      -0.997   0.807  -0.375  0.00  0.00     0.002 A 
ATOM      3  C4  UNL d   1      -1.355   1.728   0.611  0.00  0.00     0.002 A 
ATOM      4  C5  UNL d   1      -0.799   1.640   1.885  0.00  0.00    -0.004 A 
ATOM      5  C6  UNL d   1       0.112   0.625   2.178  0.00  0.00     0.002 A 
ATOM      6  C7  UNL d   1       0.470  -0.297   1.194  0.00  0.00     0.002 A 
ENDROOT
BRANCH   1   7
ATOM      7  C1  UNL d   1       0.345  -1.180  -1.167  0.00  0.00     0.055 C 
ATOM      8  C   UNL d   1      -0.339  -2.530  -1.002  0.00  0.00     0.019 C 
ENDBRANCH   1   7
TORSDOF 1
ENDMDL
