MODEL 1
REMARK minimizedAffinity -4.70712376
REMARK minimizedRMSD -1
REMARK  1 active torsions:
REMARK  status: ('A' for Active; 'I' for Inactive)
REMARK    1  A    between atoms: C1_2  and  C2_3 
ROOT
ATOM      1  C2  UNL d   1      -0.299   0.354   0.529  0.00  0.00    -0.077 A 
ATOM      2  C3  UNL d   1      -0.777   1.239  -0.448  0.00  0.00     0.002 A 
ATOM      3  C4  UNL d   1      -1.113   2.551  -0.109  0.00  0.00     0.002 A 
ATOM      4  C5  UNL d   1      -0.971   2.990   1.206  0.00  0.00    -0.004 A 
ATOM      5  C6  UNL d   1      -0.498   2.117   2.185  0.00  0.00     0.002 A 
ATOM      6  C7  UNL d   1      -0.163   0.805   1.848  0.00  0.00     0.002 A 
ENDROOT
BRANCH   1   7
ATOM      7  C1  UNL d   1       0.110  -1.047   0.155  0.00  0.00     0.055 C 
ATOM      8  C   UNL d   1       0.012  -1.271  -1.347  0.00  0.00     0.019 C 
ENDBRANCH   1   7
TORSDOF 1
ENDMDL
