MODEL 1
REMARK minimizedAffinity -5.95405865
REMARK minimizedRMSD -1
REMARK  1 active torsions:
REMARK  status: ('A' for Active; 'I' for Inactive)
REMARK    1  A    between atoms: C1_2  and  C2_3 
ROOT
ATOM      1  C2  UNL d   1      -0.535   1.408   0.566  0.00  0.00    -0.077 A 
ATOM      2  C3  UNL d   1      -0.646   1.137  -0.805  0.00  0.00     0.002 A 
ATOM      3  C4  UNL d   1      -0.013   0.023  -1.359  0.00  0.00     0.002 A 
ATOM      4  C5  UNL d   1       0.732  -0.831  -0.549  0.00  0.00    -0.004 A 
ATOM      5  C6  UNL d   1       0.851  -0.569   0.815  0.00  0.00     0.002 A 
ATOM      6  C7  UNL d   1       0.220   0.545   1.371  0.00  0.00     0.002 A 
ENDROOT
BRANCH   1   7
ATOM      7  C1  UNL d   1      -1.257   2.582   1.174  0.00  0.00     0.055 C 
ATOM      8  C   UNL d   1      -0.444   3.212   2.295  0.00  0.00     0.019 C 
ENDBRANCH   1   7
TORSDOF 1
ENDMDL
