MODEL 1
REMARK minimizedAffinity -5.95310259
REMARK minimizedRMSD -1
REMARK  1 active torsions:
REMARK  status: ('A' for Active; 'I' for Inactive)
REMARK    1  A    between atoms: C1_2  and  C2_3 
ROOT
ATOM      1  C2  UNL d   1      -0.250   1.042  -0.445  0.00  0.00    -0.077 A 
ATOM      2  C3  UNL d   1      -1.007   2.164  -0.809  0.00  0.00     0.002 A 
ATOM      3  C4  UNL d   1      -1.503   3.029   0.169  0.00  0.00     0.002 A 
ATOM      4  C5  UNL d   1      -1.244   2.782   1.515  0.00  0.00    -0.004 A 
ATOM      5  C6  UNL d   1      -0.494   1.667   1.887  0.00  0.00     0.002 A 
ATOM      6  C7  UNL d   1       0.002   0.801   0.912  0.00  0.00     0.002 A 
ENDROOT
BRANCH   1   7
ATOM      7  C1  UNL d   1       0.328   0.135  -1.501  0.00  0.00     0.055 C 
ATOM      8  C   UNL d   1       0.537  -1.274  -0.966  0.00  0.00     0.019 C 
ENDBRANCH   1   7
TORSDOF 1
ENDMDL
