MODEL 1
REMARK minimizedAffinity -4.61123228
REMARK minimizedRMSD -1
REMARK  1 active torsions:
REMARK  status: ('A' for Active; 'I' for Inactive)
REMARK    1  A    between atoms: C1_2  and  C2_3 
ROOT
ATOM      1  C2  UNL d   1      -0.007   0.814   0.158  0.00  0.00    -0.077 A 
ATOM      2  C3  UNL d   1      -0.110   2.048  -0.500  0.00  0.00     0.002 A 
ATOM      3  C4  UNL d   1      -0.619   3.164   0.167  0.00  0.00     0.002 A 
ATOM      4  C5  UNL d   1      -1.025   3.058   1.495  0.00  0.00    -0.004 A 
ATOM      5  C6  UNL d   1      -0.929   1.835   2.158  0.00  0.00     0.002 A 
ATOM      6  C7  UNL d   1      -0.421   0.718   1.492  0.00  0.00     0.002 A 
ENDROOT
BRANCH   1   7
ATOM      7  C1  UNL d   1       0.588  -0.378  -0.545  0.00  0.00     0.055 C 
ATOM      8  C   UNL d   1       1.178   0.011  -1.893  0.00  0.00     0.019 C 
ENDBRANCH   1   7
TORSDOF 1
ENDMDL
