MODEL 1
REMARK minimizedAffinity -5.7647171
REMARK minimizedRMSD -1
REMARK  1 active torsions:
REMARK  status: ('A' for Active; 'I' for Inactive)
REMARK    1  A    between atoms: C1_2  and  C2_3 
ROOT
ATOM      1  C2  UNL d   1      -0.833   1.065   0.343  0.00  0.00    -0.077 A 
ATOM      2  C3  UNL d   1      -0.613   1.636  -0.918  0.00  0.00     0.002 A 
ATOM      3  C4  UNL d   1      -0.576   3.023  -1.069  0.00  0.00     0.002 A 
ATOM      4  C5  UNL d   1      -0.755   3.851   0.038  0.00  0.00    -0.004 A 
ATOM      5  C6  UNL d   1      -0.977   3.293   1.296  0.00  0.00     0.002 A 
ATOM      6  C7  UNL d   1      -1.015   1.906   1.449  0.00  0.00     0.002 A 
ENDROOT
BRANCH   1   7
ATOM      7  C1  UNL d   1      -0.824  -0.432   0.516  0.00  0.00     0.055 C 
ATOM      8  C   UNL d   1       0.376  -1.061  -0.178  0.00  0.00     0.019 C 
ENDBRANCH   1   7
TORSDOF 1
ENDMDL
