MODEL 1
REMARK minimizedAffinity -5.9135499
REMARK minimizedRMSD -1
REMARK  1 active torsions:
REMARK  status: ('A' for Active; 'I' for Inactive)
REMARK    1  A    between atoms: C1_2  and  C2_3 
ROOT
ATOM      1  C2  UNL d   1      -0.484   0.886   0.316  0.00  0.00    -0.077 A 
ATOM      2  C3  UNL d   1      -0.390   1.474  -0.953  0.00  0.00     0.002 A 
ATOM      3  C4  UNL d   1      -0.510   2.857  -1.101  0.00  0.00     0.002 A 
ATOM      4  C5  UNL d   1      -0.720   3.663   0.016  0.00  0.00    -0.004 A 
ATOM      5  C6  UNL d   1      -0.817   3.088   1.282  0.00  0.00     0.002 A 
ATOM      6  C7  UNL d   1      -0.699   1.705   1.432  0.00  0.00     0.002 A 
ENDROOT
BRANCH   1   7
ATOM      7  C1  UNL d   1      -0.306  -0.601   0.484  0.00  0.00     0.055 C 
ATOM      8  C   UNL d   1       0.198  -1.246  -0.799  0.00  0.00     0.019 C 
ENDBRANCH   1   7
TORSDOF 1
ENDMDL
