MODEL 1
REMARK minimizedAffinity -4.76648331
REMARK minimizedRMSD -1
REMARK  1 active torsions:
REMARK  status: ('A' for Active; 'I' for Inactive)
REMARK    1  A    between atoms: C1_2  and  C2_3 
ROOT
ATOM      1  C2  UNL d   1      -0.250   0.913   0.278  0.00  0.00    -0.077 A 
ATOM      2  C3  UNL d   1      -0.249   1.816  -0.794  0.00  0.00     0.002 A 
ATOM      3  C4  UNL d   1      -0.832   3.077  -0.655  0.00  0.00     0.002 A 
ATOM      4  C5  UNL d   1      -1.417   3.447   0.554  0.00  0.00    -0.004 A 
ATOM      5  C6  UNL d   1      -1.425   2.555   1.626  0.00  0.00     0.002 A 
ATOM      6  C7  UNL d   1      -0.843   1.294   1.489  0.00  0.00     0.002 A 
ENDROOT
BRANCH   1   7
ATOM      7  C1  UNL d   1       0.422  -0.429   0.147  0.00  0.00     0.055 C 
ATOM      8  C   UNL d   1      -0.548  -1.487  -0.357  0.00  0.00     0.019 C 
ENDBRANCH   1   7
TORSDOF 1
ENDMDL
