MODEL 1
REMARK minimizedAffinity 13.9247675
REMARK minimizedRMSD -1
REMARK  2 active torsions:
REMARK  status: ('A' for Active; 'I' for Inactive)
REMARK    1  A    between atoms: C2'_3  and  C1'_4 
REMARK    2  A    between atoms: C1'_4  and  C1_5 
ROOT
ATOM      1  C1  I4B d   1       3.728   2.250  -1.300  0.00  0.00    -0.075 A 
ATOM      2  C2  I4B d   1       3.720   3.529  -0.800  0.00  0.00     0.003 A 
ATOM      3  C3  I4B d   1       4.863   4.354  -0.937  0.00  0.00     0.002 A 
ATOM      4  C4  I4B d   1       6.000   3.848  -1.532  0.00  0.00    -0.004 A 
ATOM      5  C5  I4B d   1       5.998   2.559  -2.058  0.00  0.00     0.002 A 
ATOM      6  C6  I4B d   1       4.851   1.759  -1.953  0.00  0.00     0.003 A 
ENDROOT
BRANCH   1   7
ATOM      7  C1' I4B d   1       2.516   1.394  -1.108  0.00  0.00     0.060 C 
BRANCH   7   8
ATOM      8  C2' I4B d   1       2.976   0.040  -0.607  0.00  0.00    -0.013 C 
ATOM      9  C4' I4B d   1       2.696  -0.121   0.863  0.00  0.00     0.013 C 
ATOM     10  C3' I4B d   1       2.273  -1.013  -1.411  0.00  0.00     0.013 C 
ENDBRANCH   7   8
ENDBRANCH   1   7
TORSDOF 2
ENDMDL
