MODEL 1
REMARK minimizedAffinity 2.93162012
REMARK minimizedRMSD -1
REMARK  2 active torsions:
REMARK  status: ('A' for Active; 'I' for Inactive)
REMARK    1  A    between atoms: C2'_3  and  C1'_4 
REMARK    2  A    between atoms: C1'_4  and  C1_5 
ROOT
ATOM      1  C1  I4B d   1      -3.185   2.095  -3.418  0.00  0.00    -0.075 A 
ATOM      2  C2  I4B d   1      -4.211   1.897  -2.528  0.00  0.00     0.003 A 
ATOM      3  C3  I4B d   1      -4.157   0.826  -1.604  0.00  0.00     0.002 A 
ATOM      4  C4  I4B d   1      -3.089  -0.048  -1.639  0.00  0.00    -0.004 A 
ATOM      5  C5  I4B d   1      -2.038   0.168  -2.526  0.00  0.00     0.002 A 
ATOM      6  C6  I4B d   1      -2.080   1.253  -3.413  0.00  0.00     0.003 A 
ENDROOT
BRANCH   1   7
ATOM      7  C1' I4B d   1      -3.290   3.217  -4.402  0.00  0.00     0.060 C 
BRANCH   7   8
ATOM      8  C2' I4B d   1      -4.360   2.854  -5.411  0.00  0.00    -0.013 C 
ATOM      9  C4' I4B d   1      -4.598   1.367  -5.443  0.00  0.00     0.013 C 
ATOM     10  C3' I4B d   1      -5.612   3.594  -5.045  0.00  0.00     0.013 C 
ENDBRANCH   7   8
ENDBRANCH   1   7
TORSDOF 2
ENDMDL
