MODEL 1
REMARK minimizedAffinity 5.55205107
REMARK minimizedRMSD -1
REMARK  2 active torsions:
REMARK  status: ('A' for Active; 'I' for Inactive)
REMARK    1  A    between atoms: C2'_3  and  C1'_4 
REMARK    2  A    between atoms: C1'_4  and  C1_5 
ROOT
ATOM      1  C1  I4B d   1      -2.854   1.012  -0.584  0.00  0.00    -0.075 A 
ATOM      2  C2  I4B d   1      -2.164   0.881  -1.763  0.00  0.00     0.003 A 
ATOM      3  C3  I4B d   1      -0.761   1.067  -1.793  0.00  0.00     0.002 A 
ATOM      4  C4  I4B d   1      -0.099   1.430  -0.638  0.00  0.00    -0.004 A 
ATOM      5  C5  I4B d   1      -0.797   1.540   0.562  0.00  0.00     0.002 A 
ATOM      6  C6  I4B d   1      -2.181   1.318   0.592  0.00  0.00     0.003 A 
ENDROOT
BRANCH   1   7
ATOM      7  C1' I4B d   1      -4.340   0.841  -0.595  0.00  0.00     0.060 C 
BRANCH   7   8
ATOM      8  C2' I4B d   1      -4.914   1.810  -1.609  0.00  0.00    -0.013 C 
ATOM      9  C4' I4B d   1      -5.442   1.085  -2.818  0.00  0.00     0.013 C 
ATOM     10  C3' I4B d   1      -5.996   2.599  -0.934  0.00  0.00     0.013 C 
ENDBRANCH   7   8
ENDBRANCH   1   7
TORSDOF 2
ENDMDL
