MODEL 1
REMARK minimizedAffinity 2.93084073
REMARK minimizedRMSD -1
REMARK  2 active torsions:
REMARK  status: ('A' for Active; 'I' for Inactive)
REMARK    1  A    between atoms: C2'_3  and  C1'_4 
REMARK    2  A    between atoms: C1'_4  and  C1_5 
ROOT
ATOM      1  C1  I4B d   1       2.111   0.935   0.306  0.00  0.00    -0.075 A 
ATOM      2  C2  I4B d   1       2.785   2.089   0.619  0.00  0.00     0.003 A 
ATOM      3  C3  I4B d   1       2.127   3.341   0.546  0.00  0.00     0.002 A 
ATOM      4  C4  I4B d   1       0.819   3.397   0.111  0.00  0.00    -0.004 A 
ATOM      5  C5  I4B d   1       0.130   2.223  -0.183  0.00  0.00     0.002 A 
ATOM      6  C6  I4B d   1       0.776   0.984  -0.073  0.00  0.00     0.003 A 
ENDROOT
BRANCH   1   7
ATOM      7  C1' I4B d   1       2.846  -0.366   0.362  0.00  0.00     0.060 C 
BRANCH   7   8
ATOM      8  C2' I4B d   1       2.065  -1.379  -0.451  0.00  0.00    -0.013 C 
ATOM      9  C4' I4B d   1       2.788  -1.731  -1.724  0.00  0.00     0.013 C 
ATOM     10  C3' I4B d   1       1.851  -2.593   0.404  0.00  0.00     0.013 C 
ENDBRANCH   7   8
ENDBRANCH   1   7
TORSDOF 2
ENDMDL
