MODEL 1
REMARK minimizedAffinity 14.2984028
REMARK minimizedRMSD -1
REMARK  2 active torsions:
REMARK  status: ('A' for Active; 'I' for Inactive)
REMARK    1  A    between atoms: C2'_3  and  C1'_4 
REMARK    2  A    between atoms: C1'_4  and  C1_5 
ROOT
ATOM      1  C1  I4B d   1       1.231  -1.654  -1.258  0.00  0.00    -0.075 A 
ATOM      2  C2  I4B d   1       1.531  -2.780  -0.533  0.00  0.00     0.003 A 
ATOM      3  C3  I4B d   1       2.515  -2.733   0.484  0.00  0.00     0.002 A 
ATOM      4  C4  I4B d   1       3.206  -1.559   0.706  0.00  0.00    -0.004 A 
ATOM      5  C5  I4B d   1       2.885  -0.412  -0.014  0.00  0.00     0.002 A 
ATOM      6  C6  I4B d   1       1.882  -0.456  -0.994  0.00  0.00     0.003 A 
ENDROOT
BRANCH   1   7
ATOM      7  C1' I4B d   1       0.209  -1.748  -2.346  0.00  0.00     0.060 C 
BRANCH   7   8
ATOM      8  C2' I4B d   1      -0.945  -0.837  -1.983  0.00  0.00    -0.013 C 
ATOM      9  C4' I4B d   1      -1.270   0.108  -3.109  0.00  0.00     0.013 C 
ATOM     10  C3' I4B d   1      -2.125  -1.698  -1.642  0.00  0.00     0.013 C 
ENDBRANCH   7   8
ENDBRANCH   1   7
TORSDOF 2
ENDMDL
