MODEL 1
REMARK minimizedAffinity 2.95139384
REMARK minimizedRMSD -1
REMARK  2 active torsions:
REMARK  status: ('A' for Active; 'I' for Inactive)
REMARK    1  A    between atoms: C2'_3  and  C1'_4 
REMARK    2  A    between atoms: C1'_4  and  C1_5 
ROOT
ATOM      1  C1  I4B d   1       2.752   0.090   0.095  0.00  0.00    -0.075 A 
ATOM      2  C2  I4B d   1       4.066   0.475  -0.009  0.00  0.00     0.003 A 
ATOM      3  C3  I4B d   1       4.418   1.843   0.088  0.00  0.00     0.002 A 
ATOM      4  C4  I4B d   1       3.427   2.791   0.238  0.00  0.00    -0.004 A 
ATOM      5  C5  I4B d   1       2.098   2.397   0.366  0.00  0.00     0.002 A 
ATOM      6  C6  I4B d   1       1.759   1.038   0.307  0.00  0.00     0.003 A 
ENDROOT
BRANCH   1   7
ATOM      7  C1' I4B d   1       2.412  -1.360  -0.045  0.00  0.00     0.060 C 
BRANCH   7   8
ATOM      8  C2' I4B d   1       0.956  -1.460  -0.450  0.00  0.00    -0.013 C 
ATOM      9  C4' I4B d   1       0.706  -0.766  -1.763  0.00  0.00     0.013 C 
ATOM     10  C3' I4B d   1       0.597  -2.914  -0.529  0.00  0.00     0.013 C 
ENDBRANCH   7   8
ENDBRANCH   1   7
TORSDOF 2
ENDMDL
