MODEL 1
REMARK minimizedAffinity 2.4926002
REMARK minimizedRMSD -1
REMARK  2 active torsions:
REMARK  status: ('A' for Active; 'I' for Inactive)
REMARK    1  A    between atoms: C2'_3  and  C1'_4 
REMARK    2  A    between atoms: C1'_4  and  C1_5 
ROOT
ATOM      1  C1  I4B d   1       0.612  -0.045  -1.432  0.00  0.00    -0.075 A 
ATOM      2  C2  I4B d   1       0.254   1.110  -0.783  0.00  0.00     0.003 A 
ATOM      3  C3  I4B d   1       0.949   1.518   0.381  0.00  0.00     0.002 A 
ATOM      4  C4  I4B d   1       1.956   0.721   0.886  0.00  0.00    -0.004 A 
ATOM      5  C5  I4B d   1       2.333  -0.438   0.213  0.00  0.00     0.002 A 
ATOM      6  C6  I4B d   1       1.665  -0.817  -0.960  0.00  0.00     0.003 A 
ENDROOT
BRANCH   1   7
ATOM      7  C1' I4B d   1      -0.165  -0.463  -2.640  0.00  0.00     0.060 C 
BRANCH   7   8
ATOM      8  C2' I4B d   1      -1.063   0.690  -3.040  0.00  0.00    -0.013 C 
ATOM      9  C4' I4B d   1      -1.173   0.802  -4.538  0.00  0.00     0.013 C 
ATOM     10  C3' I4B d   1      -2.407   0.470  -2.413  0.00  0.00     0.013 C 
ENDBRANCH   7   8
ENDBRANCH   1   7
TORSDOF 2
ENDMDL
