MODEL 1
REMARK minimizedAffinity -5.08567715
REMARK minimizedRMSD -1
REMARK  2 active torsions:
REMARK  status: ('A' for Active; 'I' for Inactive)
REMARK    1  A    between atoms: C2'_3  and  C1'_4 
REMARK    2  A    between atoms: C1'_4  and  C1_5 
ROOT
ATOM      1  C1  I4B d   1       0.395  -0.634   0.379  0.00  0.00    -0.075 A 
ATOM      2  C2  I4B d   1       0.747  -1.407  -0.700  0.00  0.00     0.003 A 
ATOM      3  C3  I4B d   1       2.049  -1.958  -0.787  0.00  0.00     0.002 A 
ATOM      4  C4  I4B d   1       2.975  -1.671   0.195  0.00  0.00    -0.004 A 
ATOM      5  C5  I4B d   1       2.609  -0.906   1.298  0.00  0.00     0.002 A 
ATOM      6  C6  I4B d   1       1.307  -0.394   1.397  0.00  0.00     0.003 A 
ENDROOT
BRANCH   1   7
ATOM      7  C1' I4B d   1      -0.978  -0.041   0.422  0.00  0.00     0.060 C 
BRANCH   7   8
ATOM      8  C2' I4B d   1      -1.250   0.605  -0.921  0.00  0.00    -0.013 C 
ATOM      9  C4' I4B d   1      -2.719   0.880  -1.105  0.00  0.00     0.013 C 
ATOM     10  C3' I4B d   1      -0.448   1.870  -0.997  0.00  0.00     0.013 C 
ENDBRANCH   7   8
ENDBRANCH   1   7
TORSDOF 2
ENDMDL
