MODEL 1
REMARK minimizedAffinity -4.38869762
REMARK minimizedRMSD -1
REMARK  0 active torsions:
REMARK  status: ('A' for Active; 'I' for Inactive)
ROOT
ATOM      1  C   UNL d   1       2.278  -1.080  -1.142  0.00  0.00     0.023 A 
ATOM      2  C1  UNL d   1       2.211   0.283  -0.856  0.00  0.00     0.003 A 
ATOM      3  C2  UNL d   1       1.201   0.775  -0.025  0.00  0.00     0.048 A 
ATOM      4  C3  UNL d   1       0.264  -0.104   0.517  0.00  0.00     0.023 A 
ATOM      5  C4  UNL d   1       0.328  -1.469   0.234  0.00  0.00     0.048 A 
ATOM      6  C5  UNL d   1       1.338  -1.955  -0.598  0.00  0.00     0.003 A 
ATOM      7  I   UNL d   1      -1.239   0.625   1.754  0.00  0.00    -0.146 I 
ENDROOT
TORSDOF 0
ENDMDL
