MODEL 1
REMARK minimizedAffinity -3.35646462
REMARK minimizedRMSD -1
REMARK  0 active torsions:
REMARK  status: ('A' for Active; 'I' for Inactive)
ROOT
ATOM      1  C   UNL d   1      -1.606   0.931   0.015  0.00  0.00     0.023 A 
ATOM      2  C1  UNL d   1      -1.207  -0.371   0.317  0.00  0.00     0.003 A 
ATOM      3  C2  UNL d   1       0.089  -0.794   0.014  0.00  0.00     0.048 A 
ATOM      4  C3  UNL d   1       0.982   0.092  -0.589  0.00  0.00     0.023 A 
ATOM      5  C4  UNL d   1       0.587   1.396  -0.892  0.00  0.00     0.048 A 
ATOM      6  C5  UNL d   1      -0.710   1.813  -0.589  0.00  0.00     0.003 A 
ATOM      7  I   UNL d   1       2.912  -0.535  -1.040  0.00  0.00    -0.146 I 
ENDROOT
TORSDOF 0
ENDMDL
