MODEL 1
REMARK minimizedAffinity -3.20583057
REMARK minimizedRMSD -1
REMARK  0 active torsions:
REMARK  status: ('A' for Active; 'I' for Inactive)
ROOT
ATOM      1  C   UNL d   1       2.331   1.769  -1.181  0.00  0.00     0.023 A 
ATOM      2  C1  UNL d   1       3.076   0.616  -0.930  0.00  0.00     0.003 A 
ATOM      3  C2  UNL d   1       2.429  -0.597  -0.691  0.00  0.00     0.048 A 
ATOM      4  C3  UNL d   1       1.035  -0.652  -0.706  0.00  0.00     0.023 A 
ATOM      5  C4  UNL d   1       0.286   0.498  -0.958  0.00  0.00     0.048 A 
ATOM      6  C5  UNL d   1       0.938   1.709  -1.195  0.00  0.00     0.003 A 
ATOM      7  I   UNL d   1       0.069  -2.458  -0.351  0.00  0.00    -0.146 I 
ENDROOT
TORSDOF 0
ENDMDL
