MODEL 1
REMARK minimizedAffinity -1.99849999
REMARK minimizedRMSD -1
REMARK  0 active torsions:
REMARK  status: ('A' for Active; 'I' for Inactive)
ROOT
ATOM      1  C   UNL d   1       1.018   0.091  -1.546  0.00  0.00     0.023 A 
ATOM      2  C1  UNL d   1      -0.016   1.026  -1.609  0.00  0.00     0.003 A 
ATOM      3  C2  UNL d   1      -0.896   1.169  -0.535  0.00  0.00     0.048 A 
ATOM      4  C3  UNL d   1      -0.738   0.375   0.600  0.00  0.00     0.023 A 
ATOM      5  C4  UNL d   1       0.295  -0.561   0.669  0.00  0.00     0.048 A 
ATOM      6  C5  UNL d   1       1.173  -0.702  -0.408  0.00  0.00     0.003 A 
ATOM      7  I   UNL d   1      -2.047   0.587   2.200  0.00  0.00    -0.146 I 
ENDROOT
TORSDOF 0
ENDMDL
