MODEL 1
REMARK minimizedAffinity -3.03682661
REMARK minimizedRMSD -1
REMARK  0 active torsions:
REMARK  status: ('A' for Active; 'I' for Inactive)
ROOT
ATOM      1  C   UNL d   1       3.021   0.132  -2.524  0.00  0.00     0.023 A 
ATOM      2  C1  UNL d   1       2.783  -0.953  -1.680  0.00  0.00     0.003 A 
ATOM      3  C2  UNL d   1       1.667  -0.954  -0.841  0.00  0.00     0.048 A 
ATOM      4  C3  UNL d   1       0.793   0.132  -0.851  0.00  0.00     0.023 A 
ATOM      5  C4  UNL d   1       1.027   1.219  -1.694  0.00  0.00     0.048 A 
ATOM      6  C5  UNL d   1       2.144   1.216  -2.531  0.00  0.00     0.003 A 
ATOM      7  I   UNL d   1      -0.868   0.132   0.398  0.00  0.00    -0.146 I 
ENDROOT
TORSDOF 0
ENDMDL
