MODEL 1
REMARK minimizedAffinity -0.302592099
REMARK minimizedRMSD -1
REMARK  0 active torsions:
REMARK  status: ('A' for Active; 'I' for Inactive)
ROOT
ATOM      1  C   UNL d   1       1.490  -2.167  -0.148  0.00  0.00     0.023 A 
ATOM      2  C1  UNL d   1       2.316  -1.062  -0.357  0.00  0.00     0.003 A 
ATOM      3  C2  UNL d   1       1.757   0.181  -0.659  0.00  0.00     0.048 A 
ATOM      4  C3  UNL d   1       0.372   0.313  -0.750  0.00  0.00     0.023 A 
ATOM      5  C4  UNL d   1      -0.458  -0.790  -0.541  0.00  0.00     0.048 A 
ATOM      6  C5  UNL d   1       0.105  -2.031  -0.240  0.00  0.00     0.003 A 
ATOM      7  I   UNL d   1      -0.463   2.163  -1.199  0.00  0.00    -0.146 I 
ENDROOT
TORSDOF 0
ENDMDL
