MODEL 1
REMARK minimizedAffinity 3.02975273
REMARK minimizedRMSD -1
REMARK  0 active torsions:
REMARK  status: ('A' for Active; 'I' for Inactive)
ROOT
ATOM      1  C   UNL d   1       3.575  -0.724  -1.374  0.00  0.00     0.023 A 
ATOM      2  C1  UNL d   1       2.534  -1.507  -1.875  0.00  0.00     0.003 A 
ATOM      3  C2  UNL d   1       1.227  -1.301  -1.429  0.00  0.00     0.048 A 
ATOM      4  C3  UNL d   1       0.968  -0.310  -0.483  0.00  0.00     0.023 A 
ATOM      5  C4  UNL d   1       2.006   0.476   0.020  0.00  0.00     0.048 A 
ATOM      6  C5  UNL d   1       3.311   0.266  -0.428  0.00  0.00     0.003 A 
ATOM      7  I   UNL d   1      -0.977  -0.001   0.183  0.00  0.00    -0.146 I 
ENDROOT
TORSDOF 0
ENDMDL
