MODEL 1
REMARK minimizedAffinity -3.36703539
REMARK minimizedRMSD -1
REMARK  0 active torsions:
REMARK  status: ('A' for Active; 'I' for Inactive)
ROOT
ATOM      1  C   UNL d   1       2.456   0.683  -2.871  0.00  0.00     0.023 A 
ATOM      2  C1  UNL d   1       2.467  -0.429  -2.030  0.00  0.00     0.003 A 
ATOM      3  C2  UNL d   1       1.540  -0.529  -0.990  0.00  0.00     0.048 A 
ATOM      4  C3  UNL d   1       0.605   0.487  -0.797  0.00  0.00     0.023 A 
ATOM      5  C4  UNL d   1       0.589   1.601  -1.637  0.00  0.00     0.048 A 
ATOM      6  C5  UNL d   1       1.518   1.697  -2.675  0.00  0.00     0.003 A 
ATOM      7  I   UNL d   1      -0.775   0.340   0.750  0.00  0.00    -0.146 I 
ENDROOT
TORSDOF 0
ENDMDL
