MODEL 1
REMARK minimizedAffinity -3.5199523
REMARK minimizedRMSD -1
REMARK  0 active torsions:
REMARK  status: ('A' for Active; 'I' for Inactive)
ROOT
ATOM      1  C   UNL d   1       2.014   0.569  -3.010  0.00  0.00     0.023 A 
ATOM      2  C1  UNL d   1       1.030   1.522  -2.749  0.00  0.00     0.003 A 
ATOM      3  C2  UNL d   1       0.138   1.335  -1.691  0.00  0.00     0.048 A 
ATOM      4  C3  UNL d   1       0.236   0.192  -0.897  0.00  0.00     0.023 A 
ATOM      5  C4  UNL d   1       1.221  -0.764  -1.154  0.00  0.00     0.048 A 
ATOM      6  C5  UNL d   1       2.110  -0.572  -2.214  0.00  0.00     0.003 A 
ATOM      7  I   UNL d   1      -1.090  -0.089   0.678  0.00  0.00    -0.146 I 
ENDROOT
TORSDOF 0
ENDMDL
