MODEL 1
REMARK minimizedAffinity -1.85912526
REMARK minimizedRMSD -1
REMARK  0 active torsions:
REMARK  status: ('A' for Active; 'I' for Inactive)
ROOT
ATOM      1  C   UNL d   1       2.933  -0.740  -1.713  0.00  0.00     0.023 A 
ATOM      2  C1  UNL d   1       1.949  -1.711  -1.525  0.00  0.00     0.003 A 
ATOM      3  C2  UNL d   1       0.786  -1.400  -0.818  0.00  0.00     0.048 A 
ATOM      4  C3  UNL d   1       0.612  -0.116  -0.304  0.00  0.00     0.023 A 
ATOM      5  C4  UNL d   1       1.593   0.859  -0.491  0.00  0.00     0.048 A 
ATOM      6  C5  UNL d   1       2.755   0.543  -1.197  0.00  0.00     0.003 A 
ATOM      7  I   UNL d   1      -1.119   0.350   0.748  0.00  0.00    -0.146 I 
ENDROOT
TORSDOF 0
ENDMDL
