MODEL 1
REMARK minimizedAffinity -3.6532383
REMARK minimizedRMSD -1
REMARK  0 active torsions:
REMARK  status: ('A' for Active; 'I' for Inactive)
ROOT
ATOM      1  C   UNL d   1       2.857  -0.828  -1.208  0.00  0.00     0.023 A 
ATOM      2  C1  UNL d   1       2.326   0.456  -1.334  0.00  0.00     0.003 A 
ATOM      3  C2  UNL d   1       1.117   0.777  -0.714  0.00  0.00     0.048 A 
ATOM      4  C3  UNL d   1       0.444  -0.191   0.032  0.00  0.00     0.023 A 
ATOM      5  C4  UNL d   1       0.972  -1.477   0.161  0.00  0.00     0.048 A 
ATOM      6  C5  UNL d   1       2.181  -1.793  -0.462  0.00  0.00     0.003 A 
ATOM      7  I   UNL d   1      -1.356   0.284   0.956  0.00  0.00    -0.146 I 
ENDROOT
TORSDOF 0
ENDMDL
