MODEL 1
REMARK minimizedAffinity 2.83163381
REMARK minimizedRMSD -1
REMARK  0 active torsions:
REMARK  status: ('A' for Active; 'I' for Inactive)
ROOT
ATOM      1  C   UNL d   1      -1.036  -1.954   0.435  0.00  0.00     0.023 A 
ATOM      2  C1  UNL d   1      -1.880  -0.844   0.487  0.00  0.00     0.003 A 
ATOM      3  C2  UNL d   1      -1.460   0.379  -0.039  0.00  0.00     0.048 A 
ATOM      4  C3  UNL d   1      -0.196   0.486  -0.616  0.00  0.00     0.023 A 
ATOM      5  C4  UNL d   1       0.652  -0.621  -0.671  0.00  0.00     0.048 A 
ATOM      6  C5  UNL d   1       0.229  -1.842  -0.143  0.00  0.00     0.003 A 
ATOM      7  I   UNL d   1       0.431   2.306  -1.400  0.00  0.00    -0.146 I 
ENDROOT
TORSDOF 0
ENDMDL
