MODEL 1
REMARK minimizedAffinity -1.59427965
REMARK minimizedRMSD -1
REMARK  0 active torsions:
REMARK  status: ('A' for Active; 'I' for Inactive)
ROOT
ATOM      1  C   UNL d   1      -0.059   1.468  -1.151  0.00  0.00     0.023 A 
ATOM      2  C1  UNL d   1      -1.260   2.083  -0.800  0.00  0.00     0.003 A 
ATOM      3  C2  UNL d   1      -1.832   1.838   0.450  0.00  0.00     0.048 A 
ATOM      4  C3  UNL d   1      -1.196   0.978   1.345  0.00  0.00     0.023 A 
ATOM      5  C4  UNL d   1       0.007   0.361   0.998  0.00  0.00     0.048 A 
ATOM      6  C5  UNL d   1       0.574   0.608  -0.254  0.00  0.00     0.003 A 
ATOM      7  I   UNL d   1      -2.045   0.612   3.206  0.00  0.00    -0.146 I 
ENDROOT
TORSDOF 0
ENDMDL
