MODEL 1
REMARK minimizedAffinity -3.10727835
REMARK minimizedRMSD -1
REMARK  0 active torsions:
REMARK  status: ('A' for Active; 'I' for Inactive)
ROOT
ATOM      1  C   UNL d   1      -0.973  -0.579   3.223  0.00  0.00     0.172 C 
ATOM      2  N   UNL d   1      -0.539  -0.462   1.851  0.00  0.00    -0.070 N 
ATOM      3  C1  UNL d   1      -1.331  -0.628   0.746  0.00  0.00    -0.004 A 
ATOM      4  C2  UNL d   1      -0.545  -0.434  -0.370  0.00  0.00    -0.047 A 
ATOM      5  C3  UNL d   1       0.765  -0.143   0.081  0.00  0.00    -0.047 A 
ATOM      6  C4  UNL d   1       0.740  -0.167   1.459  0.00  0.00    -0.004 A 
ENDROOT
TORSDOF 0
ENDMDL
