MODEL 1
REMARK minimizedAffinity -2.00883865
REMARK minimizedRMSD -1
REMARK  0 active torsions:
REMARK  status: ('A' for Active; 'I' for Inactive)
ROOT
ATOM      1  C   UNL d   1       0.020   0.002  -0.907  0.00  0.00     0.172 C 
ATOM      2  N   UNL d   1       0.316   0.058   0.505  0.00  0.00    -0.070 N 
ATOM      3  C1  UNL d   1       1.503   0.461   1.057  0.00  0.00    -0.004 A 
ATOM      4  C2  UNL d   1       1.384   0.371   2.427  0.00  0.00    -0.047 A 
ATOM      5  C3  UNL d   1       0.080  -0.103   2.709  0.00  0.00    -0.047 A 
ATOM      6  C4  UNL d   1      -0.559  -0.289   1.501  0.00  0.00    -0.004 A 
ENDROOT
TORSDOF 0
ENDMDL
