MODEL 1
REMARK minimizedAffinity -2.38392377
REMARK minimizedRMSD -1
REMARK  0 active torsions:
REMARK  status: ('A' for Active; 'I' for Inactive)
ROOT
ATOM      1  C   UNL d   1      -0.120  -0.037   2.931  0.00  0.00     0.172 C 
ATOM      2  N   UNL d   1       0.015  -0.384   1.536  0.00  0.00    -0.070 N 
ATOM      3  C1  UNL d   1       0.791  -1.396   1.036  0.00  0.00    -0.004 A 
ATOM      4  C2  UNL d   1       0.648  -1.401  -0.334  0.00  0.00    -0.047 A 
ATOM      5  C3  UNL d   1      -0.244  -0.356  -0.671  0.00  0.00    -0.047 A 
ATOM      6  C4  UNL d   1      -0.620   0.258   0.506  0.00  0.00    -0.004 A 
ENDROOT
TORSDOF 0
ENDMDL
