MODEL 1
REMARK minimizedAffinity -3.23540211
REMARK minimizedRMSD -1
REMARK  0 active torsions:
REMARK  status: ('A' for Active; 'I' for Inactive)
ROOT
ATOM      1  C   UNL d   1      -0.408  -0.858   2.452  0.00  0.00     0.172 C 
ATOM      2  N   UNL d   1      -0.479  -0.297   1.123  0.00  0.00    -0.070 N 
ATOM      3  C1  UNL d   1      -1.625  -0.104   0.399  0.00  0.00    -0.004 A 
ATOM      4  C2  UNL d   1      -1.270   0.451  -0.812  0.00  0.00    -0.047 A 
ATOM      5  C3  UNL d   1       0.138   0.595  -0.816  0.00  0.00    -0.047 A 
ATOM      6  C4  UNL d   1       0.602   0.124   0.395  0.00  0.00    -0.004 A 
ENDROOT
TORSDOF 0
ENDMDL
