MODEL 1
REMARK minimizedAffinity -2.36939573
REMARK minimizedRMSD -1
REMARK  0 active torsions:
REMARK  status: ('A' for Active; 'I' for Inactive)
ROOT
ATOM      1  C   UNL d   1      -1.022  -0.480   3.171  0.00  0.00     0.172 C 
ATOM      2  N   UNL d   1      -0.230  -0.289   1.979  0.00  0.00    -0.070 N 
ATOM      3  C1  UNL d   1      -0.690  -0.373   0.692  0.00  0.00    -0.004 A 
ATOM      4  C2  UNL d   1       0.370  -0.127  -0.153  0.00  0.00    -0.047 A 
ATOM      5  C3  UNL d   1       1.507   0.114   0.654  0.00  0.00    -0.047 A 
ATOM      6  C4  UNL d   1       1.108   0.007   1.969  0.00  0.00    -0.004 A 
ENDROOT
TORSDOF 0
ENDMDL
