MODEL 1
REMARK minimizedAffinity -3.28173184
REMARK minimizedRMSD -1
REMARK  0 active torsions:
REMARK  status: ('A' for Active; 'I' for Inactive)
ROOT
ATOM      1  C   UNL d   1       0.058   0.339  -0.775  0.00  0.00     0.172 C 
ATOM      2  N   UNL d   1      -0.081  -0.053   0.607  0.00  0.00    -0.070 N 
ATOM      3  C1  UNL d   1       0.841   0.167   1.596  0.00  0.00    -0.004 A 
ATOM      4  C2  UNL d   1       0.336  -0.355   2.767  0.00  0.00    -0.047 A 
ATOM      5  C3  UNL d   1      -0.932  -0.908   2.473  0.00  0.00    -0.047 A 
ATOM      6  C4  UNL d   1      -1.166  -0.707   1.128  0.00  0.00    -0.004 A 
ENDROOT
TORSDOF 0
ENDMDL
