MODEL 1
REMARK minimizedAffinity -3.84632993
REMARK minimizedRMSD -1
REMARK  0 active torsions:
REMARK  status: ('A' for Active; 'I' for Inactive)
ROOT
ATOM      1  C   UNL d   1      -0.856  -0.990   2.388  0.00  0.00     0.172 C 
ATOM      2  N   UNL d   1      -0.823  -0.438   1.054  0.00  0.00    -0.070 N 
ATOM      3  C1  UNL d   1       0.307  -0.102   0.357  0.00  0.00    -0.004 A 
ATOM      4  C2  UNL d   1      -0.084   0.387  -0.871  0.00  0.00    -0.047 A 
ATOM      5  C3  UNL d   1      -1.498   0.344  -0.913  0.00  0.00    -0.047 A 
ATOM      6  C4  UNL d   1      -1.929  -0.171   0.291  0.00  0.00    -0.004 A 
ENDROOT
TORSDOF 0
ENDMDL
