MODEL 1
REMARK minimizedAffinity -3.10454988
REMARK minimizedRMSD -1
REMARK  0 active torsions:
REMARK  status: ('A' for Active; 'I' for Inactive)
ROOT
ATOM      1  C   UNL d   1       0.308   0.454  -1.092  0.00  0.00     0.172 C 
ATOM      2  N   UNL d   1      -0.112  -0.103   0.173  0.00  0.00    -0.070 N 
ATOM      3  C1  UNL d   1      -1.339  -0.652   0.435  0.00  0.00    -0.004 A 
ATOM      4  C2  UNL d   1      -1.343  -1.067   1.749  0.00  0.00    -0.047 A 
ATOM      5  C3  UNL d   1      -0.075  -0.757   2.296  0.00  0.00    -0.047 A 
ATOM      6  C4  UNL d   1       0.667  -0.161   1.298  0.00  0.00    -0.004 A 
ENDROOT
TORSDOF 0
ENDMDL
