MODEL 1
REMARK minimizedAffinity -3.71605802
REMARK minimizedRMSD -1
REMARK  0 active torsions:
REMARK  status: ('A' for Active; 'I' for Inactive)
ROOT
ATOM      1  C   UNL d   1      -0.092   0.143  -0.931  0.00  0.00     0.172 C 
ATOM      2  N   UNL d   1      -0.350  -0.120   0.465  0.00  0.00    -0.070 N 
ATOM      3  C1  UNL d   1      -1.587  -0.189   1.049  0.00  0.00    -0.004 A 
ATOM      4  C2  UNL d   1      -1.407  -0.458   2.389  0.00  0.00    -0.047 A 
ATOM      5  C3  UNL d   1      -0.013  -0.553   2.618  0.00  0.00    -0.047 A 
ATOM      6  C4  UNL d   1       0.617  -0.340   1.410  0.00  0.00    -0.004 A 
ENDROOT
TORSDOF 0
ENDMDL
