MODEL 1
REMARK minimizedAffinity -2.34610462
REMARK minimizedRMSD -1
REMARK  0 active torsions:
REMARK  status: ('A' for Active; 'I' for Inactive)
ROOT
ATOM      1  C   UNL d   1      -0.020   0.456  -0.900  0.00  0.00     0.172 C 
ATOM      2  N   UNL d   1       0.058   0.321   0.535  0.00  0.00    -0.070 N 
ATOM      3  C1  UNL d   1       0.892   1.029   1.359  0.00  0.00    -0.004 A 
ATOM      4  C2  UNL d   1       0.663   0.610   2.652  0.00  0.00    -0.047 A 
ATOM      5  C3  UNL d   1      -0.342  -0.385   2.603  0.00  0.00    -0.047 A 
ATOM      6  C4  UNL d   1      -0.698  -0.544   1.281  0.00  0.00    -0.004 A 
ENDROOT
TORSDOF 0
ENDMDL
