MODEL 1
REMARK minimizedAffinity -3.12422657
REMARK minimizedRMSD -1
REMARK  0 active torsions:
REMARK  status: ('A' for Active; 'I' for Inactive)
ROOT
ATOM      1  C   UNL d   1      -0.003   0.389  -1.563  0.00  0.00     0.172 C 
ATOM      2  N   UNL d   1      -0.336   0.022  -0.207  0.00  0.00    -0.070 N 
ATOM      3  C1  UNL d   1      -1.576  -0.354   0.237  0.00  0.00    -0.004 A 
ATOM      4  C2  UNL d   1      -1.478  -0.623   1.585  0.00  0.00    -0.047 A 
ATOM      5  C3  UNL d   1      -0.133  -0.400   1.965  0.00  0.00    -0.047 A 
ATOM      6  C4  UNL d   1       0.552  -0.002   0.836  0.00  0.00    -0.004 A 
ENDROOT
TORSDOF 0
ENDMDL
