MODEL 1
REMARK minimizedAffinity -3.2697773
REMARK minimizedRMSD -1
REMARK  0 active torsions:
REMARK  status: ('A' for Active; 'I' for Inactive)
ROOT
ATOM      1  C   UNL d   1       0.307   0.079  -1.240  0.00  0.00     0.172 C 
ATOM      2  N   UNL d   1       0.084  -0.086   0.178  0.00  0.00    -0.070 N 
ATOM      3  C1  UNL d   1       0.992   0.189   1.166  0.00  0.00    -0.004 A 
ATOM      4  C2  UNL d   1       0.398  -0.099   2.376  0.00  0.00    -0.047 A 
ATOM      5  C3  UNL d   1      -0.911  -0.564   2.105  0.00  0.00    -0.047 A 
ATOM      6  C4  UNL d   1      -1.079  -0.546   0.737  0.00  0.00    -0.004 A 
ENDROOT
TORSDOF 0
ENDMDL
