MODEL 1
REMARK minimizedAffinity -3.76346517
REMARK minimizedRMSD -1
REMARK  0 active torsions:
REMARK  status: ('A' for Active; 'I' for Inactive)
ROOT
ATOM      1  C   UNL d   1      -0.134   0.297  -0.996  0.00  0.00     0.172 C 
ATOM      2  N   UNL d   1      -0.209  -0.064   0.401  0.00  0.00    -0.070 N 
ATOM      3  C1  UNL d   1      -1.171  -0.856   0.970  0.00  0.00    -0.004 A 
ATOM      4  C2  UNL d   1      -0.890  -0.959   2.315  0.00  0.00    -0.047 A 
ATOM      5  C3  UNL d   1       0.280  -0.202   2.563  0.00  0.00    -0.047 A 
ATOM      6  C4  UNL d   1       0.680   0.341   1.361  0.00  0.00    -0.004 A 
ENDROOT
TORSDOF 0
ENDMDL
