MODEL 1
REMARK minimizedAffinity -3.57415915
REMARK minimizedRMSD -1
REMARK  0 active torsions:
REMARK  status: ('A' for Active; 'I' for Inactive)
ROOT
ATOM      1  C   UNL d   1       0.084  -0.821  -0.509  0.00  0.00     0.172 C 
ATOM      2  N   UNL d   1      -0.054  -0.558   0.905  0.00  0.00    -0.070 N 
ATOM      3  C1  UNL d   1       0.709   0.315   1.633  0.00  0.00    -0.004 A 
ATOM      4  C2  UNL d   1       0.265   0.278   2.937  0.00  0.00    -0.047 A 
ATOM      5  C3  UNL d   1      -0.802  -0.650   2.995  0.00  0.00    -0.047 A 
ATOM      6  C4  UNL d   1      -0.978  -1.153   1.723  0.00  0.00    -0.004 A 
ENDROOT
TORSDOF 0
ENDMDL
