MODEL 1
REMARK minimizedAffinity -3.25185227
REMARK minimizedRMSD -1
REMARK  0 active torsions:
REMARK  status: ('A' for Active; 'I' for Inactive)
ROOT
ATOM      1  C   UNL d   1      -0.104   0.141   2.963  0.00  0.00     0.172 C 
ATOM      2  N   UNL d   1       0.136   0.022   1.544  0.00  0.00    -0.070 N 
ATOM      3  C1  UNL d   1      -0.555  -0.788   0.683  0.00  0.00    -0.004 A 
ATOM      4  C2  UNL d   1      -0.025  -0.613  -0.577  0.00  0.00    -0.047 A 
ATOM      5  C3  UNL d   1       1.021   0.335  -0.469  0.00  0.00    -0.047 A 
ATOM      6  C4  UNL d   1       1.099   0.711   0.855  0.00  0.00    -0.004 A 
ENDROOT
TORSDOF 0
ENDMDL
