MODEL 1
REMARK minimizedAffinity -2.67286205
REMARK minimizedRMSD -1
REMARK  0 active torsions:
REMARK  status: ('A' for Active; 'I' for Inactive)
ROOT
ATOM      1  C   UNL d   1       0.142   0.060  -1.571  0.00  0.00     0.172 C 
ATOM      2  N   UNL d   1       0.014  -0.105  -0.142  0.00  0.00    -0.070 N 
ATOM      3  C1  UNL d   1       0.718   0.587   0.807  0.00  0.00    -0.004 A 
ATOM      4  C2  UNL d   1       0.307   0.141   2.045  0.00  0.00    -0.047 A 
ATOM      5  C3  UNL d   1      -0.677  -0.853   1.832  0.00  0.00    -0.047 A 
ATOM      6  C4  UNL d   1      -0.839  -0.986   0.469  0.00  0.00    -0.004 A 
ENDROOT
TORSDOF 0
ENDMDL
