MODEL 1
REMARK minimizedAffinity -1.51467657
REMARK minimizedRMSD -1
REMARK  0 active torsions:
REMARK  status: ('A' for Active; 'I' for Inactive)
ROOT
ATOM      1  C   UNL d   1      -0.549   0.055   3.041  0.00  0.00     0.172 C 
ATOM      2  N   UNL d   1      -0.598   0.133   1.600  0.00  0.00    -0.070 N 
ATOM      3  C1  UNL d   1      -1.710   0.420   0.854  0.00  0.00    -0.004 A 
ATOM      4  C2  UNL d   1      -1.344   0.399  -0.474  0.00  0.00    -0.047 A 
ATOM      5  C3  UNL d   1       0.035   0.089  -0.529  0.00  0.00    -0.047 A 
ATOM      6  C4  UNL d   1       0.472  -0.071   0.770  0.00  0.00    -0.004 A 
ENDROOT
TORSDOF 0
ENDMDL
