MODEL 1
REMARK minimizedAffinity -2.50448132
REMARK minimizedRMSD -1
REMARK  0 active torsions:
REMARK  status: ('A' for Active; 'I' for Inactive)
ROOT
ATOM      1  C   UNL d   1      -0.444  -0.762   1.340  0.00  0.00     0.077 C 
ATOM      2  C1  UNL d   1       0.341   0.034   0.341  0.00  0.00    -0.074 A 
ATOM      3  C2  UNL d   1       0.356   1.432   0.388  0.00  0.00    -0.005 A 
ATOM      4  C3  UNL d   1       1.099   2.159  -0.542  0.00  0.00     0.006 A 
ATOM      5  C4  UNL d   1       1.834   1.497  -1.526  0.00  0.00    -0.005 A 
ATOM      6  C5  UNL d   1       1.832   0.100  -1.588  0.00  0.00    -0.074 A 
ATOM      7  C6  UNL d   1       2.625  -0.628  -2.633  0.00  0.00     0.077 C 
ATOM      8  C7  UNL d   1       1.089  -0.624  -0.645  0.00  0.00    -0.001 A 
ENDROOT
TORSDOF 0
ENDMDL
