MODEL 1
REMARK minimizedAffinity -2.85822487
REMARK minimizedRMSD -1
REMARK  0 active torsions:
REMARK  status: ('A' for Active; 'I' for Inactive)
ROOT
ATOM      1  C   UNL d   1      -2.416  -0.835   2.563  0.00  0.00     0.077 C 
ATOM      2  C1  UNL d   1      -3.027   0.510   2.822  0.00  0.00    -0.074 A 
ATOM      3  C2  UNL d   1      -4.126   0.955   2.081  0.00  0.00    -0.005 A 
ATOM      4  C3  UNL d   1      -4.690   2.204   2.340  0.00  0.00     0.006 A 
ATOM      5  C4  UNL d   1      -4.161   3.019   3.342  0.00  0.00    -0.005 A 
ATOM      6  C5  UNL d   1      -3.063   2.591   4.094  0.00  0.00    -0.074 A 
ATOM      7  C6  UNL d   1      -2.488   3.451   5.180  0.00  0.00     0.077 C 
ATOM      8  C7  UNL d   1      -2.506   1.331   3.832  0.00  0.00    -0.001 A 
ENDROOT
TORSDOF 0
ENDMDL
