MODEL 1
REMARK minimizedAffinity -4.27157307
REMARK minimizedRMSD -1
REMARK  0 active torsions:
REMARK  status: ('A' for Active; 'I' for Inactive)
ROOT
ATOM      1  C   UNL d   1       3.722   1.485  -1.192  0.00  0.00     0.077 C 
ATOM      2  C1  UNL d   1       2.419   0.753  -1.318  0.00  0.00    -0.074 A 
ATOM      3  C2  UNL d   1       2.196  -0.143  -2.369  0.00  0.00    -0.005 A 
ATOM      4  C3  UNL d   1       0.982  -0.823  -2.467  0.00  0.00     0.006 A 
ATOM      5  C4  UNL d   1      -0.019  -0.615  -1.518  0.00  0.00    -0.005 A 
ATOM      6  C5  UNL d   1       0.186   0.276  -0.460  0.00  0.00    -0.074 A 
ATOM      7  C6  UNL d   1      -0.876   0.503   0.574  0.00  0.00     0.077 C 
ATOM      8  C7  UNL d   1       1.411   0.951  -0.364  0.00  0.00    -0.001 A 
ENDROOT
TORSDOF 0
ENDMDL
