MODEL 1
REMARK minimizedAffinity -4.99873018
REMARK minimizedRMSD -1
REMARK  0 active torsions:
REMARK  status: ('A' for Active; 'I' for Inactive)
ROOT
ATOM      1  C   UNL d   1       1.988   2.632   0.651  0.00  0.00     0.077 C 
ATOM      2  C1  UNL d   1       1.574   1.720  -0.465  0.00  0.00    -0.074 A 
ATOM      3  C2  UNL d   1       2.345   1.610  -1.627  0.00  0.00    -0.005 A 
ATOM      4  C3  UNL d   1       1.952   0.750  -2.653  0.00  0.00     0.006 A 
ATOM      5  C4  UNL d   1       0.786  -0.007  -2.527  0.00  0.00    -0.005 A 
ATOM      6  C5  UNL d   1       0.004   0.089  -1.373  0.00  0.00    -0.074 A 
ATOM      7  C6  UNL d   1      -1.247  -0.725  -1.218  0.00  0.00     0.077 C 
ATOM      8  C7  UNL d   1       0.409   0.950  -0.343  0.00  0.00    -0.001 A 
ENDROOT
TORSDOF 0
ENDMDL
