MODEL 1
REMARK minimizedAffinity -1.82225859
REMARK minimizedRMSD -1
REMARK  0 active torsions:
REMARK  status: ('A' for Active; 'I' for Inactive)
ROOT
ATOM      1  C   UNL d   1       3.772   1.138  -1.232  0.00  0.00     0.077 C 
ATOM      2  C1  UNL d   1       2.413   0.507  -1.180  0.00  0.00    -0.074 A 
ATOM      3  C2  UNL d   1       2.038  -0.470  -2.108  0.00  0.00    -0.005 A 
ATOM      4  C3  UNL d   1       0.773  -1.055  -2.041  0.00  0.00     0.006 A 
ATOM      5  C4  UNL d   1      -0.127  -0.670  -1.047  0.00  0.00    -0.005 A 
ATOM      6  C5  UNL d   1       0.230   0.305  -0.110  0.00  0.00    -0.074 A 
ATOM      7  C6  UNL d   1      -0.722   0.723   0.970  0.00  0.00     0.077 C 
ATOM      8  C7  UNL d   1       1.505   0.883  -0.180  0.00  0.00    -0.001 A 
ENDROOT
TORSDOF 0
ENDMDL
