MODEL 1
REMARK minimizedAffinity -4.5932498
REMARK minimizedRMSD -1
REMARK  0 active torsions:
REMARK  status: ('A' for Active; 'I' for Inactive)
ROOT
ATOM      1  C   UNL d   1      -1.071   0.271   1.913  0.00  0.00     0.077 C 
ATOM      2  C1  UNL d   1      -0.443  -0.429   0.745  0.00  0.00    -0.074 A 
ATOM      3  C2  UNL d   1      -0.070  -1.775   0.830  0.00  0.00    -0.005 A 
ATOM      4  C3  UNL d   1       0.504  -2.416  -0.268  0.00  0.00     0.006 A 
ATOM      5  C4  UNL d   1       0.711  -1.719  -1.459  0.00  0.00    -0.005 A 
ATOM      6  C5  UNL d   1       0.343  -0.374  -1.563  0.00  0.00    -0.074 A 
ATOM      7  C6  UNL d   1       0.549   0.387  -2.839  0.00  0.00     0.077 C 
ATOM      8  C7  UNL d   1      -0.240   0.261  -0.458  0.00  0.00    -0.001 A 
ENDROOT
TORSDOF 0
ENDMDL
