MODEL 1
REMARK minimizedAffinity -1.75690925
REMARK minimizedRMSD -1
REMARK  0 active torsions:
REMARK  status: ('A' for Active; 'I' for Inactive)
ROOT
ATOM      1  C   UNL d   1       2.001   0.739  -1.981  0.00  0.00     0.077 C 
ATOM      2  C1  UNL d   1       1.079  -0.055  -1.103  0.00  0.00    -0.074 A 
ATOM      3  C2  UNL d   1       1.102  -1.453  -1.115  0.00  0.00    -0.005 A 
ATOM      4  C3  UNL d   1       0.245  -2.178  -0.287  0.00  0.00     0.006 A 
ATOM      5  C4  UNL d   1      -0.642  -1.512   0.561  0.00  0.00    -0.005 A 
ATOM      6  C5  UNL d   1      -0.678  -0.115   0.588  0.00  0.00    -0.074 A 
ATOM      7  C6  UNL d   1      -1.618   0.616   1.500  0.00  0.00     0.077 C 
ATOM      8  C7  UNL d   1       0.191   0.606  -0.243  0.00  0.00    -0.001 A 
ENDROOT
TORSDOF 0
ENDMDL
