MODEL 1
REMARK minimizedAffinity -3.25877261
REMARK minimizedRMSD -1
REMARK  0 active torsions:
REMARK  status: ('A' for Active; 'I' for Inactive)
ROOT
ATOM      1  C   UNL d   1      -0.527  -0.971   2.111  0.00  0.00     0.077 C 
ATOM      2  C1  UNL d   1      -0.316  -0.043   0.953  0.00  0.00    -0.074 A 
ATOM      3  C2  UNL d   1      -1.384   0.669   0.397  0.00  0.00    -0.005 A 
ATOM      4  C3  UNL d   1      -1.170   1.536  -0.674  0.00  0.00     0.006 A 
ATOM      5  C4  UNL d   1       0.112   1.701  -1.200  0.00  0.00    -0.005 A 
ATOM      6  C5  UNL d   1       1.193   0.999  -0.657  0.00  0.00    -0.074 A 
ATOM      7  C6  UNL d   1       2.578   1.172  -1.203  0.00  0.00     0.077 C 
ATOM      8  C7  UNL d   1       0.971   0.134   0.424  0.00  0.00    -0.001 A 
ENDROOT
TORSDOF 0
ENDMDL
