MODEL 1
REMARK minimizedAffinity -4.12493849
REMARK minimizedRMSD -1
REMARK  0 active torsions:
REMARK  status: ('A' for Active; 'I' for Inactive)
ROOT
ATOM      1  C   UNL d   1       0.100  -2.009  -2.270  0.00  0.00     0.077 C 
ATOM      2  C1  UNL d   1       0.140  -1.179  -1.021  0.00  0.00    -0.074 A 
ATOM      3  C2  UNL d   1      -0.141  -1.744   0.227  0.00  0.00    -0.005 A 
ATOM      4  C3  UNL d   1      -0.090  -0.962   1.380  0.00  0.00     0.006 A 
ATOM      5  C4  UNL d   1       0.242   0.391   1.298  0.00  0.00    -0.005 A 
ATOM      6  C5  UNL d   1       0.527   0.973   0.059  0.00  0.00    -0.074 A 
ATOM      7  C6  UNL d   1       0.895   2.423  -0.046  0.00  0.00     0.077 C 
ATOM      8  C7  UNL d   1       0.481   0.179  -1.095  0.00  0.00    -0.001 A 
ENDROOT
TORSDOF 0
ENDMDL
