MODEL 1
REMARK minimizedAffinity -5.9293685
REMARK minimizedRMSD -1
REMARK  0 active torsions:
REMARK  status: ('A' for Active; 'I' for Inactive)
ROOT
ATOM      1  C   UNL d   1      -0.490  -0.469   1.637  0.00  0.00     0.077 C 
ATOM      2  C1  UNL d   1       0.347   0.005   0.486  0.00  0.00    -0.074 A 
ATOM      3  C2  UNL d   1       0.807   1.324   0.427  0.00  0.00    -0.005 A 
ATOM      4  C3  UNL d   1       1.593   1.747  -0.645  0.00  0.00     0.006 A 
ATOM      5  C4  UNL d   1       1.924   0.858  -1.668  0.00  0.00    -0.005 A 
ATOM      6  C5  UNL d   1       1.474  -0.465  -1.626  0.00  0.00    -0.074 A 
ATOM      7  C6  UNL d   1       1.829  -1.437  -2.712  0.00  0.00     0.077 C 
ATOM      8  C7  UNL d   1       0.691  -0.885  -0.542  0.00  0.00    -0.001 A 
ENDROOT
TORSDOF 0
ENDMDL
