MODEL 1
REMARK minimizedAffinity -1.1127522
REMARK minimizedRMSD -1
REMARK  0 active torsions:
REMARK  status: ('A' for Active; 'I' for Inactive)
ROOT
ATOM      1  C   UNL d   1       2.891   1.795  -1.062  0.00  0.00     0.077 C 
ATOM      2  C1  UNL d   1       1.603   1.097  -0.740  0.00  0.00    -0.074 A 
ATOM      3  C2  UNL d   1       0.381   1.772  -0.822  0.00  0.00    -0.005 A 
ATOM      4  C3  UNL d   1      -0.810   1.107  -0.530  0.00  0.00     0.006 A 
ATOM      5  C4  UNL d   1      -0.791  -0.236  -0.153  0.00  0.00    -0.005 A 
ATOM      6  C5  UNL d   1       0.422  -0.927  -0.066  0.00  0.00    -0.074 A 
ATOM      7  C6  UNL d   1       0.460  -2.374   0.327  0.00  0.00     0.077 C 
ATOM      8  C7  UNL d   1       1.614  -0.254  -0.369  0.00  0.00    -0.001 A 
ENDROOT
TORSDOF 0
ENDMDL
