MODEL 1
REMARK minimizedAffinity -3.84116626
REMARK minimizedRMSD -1
REMARK  0 active torsions:
REMARK  status: ('A' for Active; 'I' for Inactive)
ROOT
ATOM      1  C   UNL d   1       1.635   3.472  -0.191  0.00  0.00     0.077 C 
ATOM      2  C1  UNL d   1       1.216   2.043  -0.369  0.00  0.00    -0.074 A 
ATOM      3  C2  UNL d   1       1.919   1.188  -1.223  0.00  0.00    -0.005 A 
ATOM      4  C3  UNL d   1       1.523  -0.141  -1.371  0.00  0.00     0.006 A 
ATOM      5  C4  UNL d   1       0.421  -0.628  -0.667  0.00  0.00    -0.005 A 
ATOM      6  C5  UNL d   1      -0.294   0.212   0.192  0.00  0.00    -0.074 A 
ATOM      7  C6  UNL d   1      -1.475  -0.298   0.964  0.00  0.00     0.077 C 
ATOM      8  C7  UNL d   1       0.114   1.544   0.341  0.00  0.00    -0.001 A 
ENDROOT
TORSDOF 0
ENDMDL
