MODEL 1
REMARK minimizedAffinity -2.98990417
REMARK minimizedRMSD -1
REMARK  0 active torsions:
REMARK  status: ('A' for Active; 'I' for Inactive)
ROOT
ATOM      1  C   UNL d   1       2.206   3.035  -1.399  0.00  0.00     0.077 C 
ATOM      2  C1  UNL d   1       1.687   1.649  -1.157  0.00  0.00    -0.074 A 
ATOM      3  C2  UNL d   1       2.302   0.539  -1.744  0.00  0.00    -0.005 A 
ATOM      4  C3  UNL d   1       1.814  -0.745  -1.502  0.00  0.00     0.006 A 
ATOM      5  C4  UNL d   1       0.707  -0.932  -0.672  0.00  0.00    -0.005 A 
ATOM      6  C5  UNL d   1       0.080   0.167  -0.076  0.00  0.00    -0.074 A 
ATOM      7  C6  UNL d   1      -1.104  -0.017   0.826  0.00  0.00     0.077 C 
ATOM      8  C7  UNL d   1       0.580   1.453  -0.318  0.00  0.00    -0.001 A 
ENDROOT
TORSDOF 0
ENDMDL
