MODEL 1
REMARK minimizedAffinity -3.64023113
REMARK minimizedRMSD -1
REMARK  0 active torsions:
REMARK  status: ('A' for Active; 'I' for Inactive)
ROOT
ATOM      1  C   UNL d   1      -1.876   0.064   3.859  0.00  0.00     0.077 C 
ATOM      2  C1  UNL d   1      -1.794   0.148   2.363  0.00  0.00    -0.074 A 
ATOM      3  C2  UNL d   1      -2.937   0.386   1.593  0.00  0.00    -0.005 A 
ATOM      4  C3  UNL d   1      -2.844   0.471   0.204  0.00  0.00     0.006 A 
ATOM      5  C4  UNL d   1      -1.609   0.320  -0.428  0.00  0.00    -0.005 A 
ATOM      6  C5  UNL d   1      -0.455   0.083   0.326  0.00  0.00    -0.074 A 
ATOM      7  C6  UNL d   1       0.881  -0.072  -0.337  0.00  0.00     0.077 C 
ATOM      8  C7  UNL d   1      -0.556   0.005   1.722  0.00  0.00    -0.001 A 
ENDROOT
TORSDOF 0
ENDMDL
