MODEL 1
REMARK minimizedAffinity -2.65762615
REMARK minimizedRMSD -1
REMARK  0 active torsions:
REMARK  status: ('A' for Active; 'I' for Inactive)
ROOT
ATOM      1  C   UNL d   1      -0.887  -0.084   2.124  0.00  0.00     0.077 C 
ATOM      2  C1  UNL d   1       0.063  -0.360   0.996  0.00  0.00    -0.074 A 
ATOM      3  C2  UNL d   1       0.348  -1.671   0.601  0.00  0.00    -0.005 A 
ATOM      4  C3  UNL d   1       1.226  -1.911  -0.456  0.00  0.00     0.006 A 
ATOM      5  C4  UNL d   1       1.827  -0.845  -1.126  0.00  0.00    -0.005 A 
ATOM      6  C5  UNL d   1       1.554   0.472  -0.746  0.00  0.00    -0.074 A 
ATOM      7  C6  UNL d   1       2.183   1.629  -1.462  0.00  0.00     0.077 C 
ATOM      8  C7  UNL d   1       0.665   0.706   0.313  0.00  0.00    -0.001 A 
ENDROOT
TORSDOF 0
ENDMDL
