MODEL 1
REMARK minimizedAffinity -2.31037211
REMARK minimizedRMSD -1
REMARK  0 active torsions:
REMARK  status: ('A' for Active; 'I' for Inactive)
ROOT
ATOM      1  C   UNL d   1       1.471   1.021  -0.899  0.00  0.00     0.077 C 
ATOM      2  C1  UNL d   1       0.607   0.224   0.033  0.00  0.00    -0.074 A 
ATOM      3  C2  UNL d   1       0.564  -1.172  -0.043  0.00  0.00    -0.005 A 
ATOM      4  C3  UNL d   1      -0.237  -1.900   0.836  0.00  0.00     0.006 A 
ATOM      5  C4  UNL d   1      -1.003  -1.241   1.799  0.00  0.00    -0.005 A 
ATOM      6  C5  UNL d   1      -0.972   0.154   1.891  0.00  0.00    -0.074 A 
ATOM      7  C6  UNL d   1      -1.781   0.878   2.926  0.00  0.00     0.077 C 
ATOM      8  C7  UNL d   1      -0.159   0.879   1.008  0.00  0.00    -0.001 A 
ENDROOT
TORSDOF 0
ENDMDL
