MODEL 1
REMARK minimizedAffinity -3.6034863
REMARK minimizedRMSD -1
REMARK  0 active torsions:
REMARK  status: ('A' for Active; 'I' for Inactive)
ROOT
ATOM      1  C   UNL d   1       0.992   1.273  -0.861  0.00  0.00     0.077 C 
ATOM      2  C1  UNL d   1      -0.034   0.555  -0.036  0.00  0.00    -0.074 A 
ATOM      3  C2  UNL d   1       0.346  -0.391   0.921  0.00  0.00    -0.005 A 
ATOM      4  C3  UNL d   1      -0.619  -1.044   1.687  0.00  0.00     0.006 A 
ATOM      5  C4  UNL d   1      -1.973  -0.758   1.504  0.00  0.00    -0.005 A 
ATOM      6  C5  UNL d   1      -2.372   0.185   0.552  0.00  0.00    -0.074 A 
ATOM      7  C6  UNL d   1      -3.822   0.511   0.349  0.00  0.00     0.077 C 
ATOM      8  C7  UNL d   1      -1.396   0.842  -0.209  0.00  0.00    -0.001 A 
ENDROOT
TORSDOF 0
ENDMDL
