MODEL 1
REMARK minimizedAffinity -4.04487467
REMARK minimizedRMSD -1
REMARK  0 active torsions:
REMARK  status: ('A' for Active; 'I' for Inactive)
ROOT
ATOM      1  C   UNL d   1       1.125  -0.066  -0.759  0.00  0.00     0.172 C 
ATOM      2  N   UNL d   1       1.551  -0.574   0.524  0.00  0.00    -0.070 N 
ATOM      3  C1  UNL d   1       2.669  -1.330   0.752  0.00  0.00    -0.004 A 
ATOM      4  C2  UNL d   1       2.721  -1.611   2.100  0.00  0.00    -0.047 A 
ATOM      5  C3  UNL d   1       1.594  -1.004   2.703  0.00  0.00    -0.047 A 
ATOM      6  C4  UNL d   1       0.887  -0.369   1.704  0.00  0.00    -0.004 A 
ENDROOT
TORSDOF 0
ENDMDL
