MODEL 1
REMARK minimizedAffinity -3.44697571
REMARK minimizedRMSD -1
REMARK  0 active torsions:
REMARK  status: ('A' for Active; 'I' for Inactive)
ROOT
ATOM      1  C   UNL d   1       0.272   0.169  -0.467  0.00  0.00     0.172 C 
ATOM      2  N   UNL d   1       0.849  -0.480   0.687  0.00  0.00    -0.070 N 
ATOM      3  C1  UNL d   1       0.605  -0.149   1.993  0.00  0.00    -0.004 A 
ATOM      4  C2  UNL d   1       1.342  -1.000   2.789  0.00  0.00    -0.047 A 
ATOM      5  C3  UNL d   1       2.054  -1.871   1.930  0.00  0.00    -0.047 A 
ATOM      6  C4  UNL d   1       1.730  -1.527   0.635  0.00  0.00    -0.004 A 
ENDROOT
TORSDOF 0
ENDMDL
