MODEL 1
REMARK minimizedAffinity -3.74587345
REMARK minimizedRMSD -1
REMARK  0 active torsions:
REMARK  status: ('A' for Active; 'I' for Inactive)
ROOT
ATOM      1  C   UNL d   1      -0.077  -0.216  -1.199  0.00  0.00     0.172 C 
ATOM      2  N   UNL d   1       0.180  -0.452   0.202  0.00  0.00    -0.070 N 
ATOM      3  C1  UNL d   1       1.399  -0.746   0.752  0.00  0.00    -0.004 A 
ATOM      4  C2  UNL d   1       1.224  -0.899   2.111  0.00  0.00    -0.047 A 
ATOM      5  C3  UNL d   1      -0.149  -0.690   2.387  0.00  0.00    -0.047 A 
ATOM      6  C4  UNL d   1      -0.772  -0.415   1.188  0.00  0.00    -0.004 A 
ENDROOT
TORSDOF 0
ENDMDL
