MODEL 1
REMARK minimizedAffinity -3.23649859
REMARK minimizedRMSD -1
REMARK  0 active torsions:
REMARK  status: ('A' for Active; 'I' for Inactive)
ROOT
ATOM      1  C   UNL d   1      -0.301   0.253  -0.132  0.00  0.00     0.172 C 
ATOM      2  N   UNL d   1       0.332  -0.397   0.991  0.00  0.00    -0.070 N 
ATOM      3  C1  UNL d   1       1.405  -1.245   0.921  0.00  0.00    -0.004 A 
ATOM      4  C2  UNL d   1       1.707  -1.650   2.204  0.00  0.00    -0.047 A 
ATOM      5  C3  UNL d   1       0.782  -1.025   3.074  0.00  0.00    -0.047 A 
ATOM      6  C4  UNL d   1      -0.057  -0.255   2.297  0.00  0.00    -0.004 A 
ENDROOT
TORSDOF 0
ENDMDL
