MODEL 1
REMARK minimizedAffinity 15.5723448
REMARK minimizedRMSD -1
REMARK  0 active torsions:
REMARK  status: ('A' for Active; 'I' for Inactive)
ROOT
ATOM      1  C   UNL d   1       3.602  -0.038   0.041  0.00  0.00     0.023 A 
ATOM      2  C1  UNL d   1       2.417  -0.774   0.041  0.00  0.00     0.003 A 
ATOM      3  C2  UNL d   1       1.193  -0.128   0.225  0.00  0.00     0.048 A 
ATOM      4  C3  UNL d   1       1.160   1.254   0.407  0.00  0.00     0.023 A 
ATOM      5  C4  UNL d   1       2.343   1.995   0.406  0.00  0.00     0.048 A 
ATOM      6  C5  UNL d   1       3.565   1.345   0.223  0.00  0.00     0.003 A 
ATOM      7  I   UNL d   1      -0.661   2.218   0.680  0.00  0.00    -0.146 I 
ENDROOT
TORSDOF 0
ENDMDL
