MODEL 1
REMARK minimizedAffinity 5.87846088
REMARK minimizedRMSD -1
REMARK  0 active torsions:
REMARK  status: ('A' for Active; 'I' for Inactive)
ROOT
ATOM      1  C   UNL d   1       2.949  -2.457   0.392  0.00  0.00     0.023 A 
ATOM      2  C1  UNL d   1       3.240  -1.886   1.630  0.00  0.00     0.003 A 
ATOM      3  C2  UNL d   1       3.166  -0.501   1.797  0.00  0.00     0.048 A 
ATOM      4  C3  UNL d   1       2.798   0.306   0.721  0.00  0.00     0.023 A 
ATOM      5  C4  UNL d   1       2.504  -0.261  -0.520  0.00  0.00     0.048 A 
ATOM      6  C5  UNL d   1       2.581  -1.646  -0.682  0.00  0.00     0.003 A 
ATOM      7  I   UNL d   1       2.687   2.367   0.966  0.00  0.00    -0.146 I 
ENDROOT
TORSDOF 0
ENDMDL
