MODEL 1
REMARK minimizedAffinity 8.06988811
REMARK minimizedRMSD -1
REMARK  0 active torsions:
REMARK  status: ('A' for Active; 'I' for Inactive)
ROOT
ATOM      1  C   UNL d   1       2.178  -2.514  -0.192  0.00  0.00     0.023 A 
ATOM      2  C1  UNL d   1       0.897  -2.021   0.055  0.00  0.00     0.003 A 
ATOM      3  C2  UNL d   1       0.696  -0.649   0.224  0.00  0.00     0.048 A 
ATOM      4  C3  UNL d   1       1.780   0.223   0.142  0.00  0.00     0.023 A 
ATOM      5  C4  UNL d   1       3.064  -0.265  -0.107  0.00  0.00     0.048 A 
ATOM      6  C5  UNL d   1       3.260  -1.638  -0.274  0.00  0.00     0.003 A 
ATOM      7  I   UNL d   1       1.484   2.265   0.391  0.00  0.00    -0.146 I 
ENDROOT
TORSDOF 0
ENDMDL
