MODEL 1
REMARK minimizedAffinity 3.69077492
REMARK minimizedRMSD -1
REMARK  0 active torsions:
REMARK  status: ('A' for Active; 'I' for Inactive)
ROOT
ATOM      1  C   UNL d   1      -6.000  -2.158   0.253  0.00  0.00     0.023 A 
ATOM      2  C1  UNL d   1      -5.255  -2.762  -0.761  0.00  0.00     0.003 A 
ATOM      3  C2  UNL d   1      -4.114  -2.132  -1.261  0.00  0.00     0.048 A 
ATOM      4  C3  UNL d   1      -3.721  -0.898  -0.742  0.00  0.00     0.023 A 
ATOM      5  C4  UNL d   1      -4.463  -0.291   0.273  0.00  0.00     0.048 A 
ATOM      6  C5  UNL d   1      -5.604  -0.924   0.769  0.00  0.00     0.003 A 
ATOM      7  I   UNL d   1      -2.022   0.041  -1.483  0.00  0.00    -0.146 I 
ENDROOT
TORSDOF 0
ENDMDL
