MODEL 1
REMARK minimizedAffinity 2.62639832
REMARK minimizedRMSD -1
REMARK  0 active torsions:
REMARK  status: ('A' for Active; 'I' for Inactive)
ROOT
ATOM      1  C   UNL d   1      -0.412   1.896   3.231  0.00  0.00    -0.002 A 
ATOM      2  C1  UNL d   1      -1.191   2.206   2.125  0.00  0.00     0.010 A 
ATOM      3  C2  UNL d   1      -0.972   1.571   0.901  0.00  0.00     0.041 A 
ATOM      4  C3  UNL d   1       0.051   0.607   0.807  0.00  0.00    -0.075 A 
ATOM      5  S   UNL d   1       0.499  -0.299  -0.589  0.00  0.00     0.015 SA
ATOM      6  C4  UNL d   1       1.734  -1.121   0.250  0.00  0.00     0.022 A 
ATOM      7  C5  UNL d   1       1.817  -0.726   1.564  0.00  0.00     0.026 A 
ATOM      8  C6  UNL d   1       0.848   0.277   1.907  0.00  0.00    -0.082 A 
ATOM      9  C7  UNL d   1       0.602   0.939   3.134  0.00  0.00     0.045 A 
ENDROOT
TORSDOF 0
ENDMDL
