MODEL 1
REMARK minimizedAffinity -1.9348067
REMARK minimizedRMSD -1
REMARK  0 active torsions:
REMARK  status: ('A' for Active; 'I' for Inactive)
ROOT
ATOM      1  C   UNL d   1       0.090   0.658  -4.930  0.00  0.00    -0.002 A 
ATOM      2  C1  UNL d   1       1.105   1.125  -4.106  0.00  0.00     0.010 A 
ATOM      3  C2  UNL d   1       1.528   0.377  -3.005  0.00  0.00     0.041 A 
ATOM      4  C3  UNL d   1       0.908  -0.861  -2.744  0.00  0.00    -0.075 A 
ATOM      5  S   UNL d   1       1.261  -1.948  -1.454  0.00  0.00     0.015 SA
ATOM      6  C4  UNL d   1       0.074  -3.059  -1.965  0.00  0.00     0.022 A 
ATOM      7  C5  UNL d   1      -0.586  -2.626  -3.091  0.00  0.00     0.026 A 
ATOM      8  C6  UNL d   1      -0.116  -1.353  -3.559  0.00  0.00    -0.082 A 
ATOM      9  C7  UNL d   1      -0.522  -0.571  -4.667  0.00  0.00     0.045 A 
ENDROOT
TORSDOF 0
ENDMDL
