MODEL 1
REMARK minimizedAffinity -2.58445549
REMARK minimizedRMSD -1
REMARK  0 active torsions:
REMARK  status: ('A' for Active; 'I' for Inactive)
ROOT
ATOM      1  C   UNL d   1      -0.351   1.627   2.896  0.00  0.00    -0.002 A 
ATOM      2  C1  UNL d   1      -1.586   1.047   3.153  0.00  0.00     0.010 A 
ATOM      3  C2  UNL d   1      -2.141   0.131   2.258  0.00  0.00     0.041 A 
ATOM      4  C3  UNL d   1      -1.427  -0.198   1.089  0.00  0.00    -0.075 A 
ATOM      5  S   UNL d   1      -1.909  -1.296  -0.150  0.00  0.00     0.015 SA
ATOM      6  C4  UNL d   1      -0.488  -1.022  -1.049  0.00  0.00     0.022 A 
ATOM      7  C5  UNL d   1       0.346  -0.118  -0.435  0.00  0.00     0.026 A 
ATOM      8  C6  UNL d   1      -0.181   0.371   0.808  0.00  0.00    -0.082 A 
ATOM      9  C7  UNL d   1       0.354   1.298   1.735  0.00  0.00     0.045 A 
ENDROOT
TORSDOF 0
ENDMDL
