MODEL 1
REMARK minimizedAffinity -1.011114
REMARK minimizedRMSD -1
REMARK  0 active torsions:
REMARK  status: ('A' for Active; 'I' for Inactive)
ROOT
ATOM      1  C   UNL d   1       0.023   1.786   2.470  0.00  0.00    -0.002 A 
ATOM      2  C1  UNL d   1      -1.306   1.400   2.561  0.00  0.00     0.010 A 
ATOM      3  C2  UNL d   1      -1.835   0.461   1.673  0.00  0.00     0.041 A 
ATOM      4  C3  UNL d   1      -0.997  -0.089   0.684  0.00  0.00    -0.075 A 
ATOM      5  S   UNL d   1      -1.426  -1.256  -0.511  0.00  0.00     0.015 SA
ATOM      6  C4  UNL d   1       0.146  -1.269  -1.170  0.00  0.00     0.022 A 
ATOM      7  C5  UNL d   1       0.990  -0.410  -0.507  0.00  0.00     0.026 A 
ATOM      8  C6  UNL d   1       0.346   0.283   0.573  0.00  0.00    -0.082 A 
ATOM      9  C7  UNL d   1       0.852   1.238   1.487  0.00  0.00     0.045 A 
ENDROOT
TORSDOF 0
ENDMDL
