MODEL 1
REMARK minimizedAffinity -5.14225197
REMARK minimizedRMSD -1
REMARK  0 active torsions:
REMARK  status: ('A' for Active; 'I' for Inactive)
ROOT
ATOM      1  C   UNL d   1       1.019   0.871   3.402  0.00  0.00    -0.002 A 
ATOM      2  C1  UNL d   1      -0.304   1.281   3.488  0.00  0.00     0.010 A 
ATOM      3  C2  UNL d   1      -1.189   1.047   2.434  0.00  0.00     0.041 A 
ATOM      4  C3  UNL d   1      -0.719   0.385   1.283  0.00  0.00    -0.075 A 
ATOM      5  S   UNL d   1      -1.622  -0.010  -0.131  0.00  0.00     0.015 SA
ATOM      6  C4  UNL d   1      -0.274  -0.733  -0.882  0.00  0.00     0.022 A 
ATOM      7  C5  UNL d   1       0.847  -0.683  -0.087  0.00  0.00     0.026 A 
ATOM      8  C6  UNL d   1       0.609  -0.038   1.173  0.00  0.00    -0.082 A 
ATOM      9  C7  UNL d   1       1.483   0.215   2.258  0.00  0.00     0.045 A 
ENDROOT
TORSDOF 0
ENDMDL
