MODEL 1
REMARK minimizedAffinity 0.419315308
REMARK minimizedRMSD -1
REMARK  0 active torsions:
REMARK  status: ('A' for Active; 'I' for Inactive)
ROOT
ATOM      1  C   UNL d   1      -3.341  -2.413  -1.296  0.00  0.00    -0.002 A 
ATOM      2  C1  UNL d   1      -2.292  -3.173  -1.792  0.00  0.00     0.010 A 
ATOM      3  C2  UNL d   1      -0.977  -2.712  -1.708  0.00  0.00     0.041 A 
ATOM      4  C3  UNL d   1      -0.731  -1.461  -1.107  0.00  0.00    -0.075 A 
ATOM      5  S   UNL d   1       0.798  -0.695  -0.892  0.00  0.00     0.015 SA
ATOM      6  C4  UNL d   1       0.095   0.661  -0.134  0.00  0.00     0.022 A 
ATOM      7  C5  UNL d   1      -1.271   0.548  -0.040  0.00  0.00     0.026 A 
ATOM      8  C6  UNL d   1      -1.770  -0.677  -0.599  0.00  0.00    -0.082 A 
ATOM      9  C7  UNL d   1      -3.093  -1.173  -0.701  0.00  0.00     0.045 A 
ENDROOT
TORSDOF 0
ENDMDL
