MODEL 1
REMARK minimizedAffinity -1.68121219
REMARK minimizedRMSD -1
REMARK  0 active torsions:
REMARK  status: ('A' for Active; 'I' for Inactive)
ROOT
ATOM      1  C   UNL d   1      -3.731  -2.557  -0.774  0.00  0.00    -0.002 A 
ATOM      2  C1  UNL d   1      -2.764  -3.239  -1.498  0.00  0.00     0.010 A 
ATOM      3  C2  UNL d   1      -1.433  -2.820  -1.476  0.00  0.00     0.041 A 
ATOM      4  C3  UNL d   1      -1.085  -1.694  -0.705  0.00  0.00    -0.075 A 
ATOM      5  S   UNL d   1       0.482  -0.999  -0.526  0.00  0.00     0.015 SA
ATOM      6  C4  UNL d   1      -0.094   0.219   0.517  0.00  0.00     0.022 A 
ATOM      7  C5  UNL d   1      -1.448   0.113   0.735  0.00  0.00     0.026 A 
ATOM      8  C6  UNL d   1      -2.041  -0.991   0.034  0.00  0.00    -0.082 A 
ATOM      9  C7  UNL d   1      -3.383  -1.440  -0.009  0.00  0.00     0.045 A 
ENDROOT
TORSDOF 0
ENDMDL
