MODEL 1
REMARK minimizedAffinity -5.19533873
REMARK minimizedRMSD -1
REMARK  1 active torsions:
REMARK  status: ('A' for Active; 'I' for Inactive)
REMARK    1  A    between atoms: C3_4  and  O_7 
ROOT
ATOM      1  C   UNL d   1       0.033   0.953  -0.113  0.00  0.00    -0.033 A 
ATOM      2  C1  UNL d   1       1.008   1.905   0.192  0.00  0.00     0.039 A 
ATOM      3  C2  UNL d   1       2.278   1.499   0.604  0.00  0.00    -0.080 A 
ATOM      4  C3  UNL d   1       2.561   0.140   0.705  0.00  0.00     0.150 A 
ATOM      5  C4  UNL d   1       1.596  -0.814   0.399  0.00  0.00    -0.007 A 
ATOM      6  C5  UNL d   1       0.328  -0.406  -0.011  0.00  0.00     0.039 A 
ENDROOT
BRANCH   4   7
ATOM      7  O   UNL d   1       3.786  -0.305   1.108  0.00  0.00    -0.526 OA
ATOM      8  H5  UNL d   1       4.341   0.465   1.313  0.00  0.00     0.418 HD
ENDBRANCH   4   7
TORSDOF 1
ENDMDL
