MODEL 1
REMARK minimizedAffinity -4.8403554
REMARK minimizedRMSD -1
REMARK  1 active torsions:
REMARK  status: ('A' for Active; 'I' for Inactive)
REMARK    1  A    between atoms: C3_4  and  O_7 
ROOT
ATOM      1  C   UNL d   1       1.658   1.154   0.142  0.00  0.00    -0.033 A 
ATOM      2  C1  UNL d   1       0.530   0.408  -0.203  0.00  0.00     0.039 A 
ATOM      3  C2  UNL d   1       0.299  -0.831   0.399  0.00  0.00    -0.080 A 
ATOM      4  C3  UNL d   1       1.203  -1.310   1.344  0.00  0.00     0.150 A 
ATOM      5  C4  UNL d   1       2.327  -0.570   1.695  0.00  0.00    -0.007 A 
ATOM      6  C5  UNL d   1       2.556   0.666   1.092  0.00  0.00     0.039 A 
ENDROOT
BRANCH   4   7
ATOM      7  O   UNL d   1       1.023  -2.516   1.955  0.00  0.00    -0.526 OA
ATOM      8  H5  UNL d   1       0.221  -2.927   1.592  0.00  0.00     0.418 HD
ENDBRANCH   4   7
TORSDOF 1
ENDMDL
