MODEL 1
REMARK minimizedAffinity -3.42098999
REMARK minimizedRMSD -1
REMARK  1 active torsions:
REMARK  status: ('A' for Active; 'I' for Inactive)
REMARK    1  A    between atoms: C3_4  and  O_7 
ROOT
ATOM      1  C   UNL d   1       2.247   1.508   0.832  0.00  0.00    -0.033 A 
ATOM      2  C1  UNL d   1       2.065   0.124   0.877  0.00  0.00     0.039 A 
ATOM      3  C2  UNL d   1       0.832  -0.431   0.528  0.00  0.00    -0.080 A 
ATOM      4  C3  UNL d   1      -0.208   0.407   0.136  0.00  0.00     0.150 A 
ATOM      5  C4  UNL d   1      -0.032   1.786   0.085  0.00  0.00    -0.007 A 
ATOM      6  C5  UNL d   1       1.199   2.338   0.435  0.00  0.00     0.039 A 
ENDROOT
BRANCH   4   7
ATOM      7  O   UNL d   1      -1.430  -0.088  -0.209  0.00  0.00    -0.526 OA
ATOM      8  H5  UNL d   1      -1.413  -1.054  -0.099  0.00  0.00     0.418 HD
ENDBRANCH   4   7
TORSDOF 1
ENDMDL
