MODEL 1
REMARK minimizedAffinity -2.73264956
REMARK minimizedRMSD -1
REMARK  1 active torsions:
REMARK  status: ('A' for Active; 'I' for Inactive)
REMARK    1  A    between atoms: C3_4  and  O_7 
ROOT
ATOM      1  C   UNL d   1      -0.240   0.852   0.049  0.00  0.00    -0.033 A 
ATOM      2  C1  UNL d   1       0.600   1.609   0.869  0.00  0.00     0.039 A 
ATOM      3  C2  UNL d   1       1.869   1.132   1.202  0.00  0.00    -0.080 A 
ATOM      4  C3  UNL d   1       2.287  -0.101   0.708  0.00  0.00     0.150 A 
ATOM      5  C4  UNL d   1       1.457  -0.858  -0.112  0.00  0.00    -0.007 A 
ATOM      6  C5  UNL d   1       0.190  -0.381  -0.443  0.00  0.00     0.039 A 
ENDROOT
BRANCH   4   7
ATOM      7  O   UNL d   1       3.515  -0.610   1.009  0.00  0.00    -0.526 OA
ATOM      8  H5  UNL d   1       3.966   0.009   1.608  0.00  0.00     0.418 HD
ENDBRANCH   4   7
TORSDOF 1
ENDMDL
