MODEL 1
REMARK minimizedAffinity 2.04224086
REMARK minimizedRMSD -1
REMARK  1 active torsions:
REMARK  status: ('A' for Active; 'I' for Inactive)
REMARK    1  A    between atoms: C3_4  and  O_7 
ROOT
ATOM      1  C   UNL d   1       2.462   3.565   0.628  0.00  0.00    -0.033 A 
ATOM      2  C1  UNL d   1       1.141   3.890   0.314  0.00  0.00     0.039 A 
ATOM      3  C2  UNL d   1       0.174   2.886   0.231  0.00  0.00    -0.080 A 
ATOM      4  C3  UNL d   1       0.541   1.564   0.465  0.00  0.00     0.150 A 
ATOM      5  C4  UNL d   1       1.855   1.233   0.781  0.00  0.00    -0.007 A 
ATOM      6  C5  UNL d   1       2.819   2.237   0.863  0.00  0.00     0.039 A 
ENDROOT
BRANCH   4   7
ATOM      7  O   UNL d   1      -0.367   0.549   0.390  0.00  0.00    -0.526 OA
ATOM      8  H5  UNL d   1      -1.226   0.923   0.135  0.00  0.00     0.418 HD
ENDBRANCH   4   7
TORSDOF 1
ENDMDL
