MODEL 1
REMARK minimizedAffinity 3.24266386
REMARK minimizedRMSD -1
REMARK  0 active torsions:
REMARK  status: ('A' for Active; 'I' for Inactive)
ROOT
ATOM      1  C2' OXE d   1       1.277  -5.925  -2.992  0.00  0.00     0.078 C 
ATOM      2  C1' OXE d   1       0.144  -5.996  -5.559  0.00  0.00     0.078 C 
ATOM      3  C1  OXE d   1      -0.793  -5.971  -4.377  0.00  0.00    -0.078 A 
ATOM      4  C2  OXE d   1      -0.230  -5.984  -3.124  0.00  0.00    -0.078 A 
ATOM      5  C3  OXE d   1      -1.047  -5.907  -2.000  0.00  0.00     0.003 A 
ATOM      6  C4  OXE d   1      -2.440  -5.972  -2.130  0.00  0.00    -0.002 A 
ATOM      7  C5  OXE d   1      -3.033  -6.000  -3.397  0.00  0.00    -0.002 A 
ATOM      8  C6  OXE d   1      -2.227  -5.957  -4.529  0.00  0.00     0.003 A 
ENDROOT
TORSDOF 0
ENDMDL
