MODEL 1
REMARK minimizedAffinity -1.97181499
REMARK minimizedRMSD -1
REMARK  0 active torsions:
REMARK  status: ('A' for Active; 'I' for Inactive)
ROOT
ATOM      1  C2' OXE d   1      -2.225  -5.999  -5.827  0.00  0.00     0.078 C 
ATOM      2  C1' OXE d   1      -0.785  -5.979  -3.418  0.00  0.00     0.078 C 
ATOM      3  C1  OXE d   1      -2.291  -5.981  -3.337  0.00  0.00    -0.078 A 
ATOM      4  C2  OXE d   1      -2.988  -5.944  -4.521  0.00  0.00    -0.078 A 
ATOM      5  C3  OXE d   1      -4.379  -6.000  -4.505  0.00  0.00     0.003 A 
ATOM      6  C4  OXE d   1      -5.076  -5.939  -3.293  0.00  0.00    -0.002 A 
ATOM      7  C5  OXE d   1      -4.387  -5.936  -2.076  0.00  0.00    -0.002 A 
ATOM      8  C6  OXE d   1      -2.997  -6.000  -2.080  0.00  0.00     0.003 A 
ENDROOT
TORSDOF 0
ENDMDL
