MODEL 1
REMARK minimizedAffinity 1.34128308
REMARK minimizedRMSD -1
REMARK  0 active torsions:
REMARK  status: ('A' for Active; 'I' for Inactive)
ROOT
ATOM      1  C2' OXE d   1      -0.042  -5.994  -2.165  0.00  0.00     0.078 C 
ATOM      2  C1' OXE d   1      -2.848  -5.985  -2.235  0.00  0.00     0.078 C 
ATOM      3  C1  OXE d   1      -2.111  -5.979  -3.551  0.00  0.00    -0.078 A 
ATOM      4  C2  OXE d   1      -0.739  -5.936  -3.507  0.00  0.00    -0.078 A 
ATOM      5  C3  OXE d   1      -0.009  -5.984  -4.692  0.00  0.00     0.003 A 
ATOM      6  C4  OXE d   1      -0.662  -5.920  -5.929  0.00  0.00    -0.002 A 
ATOM      7  C5  OXE d   1      -2.059  -5.923  -5.996  0.00  0.00    -0.002 A 
ATOM      8  C6  OXE d   1      -2.797  -5.995  -4.820  0.00  0.00     0.003 A 
ENDROOT
TORSDOF 0
ENDMDL
