MODEL 1
REMARK minimizedAffinity 1.70481539
REMARK minimizedRMSD -1
REMARK  0 active torsions:
REMARK  status: ('A' for Active; 'I' for Inactive)
ROOT
ATOM      1  C2' OXE d   1      -0.772  -5.959  -1.689  0.00  0.00     0.078 C 
ATOM      2  C1' OXE d   1      -3.359  -5.959  -2.779  0.00  0.00     0.078 C 
ATOM      3  C1  OXE d   1      -2.193  -5.964  -3.735  0.00  0.00    -0.078 A 
ATOM      4  C2  OXE d   1      -0.931  -5.917  -3.194  0.00  0.00    -0.078 A 
ATOM      5  C3  OXE d   1       0.181  -5.975  -4.030  0.00  0.00     0.003 A 
ATOM      6  C4  OXE d   1       0.025  -5.926  -5.420  0.00  0.00    -0.002 A 
ATOM      7  C5  OXE d   1      -1.251  -5.933  -5.993  0.00  0.00    -0.002 A 
ATOM      8  C6  OXE d   1      -2.368  -5.995  -5.167  0.00  0.00     0.003 A 
ENDROOT
TORSDOF 0
ENDMDL
