MODEL 1
REMARK minimizedAffinity 1.19940495
REMARK minimizedRMSD -1
REMARK  0 active torsions:
REMARK  status: ('A' for Active; 'I' for Inactive)
ROOT
ATOM      1  C2' OXE d   1      -2.768   1.590  -2.926  0.00  0.00     0.078 C 
ATOM      2  C1' OXE d   1      -0.106   1.440  -2.047  0.00  0.00     0.078 C 
ATOM      3  C1  OXE d   1      -0.457   2.514  -3.046  0.00  0.00    -0.078 A 
ATOM      4  C2  OXE d   1      -1.752   2.550  -3.506  0.00  0.00    -0.078 A 
ATOM      5  C3  OXE d   1      -2.142   3.554  -4.388  0.00  0.00     0.003 A 
ATOM      6  C4  OXE d   1      -1.195   4.431  -4.927  0.00  0.00    -0.002 A 
ATOM      7  C5  OXE d   1       0.138   4.386  -4.503  0.00  0.00    -0.002 A 
ATOM      8  C6  OXE d   1       0.513   3.463  -3.533  0.00  0.00     0.003 A 
ENDROOT
TORSDOF 0
ENDMDL
