MODEL 1
REMARK minimizedAffinity -2.60351086
REMARK minimizedRMSD -1
REMARK  0 active torsions:
REMARK  status: ('A' for Active; 'I' for Inactive)
ROOT
ATOM      1  C2' OXE d   1       0.555  -6.000  -3.002  0.00  0.00     0.078 C 
ATOM      2  C1' OXE d   1      -0.623  -4.889  -5.295  0.00  0.00     0.078 C 
ATOM      3  C1  OXE d   1      -1.516  -5.174  -4.114  0.00  0.00    -0.078 A 
ATOM      4  C2  OXE d   1      -0.940  -5.760  -3.013  0.00  0.00    -0.078 A 
ATOM      5  C3  OXE d   1      -1.707  -5.994  -1.875  0.00  0.00     0.003 A 
ATOM      6  C4  OXE d   1      -3.090  -5.778  -1.897  0.00  0.00    -0.002 A 
ATOM      7  C5  OXE d   1      -3.704  -5.218  -3.022  0.00  0.00    -0.002 A 
ATOM      8  C6  OXE d   1      -2.926  -4.872  -4.121  0.00  0.00     0.003 A 
ENDROOT
TORSDOF 0
ENDMDL
