MODEL 1
REMARK minimizedAffinity 10.1667023
REMARK minimizedRMSD -1
REMARK  0 active torsions:
REMARK  status: ('A' for Active; 'I' for Inactive)
ROOT
ATOM      1  C2' OXE d   1      -1.978  -5.949  -2.023  0.00  0.00     0.078 C 
ATOM      2  C1' OXE d   1      -3.683  -5.998  -4.253  0.00  0.00     0.078 C 
ATOM      3  C1  OXE d   1      -2.196  -5.972  -4.505  0.00  0.00    -0.078 A 
ATOM      4  C2  OXE d   1      -1.371  -5.902  -3.409  0.00  0.00    -0.078 A 
ATOM      5  C3  OXE d   1       0.010  -5.931  -3.583  0.00  0.00     0.003 A 
ATOM      6  C4  OXE d   1       0.564  -5.877  -4.868  0.00  0.00    -0.002 A 
ATOM      7  C5  OXE d   1      -0.260  -5.908  -5.998  0.00  0.00    -0.002 A 
ATOM      8  C6  OXE d   1      -1.638  -5.999  -5.834  0.00  0.00     0.003 A 
ENDROOT
TORSDOF 0
ENDMDL
