MODEL 1
REMARK minimizedAffinity -1.31391656
REMARK minimizedRMSD -1
REMARK  0 active torsions:
REMARK  status: ('A' for Active; 'I' for Inactive)
ROOT
ATOM      1  C2' OXE d   1      -0.735  -5.995  -1.629  0.00  0.00     0.078 C 
ATOM      2  C1' OXE d   1      -3.157  -5.978  -3.047  0.00  0.00     0.078 C 
ATOM      3  C1  OXE d   1      -1.876  -5.980  -3.843  0.00  0.00    -0.078 A 
ATOM      4  C2  OXE d   1      -0.695  -5.941  -3.141  0.00  0.00    -0.078 A 
ATOM      5  C3  OXE d   1       0.516  -5.996  -3.825  0.00  0.00     0.003 A 
ATOM      6  C4  OXE d   1       0.543  -5.935  -5.223  0.00  0.00    -0.002 A 
ATOM      7  C5  OXE d   1      -0.647  -5.934  -5.957  0.00  0.00    -0.002 A 
ATOM      8  C6  OXE d   1      -1.863  -5.999  -5.285  0.00  0.00     0.003 A 
ENDROOT
TORSDOF 0
ENDMDL
