MODEL 1
REMARK minimizedAffinity -2.46463537
REMARK minimizedRMSD -1
REMARK  0 active torsions:
REMARK  status: ('A' for Active; 'I' for Inactive)
ROOT
ATOM      1  C2' OXE d   1       1.123  -5.997  -5.871  0.00  0.00     0.078 C 
ATOM      2  C1' OXE d   1       1.275  -5.982  -3.068  0.00  0.00     0.078 C 
ATOM      3  C1  OXE d   1      -0.095  -5.980  -3.698  0.00  0.00    -0.078 A 
ATOM      4  C2  OXE d   1      -0.160  -5.940  -5.070  0.00  0.00    -0.078 A 
ATOM      5  C3  OXE d   1      -1.398  -5.992  -5.704  0.00  0.00     0.003 A 
ATOM      6  C4  OXE d   1      -2.580  -5.929  -4.956  0.00  0.00    -0.002 A 
ATOM      7  C5  OXE d   1      -2.536  -5.929  -3.558  0.00  0.00    -0.002 A 
ATOM      8  C6  OXE d   1      -1.305  -5.997  -2.915  0.00  0.00     0.003 A 
ENDROOT
TORSDOF 0
ENDMDL
