MODEL 1
REMARK minimizedAffinity 0.867229164
REMARK minimizedRMSD -1
REMARK  0 active torsions:
REMARK  status: ('A' for Active; 'I' for Inactive)
ROOT
ATOM      1  C2' OXE d   1       0.924   1.052   0.054  0.00  0.00     0.078 C 
ATOM      2  C1' OXE d   1       0.366   3.761   0.535  0.00  0.00     0.078 C 
ATOM      3  C1  OXE d   1       0.094   3.221  -0.847  0.00  0.00    -0.078 A 
ATOM      4  C2  OXE d   1       0.414   1.906  -1.087  0.00  0.00    -0.078 A 
ATOM      5  C3  OXE d   1       0.132   1.344  -2.328  0.00  0.00     0.003 A 
ATOM      6  C4  OXE d   1      -0.330   2.143  -3.380  0.00  0.00    -0.002 A 
ATOM      7  C5  OXE d   1      -0.625   3.494  -3.169  0.00  0.00    -0.002 A 
ATOM      8  C6  OXE d   1      -0.459   4.037  -1.899  0.00  0.00     0.003 A 
ENDROOT
TORSDOF 0
ENDMDL
