MODEL 1
REMARK minimizedAffinity -0.0851022229
REMARK minimizedRMSD -1
REMARK  0 active torsions:
REMARK  status: ('A' for Active; 'I' for Inactive)
ROOT
ATOM      1  C2' OXE d   1      -0.197  -5.300  -1.728  0.00  0.00     0.078 C 
ATOM      2  C1' OXE d   1      -2.684  -5.624  -2.990  0.00  0.00     0.078 C 
ATOM      3  C1  OXE d   1      -1.444  -5.716  -3.844  0.00  0.00    -0.078 A 
ATOM      4  C2  OXE d   1      -0.234  -5.510  -3.227  0.00  0.00    -0.078 A 
ATOM      5  C3  OXE d   1       0.943  -5.639  -3.958  0.00  0.00     0.003 A 
ATOM      6  C4  OXE d   1       0.900  -5.824  -5.345  0.00  0.00    -0.002 A 
ATOM      7  C5  OXE d   1      -0.324  -5.997  -6.000  0.00  0.00    -0.002 A 
ATOM      8  C6  OXE d   1      -1.501  -5.988  -5.259  0.00  0.00     0.003 A 
ENDROOT
TORSDOF 0
ENDMDL
