MODEL 1
REMARK minimizedAffinity -0.896814227
REMARK minimizedRMSD -1
REMARK  0 active torsions:
REMARK  status: ('A' for Active; 'I' for Inactive)
ROOT
ATOM      1  C2' OXE d   1       1.136  -5.997  -3.020  0.00  0.00     0.078 C 
ATOM      2  C1' OXE d   1       0.050  -5.543  -5.569  0.00  0.00     0.078 C 
ATOM      3  C1  OXE d   1      -0.906  -5.664  -4.409  0.00  0.00    -0.078 A 
ATOM      4  C2  OXE d   1      -0.369  -5.933  -3.172  0.00  0.00    -0.078 A 
ATOM      5  C3  OXE d   1      -1.201  -6.000  -2.059  0.00  0.00     0.003 A 
ATOM      6  C4  OXE d   1      -2.593  -5.950  -2.210  0.00  0.00    -0.002 A 
ATOM      7  C5  OXE d   1      -3.162  -5.716  -3.466  0.00  0.00    -0.002 A 
ATOM      8  C6  OXE d   1      -2.333  -5.530  -4.566  0.00  0.00     0.003 A 
ENDROOT
TORSDOF 0
ENDMDL
