MODEL 1
REMARK minimizedAffinity 5.03265333
REMARK minimizedRMSD -1
REMARK  0 active torsions:
REMARK  status: ('A' for Active; 'I' for Inactive)
ROOT
ATOM      1  C2' OXE d   1       0.245  -3.872   2.622  0.00  0.00     0.078 C 
ATOM      2  C1' OXE d   1      -1.460  -3.088   0.534  0.00  0.00     0.078 C 
ATOM      3  C1  OXE d   1      -0.390  -2.118   0.971  0.00  0.00    -0.078 A 
ATOM      4  C2  OXE d   1       0.409  -2.491   2.025  0.00  0.00    -0.078 A 
ATOM      5  C3  OXE d   1       1.446  -1.658   2.432  0.00  0.00     0.003 A 
ATOM      6  C4  OXE d   1       1.585  -0.378   1.882  0.00  0.00    -0.002 A 
ATOM      7  C5  OXE d   1       0.756   0.038   0.834  0.00  0.00    -0.002 A 
ATOM      8  C6  OXE d   1      -0.207  -0.834   0.340  0.00  0.00     0.003 A 
ENDROOT
TORSDOF 0
ENDMDL
