MODEL 1
REMARK minimizedAffinity 0.741758049
REMARK minimizedRMSD -1
REMARK  0 active torsions:
REMARK  status: ('A' for Active; 'I' for Inactive)
ROOT
ATOM      1  C2' OXE d   1      -1.187  -5.998  -5.999  0.00  0.00     0.078 C 
ATOM      2  C1' OXE d   1       1.483  -5.972  -5.130  0.00  0.00     0.078 C 
ATOM      3  C1  OXE d   1       0.401  -5.975  -4.079  0.00  0.00    -0.078 A 
ATOM      4  C2  OXE d   1      -0.903  -5.940  -4.513  0.00  0.00    -0.078 A 
ATOM      5  C3  OXE d   1      -1.940  -5.997  -3.586  0.00  0.00     0.003 A 
ATOM      6  C4  OXE d   1      -1.668  -5.933  -2.214  0.00  0.00    -0.002 A 
ATOM      7  C5  OXE d   1      -0.348  -5.928  -1.751  0.00  0.00    -0.002 A 
ATOM      8  C6  OXE d   1       0.696  -5.991  -2.667  0.00  0.00     0.003 A 
ENDROOT
TORSDOF 0
ENDMDL
