MODEL 1
REMARK minimizedAffinity -0.209020585
REMARK minimizedRMSD -1
REMARK  0 active torsions:
REMARK  status: ('A' for Active; 'I' for Inactive)
ROOT
ATOM      1  C2' OXE d   1      -0.726  -5.940  -1.944  0.00  0.00     0.078 C 
ATOM      2  C1' OXE d   1       1.058  -5.965  -4.111  0.00  0.00     0.078 C 
ATOM      3  C1  OXE d   1      -0.419  -5.959  -4.416  0.00  0.00    -0.078 A 
ATOM      4  C2  OXE d   1      -1.285  -5.994  -3.349  0.00  0.00    -0.078 A 
ATOM      5  C3  OXE d   1      -2.657  -5.935  -3.573  0.00  0.00     0.003 A 
ATOM      6  C4  OXE d   1      -3.166  -5.995  -4.876  0.00  0.00    -0.002 A 
ATOM      7  C5  OXE d   1      -2.302  -6.000  -5.976  0.00  0.00    -0.002 A 
ATOM      8  C6  OXE d   1      -0.929  -5.939  -5.765  0.00  0.00     0.003 A 
ENDROOT
TORSDOF 0
ENDMDL
