MODEL 1
REMARK minimizedAffinity 1.56687498
REMARK minimizedRMSD -1
REMARK  0 active torsions:
REMARK  status: ('A' for Active; 'I' for Inactive)
ROOT
ATOM      1  C2' OXE d   1      -0.740  -6.000  -1.437  0.00  0.00     0.078 C 
ATOM      2  C1' OXE d   1      -3.000  -5.981  -3.101  0.00  0.00     0.078 C 
ATOM      3  C1  OXE d   1      -1.642  -5.982  -3.758  0.00  0.00    -0.078 A 
ATOM      4  C2  OXE d   1      -0.542  -5.944  -2.936  0.00  0.00    -0.078 A 
ATOM      5  C3  OXE d   1       0.734  -5.998  -3.489  0.00  0.00     0.003 A 
ATOM      6  C4  OXE d   1       0.908  -5.936  -4.877  0.00  0.00    -0.002 A 
ATOM      7  C5  OXE d   1      -0.199  -5.934  -5.732  0.00  0.00    -0.002 A 
ATOM      8  C6  OXE d   1      -1.478  -5.999  -5.191  0.00  0.00     0.003 A 
ENDROOT
TORSDOF 0
ENDMDL
