MODEL 1
REMARK minimizedAffinity -3.66632819
REMARK minimizedRMSD -1
REMARK  0 active torsions:
REMARK  status: ('A' for Active; 'I' for Inactive)
ROOT
ATOM      1  C2' OXE d   1       0.636  -5.958  -3.844  0.00  0.00     0.078 C 
ATOM      2  C1' OXE d   1      -1.126  -5.939  -1.660  0.00  0.00     0.078 C 
ATOM      3  C1  OXE d   1      -1.723  -5.962  -3.045  0.00  0.00    -0.078 A 
ATOM      4  C2  OXE d   1      -0.854  -5.924  -4.108  0.00  0.00    -0.078 A 
ATOM      5  C3  OXE d   1      -1.349  -5.998  -5.407  0.00  0.00     0.003 A 
ATOM      6  C4  OXE d   1      -2.729  -5.956  -5.642  0.00  0.00    -0.002 A 
ATOM      7  C5  OXE d   1      -3.632  -5.954  -4.574  0.00  0.00    -0.002 A 
ATOM      8  C6  OXE d   1      -3.147  -6.000  -3.272  0.00  0.00     0.003 A 
ENDROOT
TORSDOF 0
ENDMDL
