MODEL 1
REMARK minimizedAffinity 2.23937941
REMARK minimizedRMSD -1
REMARK  0 active torsions:
REMARK  status: ('A' for Active; 'I' for Inactive)
ROOT
ATOM      1  C2' OXE d   1      -2.905  -5.889  -2.126  0.00  0.00     0.078 C 
ATOM      2  C1' OXE d   1      -4.485  -5.963  -4.446  0.00  0.00     0.078 C 
ATOM      3  C1  OXE d   1      -2.986  -5.950  -4.615  0.00  0.00    -0.078 A 
ATOM      4  C2  OXE d   1      -2.222  -5.866  -3.476  0.00  0.00    -0.078 A 
ATOM      5  C3  OXE d   1      -0.834  -5.906  -3.573  0.00  0.00     0.003 A 
ATOM      6  C4  OXE d   1      -0.209  -5.875  -4.826  0.00  0.00    -0.002 A 
ATOM      7  C5  OXE d   1      -0.970  -5.919  -5.999  0.00  0.00    -0.002 A 
ATOM      8  C6  OXE d   1      -2.355  -6.000  -5.911  0.00  0.00     0.003 A 
ENDROOT
TORSDOF 0
ENDMDL
