MODEL 1
REMARK minimizedAffinity 17.684866
REMARK minimizedRMSD -1
REMARK  0 active torsions:
REMARK  status: ('A' for Active; 'I' for Inactive)
ROOT
ATOM      1  O1  BZF d   1       2.670   0.257  -3.778  0.00  0.00    -0.204 OA
ATOM      2  C2  BZF d   1       2.376  -1.001  -3.288  0.00  0.00     0.174 A 
ATOM      3  C3  BZF d   1       3.229  -1.920  -3.784  0.00  0.00    -0.012 A 
ATOM      4  C3A BZF d   1       4.170  -1.177  -4.565  0.00  0.00    -0.107 A 
ATOM      5  C4  BZF d   1       5.269  -1.528  -5.295  0.00  0.00     0.055 A 
ATOM      6  C5  BZF d   1       5.928  -0.570  -5.999  0.00  0.00    -0.016 A 
ATOM      7  C6  BZF d   1       5.513   0.745  -6.000  0.00  0.00     0.022 A 
ATOM      8  C7  BZF d   1       4.431   1.143  -5.286  0.00  0.00     0.029 A 
ATOM      9  C7A BZF d   1       3.783   0.183  -4.547  0.00  0.00     0.058 A 
ENDROOT
TORSDOF 0
ENDMDL
