MODEL 1
REMARK minimizedAffinity 0.693797052
REMARK minimizedRMSD -1
REMARK  0 active torsions:
REMARK  status: ('A' for Active; 'I' for Inactive)
ROOT
ATOM      1  O1  BZF d   1      -2.838   1.546   1.476  0.00  0.00    -0.204 OA
ATOM      2  C2  BZF d   1      -2.135   1.573   0.287  0.00  0.00     0.174 A 
ATOM      3  C3  BZF d   1      -2.803   2.278  -0.648  0.00  0.00    -0.012 A 
ATOM      4  C3A BZF d   1      -3.955   2.797   0.024  0.00  0.00    -0.107 A 
ATOM      5  C4  BZF d   1      -4.995   3.590  -0.371  0.00  0.00     0.055 A 
ATOM      6  C5  BZF d   1      -5.996   3.853   0.510  0.00  0.00    -0.016 A 
ATOM      7  C6  BZF d   1      -5.991   3.338   1.789  0.00  0.00     0.022 A 
ATOM      8  C7  BZF d   1      -4.979   2.551   2.228  0.00  0.00     0.029 A 
ATOM      9  C7A BZF d   1      -3.950   2.310   1.351  0.00  0.00     0.058 A 
ENDROOT
TORSDOF 0
ENDMDL
