MODEL 1
REMARK minimizedAffinity 11.5749884
REMARK minimizedRMSD -1
REMARK  0 active torsions:
REMARK  status: ('A' for Active; 'I' for Inactive)
ROOT
ATOM      1  O1  BZF d   1       1.078  -1.881  -0.737  0.00  0.00    -0.204 OA
ATOM      2  C2  BZF d   1       0.570  -3.166  -0.714  0.00  0.00     0.174 A 
ATOM      3  C3  BZF d   1       0.462  -3.615   0.554  0.00  0.00    -0.012 A 
ATOM      4  C3A BZF d   1       0.845  -2.510   1.378  0.00  0.00    -0.107 A 
ATOM      5  C4  BZF d   1       0.927  -2.331   2.729  0.00  0.00     0.055 A 
ATOM      6  C5  BZF d   1       1.406  -1.154   3.212  0.00  0.00    -0.016 A 
ATOM      7  C6  BZF d   1       1.816  -0.139   2.373  0.00  0.00     0.022 A 
ATOM      8  C7  BZF d   1       1.749  -0.268   1.026  0.00  0.00     0.029 A 
ATOM      9  C7A BZF d   1       1.234  -1.443   0.535  0.00  0.00     0.058 A 
ENDROOT
TORSDOF 0
ENDMDL
