MODEL 1
REMARK minimizedAffinity 9.54310608
REMARK minimizedRMSD -1
REMARK  0 active torsions:
REMARK  status: ('A' for Active; 'I' for Inactive)
ROOT
ATOM      1  O1  BZF d   1       0.802  -1.239   4.442  0.00  0.00    -0.204 OA
ATOM      2  C2  BZF d   1       0.852  -2.484   3.846  0.00  0.00     0.174 A 
ATOM      3  C3  BZF d   1       1.305  -2.391   2.579  0.00  0.00    -0.012 A 
ATOM      4  C3A BZF d   1       1.641  -1.012   2.401  0.00  0.00    -0.107 A 
ATOM      5  C4  BZF d   1       2.157  -0.299   1.356  0.00  0.00     0.055 A 
ATOM      6  C5  BZF d   1       2.298   1.047   1.481  0.00  0.00    -0.016 A 
ATOM      7  C6  BZF d   1       1.928   1.712   2.632  0.00  0.00     0.022 A 
ATOM      8  C7  BZF d   1       1.417   1.047   3.696  0.00  0.00     0.029 A 
ATOM      9  C7A BZF d   1       1.304  -0.317   3.585  0.00  0.00     0.058 A 
ENDROOT
TORSDOF 0
ENDMDL
