MODEL 1
REMARK minimizedAffinity 4.86574221
REMARK minimizedRMSD -1
REMARK  0 active torsions:
REMARK  status: ('A' for Active; 'I' for Inactive)
ROOT
ATOM      1  O1  BZF d   1       5.061  -3.036   4.834  0.00  0.00    -0.204 OA
ATOM      2  C2  BZF d   1       6.000  -3.173   3.830  0.00  0.00     0.174 A 
ATOM      3  C3  BZF d   1       5.400  -3.303   2.629  0.00  0.00    -0.012 A 
ATOM      4  C3A BZF d   1       4.001  -3.151   2.888  0.00  0.00    -0.107 A 
ATOM      5  C4  BZF d   1       2.892  -3.165   2.092  0.00  0.00     0.055 A 
ATOM      6  C5  BZF d   1       1.665  -3.061   2.667  0.00  0.00    -0.016 A 
ATOM      7  C6  BZF d   1       1.511  -2.947   4.033  0.00  0.00     0.022 A 
ATOM      8  C7  BZF d   1       2.582  -2.924   4.863  0.00  0.00     0.029 A 
ATOM      9  C7A BZF d   1       3.824  -2.995   4.282  0.00  0.00     0.058 A 
ENDROOT
TORSDOF 0
ENDMDL
