MODEL 1
REMARK minimizedAffinity 4.52385235
REMARK minimizedRMSD -1
REMARK  0 active torsions:
REMARK  status: ('A' for Active; 'I' for Inactive)
ROOT
ATOM      1  O1  BZF d   1       1.970  -2.186   4.366  0.00  0.00    -0.204 OA
ATOM      2  C2  BZF d   1       1.703  -2.237   3.011  0.00  0.00     0.174 A 
ATOM      3  C3  BZF d   1       2.847  -2.294   2.300  0.00  0.00    -0.012 A 
ATOM      4  C3A BZF d   1       3.892  -2.371   3.274  0.00  0.00    -0.107 A 
ATOM      5  C4  BZF d   1       5.252  -2.464   3.188  0.00  0.00     0.055 A 
ATOM      6  C5  BZF d   1       5.990  -2.446   4.329  0.00  0.00    -0.016 A 
ATOM      7  C6  BZF d   1       5.402  -2.330   5.571  0.00  0.00     0.022 A 
ATOM      8  C7  BZF d   1       4.057  -2.239   5.708  0.00  0.00     0.029 A 
ATOM      9  C7A BZF d   1       3.306  -2.291   4.559  0.00  0.00     0.058 A 
ENDROOT
TORSDOF 0
ENDMDL
