MODEL 1
REMARK minimizedAffinity 1.39215803
REMARK minimizedRMSD -1
REMARK  0 active torsions:
REMARK  status: ('A' for Active; 'I' for Inactive)
ROOT
ATOM      1  O1  BZF d   1       2.625  -6.000   5.082  0.00  0.00    -0.204 OA
ATOM      2  C2  BZF d   1       1.480  -5.998   5.854  0.00  0.00     0.174 A 
ATOM      3  C3  BZF d   1       0.759  -4.879   5.637  0.00  0.00    -0.012 A 
ATOM      4  C3A BZF d   1       1.453  -4.179   4.600  0.00  0.00    -0.107 A 
ATOM      5  C4  BZF d   1       1.220  -3.007   3.939  0.00  0.00     0.055 A 
ATOM      6  C5  BZF d   1       2.130  -2.568   3.031  0.00  0.00    -0.016 A 
ATOM      7  C6  BZF d   1       3.285  -3.272   2.762  0.00  0.00     0.022 A 
ATOM      8  C7  BZF d   1       3.558  -4.443   3.389  0.00  0.00     0.029 A 
ATOM      9  C7A BZF d   1       2.624  -4.906   4.283  0.00  0.00     0.058 A 
ENDROOT
TORSDOF 0
ENDMDL
