MODEL 1
REMARK minimizedAffinity 3.21723795
REMARK minimizedRMSD -1
REMARK  0 active torsions:
REMARK  status: ('A' for Active; 'I' for Inactive)
ROOT
ATOM      1  O1  BZF d   1       4.824  -2.279   3.665  0.00  0.00    -0.204 OA
ATOM      2  C2  BZF d   1       5.267  -2.035   2.380  0.00  0.00     0.174 A 
ATOM      3  C3  BZF d   1       4.253  -1.614   1.597  0.00  0.00    -0.012 A 
ATOM      4  C3A BZF d   1       3.124  -1.505   2.469  0.00  0.00    -0.107 A 
ATOM      5  C4  BZF d   1       1.827  -1.119   2.282  0.00  0.00     0.055 A 
ATOM      6  C5  BZF d   1       0.959  -1.196   3.325  0.00  0.00    -0.016 A 
ATOM      7  C6  BZF d   1       1.351  -1.659   4.564  0.00  0.00     0.022 A 
ATOM      8  C7  BZF d   1       2.628  -2.048   4.798  0.00  0.00     0.029 A 
ATOM      9  C7A BZF d   1       3.516  -1.940   3.756  0.00  0.00     0.058 A 
ENDROOT
TORSDOF 0
ENDMDL
