MODEL 1
REMARK minimizedAffinity -3.61661744
REMARK minimizedRMSD -1
REMARK  0 active torsions:
REMARK  status: ('A' for Active; 'I' for Inactive)
ROOT
ATOM      1  O1  BZF d   1      -3.722  -5.936  -5.131  0.00  0.00    -0.204 OA
ATOM      2  C2  BZF d   1      -4.674  -5.436  -6.000  0.00  0.00     0.174 A 
ATOM      3  C3  BZF d   1      -5.712  -4.909  -5.320  0.00  0.00    -0.012 A 
ATOM      4  C3A BZF d   1      -5.347  -5.007  -3.940  0.00  0.00    -0.107 A 
ATOM      5  C4  BZF d   1      -5.962  -4.637  -2.778  0.00  0.00     0.055 A 
ATOM      6  C5  BZF d   1      -5.371  -4.941  -1.593  0.00  0.00    -0.016 A 
ATOM      7  C6  BZF d   1      -4.170  -5.617  -1.532  0.00  0.00     0.022 A 
ATOM      8  C7  BZF d   1      -3.520  -6.000  -2.659  0.00  0.00     0.029 A 
ATOM      9  C7A BZF d   1      -4.098  -5.665  -3.858  0.00  0.00     0.058 A 
ENDROOT
TORSDOF 0
ENDMDL
