MODEL 1
REMARK minimizedAffinity 12.7624378
REMARK minimizedRMSD -1
REMARK  0 active torsions:
REMARK  status: ('A' for Active; 'I' for Inactive)
ROOT
ATOM      1  O1  BZF d   1      -4.497  -3.510  -2.651  0.00  0.00    -0.204 OA
ATOM      2  C2  BZF d   1      -4.174  -4.644  -1.931  0.00  0.00     0.174 A 
ATOM      3  C3  BZF d   1      -4.532  -5.757  -2.604  0.00  0.00    -0.012 A 
ATOM      4  C3A BZF d   1      -5.032  -5.291  -3.862  0.00  0.00    -0.107 A 
ATOM      5  C4  BZF d   1      -5.525  -5.922  -4.968  0.00  0.00     0.055 A 
ATOM      6  C5  BZF d   1      -5.997  -5.174  -6.000  0.00  0.00    -0.016 A 
ATOM      7  C6  BZF d   1      -5.996  -3.795  -5.957  0.00  0.00     0.022 A 
ATOM      8  C7  BZF d   1      -5.512  -3.124  -4.883  0.00  0.00     0.029 A 
ATOM      9  C7A BZF d   1      -5.004  -3.877  -3.852  0.00  0.00     0.058 A 
ENDROOT
TORSDOF 0
ENDMDL
