MODEL 1
REMARK minimizedAffinity 4.57208824
REMARK minimizedRMSD -1
REMARK  1 active torsions:
REMARK  status: ('A' for Active; 'I' for Inactive)
REMARK    1  A    between atoms: C1_2  and  C2_3 
ROOT
ATOM      1  C2  UNL d   1       2.755   5.797   4.373  0.00  0.00    -0.081 A 
ATOM      2  C3  UNL d   1       4.124   5.733   4.086  0.00  0.00     0.006 A 
ATOM      3  C4  UNL d   1       4.574   5.786   2.765  0.00  0.00     0.002 A 
ATOM      4  C5  UNL d   1       3.664   5.911   1.710  0.00  0.00    -0.080 A 
ATOM      5  C6  UNL d   1       4.136   6.000   0.289  0.00  0.00     0.076 C 
ATOM      6  C7  UNL d   1       2.295   5.957   1.994  0.00  0.00     0.002 A 
ATOM      7  C8  UNL d   1       1.845   5.903   3.315  0.00  0.00     0.006 A 
ENDROOT
BRANCH   1   8
ATOM      8  C1  UNL d   1       2.270   5.805   5.800  0.00  0.00     0.054 C 
ATOM      9  C   UNL d   1       1.117   4.831   5.999  0.00  0.00     0.018 C 
ENDBRANCH   1   8
TORSDOF 1
ENDMDL
