MODEL 1
REMARK minimizedAffinity 3.59835744
REMARK minimizedRMSD -1
REMARK  1 active torsions:
REMARK  status: ('A' for Active; 'I' for Inactive)
REMARK    1  A    between atoms: C1_2  and  C2_3 
ROOT
ATOM      1  C2  UNL d   1      -2.029  -0.189   1.063  0.00  0.00    -0.081 A 
ATOM      2  C3  UNL d   1      -1.775  -0.321  -0.308  0.00  0.00     0.006 A 
ATOM      3  C4  UNL d   1      -0.480  -0.574  -0.767  0.00  0.00     0.002 A 
ATOM      4  C5  UNL d   1       0.580  -0.705   0.136  0.00  0.00    -0.080 A 
ATOM      5  C6  UNL d   1       1.970  -1.006  -0.341  0.00  0.00     0.076 C 
ATOM      6  C7  UNL d   1       0.330  -0.555   1.504  0.00  0.00     0.002 A 
ATOM      7  C8  UNL d   1      -0.965  -0.302   1.964  0.00  0.00     0.006 A 
ENDROOT
BRANCH   1   8
ATOM      8  C1  UNL d   1      -3.435   0.019   1.565  0.00  0.00     0.054 C 
ATOM      9  C   UNL d   1      -4.394  -0.997   0.962  0.00  0.00     0.018 C 
ENDBRANCH   1   8
TORSDOF 1
ENDMDL
