MODEL 1
REMARK minimizedAffinity -0.521269679
REMARK minimizedRMSD -1
REMARK  1 active torsions:
REMARK  status: ('A' for Active; 'I' for Inactive)
REMARK    1  A    between atoms: C1_2  and  C2_3 
ROOT
ATOM      1  C2  UNL d   1       3.896   5.884   3.695  0.00  0.00    -0.081 A 
ATOM      2  C3  UNL d   1       2.710   5.788   2.958  0.00  0.00     0.006 A 
ATOM      3  C4  UNL d   1       1.471   5.803   3.603  0.00  0.00     0.002 A 
ATOM      4  C5  UNL d   1       1.398   5.922   4.995  0.00  0.00    -0.080 A 
ATOM      5  C6  UNL d   1       0.074   5.970   5.698  0.00  0.00     0.076 C 
ATOM      6  C7  UNL d   1       2.583   5.999   5.734  0.00  0.00     0.002 A 
ATOM      7  C8  UNL d   1       3.822   5.984   5.089  0.00  0.00     0.006 A 
ENDROOT
BRANCH   1   8
ATOM      8  C1  UNL d   1       5.231   5.933   2.997  0.00  0.00     0.054 C 
ATOM      9  C   UNL d   1       5.069   5.850   1.486  0.00  0.00     0.018 C 
ENDBRANCH   1   8
TORSDOF 1
ENDMDL
