MODEL 1
REMARK minimizedAffinity 3.47033978
REMARK minimizedRMSD -1
REMARK  1 active torsions:
REMARK  status: ('A' for Active; 'I' for Inactive)
REMARK    1  A    between atoms: C1_2  and  C2_3 
ROOT
ATOM      1  C2  UNL d   1       3.198   4.845   2.683  0.00  0.00    -0.081 A 
ATOM      2  C3  UNL d   1       3.005   6.000   3.450  0.00  0.00     0.006 A 
ATOM      3  C4  UNL d   1       2.102   5.999   4.516  0.00  0.00     0.002 A 
ATOM      4  C5  UNL d   1       1.384   4.842   4.838  0.00  0.00    -0.080 A 
ATOM      5  C6  UNL d   1       0.435   4.819   5.998  0.00  0.00     0.076 C 
ATOM      6  C7  UNL d   1       1.564   3.693   4.060  0.00  0.00     0.002 A 
ATOM      7  C8  UNL d   1       2.466   3.694   2.994  0.00  0.00     0.006 A 
ENDROOT
BRANCH   1   8
ATOM      8  C1  UNL d   1       4.218   4.823   1.573  0.00  0.00     0.054 C 
ATOM      9  C   UNL d   1       3.711   4.041   0.370  0.00  0.00     0.018 C 
ENDBRANCH   1   8
TORSDOF 1
ENDMDL
