MODEL 1
REMARK minimizedAffinity 0.0217313021
REMARK minimizedRMSD -1
REMARK  1 active torsions:
REMARK  status: ('A' for Active; 'I' for Inactive)
REMARK    1  A    between atoms: C1_2  and  C2_3 
ROOT
ATOM      1  C2  UNL d   1      -0.145  -0.394   0.817  0.00  0.00    -0.081 A 
ATOM      2  C3  UNL d   1       0.759  -0.430  -0.252  0.00  0.00     0.006 A 
ATOM      3  C4  UNL d   1       1.795  -1.367  -0.272  0.00  0.00     0.002 A 
ATOM      4  C5  UNL d   1       1.940  -2.288   0.772  0.00  0.00    -0.080 A 
ATOM      5  C6  UNL d   1       3.029  -3.318   0.748  0.00  0.00     0.076 C 
ATOM      6  C7  UNL d   1       1.047  -2.241   1.848  0.00  0.00     0.002 A 
ATOM      7  C8  UNL d   1       0.012  -1.304   1.869  0.00  0.00     0.006 A 
ENDROOT
BRANCH   1   8
ATOM      8  C1  UNL d   1      -1.301   0.572   0.810  0.00  0.00     0.054 C 
ATOM      9  C   UNL d   1      -2.632  -0.158   0.700  0.00  0.00     0.018 C 
ENDBRANCH   1   8
TORSDOF 1
ENDMDL
