MODEL 1
REMARK minimizedAffinity -0.850068271
REMARK minimizedRMSD -1
REMARK  1 active torsions:
REMARK  status: ('A' for Active; 'I' for Inactive)
REMARK    1  A    between atoms: C1_2  and  C2_3 
ROOT
ATOM      1  C2  UNL d   1       3.813   5.941   4.043  0.00  0.00    -0.081 A 
ATOM      2  C3  UNL d   1       2.797   5.937   3.080  0.00  0.00     0.006 A 
ATOM      3  C4  UNL d   1       1.455   5.943   3.467  0.00  0.00     0.002 A 
ATOM      4  C5  UNL d   1       1.107   5.962   4.821  0.00  0.00    -0.080 A 
ATOM      5  C6  UNL d   1      -0.330   6.000   5.250  0.00  0.00     0.076 C 
ATOM      6  C7  UNL d   1       2.122   5.949   5.784  0.00  0.00     0.002 A 
ATOM      7  C8  UNL d   1       3.464   5.942   5.398  0.00  0.00     0.006 A 
ENDROOT
BRANCH   1   8
ATOM      8  C1  UNL d   1       5.261   6.000   3.628  0.00  0.00     0.054 C 
ATOM      9  C   UNL d   1       5.411   5.871   2.119  0.00  0.00     0.018 C 
ENDBRANCH   1   8
TORSDOF 1
ENDMDL
