MODEL 1
REMARK minimizedAffinity 8.42605114
REMARK minimizedRMSD -1
REMARK  1 active torsions:
REMARK  status: ('A' for Active; 'I' for Inactive)
REMARK    1  A    between atoms: C1_2  and  C2_3 
ROOT
ATOM      1  C2  UNL d   1       3.932   1.171   1.312  0.00  0.00    -0.076 A 
ATOM      2  C3  UNL d   1       3.737   0.587   0.049  0.00  0.00     0.004 A 
ATOM      3  C4  UNL d   1       2.839   1.136  -0.865  0.00  0.00    -0.003 A 
ATOM      4  C5  UNL d   1       2.123   2.280  -0.531  0.00  0.00     0.000 A 
ATOM      5  C6  UNL d   1       2.317   2.883   0.711  0.00  0.00     0.000 A 
ATOM      6  C7  UNL d   1       3.230   2.351   1.638  0.00  0.00    -0.073 A 
ATOM      7  C8  UNL d   1       3.395   3.040   2.965  0.00  0.00     0.078 C 
ENDROOT
BRANCH   1   8
ATOM      8  C1  UNL d   1       4.898   0.515   2.272  0.00  0.00     0.053 C 
ATOM      9  C   UNL d   1       5.997  -0.256   1.557  0.00  0.00     0.018 C 
ENDBRANCH   1   8
TORSDOF 1
ENDMDL
