MODEL 1
REMARK minimizedAffinity 0.260328919
REMARK minimizedRMSD -1
REMARK  1 active torsions:
REMARK  status: ('A' for Active; 'I' for Inactive)
REMARK    1  A    between atoms: C1_2  and  C2_3 
ROOT
ATOM      1  C2  UNL d   1      -4.435   5.052   3.246  0.00  0.00    -0.076 A 
ATOM      2  C3  UNL d   1      -5.698   4.684   3.740  0.00  0.00     0.004 A 
ATOM      3  C4  UNL d   1      -5.999   4.795   5.096  0.00  0.00    -0.003 A 
ATOM      4  C5  UNL d   1      -5.041   5.277   5.981  0.00  0.00     0.000 A 
ATOM      5  C6  UNL d   1      -3.788   5.664   5.507  0.00  0.00     0.000 A 
ATOM      6  C7  UNL d   1      -3.474   5.573   4.140  0.00  0.00    -0.073 A 
ATOM      7  C8  UNL d   1      -2.105   5.999   3.683  0.00  0.00     0.078 C 
ENDROOT
BRANCH   1   8
ATOM      8  C1  UNL d   1      -4.157   4.884   1.770  0.00  0.00     0.053 C 
ATOM      9  C   UNL d   1      -4.794   5.980   0.928  0.00  0.00     0.018 C 
ENDBRANCH   1   8
TORSDOF 1
ENDMDL
