MODEL 1
REMARK minimizedAffinity 7.35166264
REMARK minimizedRMSD -1
REMARK  1 active torsions:
REMARK  status: ('A' for Active; 'I' for Inactive)
REMARK    1  A    between atoms: C1_2  and  C2_3 
ROOT
ATOM      1  C2  UNL d   1       1.944  -1.705  -0.854  0.00  0.00    -0.076 A 
ATOM      2  C3  UNL d   1       1.081  -1.872  -1.950  0.00  0.00     0.004 A 
ATOM      3  C4  UNL d   1       0.222  -2.967  -2.027  0.00  0.00    -0.003 A 
ATOM      4  C5  UNL d   1       0.212  -3.913  -1.007  0.00  0.00     0.000 A 
ATOM      5  C6  UNL d   1       1.049  -3.754   0.097  0.00  0.00     0.000 A 
ATOM      6  C7  UNL d   1       1.910  -2.647   0.197  0.00  0.00    -0.073 A 
ATOM      7  C8  UNL d   1       2.795  -2.528   1.407  0.00  0.00     0.078 C 
ENDROOT
BRANCH   1   8
ATOM      8  C1  UNL d   1       2.873  -0.512  -0.839  0.00  0.00     0.053 C 
ATOM      9  C   UNL d   1       2.245   0.707  -0.182  0.00  0.00     0.018 C 
ENDBRANCH   1   8
TORSDOF 1
ENDMDL
