MODEL 1
REMARK minimizedAffinity -2.3690815
REMARK minimizedRMSD -1
REMARK  1 active torsions:
REMARK  status: ('A' for Active; 'I' for Inactive)
REMARK    1  A    between atoms: C1_2  and  C2_3 
ROOT
ATOM      1  C2  UNL d   1      -4.374   5.969   2.884  0.00  0.00    -0.076 A 
ATOM      2  C3  UNL d   1      -5.705   5.981   3.337  0.00  0.00     0.004 A 
ATOM      3  C4  UNL d   1      -6.000   5.988   4.699  0.00  0.00    -0.003 A 
ATOM      4  C5  UNL d   1      -4.968   5.983   5.631  0.00  0.00     0.000 A 
ATOM      5  C6  UNL d   1      -3.642   5.990   5.200  0.00  0.00     0.000 A 
ATOM      6  C7  UNL d   1      -3.327   5.999   3.830  0.00  0.00    -0.073 A 
ATOM      7  C8  UNL d   1      -1.880   5.999   3.422  0.00  0.00     0.078 C 
ENDROOT
BRANCH   1   8
ATOM      8  C1  UNL d   1      -4.116   5.934   1.395  0.00  0.00     0.053 C 
ATOM      9  C   UNL d   1      -3.057   4.912   1.011  0.00  0.00     0.018 C 
ENDBRANCH   1   8
TORSDOF 1
ENDMDL
