MODEL 1
REMARK minimizedAffinity 2.01759815
REMARK minimizedRMSD -1
REMARK  1 active torsions:
REMARK  status: ('A' for Active; 'I' for Inactive)
REMARK    1  A    between atoms: C1_2  and  C2_3 
ROOT
ATOM      1  C2  UNL d   1      -4.274   5.386   3.204  0.00  0.00    -0.076 A 
ATOM      2  C3  UNL d   1      -3.778   6.000   4.367  0.00  0.00     0.004 A 
ATOM      3  C4  UNL d   1      -4.389   5.793   5.603  0.00  0.00    -0.003 A 
ATOM      4  C5  UNL d   1      -5.505   4.968   5.695  0.00  0.00     0.000 A 
ATOM      5  C6  UNL d   1      -5.999   4.337   4.554  0.00  0.00     0.000 A 
ATOM      6  C7  UNL d   1      -5.385   4.522   3.303  0.00  0.00    -0.073 A 
ATOM      7  C8  UNL d   1      -5.964   3.822   2.104  0.00  0.00     0.078 C 
ENDROOT
BRANCH   1   8
ATOM      8  C1  UNL d   1      -3.586   5.669   1.887  0.00  0.00     0.053 C 
ATOM      9  C   UNL d   1      -4.572   5.852   0.743  0.00  0.00     0.018 C 
ENDBRANCH   1   8
TORSDOF 1
ENDMDL
