MODEL 1
REMARK minimizedAffinity 11.3912258
REMARK minimizedRMSD -1
REMARK  1 active torsions:
REMARK  status: ('A' for Active; 'I' for Inactive)
REMARK    1  A    between atoms: C1_2  and  C2_3 
ROOT
ATOM      1  C2  UNL d   1       0.239  -3.581   4.237  0.00  0.00    -0.076 A 
ATOM      2  C3  UNL d   1       1.304  -3.351   5.125  0.00  0.00     0.004 A 
ATOM      3  C4  UNL d   1       1.736  -4.346   6.000  0.00  0.00    -0.003 A 
ATOM      4  C5  UNL d   1       1.110  -5.588   6.000  0.00  0.00     0.000 A 
ATOM      5  C6  UNL d   1       0.064  -5.840   5.113  0.00  0.00     0.000 A 
ATOM      6  C7  UNL d   1      -0.373  -4.852   4.213  0.00  0.00    -0.073 A 
ATOM      7  C8  UNL d   1      -1.510  -5.176   3.283  0.00  0.00     0.078 C 
ENDROOT
BRANCH   1   8
ATOM      8  C1  UNL d   1      -0.204  -2.455   3.330  0.00  0.00     0.053 C 
ATOM      9  C   UNL d   1       0.372  -1.110   3.748  0.00  0.00     0.018 C 
ENDBRANCH   1   8
TORSDOF 1
ENDMDL
