MODEL 1
REMARK minimizedAffinity 7.03777981
REMARK minimizedRMSD -1
REMARK  1 active torsions:
REMARK  status: ('A' for Active; 'I' for Inactive)
REMARK    1  A    between atoms: C1_2  and  C2_3 
ROOT
ATOM      1  C2  UNL d   1       3.856  -0.040  -0.317  0.00  0.00    -0.076 A 
ATOM      2  C3  UNL d   1       3.762  -1.378  -0.737  0.00  0.00     0.004 A 
ATOM      3  C4  UNL d   1       2.530  -2.027  -0.796  0.00  0.00    -0.003 A 
ATOM      4  C5  UNL d   1       1.371  -1.347  -0.437  0.00  0.00     0.000 A 
ATOM      5  C6  UNL d   1       1.443  -0.014  -0.036  0.00  0.00     0.000 A 
ATOM      6  C7  UNL d   1       2.676   0.660   0.014  0.00  0.00    -0.073 A 
ATOM      7  C8  UNL d   1       2.696   2.096   0.460  0.00  0.00     0.078 C 
ENDROOT
BRANCH   1   8
ATOM      8  C1  UNL d   1       5.222   0.603  -0.247  0.00  0.00     0.053 C 
ATOM      9  C   UNL d   1       6.000   0.185   0.992  0.00  0.00     0.018 C 
ENDBRANCH   1   8
TORSDOF 1
ENDMDL
