MODEL 1
REMARK minimizedAffinity -2.44677043
REMARK minimizedRMSD -1
REMARK  1 active torsions:
REMARK  status: ('A' for Active; 'I' for Inactive)
REMARK    1  A    between atoms: C1_2  and  C2_3 
ROOT
ATOM      1  C2  UNL d   1      -4.274   5.937   2.773  0.00  0.00    -0.076 A 
ATOM      2  C3  UNL d   1      -5.627   5.929   3.152  0.00  0.00     0.004 A 
ATOM      3  C4  UNL d   1      -5.996   5.926   4.496  0.00  0.00    -0.003 A 
ATOM      4  C5  UNL d   1      -5.017   5.933   5.483  0.00  0.00     0.000 A 
ATOM      5  C6  UNL d   1      -3.669   5.959   5.126  0.00  0.00     0.000 A 
ATOM      6  C7  UNL d   1      -3.281   5.978   3.775  0.00  0.00    -0.073 A 
ATOM      7  C8  UNL d   1      -1.813   6.000   3.447  0.00  0.00     0.078 C 
ENDROOT
BRANCH   1   8
ATOM      8  C1  UNL d   1      -3.934   5.912   1.300  0.00  0.00     0.053 C 
ATOM      9  C   UNL d   1      -5.168   6.000   0.415  0.00  0.00     0.018 C 
ENDBRANCH   1   8
TORSDOF 1
ENDMDL
