MODEL 1
REMARK minimizedAffinity 4.78781176
REMARK minimizedRMSD -1
REMARK  1 active torsions:
REMARK  status: ('A' for Active; 'I' for Inactive)
REMARK    1  A    between atoms: C1_2  and  C2_3 
ROOT
ATOM      1  C2  UNL d   1       2.647   1.622   1.313  0.00  0.00    -0.076 A 
ATOM      2  C3  UNL d   1       1.966   0.517   0.774  0.00  0.00     0.004 A 
ATOM      3  C4  UNL d   1       2.348  -0.033  -0.449  0.00  0.00    -0.003 A 
ATOM      4  C5  UNL d   1       3.416   0.513  -1.152  0.00  0.00     0.000 A 
ATOM      5  C6  UNL d   1       4.113   1.598  -0.623  0.00  0.00     0.000 A 
ATOM      6  C7  UNL d   1       3.752   2.155   0.616  0.00  0.00    -0.073 A 
ATOM      7  C8  UNL d   1       4.536   3.329   1.136  0.00  0.00     0.078 C 
ENDROOT
BRANCH   1   8
ATOM      8  C1  UNL d   1       2.171   2.193   2.630  0.00  0.00     0.053 C 
ATOM      9  C   UNL d   1       1.421   1.172   3.471  0.00  0.00     0.018 C 
ENDBRANCH   1   8
TORSDOF 1
ENDMDL
