MODEL 1
REMARK minimizedAffinity 5.81177092
REMARK minimizedRMSD -1
REMARK  1 active torsions:
REMARK  status: ('A' for Active; 'I' for Inactive)
REMARK    1  A    between atoms: C1_2  and  C2_3 
ROOT
ATOM      1  C2  UNL d   1      -0.652  -4.314   4.438  0.00  0.00    -0.076 A 
ATOM      2  C3  UNL d   1      -0.470  -3.810   3.139  0.00  0.00     0.004 A 
ATOM      3  C4  UNL d   1      -1.107  -4.396   2.046  0.00  0.00    -0.003 A 
ATOM      4  C5  UNL d   1      -1.937  -5.495   2.236  0.00  0.00     0.000 A 
ATOM      5  C6  UNL d   1      -2.142  -5.998   3.521  0.00  0.00     0.000 A 
ATOM      6  C7  UNL d   1      -1.521  -5.408   4.635  0.00  0.00    -0.073 A 
ATOM      7  C8  UNL d   1      -1.773  -5.995   5.997  0.00  0.00     0.078 C 
ENDROOT
BRANCH   1   8
ATOM      8  C1  UNL d   1       0.087  -3.653   5.581  0.00  0.00     0.053 C 
ATOM      9  C   UNL d   1       1.327  -4.429   5.999  0.00  0.00     0.018 C 
ENDBRANCH   1   8
TORSDOF 1
ENDMDL
