MODEL 1
REMARK minimizedAffinity 9.66229916
REMARK minimizedRMSD -1
REMARK  1 active torsions:
REMARK  status: ('A' for Active; 'I' for Inactive)
REMARK    1  A    between atoms: C1_2  and  C2_3 
ROOT
ATOM      1  C2  UNL d   1      -2.135  -1.136   0.894  0.00  0.00    -0.076 A 
ATOM      2  C3  UNL d   1      -0.916  -1.368   0.234  0.00  0.00     0.004 A 
ATOM      3  C4  UNL d   1      -0.198  -0.320  -0.338  0.00  0.00    -0.003 A 
ATOM      4  C5  UNL d   1      -0.689   0.979  -0.260  0.00  0.00     0.000 A 
ATOM      5  C6  UNL d   1      -1.888   1.231   0.405  0.00  0.00     0.000 A 
ATOM      6  C7  UNL d   1      -2.615   0.187   1.002  0.00  0.00    -0.073 A 
ATOM      7  C8  UNL d   1      -3.906   0.514   1.702  0.00  0.00     0.078 C 
ENDROOT
BRANCH   1   8
ATOM      8  C1  UNL d   1      -2.882  -2.316   1.472  0.00  0.00     0.053 C 
ATOM      9  C   UNL d   1      -3.539  -3.172   0.400  0.00  0.00     0.018 C 
ENDBRANCH   1   8
TORSDOF 1
ENDMDL
