MODEL 1
REMARK minimizedAffinity -6.12323189
REMARK minimizedRMSD -1
REMARK  1 active torsions:
REMARK  status: ('A' for Active; 'I' for Inactive)
REMARK    1  A    between atoms: C1_2  and  C2_3 
ROOT
ATOM      1  C2  UNL d   1      -0.825  -0.938   0.639  0.00  0.00    -0.076 A 
ATOM      2  C3  UNL d   1      -1.229  -2.151   1.225  0.00  0.00     0.004 A 
ATOM      3  C4  UNL d   1      -0.709  -3.368   0.786  0.00  0.00    -0.003 A 
ATOM      4  C5  UNL d   1       0.224  -3.391  -0.245  0.00  0.00     0.000 A 
ATOM      5  C6  UNL d   1       0.649  -2.197  -0.825  0.00  0.00     0.000 A 
ATOM      6  C7  UNL d   1       0.147  -0.960  -0.384  0.00  0.00    -0.073 A 
ATOM      7  C8  UNL d   1       0.636   0.297  -1.050  0.00  0.00     0.078 C 
ENDROOT
BRANCH   1   8
ATOM      8  C1  UNL d   1      -1.443   0.348   1.138  0.00  0.00     0.053 C 
ATOM      9  C   UNL d   1      -2.378   0.126   2.317  0.00  0.00     0.018 C 
ENDBRANCH   1   8
TORSDOF 1
ENDMDL
