MODEL 1
REMARK minimizedAffinity -4.16141653
REMARK minimizedRMSD -1
REMARK  1 active torsions:
REMARK  status: ('A' for Active; 'I' for Inactive)
REMARK    1  A    between atoms: C1_2  and  C2_3 
ROOT
ATOM      1  C2  UNL d   1      -0.154  -0.431  -1.294  0.00  0.00    -0.076 A 
ATOM      2  C3  UNL d   1      -0.613  -1.751  -1.142  0.00  0.00     0.004 A 
ATOM      3  C4  UNL d   1      -1.041  -2.223   0.098  0.00  0.00    -0.003 A 
ATOM      4  C5  UNL d   1      -1.018  -1.383   1.206  0.00  0.00     0.000 A 
ATOM      5  C6  UNL d   1      -0.582  -0.065   1.069  0.00  0.00     0.000 A 
ATOM      6  C7  UNL d   1      -0.162   0.432  -0.177  0.00  0.00    -0.073 A 
ATOM      7  C8  UNL d   1       0.304   1.859  -0.265  0.00  0.00     0.078 C 
ENDROOT
BRANCH   1   8
ATOM      8  C1  UNL d   1       0.324   0.017  -2.657  0.00  0.00     0.053 C 
ATOM      9  C   UNL d   1       0.778  -1.146  -3.526  0.00  0.00     0.018 C 
ENDBRANCH   1   8
TORSDOF 1
ENDMDL
