MODEL 1
REMARK minimizedAffinity -5.3334589
REMARK minimizedRMSD -1
REMARK  1 active torsions:
REMARK  status: ('A' for Active; 'I' for Inactive)
REMARK    1  A    between atoms: C1_2  and  C2_3 
ROOT
ATOM      1  C2  UNL d   1      -0.178  -0.291  -0.101  0.00  0.00    -0.076 A 
ATOM      2  C3  UNL d   1      -0.628  -0.704   1.165  0.00  0.00     0.004 A 
ATOM      3  C4  UNL d   1      -0.613  -2.050   1.528  0.00  0.00    -0.003 A 
ATOM      4  C5  UNL d   1      -0.146  -3.005   0.631  0.00  0.00     0.000 A 
ATOM      5  C6  UNL d   1       0.322  -2.611  -0.622  0.00  0.00     0.000 A 
ATOM      6  C7  UNL d   1       0.328  -1.257  -0.998  0.00  0.00    -0.073 A 
ATOM      7  C8  UNL d   1       0.838  -0.889  -2.364  0.00  0.00     0.078 C 
ENDROOT
BRANCH   1   8
ATOM      8  C1  UNL d   1      -0.243   1.179  -0.449  0.00  0.00     0.053 C 
ATOM      9  C   UNL d   1       0.928   1.965   0.120  0.00  0.00     0.018 C 
ENDBRANCH   1   8
TORSDOF 1
ENDMDL
