MODEL 1
REMARK minimizedAffinity -4.52109385
REMARK minimizedRMSD -1
REMARK  1 active torsions:
REMARK  status: ('A' for Active; 'I' for Inactive)
REMARK    1  A    between atoms: C1_2  and  C2_3 
ROOT
ATOM      1  C2  UNL d   1      -0.289  -0.890  -0.015  0.00  0.00    -0.076 A 
ATOM      2  C3  UNL d   1      -0.803  -1.033   1.285  0.00  0.00     0.004 A 
ATOM      3  C4  UNL d   1      -1.468  -2.196   1.670  0.00  0.00    -0.003 A 
ATOM      4  C5  UNL d   1      -1.629  -3.236   0.760  0.00  0.00     0.000 A 
ATOM      5  C6  UNL d   1      -1.110  -3.118  -0.529  0.00  0.00     0.000 A 
ATOM      6  C7  UNL d   1      -0.423  -1.959  -0.927  0.00  0.00    -0.073 A 
ATOM      7  C8  UNL d   1       0.111  -1.883  -2.332  0.00  0.00     0.078 C 
ENDROOT
BRANCH   1   8
ATOM      8  C1  UNL d   1       0.399   0.405  -0.384  0.00  0.00     0.053 C 
ATOM      9  C   UNL d   1      -0.238   1.614   0.285  0.00  0.00     0.018 C 
ENDBRANCH   1   8
TORSDOF 1
ENDMDL
