MODEL 1
REMARK minimizedAffinity -4.21410704
REMARK minimizedRMSD -1
REMARK  1 active torsions:
REMARK  status: ('A' for Active; 'I' for Inactive)
REMARK    1  A    between atoms: C1_2  and  C2_3 
ROOT
ATOM      1  C2  UNL d   1       0.240  -0.164   0.244  0.00  0.00    -0.076 A 
ATOM      2  C3  UNL d   1      -1.070   0.245   0.548  0.00  0.00     0.004 A 
ATOM      3  C4  UNL d   1      -2.042  -0.680   0.924  0.00  0.00    -0.003 A 
ATOM      4  C5  UNL d   1      -1.719  -2.030   1.004  0.00  0.00     0.000 A 
ATOM      5  C6  UNL d   1      -0.420  -2.452   0.724  0.00  0.00     0.000 A 
ATOM      6  C7  UNL d   1       0.576  -1.530   0.358  0.00  0.00    -0.073 A 
ATOM      7  C8  UNL d   1       1.959  -2.042   0.060  0.00  0.00     0.078 C 
ENDROOT
BRANCH   1   8
ATOM      8  C1  UNL d   1       1.244   0.881  -0.186  0.00  0.00     0.053 C 
ATOM      9  C   UNL d   1       0.824   2.289   0.208  0.00  0.00     0.018 C 
ENDBRANCH   1   8
TORSDOF 1
ENDMDL
