MODEL 1
REMARK minimizedAffinity -4.59207392
REMARK minimizedRMSD -1
REMARK  1 active torsions:
REMARK  status: ('A' for Active; 'I' for Inactive)
REMARK    1  A    between atoms: C1_2  and  C2_3 
ROOT
ATOM      1  C2  UNL d   1      -0.245  -0.214   0.377  0.00  0.00    -0.076 A 
ATOM      2  C3  UNL d   1       0.868  -1.016   0.069  0.00  0.00     0.004 A 
ATOM      3  C4  UNL d   1       0.850  -2.389   0.305  0.00  0.00    -0.003 A 
ATOM      4  C5  UNL d   1      -0.282  -2.984   0.852  0.00  0.00     0.000 A 
ATOM      5  C6  UNL d   1      -1.402  -2.206   1.146  0.00  0.00     0.000 A 
ATOM      6  C7  UNL d   1      -1.406  -0.823   0.900  0.00  0.00    -0.073 A 
ATOM      7  C8  UNL d   1      -2.638  -0.032   1.242  0.00  0.00     0.078 C 
ENDROOT
BRANCH   1   8
ATOM      8  C1  UNL d   1      -0.157   1.274   0.124  0.00  0.00     0.053 C 
ATOM      9  C   UNL d   1       1.211   1.843   0.466  0.00  0.00     0.018 C 
ENDBRANCH   1   8
TORSDOF 1
ENDMDL
