MODEL 1
REMARK minimizedAffinity -6.21095753
REMARK minimizedRMSD -1
REMARK  1 active torsions:
REMARK  status: ('A' for Active; 'I' for Inactive)
REMARK    1  A    between atoms: C1_2  and  C2_3 
ROOT
ATOM      1  C2  UNL d   1      -0.343  -0.415  -0.079  0.00  0.00    -0.076 A 
ATOM      2  C3  UNL d   1      -0.829  -0.753   1.197  0.00  0.00     0.004 A 
ATOM      3  C4  UNL d   1      -0.891  -2.081   1.612  0.00  0.00    -0.003 A 
ATOM      4  C5  UNL d   1      -0.467  -3.095   0.760  0.00  0.00     0.000 A 
ATOM      5  C6  UNL d   1       0.034  -2.777  -0.502  0.00  0.00     0.000 A 
ATOM      6  C7  UNL d   1       0.119  -1.442  -0.930  0.00  0.00    -0.073 A 
ATOM      7  C8  UNL d   1       0.663  -1.157  -2.303  0.00  0.00     0.078 C 
ENDROOT
BRANCH   1   8
ATOM      8  C1  UNL d   1      -0.324   1.041  -0.485  0.00  0.00     0.053 C 
ATOM      9  C   UNL d   1       0.934   1.759  -0.022  0.00  0.00     0.018 C 
ENDBRANCH   1   8
TORSDOF 1
ENDMDL
