MODEL 1
REMARK minimizedAffinity -4.28498602
REMARK minimizedRMSD -1
REMARK  1 active torsions:
REMARK  status: ('A' for Active; 'I' for Inactive)
REMARK    1  A    between atoms: C1_2  and  C2_3 
ROOT
ATOM      1  C2  UNL d   1       0.474   2.406   0.546  0.00  0.00    -0.076 A 
ATOM      2  C3  UNL d   1      -0.400   2.858   1.550  0.00  0.00     0.004 A 
ATOM      3  C4  UNL d   1       0.051   3.690   2.573  0.00  0.00    -0.003 A 
ATOM      4  C5  UNL d   1       1.383   4.085   2.608  0.00  0.00     0.000 A 
ATOM      5  C6  UNL d   1       2.260   3.661   1.610  0.00  0.00     0.000 A 
ATOM      6  C7  UNL d   1       1.818   2.835   0.563  0.00  0.00    -0.073 A 
ATOM      7  C8  UNL d   1       2.808   2.403  -0.483  0.00  0.00     0.078 C 
ENDROOT
BRANCH   1   8
ATOM      8  C1  UNL d   1      -0.066   1.483  -0.523  0.00  0.00     0.053 C 
ATOM      9  C   UNL d   1      -0.039   0.023  -0.099  0.00  0.00     0.018 C 
ENDBRANCH   1   8
TORSDOF 1
ENDMDL
