MODEL 1
REMARK minimizedAffinity -6.28695536
REMARK minimizedRMSD -1
REMARK  1 active torsions:
REMARK  status: ('A' for Active; 'I' for Inactive)
REMARK    1  A    between atoms: C1_2  and  C2_3 
ROOT
ATOM      1  C2  UNL d   1       0.287  -1.609  -1.180  0.00  0.00    -0.076 A 
ATOM      2  C3  UNL d   1       0.172  -2.984  -0.912  0.00  0.00     0.004 A 
ATOM      3  C4  UNL d   1      -0.305  -3.439   0.316  0.00  0.00    -0.003 A 
ATOM      4  C5  UNL d   1      -0.674  -2.525   1.297  0.00  0.00     0.000 A 
ATOM      5  C6  UNL d   1      -0.583  -1.157   1.043  0.00  0.00     0.000 A 
ATOM      6  C7  UNL d   1      -0.120  -0.682  -0.196  0.00  0.00    -0.073 A 
ATOM      7  C8  UNL d   1      -0.037   0.804  -0.415  0.00  0.00     0.078 C 
ENDROOT
BRANCH   1   8
ATOM      8  C1  UNL d   1       0.836  -1.176  -2.520  0.00  0.00     0.053 C 
ATOM      9  C   UNL d   1       1.265  -2.353  -3.383  0.00  0.00     0.018 C 
ENDBRANCH   1   8
TORSDOF 1
ENDMDL
