MODEL 1
REMARK minimizedAffinity -5.50171328
REMARK minimizedRMSD -1
REMARK  1 active torsions:
REMARK  status: ('A' for Active; 'I' for Inactive)
REMARK    1  A    between atoms: C1_2  and  C2_3 
ROOT
ATOM      1  C2  UNL d   1      -0.025  -0.874  -0.547  0.00  0.00    -0.076 A 
ATOM      2  C3  UNL d   1      -0.306  -1.092   0.813  0.00  0.00     0.004 A 
ATOM      3  C4  UNL d   1      -0.411  -2.384   1.325  0.00  0.00    -0.003 A 
ATOM      4  C5  UNL d   1      -0.235  -3.479   0.486  0.00  0.00     0.000 A 
ATOM      5  C6  UNL d   1       0.061  -3.281  -0.862  0.00  0.00     0.000 A 
ATOM      6  C7  UNL d   1       0.186  -1.985  -1.391  0.00  0.00    -0.073 A 
ATOM      7  C8  UNL d   1       0.502  -1.830  -2.854  0.00  0.00     0.078 C 
ENDROOT
BRANCH   1   8
ATOM      8  C1  UNL d   1       0.050   0.549  -1.051  0.00  0.00     0.053 C 
ATOM      9  C   UNL d   1      -0.870   1.488  -0.285  0.00  0.00     0.018 C 
ENDBRANCH   1   8
TORSDOF 1
ENDMDL
