MODEL 1
REMARK minimizedAffinity -3.80257916
REMARK minimizedRMSD -1
REMARK  1 active torsions:
REMARK  status: ('A' for Active; 'I' for Inactive)
REMARK    1  A    between atoms: C1_2  and  C2_3 
ROOT
ATOM      1  C2  UNL d   1       0.415   2.064   0.045  0.00  0.00    -0.076 A 
ATOM      2  C3  UNL d   1      -0.580   2.632   0.859  0.00  0.00     0.004 A 
ATOM      3  C4  UNL d   1      -0.286   3.690   1.718  0.00  0.00    -0.003 A 
ATOM      4  C5  UNL d   1       1.007   4.197   1.776  0.00  0.00     0.000 A 
ATOM      5  C6  UNL d   1       2.003   3.658   0.963  0.00  0.00     0.000 A 
ATOM      6  C7  UNL d   1       1.720   2.602   0.079  0.00  0.00    -0.073 A 
ATOM      7  C8  UNL d   1       2.833   2.054  -0.771  0.00  0.00     0.078 C 
ENDROOT
BRANCH   1   8
ATOM      8  C1  UNL d   1       0.044   0.901  -0.847  0.00  0.00     0.053 C 
ATOM      9  C   UNL d   1       0.215  -0.442  -0.155  0.00  0.00     0.018 C 
ENDBRANCH   1   8
TORSDOF 1
ENDMDL
