MODEL 1
REMARK minimizedAffinity -3.48527265
REMARK minimizedRMSD -1
REMARK  1 active torsions:
REMARK  status: ('A' for Active; 'I' for Inactive)
REMARK    1  A    between atoms: N_2  and  C1_3 
ROOT
ATOM      1  C1  UNL d   1      -3.919  -4.180  -5.026  0.00  0.00     0.143 A 
ATOM      2  C2  UNL d   1      -3.963  -3.174  -5.997  0.00  0.00    -0.057 A 
ATOM      3  C3  UNL d   1      -4.977  -2.209  -5.999  0.00  0.00     0.033 A 
ATOM      4  C4  UNL d   1      -5.986  -2.251  -5.042  0.00  0.00    -0.042 A 
ATOM      5  C5  UNL d   1      -5.977  -3.256  -4.082  0.00  0.00     0.033 A 
ATOM      6  C6  UNL d   1      -4.958  -4.213  -4.082  0.00  0.00    -0.057 A 
ENDROOT
BRANCH   1   7
ATOM      7  N   UNL d   1      -2.993  -5.226  -5.029  0.00  0.00    -0.732 N 
ATOM      8  C   UNL d   1      -1.876  -5.218  -5.950  0.00  0.00     0.284 C 
ATOM      9  H3  UNL d   1      -2.756  -5.538  -4.090  0.00  0.00     0.395 HD
ENDBRANCH   1   7
TORSDOF 1
ENDMDL
