MODEL 1
REMARK minimizedAffinity -2.45000267
REMARK minimizedRMSD -1
REMARK  1 active torsions:
REMARK  status: ('A' for Active; 'I' for Inactive)
REMARK    1  A    between atoms: N_2  and  C1_3 
ROOT
ATOM      1  C1  UNL d   1      -5.229  -4.068  -4.455  0.00  0.00     0.143 A 
ATOM      2  C2  UNL d   1      -5.517  -3.032  -5.349  0.00  0.00    -0.057 A 
ATOM      3  C3  UNL d   1      -5.885  -1.761  -4.894  0.00  0.00     0.033 A 
ATOM      4  C4  UNL d   1      -6.000  -1.510  -3.531  0.00  0.00    -0.042 A 
ATOM      5  C5  UNL d   1      -5.743  -2.532  -2.623  0.00  0.00     0.033 A 
ATOM      6  C6  UNL d   1      -5.369  -3.798  -3.084  0.00  0.00    -0.057 A 
ENDROOT
BRANCH   1   7
ATOM      7  N   UNL d   1      -4.954  -5.381  -4.846  0.00  0.00    -0.732 N 
ATOM      8  C   UNL d   1      -5.618  -5.962  -5.993  0.00  0.00     0.284 C 
ATOM      9  H3  UNL d   1      -3.964  -5.606  -4.781  0.00  0.00     0.395 HD
ENDBRANCH   1   7
TORSDOF 1
ENDMDL
