MODEL 1
REMARK minimizedAffinity -1.9283874
REMARK minimizedRMSD -1
REMARK  1 active torsions:
REMARK  status: ('A' for Active; 'I' for Inactive)
REMARK    1  A    between atoms: N_2  and  C1_3 
ROOT
ATOM      1  C1  UNL d   1      -3.349  -4.461  -4.786  0.00  0.00     0.143 A 
ATOM      2  C2  UNL d   1      -4.133  -4.428  -5.944  0.00  0.00    -0.057 A 
ATOM      3  C3  UNL d   1      -5.350  -3.737  -5.979  0.00  0.00     0.033 A 
ATOM      4  C4  UNL d   1      -5.820  -3.088  -4.842  0.00  0.00    -0.042 A 
ATOM      5  C5  UNL d   1      -5.069  -3.128  -3.672  0.00  0.00     0.033 A 
ATOM      6  C6  UNL d   1      -3.851  -3.814  -3.646  0.00  0.00    -0.057 A 
ENDROOT
BRANCH   1   7
ATOM      7  N   UNL d   1      -2.178  -5.213  -4.660  0.00  0.00    -0.732 N 
ATOM      8  C   UNL d   1      -1.443  -5.229  -3.413  0.00  0.00     0.284 C 
ATOM      9  H3  UNL d   1      -2.249  -6.121  -5.113  0.00  0.00     0.395 HD
ENDBRANCH   1   7
TORSDOF 1
ENDMDL
