MODEL 1
REMARK minimizedAffinity -3.58302426
REMARK minimizedRMSD -1
REMARK  1 active torsions:
REMARK  status: ('A' for Active; 'I' for Inactive)
REMARK    1  A    between atoms: N_2  and  C1_3 
ROOT
ATOM      1  C1  UNL d   1      -3.399  -4.155  -5.117  0.00  0.00     0.143 A 
ATOM      2  C2  UNL d   1      -3.710  -3.091  -5.971  0.00  0.00    -0.057 A 
ATOM      3  C3  UNL d   1      -4.992  -2.529  -5.993  0.00  0.00     0.033 A 
ATOM      4  C4  UNL d   1      -5.997  -3.042  -5.179  0.00  0.00    -0.042 A 
ATOM      5  C5  UNL d   1      -5.717  -4.116  -4.341  0.00  0.00     0.033 A 
ATOM      6  C6  UNL d   1      -4.433  -4.668  -4.319  0.00  0.00    -0.057 A 
ENDROOT
BRANCH   1   7
ATOM      7  N   UNL d   1      -2.170  -4.820  -5.120  0.00  0.00    -0.732 N 
ATOM      8  C   UNL d   1      -1.944  -5.946  -6.000  0.00  0.00     0.284 C 
ATOM      9  H3  UNL d   1      -1.382  -4.180  -5.052  0.00  0.00     0.395 HD
ENDBRANCH   1   7
TORSDOF 1
ENDMDL
