MODEL 1
REMARK minimizedAffinity -3.19790411
REMARK minimizedRMSD -1
REMARK  1 active torsions:
REMARK  status: ('A' for Active; 'I' for Inactive)
REMARK    1  A    between atoms: N_2  and  C1_3 
ROOT
ATOM      1  C1  UNL d   1      -3.888  -4.644  -5.292  0.00  0.00     0.143 A 
ATOM      2  C2  UNL d   1      -3.956  -3.385  -5.898  0.00  0.00    -0.057 A 
ATOM      3  C3  UNL d   1      -4.993  -2.492  -5.603  0.00  0.00     0.033 A 
ATOM      4  C4  UNL d   1      -5.999  -2.855  -4.714  0.00  0.00    -0.042 A 
ATOM      5  C5  UNL d   1      -5.965  -4.111  -4.118  0.00  0.00     0.033 A 
ATOM      6  C6  UNL d   1      -4.924  -4.996  -4.412  0.00  0.00    -0.057 A 
ENDROOT
BRANCH   1   7
ATOM      7  N   UNL d   1      -2.937  -5.614  -5.618  0.00  0.00    -0.732 N 
ATOM      8  C   UNL d   1      -1.594  -5.232  -5.997  0.00  0.00     0.284 C 
ATOM      9  H3  UNL d   1      -2.980  -6.423  -5.002  0.00  0.00     0.395 HD
ENDBRANCH   1   7
TORSDOF 1
ENDMDL
