MODEL 1
REMARK minimizedAffinity -3.49360275
REMARK minimizedRMSD -1
REMARK  1 active torsions:
REMARK  status: ('A' for Active; 'I' for Inactive)
REMARK    1  A    between atoms: N_2  and  C1_3 
ROOT
ATOM      1  C1  UNL d   1      -3.563  -5.406  -4.665  0.00  0.00     0.143 A 
ATOM      2  C2  UNL d   1      -4.582  -5.657  -3.739  0.00  0.00    -0.057 A 
ATOM      3  C3  UNL d   1      -5.793  -4.956  -3.785  0.00  0.00     0.033 A 
ATOM      4  C4  UNL d   1      -5.997  -3.969  -4.744  0.00  0.00    -0.042 A 
ATOM      5  C5  UNL d   1      -4.988  -3.686  -5.659  0.00  0.00     0.033 A 
ATOM      6  C6  UNL d   1      -3.784  -4.393  -5.612  0.00  0.00    -0.057 A 
ENDROOT
BRANCH   1   7
ATOM      7  N   UNL d   1      -2.300  -6.000  -4.611  0.00  0.00    -0.732 N 
ATOM      8  C   UNL d   1      -1.159  -5.362  -5.232  0.00  0.00     0.284 C 
ATOM      9  H3  UNL d   1      -2.102  -6.410  -3.701  0.00  0.00     0.395 HD
ENDBRANCH   1   7
TORSDOF 1
ENDMDL
