MODEL 1
REMARK minimizedAffinity 1.99115038
REMARK minimizedRMSD -1
REMARK  1 active torsions:
REMARK  status: ('A' for Active; 'I' for Inactive)
REMARK    1  A    between atoms: N_2  and  C1_3 
ROOT
ATOM      1  C1  UNL d   1      -0.765  -1.439   2.347  0.00  0.00     0.143 A 
ATOM      2  C2  UNL d   1      -0.934  -0.444   1.379  0.00  0.00    -0.057 A 
ATOM      3  C3  UNL d   1      -0.081  -0.355   0.272  0.00  0.00     0.033 A 
ATOM      4  C4  UNL d   1       0.979  -1.245   0.130  0.00  0.00    -0.042 A 
ATOM      5  C5  UNL d   1       1.182  -2.226   1.094  0.00  0.00     0.033 A 
ATOM      6  C6  UNL d   1       0.322  -2.314   2.193  0.00  0.00    -0.057 A 
ENDROOT
BRANCH   1   7
ATOM      7  N   UNL d   1      -1.519  -1.519   3.520  0.00  0.00    -0.732 N 
ATOM      8  C   UNL d   1      -2.859  -0.975   3.574  0.00  0.00     0.284 C 
ATOM      9  H3  UNL d   1      -1.416  -2.417   3.988  0.00  0.00     0.395 HD
ENDBRANCH   1   7
TORSDOF 1
ENDMDL
