MODEL 1
REMARK minimizedAffinity -2.98208642
REMARK minimizedRMSD -1
REMARK  1 active torsions:
REMARK  status: ('A' for Active; 'I' for Inactive)
REMARK    1  A    between atoms: N_2  and  C1_3 
ROOT
ATOM      1  C1  UNL d   1      -4.195  -4.501  -4.503  0.00  0.00     0.143 A 
ATOM      2  C2  UNL d   1      -4.148  -5.644  -5.308  0.00  0.00    -0.057 A 
ATOM      3  C3  UNL d   1      -2.982  -6.000  -5.997  0.00  0.00     0.033 A 
ATOM      4  C4  UNL d   1      -1.847  -5.199  -5.915  0.00  0.00    -0.042 A 
ATOM      5  C5  UNL d   1      -1.879  -4.045  -5.141  0.00  0.00     0.033 A 
ATOM      6  C6  UNL d   1      -3.045  -3.699  -4.450  0.00  0.00    -0.057 A 
ENDROOT
BRANCH   1   7
ATOM      7  N   UNL d   1      -5.354  -4.041  -3.873  0.00  0.00    -0.732 N 
ATOM      8  C   UNL d   1      -5.996  -2.820  -4.309  0.00  0.00     0.284 C 
ATOM      9  H3  UNL d   1      -6.001  -4.795  -3.652  0.00  0.00     0.395 HD
ENDBRANCH   1   7
TORSDOF 1
ENDMDL
