MODEL 1
REMARK minimizedAffinity -3.42586994
REMARK minimizedRMSD -1
REMARK  1 active torsions:
REMARK  status: ('A' for Active; 'I' for Inactive)
REMARK    1  A    between atoms: N_2  and  C1_3 
ROOT
ATOM      1  C1  UNL d   1      -3.637  -4.757  -4.688  0.00  0.00     0.143 A 
ATOM      2  C2  UNL d   1      -3.512  -3.400  -5.002  0.00  0.00    -0.057 A 
ATOM      3  C3  UNL d   1      -4.602  -2.527  -4.896  0.00  0.00     0.033 A 
ATOM      4  C4  UNL d   1      -5.847  -3.004  -4.499  0.00  0.00    -0.042 A 
ATOM      5  C5  UNL d   1      -6.000  -4.354  -4.205  0.00  0.00     0.033 A 
ATOM      6  C6  UNL d   1      -4.906  -5.219  -4.307  0.00  0.00    -0.057 A 
ENDROOT
BRANCH   1   7
ATOM      7  N   UNL d   1      -2.616  -5.694  -4.868  0.00  0.00    -0.732 N 
ATOM      8  C   UNL d   1      -1.720  -5.599  -6.000  0.00  0.00     0.284 C 
ATOM      9  H3  UNL d   1      -2.157  -5.942  -3.994  0.00  0.00     0.395 HD
ENDBRANCH   1   7
TORSDOF 1
ENDMDL
