MODEL 1
REMARK minimizedAffinity -2.79775858
REMARK minimizedRMSD -1
REMARK  1 active torsions:
REMARK  status: ('A' for Active; 'I' for Inactive)
REMARK    1  A    between atoms: N_2  and  C1_3 
ROOT
ATOM      1  C1  UNL d   1      -4.396  -3.271  -4.622  0.00  0.00     0.143 A 
ATOM      2  C2  UNL d   1      -4.914  -4.442  -4.058  0.00  0.00    -0.057 A 
ATOM      3  C3  UNL d   1      -4.412  -5.701  -4.409  0.00  0.00     0.033 A 
ATOM      4  C4  UNL d   1      -3.398  -5.813  -5.354  0.00  0.00    -0.042 A 
ATOM      5  C5  UNL d   1      -2.884  -4.665  -5.946  0.00  0.00     0.033 A 
ATOM      6  C6  UNL d   1      -3.386  -3.410  -5.587  0.00  0.00    -0.057 A 
ENDROOT
BRANCH   1   7
ATOM      7  N   UNL d   1      -4.919  -1.997  -4.388  0.00  0.00    -0.732 N 
ATOM      8  C   UNL d   1      -6.000  -1.806  -3.445  0.00  0.00     0.284 C 
ATOM      9  H3  UNL d   1      -4.197  -1.283  -4.343  0.00  0.00     0.395 HD
ENDBRANCH   1   7
TORSDOF 1
ENDMDL
