MODEL 1
REMARK minimizedAffinity -3.4102931
REMARK minimizedRMSD -1
REMARK  1 active torsions:
REMARK  status: ('A' for Active; 'I' for Inactive)
REMARK    1  A    between atoms: N_2  and  C1_3 
ROOT
ATOM      1  C1  UNL d   1      -3.876  -5.039  -5.049  0.00  0.00     0.143 A 
ATOM      2  C2  UNL d   1      -4.909  -5.097  -5.991  0.00  0.00    -0.057 A 
ATOM      3  C3  UNL d   1      -5.952  -4.163  -5.984  0.00  0.00     0.033 A 
ATOM      4  C4  UNL d   1      -5.995  -3.167  -5.013  0.00  0.00    -0.042 A 
ATOM      5  C5  UNL d   1      -4.992  -3.105  -4.052  0.00  0.00     0.033 A 
ATOM      6  C6  UNL d   1      -3.950  -4.037  -4.069  0.00  0.00    -0.057 A 
ENDROOT
BRANCH   1   7
ATOM      7  N   UNL d   1      -2.865  -5.997  -4.943  0.00  0.00    -0.732 N 
ATOM      8  C   UNL d   1      -1.616  -5.832  -5.655  0.00  0.00     0.284 C 
ATOM      9  H3  UNL d   1      -2.760  -6.347  -3.994  0.00  0.00     0.395 HD
ENDBRANCH   1   7
TORSDOF 1
ENDMDL
