MODEL 1
REMARK minimizedAffinity -4.43239069
REMARK minimizedRMSD -1
REMARK  1 active torsions:
REMARK  status: ('A' for Active; 'I' for Inactive)
REMARK    1  A    between atoms: N_2  and  C1_3 
ROOT
ATOM      1  C1  UNL d   1      -3.522  -4.235  -5.125  0.00  0.00     0.143 A 
ATOM      2  C2  UNL d   1      -4.557  -5.175  -5.087  0.00  0.00    -0.057 A 
ATOM      3  C3  UNL d   1      -5.790  -4.874  -4.496  0.00  0.00     0.033 A 
ATOM      4  C4  UNL d   1      -6.000  -3.632  -3.904  0.00  0.00    -0.042 A 
ATOM      5  C5  UNL d   1      -4.976  -2.691  -3.908  0.00  0.00     0.033 A 
ATOM      6  C6  UNL d   1      -3.750  -2.996  -4.506  0.00  0.00    -0.057 A 
ENDROOT
BRANCH   1   7
ATOM      7  N   UNL d   1      -2.241  -4.508  -5.611  0.00  0.00    -0.732 N 
ATOM      8  C   UNL d   1      -1.679  -5.837  -5.502  0.00  0.00     0.284 C 
ATOM      9  H3  UNL d   1      -2.058  -4.051  -6.502  0.00  0.00     0.395 HD
ENDBRANCH   1   7
TORSDOF 1
ENDMDL
