MODEL 1
REMARK minimizedAffinity -2.82915735
REMARK minimizedRMSD -1
REMARK  0 active torsions:
REMARK  status: ('A' for Active; 'I' for Inactive)
ROOT
ATOM      1  C   UNL d   1       2.320  -0.351   2.396  0.00  0.00     0.020 A 
ATOM      2  C1  UNL d   1       2.305  -0.657   1.035  0.00  0.00     0.020 A 
ATOM      3  C2  UNL d   1       1.123  -0.525   0.303  0.00  0.00     0.034 A 
ATOM      4  C3  UNL d   1      -0.048  -0.086   0.931  0.00  0.00     0.017 A 
ATOM      5  C4  UNL d   1      -0.032   0.221   2.297  0.00  0.00     0.017 A 
ATOM      6  C5  UNL d   1       1.154   0.087   3.025  0.00  0.00     0.034 A 
ATOM      7 Cl   UNL d   1      -1.437   0.768   3.141  0.00  0.00    -0.070 Cl
ATOM      8 Cl1  UNL d   1      -1.474   0.054  -0.035  0.00  0.00    -0.070 Cl
ENDROOT
TORSDOF 0
ENDMDL
