MODEL 1
REMARK minimizedAffinity -4.78916168
REMARK minimizedRMSD -1
REMARK  0 active torsions:
REMARK  status: ('A' for Active; 'I' for Inactive)
ROOT
ATOM      1  C   UNL d   1      -0.076  -0.739  -0.882  0.00  0.00     0.020 A 
ATOM      2  C1  UNL d   1      -1.245  -0.183  -0.364  0.00  0.00     0.020 A 
ATOM      3  C2  UNL d   1      -1.280   0.263   0.959  0.00  0.00     0.034 A 
ATOM      4  C3  UNL d   1      -0.144   0.153   1.769  0.00  0.00     0.017 A 
ATOM      5  C4  UNL d   1       1.029  -0.406   1.248  0.00  0.00     0.017 A 
ATOM      6  C5  UNL d   1       1.059  -0.850  -0.077  0.00  0.00     0.034 A 
ATOM      7 Cl   UNL d   1       2.471  -0.574   2.186  0.00  0.00    -0.070 Cl
ATOM      8 Cl1  UNL d   1      -0.258   0.725   3.395  0.00  0.00    -0.070 Cl
ENDROOT
TORSDOF 0
ENDMDL
