MODEL 1
REMARK minimizedAffinity -5.9930687
REMARK minimizedRMSD -1
REMARK  0 active torsions:
REMARK  status: ('A' for Active; 'I' for Inactive)
ROOT
ATOM      1  C   UNL d   1      -1.207   1.276   2.264  0.00  0.00     0.020 A 
ATOM      2  C1  UNL d   1      -0.320   1.150   3.333  0.00  0.00     0.020 A 
ATOM      3  C2  UNL d   1       0.914   0.525   3.146  0.00  0.00     0.034 A 
ATOM      4  C3  UNL d   1       1.266   0.023   1.888  0.00  0.00     0.017 A 
ATOM      5  C4  UNL d   1       0.376   0.150   0.815  0.00  0.00     0.017 A 
ATOM      6  C5  UNL d   1      -0.859   0.777   1.008  0.00  0.00     0.034 A 
ATOM      7 Cl   UNL d   1       0.739  -0.443  -0.767  0.00  0.00    -0.070 Cl
ATOM      8 Cl1  UNL d   1       2.809  -0.737   1.728  0.00  0.00    -0.070 Cl
ENDROOT
TORSDOF 0
ENDMDL
