MODEL 1
REMARK minimizedAffinity -5.73145819
REMARK minimizedRMSD -1
REMARK  0 active torsions:
REMARK  status: ('A' for Active; 'I' for Inactive)
ROOT
ATOM      1  C   UNL d   1      -0.412  -0.379  -0.330  0.00  0.00     0.020 A 
ATOM      2  C1  UNL d   1      -1.554   0.249   0.166  0.00  0.00     0.020 A 
ATOM      3  C2  UNL d   1      -1.540   0.816   1.442  0.00  0.00     0.034 A 
ATOM      4  C3  UNL d   1      -0.382   0.757   2.226  0.00  0.00     0.017 A 
ATOM      5  C4  UNL d   1       0.763   0.126   1.727  0.00  0.00     0.017 A 
ATOM      6  C5  UNL d   1       0.744  -0.440   0.449  0.00  0.00     0.034 A 
ATOM      7 Cl   UNL d   1       2.229   0.014   2.636  0.00  0.00    -0.070 Cl
ATOM      8 Cl1  UNL d   1      -0.436   1.480   3.794  0.00  0.00    -0.070 Cl
ENDROOT
TORSDOF 0
ENDMDL
