MODEL 1
REMARK minimizedAffinity -0.988099098
REMARK minimizedRMSD -1
REMARK  0 active torsions:
REMARK  status: ('A' for Active; 'I' for Inactive)
ROOT
ATOM      1  C   UNL d   1      -0.174  -0.376  -0.787  0.00  0.00     0.020 A 
ATOM      2  C1  UNL d   1      -1.333  -0.070  -0.074  0.00  0.00     0.020 A 
ATOM      3  C2  UNL d   1      -1.302  -0.019   1.321  0.00  0.00     0.034 A 
ATOM      4  C3  UNL d   1      -0.109  -0.274   2.008  0.00  0.00     0.017 A 
ATOM      5  C4  UNL d   1       1.053  -0.582   1.292  0.00  0.00     0.017 A 
ATOM      6  C5  UNL d   1       1.016  -0.631  -0.105  0.00  0.00     0.034 A 
ATOM      7 Cl   UNL d   1       2.562  -0.909   2.069  0.00  0.00    -0.070 Cl
ATOM      8 Cl1  UNL d   1      -0.143  -0.193   3.734  0.00  0.00    -0.070 Cl
ENDROOT
TORSDOF 0
ENDMDL
