MODEL 1
REMARK minimizedAffinity -1.66393363
REMARK minimizedRMSD -1
REMARK  0 active torsions:
REMARK  status: ('A' for Active; 'I' for Inactive)
ROOT
ATOM      1  C   UNL d   1      -1.615   0.218   2.456  0.00  0.00     0.020 A 
ATOM      2  C1  UNL d   1      -0.665   0.029   3.459  0.00  0.00     0.020 A 
ATOM      3  C2  UNL d   1       0.647  -0.311   3.124  0.00  0.00     0.034 A 
ATOM      4  C3  UNL d   1       1.013  -0.463   1.781  0.00  0.00     0.017 A 
ATOM      5  C4  UNL d   1       0.060  -0.273   0.775  0.00  0.00     0.017 A 
ATOM      6  C5  UNL d   1      -1.253   0.067   1.117  0.00  0.00     0.034 A 
ATOM      7 Cl   UNL d   1       0.436  -0.444  -0.903  0.00  0.00    -0.070 Cl
ATOM      8 Cl1  UNL d   1       2.654  -0.885   1.439  0.00  0.00    -0.070 Cl
ENDROOT
TORSDOF 0
ENDMDL
