MODEL 1
REMARK minimizedAffinity -5.25451231
REMARK minimizedRMSD -1
REMARK  0 active torsions:
REMARK  status: ('A' for Active; 'I' for Inactive)
ROOT
ATOM      1  C   UNL d   1      -0.462   0.741   3.172  0.00  0.00     0.020 A 
ATOM      2  C1  UNL d   1       0.846   0.359   2.876  0.00  0.00     0.020 A 
ATOM      3  C2  UNL d   1       1.180  -0.041   1.580  0.00  0.00     0.034 A 
ATOM      4  C3  UNL d   1       0.205  -0.062   0.576  0.00  0.00     0.017 A 
ATOM      5  C4  UNL d   1      -1.107   0.321   0.874  0.00  0.00     0.017 A 
ATOM      6  C5  UNL d   1      -1.437   0.721   2.173  0.00  0.00     0.034 A 
ATOM      7 Cl   UNL d   1      -2.365   0.321  -0.311  0.00  0.00    -0.070 Cl
ATOM      8 Cl1  UNL d   1       0.689  -0.568  -1.003  0.00  0.00    -0.070 Cl
ENDROOT
TORSDOF 0
ENDMDL
