MODEL 1
REMARK minimizedAffinity 0.967482448
REMARK minimizedRMSD -1
REMARK  0 active torsions:
REMARK  status: ('A' for Active; 'I' for Inactive)
ROOT
ATOM      1  C   UNL d   1       0.120   1.717  -1.025  0.00  0.00     0.124 A 
ATOM      2  C1  UNL d   1       0.188   0.669  -1.932  0.00  0.00     0.062 A 
ATOM      3  C2  UNL d   1       0.061  -0.646  -1.493  0.00  0.00     0.162 A 
ATOM      4  C3  UNL d   1      -0.137  -0.920  -0.140  0.00  0.00    -0.034 A 
ATOM      5  C4  UNL d   1      -0.203   0.140   0.767  0.00  0.00     0.162 A 
ATOM      6  C5  UNL d   1      -0.076   1.452   0.323  0.00  0.00     0.062 A 
ATOM      7  F   UNL d   1      -0.142   2.464   1.201  0.00  0.00    -0.097 F 
ATOM      8  F1  UNL d   1      -0.392  -0.088   2.075  0.00  0.00    -0.096 F 
ATOM      9  I   UNL d   1      -0.327  -2.884   0.521  0.00  0.00    -0.060 I 
ATOM     10  F2  UNL d   1       0.130  -1.639  -2.392  0.00  0.00    -0.096 F 
ATOM     11  F3  UNL d   1       0.377   0.923  -3.235  0.00  0.00    -0.097 F 
ATOM     12  F4  UNL d   1       0.243   2.981  -1.450  0.00  0.00    -0.092 F 
ENDROOT
TORSDOF 0
ENDMDL
