MODEL 1
REMARK minimizedAffinity -1.15034521
REMARK minimizedRMSD -1
REMARK  0 active torsions:
REMARK  status: ('A' for Active; 'I' for Inactive)
ROOT
ATOM      1  C   UNL d   1       0.105  -3.264  -1.172  0.00  0.00     0.124 A 
ATOM      2  C1  UNL d   1       0.322  -2.297  -2.145  0.00  0.00     0.062 A 
ATOM      3  C2  UNL d   1       0.320  -0.948  -1.804  0.00  0.00     0.162 A 
ATOM      4  C3  UNL d   1       0.100  -0.556  -0.483  0.00  0.00    -0.034 A 
ATOM      5  C4  UNL d   1      -0.118  -1.534   0.489  0.00  0.00     0.162 A 
ATOM      6  C5  UNL d   1      -0.115  -2.881   0.143  0.00  0.00     0.062 A 
ATOM      7  F   UNL d   1      -0.325  -3.813   1.084  0.00  0.00    -0.097 F 
ATOM      8  F1  UNL d   1      -0.333  -1.192   1.768  0.00  0.00    -0.096 F 
ATOM      9  I   UNL d   1       0.096   1.461   0.031  0.00  0.00    -0.060 I 
ATOM     10  F2  UNL d   1       0.532  -0.036  -2.764  0.00  0.00    -0.096 F 
ATOM     11  F3  UNL d   1       0.534  -2.664  -3.417  0.00  0.00    -0.097 F 
ATOM     12  F4  UNL d   1       0.107  -4.561  -1.503  0.00  0.00    -0.092 F 
ENDROOT
TORSDOF 0
ENDMDL
