MODEL 1
REMARK minimizedAffinity 1.46596825
REMARK minimizedRMSD -1
REMARK  0 active torsions:
REMARK  status: ('A' for Active; 'I' for Inactive)
ROOT
ATOM      1  C   UNL d   1      -1.470  -1.873   1.198  0.00  0.00     0.124 A 
ATOM      2  C1  UNL d   1      -0.648  -2.187   0.125  0.00  0.00     0.062 A 
ATOM      3  C2  UNL d   1       0.037  -1.180  -0.550  0.00  0.00     0.162 A 
ATOM      4  C3  UNL d   1      -0.097   0.150  -0.153  0.00  0.00    -0.034 A 
ATOM      5  C4  UNL d   1      -0.926   0.458   0.927  0.00  0.00     0.162 A 
ATOM      6  C5  UNL d   1      -1.609  -0.551   1.598  0.00  0.00     0.062 A 
ATOM      7  F   UNL d   1      -2.402  -0.246   2.635  0.00  0.00    -0.097 F 
ATOM      8  F1  UNL d   1      -1.077   1.727   1.335  0.00  0.00    -0.096 F 
ATOM      9  I   UNL d   1       0.925   1.658  -1.159  0.00  0.00    -0.060 I 
ATOM     10  F2  UNL d   1       0.824  -1.512  -1.584  0.00  0.00    -0.096 F 
ATOM     11  F3  UNL d   1      -0.514  -3.463  -0.264  0.00  0.00    -0.097 F 
ATOM     12  F4  UNL d   1      -2.129  -2.843   1.845  0.00  0.00    -0.092 F 
ENDROOT
TORSDOF 0
ENDMDL
