MODEL 1
REMARK minimizedAffinity -0.604324937
REMARK minimizedRMSD -1
REMARK  0 active torsions:
REMARK  status: ('A' for Active; 'I' for Inactive)
ROOT
ATOM      1  C   UNL d   1      -0.380  -2.090  -0.345  0.00  0.00     0.124 A 
ATOM      2  C1  UNL d   1       0.117  -1.186  -1.272  0.00  0.00     0.062 A 
ATOM      3  C2  UNL d   1       0.089   0.180  -1.003  0.00  0.00     0.162 A 
ATOM      4  C3  UNL d   1      -0.438   0.649   0.200  0.00  0.00    -0.034 A 
ATOM      5  C4  UNL d   1      -0.938  -0.267   1.128  0.00  0.00     0.162 A 
ATOM      6  C5  UNL d   1      -0.907  -1.631   0.854  0.00  0.00     0.062 A 
ATOM      7  F   UNL d   1      -1.388  -2.503   1.751  0.00  0.00    -0.097 F 
ATOM      8  F1  UNL d   1      -1.451   0.150   2.294  0.00  0.00    -0.096 F 
ATOM      9  I   UNL d   1      -0.483   2.690   0.606  0.00  0.00    -0.060 I 
ATOM     10  F2  UNL d   1       0.576   1.031  -1.918  0.00  0.00    -0.096 F 
ATOM     11  F3  UNL d   1       0.626  -1.627  -2.432  0.00  0.00    -0.097 F 
ATOM     12  F4  UNL d   1      -0.353  -3.403  -0.607  0.00  0.00    -0.092 F 
ENDROOT
TORSDOF 0
ENDMDL
