MODEL 1
REMARK minimizedAffinity -3.81092048
REMARK minimizedRMSD -1
REMARK  0 active torsions:
REMARK  status: ('A' for Active; 'I' for Inactive)
ROOT
ATOM      1  C   UNL d   1      -0.205  -2.661   0.483  0.00  0.00     0.124 A 
ATOM      2  C1  UNL d   1       0.613  -2.140  -0.509  0.00  0.00     0.062 A 
ATOM      3  C2  UNL d   1       0.748  -0.762  -0.653  0.00  0.00     0.162 A 
ATOM      4  C3  UNL d   1       0.064   0.105   0.199  0.00  0.00    -0.034 A 
ATOM      5  C4  UNL d   1      -0.758  -0.427   1.195  0.00  0.00     0.162 A 
ATOM      6  C5  UNL d   1      -0.890  -1.805   1.334  0.00  0.00     0.062 A 
ATOM      7  F   UNL d   1      -1.681  -2.307   2.294  0.00  0.00    -0.097 F 
ATOM      8  F1  UNL d   1      -1.430   0.378   2.031  0.00  0.00    -0.096 F 
ATOM      9  I   UNL d   1       0.263   2.166  -0.012  0.00  0.00    -0.060 I 
ATOM     10  F2  UNL d   1       1.545  -0.286  -1.621  0.00  0.00    -0.096 F 
ATOM     11  F3  UNL d   1       1.274  -2.965  -1.333  0.00  0.00    -0.097 F 
ATOM     12  F4  UNL d   1      -0.334  -3.987   0.619  0.00  0.00    -0.092 F 
ENDROOT
TORSDOF 0
ENDMDL
