MODEL 1
REMARK minimizedAffinity 3.3170085
REMARK minimizedRMSD -1
REMARK  0 active torsions:
REMARK  status: ('A' for Active; 'I' for Inactive)
ROOT
ATOM      1  C   UNL d   1      -0.117  -2.417   0.104  0.00  0.00     0.124 A 
ATOM      2  C1  UNL d   1       0.530  -1.575  -0.790  0.00  0.00     0.062 A 
ATOM      3  C2  UNL d   1       0.407  -0.194  -0.666  0.00  0.00     0.162 A 
ATOM      4  C3  UNL d   1      -0.365   0.354   0.359  0.00  0.00    -0.034 A 
ATOM      5  C4  UNL d   1      -1.013  -0.499   1.253  0.00  0.00     0.162 A 
ATOM      6  C5  UNL d   1      -0.888  -1.878   1.125  0.00  0.00     0.062 A 
ATOM      7  F   UNL d   1      -1.514  -2.690   1.989  0.00  0.00    -0.097 F 
ATOM      8  F1  UNL d   1      -1.764  -0.005   2.250  0.00  0.00    -0.096 F 
ATOM      9  I   UNL d   1      -0.551   2.418   0.548  0.00  0.00    -0.060 I 
ATOM     10  F2  UNL d   1       1.043   0.595  -1.544  0.00  0.00    -0.096 F 
ATOM     11  F3  UNL d   1       1.274  -2.093  -1.778  0.00  0.00    -0.097 F 
ATOM     12  F4  UNL d   1       0.001  -3.745  -0.019  0.00  0.00    -0.092 F 
ENDROOT
TORSDOF 0
ENDMDL
