MODEL 1
REMARK minimizedAffinity -1.19577169
REMARK minimizedRMSD -1
REMARK  0 active torsions:
REMARK  status: ('A' for Active; 'I' for Inactive)
ROOT
ATOM      1  C   UNL d   1       0.113  -2.471   0.194  0.00  0.00     0.124 A 
ATOM      2  C1  UNL d   1       0.899  -1.690  -0.642  0.00  0.00     0.062 A 
ATOM      3  C2  UNL d   1       0.883  -0.303  -0.525  0.00  0.00     0.162 A 
ATOM      4  C3  UNL d   1       0.078   0.313   0.433  0.00  0.00    -0.034 A 
ATOM      5  C4  UNL d   1      -0.711  -0.479   1.270  0.00  0.00     0.162 A 
ATOM      6  C5  UNL d   1      -0.692  -1.864   1.149  0.00  0.00     0.062 A 
ATOM      7  F   UNL d   1      -1.452  -2.617   1.957  0.00  0.00    -0.097 F 
ATOM      8  F1  UNL d   1      -1.497   0.081   2.201  0.00  0.00    -0.096 F 
ATOM      9  I   UNL d   1       0.050   2.386   0.611  0.00  0.00    -0.060 I 
ATOM     10  F2  UNL d   1       1.653   0.426  -1.346  0.00  0.00    -0.096 F 
ATOM     11  F3  UNL d   1       1.676  -2.273  -1.566  0.00  0.00    -0.097 F 
ATOM     12  F4  UNL d   1       0.130  -3.805   0.079  0.00  0.00    -0.092 F 
ENDROOT
TORSDOF 0
ENDMDL
