MODEL 1
REMARK minimizedAffinity -1.13530433
REMARK minimizedRMSD -1
REMARK  0 active torsions:
REMARK  status: ('A' for Active; 'I' for Inactive)
ROOT
ATOM      1  C   UNL d   1      -0.372  -3.396  -0.491  0.00  0.00     0.124 A 
ATOM      2  C1  UNL d   1       0.398  -2.847  -1.507  0.00  0.00     0.062 A 
ATOM      3  C2  UNL d   1       0.542  -1.466  -1.607  0.00  0.00     0.162 A 
ATOM      4  C3  UNL d   1      -0.084  -0.624  -0.688  0.00  0.00    -0.034 A 
ATOM      5  C4  UNL d   1      -0.857  -1.184   0.331  0.00  0.00     0.162 A 
ATOM      6  C5  UNL d   1      -0.998  -2.565   0.427  0.00  0.00     0.062 A 
ATOM      7  F   UNL d   1      -1.743  -3.094   1.409  0.00  0.00    -0.097 F 
ATOM      8  F1  UNL d   1      -1.473  -0.404   1.232  0.00  0.00    -0.096 F 
ATOM      9  I   UNL d   1       0.130   1.441  -0.834  0.00  0.00    -0.060 I 
ATOM     10  F2  UNL d   1       1.292  -0.963  -2.599  0.00  0.00    -0.096 F 
ATOM     11  F3  UNL d   1       1.003  -3.648  -2.395  0.00  0.00    -0.097 F 
ATOM     12  F4  UNL d   1      -0.510  -4.725  -0.397  0.00  0.00    -0.092 F 
ENDROOT
TORSDOF 0
ENDMDL
