MODEL 1
REMARK minimizedAffinity -0.962316036
REMARK minimizedRMSD -1
REMARK  0 active torsions:
REMARK  status: ('A' for Active; 'I' for Inactive)
ROOT
ATOM      1  C   UNL d   1      -0.335  -2.189  -0.048  0.00  0.00     0.124 A 
ATOM      2  C1  UNL d   1      -1.050  -1.482   0.909  0.00  0.00     0.062 A 
ATOM      3  C2  UNL d   1      -0.997  -0.091   0.936  0.00  0.00     0.162 A 
ATOM      4  C3  UNL d   1      -0.227   0.602   0.002  0.00  0.00    -0.034 A 
ATOM      5  C4  UNL d   1       0.491  -0.116  -0.956  0.00  0.00     0.162 A 
ATOM      6  C5  UNL d   1       0.435  -1.506  -0.979  0.00  0.00     0.062 A 
ATOM      7  F   UNL d   1       1.126  -2.187  -1.904  0.00  0.00    -0.097 F 
ATOM      8  F1  UNL d   1       1.241   0.519  -1.869  0.00  0.00    -0.096 F 
ATOM      9  I   UNL d   1      -0.145   2.681   0.040  0.00  0.00    -0.060 I 
ATOM     10  F2  UNL d   1      -1.698   0.566   1.872  0.00  0.00    -0.096 F 
ATOM     11  F3  UNL d   1      -1.793  -2.140   1.810  0.00  0.00    -0.097 F 
ATOM     12  F4  UNL d   1      -0.386  -3.527  -0.071  0.00  0.00    -0.092 F 
ENDROOT
TORSDOF 0
ENDMDL
