MODEL 1
REMARK minimizedAffinity -2.62572074
REMARK minimizedRMSD -1
REMARK  0 active torsions:
REMARK  status: ('A' for Active; 'I' for Inactive)
ROOT
ATOM      1  C   UNL d   1       1.894   2.872   0.891  0.00  0.00     0.124 A 
ATOM      2  C1  UNL d   1       2.825   1.850   0.770  0.00  0.00     0.062 A 
ATOM      3  C2  UNL d   1       2.403   0.541   0.553  0.00  0.00     0.162 A 
ATOM      4  C3  UNL d   1       1.043   0.247   0.455  0.00  0.00    -0.034 A 
ATOM      5  C4  UNL d   1       0.113   1.280   0.579  0.00  0.00     0.162 A 
ATOM      6  C5  UNL d   1       0.539   2.586   0.795  0.00  0.00     0.062 A 
ATOM      7  F   UNL d   1      -0.362   3.573   0.912  0.00  0.00    -0.097 F 
ATOM      8  F1  UNL d   1      -1.202   1.032   0.490  0.00  0.00    -0.096 F 
ATOM      9  I   UNL d   1       0.409  -1.709   0.132  0.00  0.00    -0.060 I 
ATOM     10  F2  UNL d   1       3.325  -0.427   0.440  0.00  0.00    -0.096 F 
ATOM     11  F3  UNL d   1       4.134   2.123   0.863  0.00  0.00    -0.097 F 
ATOM     12  F4  UNL d   1       2.302   4.130   1.100  0.00  0.00    -0.092 F 
ENDROOT
TORSDOF 0
ENDMDL
