MODEL 1
REMARK minimizedAffinity 1.87240613
REMARK minimizedRMSD -1
REMARK  0 active torsions:
REMARK  status: ('A' for Active; 'I' for Inactive)
ROOT
ATOM      1  C   UNL d   1      -0.704  -2.890   0.136  0.00  0.00     0.124 A 
ATOM      2  C1  UNL d   1       0.509  -2.435  -0.361  0.00  0.00     0.062 A 
ATOM      3  C2  UNL d   1       0.784  -1.070  -0.397  0.00  0.00     0.162 A 
ATOM      4  C3  UNL d   1      -0.157  -0.151   0.068  0.00  0.00    -0.034 A 
ATOM      5  C4  UNL d   1      -1.375  -0.616   0.566  0.00  0.00     0.162 A 
ATOM      6  C5  UNL d   1      -1.645  -1.981   0.599  0.00  0.00     0.062 A 
ATOM      7  F   UNL d   1      -2.818  -2.418   1.080  0.00  0.00    -0.097 F 
ATOM      8  F1  UNL d   1      -2.302   0.240   1.020  0.00  0.00    -0.096 F 
ATOM      9  I   UNL d   1       0.250   1.889   0.017  0.00  0.00    -0.060 I 
ATOM     10  F2  UNL d   1       1.965  -0.659  -0.882  0.00  0.00    -0.096 F 
ATOM     11  F3  UNL d   1       1.420  -3.311  -0.810  0.00  0.00    -0.097 F 
ATOM     12  F4  UNL d   1      -0.966  -4.203   0.168  0.00  0.00    -0.092 F 
ENDROOT
TORSDOF 0
ENDMDL
