MODEL 1
REMARK minimizedAffinity -2.55632854
REMARK minimizedRMSD -1
REMARK  0 active torsions:
REMARK  status: ('A' for Active; 'I' for Inactive)
ROOT
ATOM      1  C   UNL d   1       0.557  -2.639  -1.477  0.00  0.00     0.124 A 
ATOM      2  C1  UNL d   1       0.331  -3.088  -0.183  0.00  0.00     0.062 A 
ATOM      3  C2  UNL d   1      -0.296  -2.262   0.745  0.00  0.00     0.162 A 
ATOM      4  C3  UNL d   1      -0.702  -0.978   0.383  0.00  0.00    -0.034 A 
ATOM      5  C4  UNL d   1      -0.471  -0.533  -0.920  0.00  0.00     0.162 A 
ATOM      6  C5  UNL d   1       0.156  -1.362  -1.844  0.00  0.00     0.062 A 
ATOM      7  F   UNL d   1       0.373  -0.926  -3.093  0.00  0.00    -0.097 F 
ATOM      8  F1  UNL d   1      -0.849   0.696  -1.301  0.00  0.00    -0.096 F 
ATOM      9  I   UNL d   1      -1.640   0.261   1.769  0.00  0.00    -0.060 I 
ATOM     10  F2  UNL d   1      -0.501  -2.722   1.989  0.00  0.00    -0.096 F 
ATOM     11  F3  UNL d   1       0.718  -4.321   0.174  0.00  0.00    -0.097 F 
ATOM     12  F4  UNL d   1       1.161  -3.436  -2.368  0.00  0.00    -0.092 F 
ENDROOT
TORSDOF 0
ENDMDL
