MODEL 1
REMARK minimizedAffinity 0.180745259
REMARK minimizedRMSD -1
REMARK  0 active torsions:
REMARK  status: ('A' for Active; 'I' for Inactive)
ROOT
ATOM      1  C   UNL d   1      -0.418  -2.619   0.054  0.00  0.00     0.124 A 
ATOM      2  C1  UNL d   1      -1.131  -1.880   0.988  0.00  0.00     0.062 A 
ATOM      3  C2  UNL d   1      -1.023  -0.493   1.013  0.00  0.00     0.162 A 
ATOM      4  C3  UNL d   1      -0.197   0.165   0.101  0.00  0.00    -0.034 A 
ATOM      5  C4  UNL d   1       0.518  -0.585  -0.834  0.00  0.00     0.162 A 
ATOM      6  C5  UNL d   1       0.406  -1.971  -0.855  0.00  0.00     0.062 A 
ATOM      7  F   UNL d   1       1.096  -2.683  -1.758  0.00  0.00    -0.097 F 
ATOM      8  F1  UNL d   1       1.320   0.016  -1.725  0.00  0.00    -0.096 F 
ATOM      9  I   UNL d   1      -0.032   2.240   0.136  0.00  0.00    -0.060 I 
ATOM     10  F2  UNL d   1      -1.724   0.196   1.926  0.00  0.00    -0.096 F 
ATOM     11  F3  UNL d   1      -1.927  -2.504   1.868  0.00  0.00    -0.097 F 
ATOM     12  F4  UNL d   1      -0.523  -3.954   0.032  0.00  0.00    -0.092 F 
ENDROOT
TORSDOF 0
ENDMDL
