MODEL 1
REMARK minimizedAffinity -0.515425861
REMARK minimizedRMSD -1
REMARK  0 active torsions:
REMARK  status: ('A' for Active; 'I' for Inactive)
ROOT
ATOM      1  C   UNL d   1      -0.107   1.257  -1.480  0.00  0.00     0.124 A 
ATOM      2  C1  UNL d   1       0.140   0.212  -2.359  0.00  0.00     0.062 A 
ATOM      3  C2  UNL d   1       0.176  -1.100  -1.894  0.00  0.00     0.162 A 
ATOM      4  C3  UNL d   1      -0.038  -1.374  -0.543  0.00  0.00    -0.034 A 
ATOM      5  C4  UNL d   1      -0.285  -0.317   0.335  0.00  0.00     0.162 A 
ATOM      6  C5  UNL d   1      -0.319   0.992  -0.134  0.00  0.00     0.062 A 
ATOM      7  F   UNL d   1      -0.558   2.001   0.717  0.00  0.00    -0.097 F 
ATOM      8  F1  UNL d   1      -0.494  -0.545   1.640  0.00  0.00    -0.096 F 
ATOM      9  I   UNL d   1       0.015  -3.333   0.156  0.00  0.00    -0.060 I 
ATOM     10  F2  UNL d   1       0.416  -2.090  -2.766  0.00  0.00    -0.096 F 
ATOM     11  F3  UNL d   1       0.346   0.466  -3.659  0.00  0.00    -0.097 F 
ATOM     12  F4  UNL d   1      -0.140   2.519  -1.929  0.00  0.00    -0.092 F 
ENDROOT
TORSDOF 0
ENDMDL
