MODEL 1
REMARK minimizedAffinity -0.896742642
REMARK minimizedRMSD -1
REMARK  0 active torsions:
REMARK  status: ('A' for Active; 'I' for Inactive)
ROOT
ATOM      1  C   UNL d   1      -0.758  -1.853  -0.501  0.00  0.00     0.124 A 
ATOM      2  C1  UNL d   1      -0.748  -1.426   0.820  0.00  0.00     0.062 A 
ATOM      3  C2  UNL d   1      -0.190  -0.196   1.153  0.00  0.00     0.162 A 
ATOM      4  C3  UNL d   1       0.361   0.619   0.164  0.00  0.00    -0.034 A 
ATOM      5  C4  UNL d   1       0.348   0.182  -1.162  0.00  0.00     0.162 A 
ATOM      6  C5  UNL d   1      -0.211  -1.049  -1.490  0.00  0.00     0.062 A 
ATOM      7  F   UNL d   1      -0.220  -1.459  -2.767  0.00  0.00    -0.097 F 
ATOM      8  F1  UNL d   1       0.869   0.940  -2.138  0.00  0.00    -0.096 F 
ATOM      9  I   UNL d   1       1.196   2.460   0.658  0.00  0.00    -0.060 I 
ATOM     10  F2  UNL d   1      -0.194   0.191   2.438  0.00  0.00    -0.096 F 
ATOM     11  F3  UNL d   1      -1.275  -2.202   1.778  0.00  0.00    -0.097 F 
ATOM     12  F4  UNL d   1      -1.295  -3.038  -0.819  0.00  0.00    -0.092 F 
ENDROOT
TORSDOF 0
ENDMDL
