MODEL 1
REMARK minimizedAffinity -0.534257531
REMARK minimizedRMSD -1
REMARK  0 active torsions:
REMARK  status: ('A' for Active; 'I' for Inactive)
ROOT
ATOM      1  C   UNL d   1      -0.958  -0.448   1.040  0.00  0.00     0.124 A 
ATOM      2  C1  UNL d   1      -0.818  -1.823   0.914  0.00  0.00     0.062 A 
ATOM      3  C2  UNL d   1      -0.204  -2.363  -0.213  0.00  0.00     0.162 A 
ATOM      4  C3  UNL d   1       0.274  -1.528  -1.222  0.00  0.00    -0.034 A 
ATOM      5  C4  UNL d   1       0.128  -0.146  -1.088  0.00  0.00     0.162 A 
ATOM      6  C5  UNL d   1      -0.486   0.389   0.040  0.00  0.00     0.062 A 
ATOM      7  F   UNL d   1      -0.621   1.717   0.160  0.00  0.00    -0.097 F 
ATOM      8  F1  UNL d   1       0.576   0.686  -2.040  0.00  0.00    -0.096 F 
ATOM      9  I   UNL d   1       1.192  -2.332  -2.909  0.00  0.00    -0.060 I 
ATOM     10  F2  UNL d   1      -0.082  -3.696  -0.309  0.00  0.00    -0.096 F 
ATOM     11  F3  UNL d   1      -1.274  -2.634   1.879  0.00  0.00    -0.097 F 
ATOM     12  F4  UNL d   1      -1.550   0.068   2.125  0.00  0.00    -0.092 F 
ENDROOT
TORSDOF 0
ENDMDL
