MODEL 1
REMARK minimizedAffinity 6.3018465
REMARK minimizedRMSD -1
REMARK  0 active torsions:
REMARK  status: ('A' for Active; 'I' for Inactive)
ROOT
ATOM      1  C   UNL d   1       3.542  -4.260  -2.978  0.00  0.00    -0.002 A 
ATOM      2  C1  UNL d   1       3.300  -4.525  -1.638  0.00  0.00     0.010 A 
ATOM      3  C2  UNL d   1       2.877  -3.509  -0.778  0.00  0.00     0.041 A 
ATOM      4  C3  UNL d   1       2.699  -2.210  -1.294  0.00  0.00    -0.075 A 
ATOM      5  S   UNL d   1       2.187  -0.810  -0.429  0.00  0.00     0.015 SA
ATOM      6  C4  UNL d   1       2.277   0.173  -1.819  0.00  0.00     0.022 A 
ATOM      7  C5  UNL d   1       2.686  -0.534  -2.925  0.00  0.00     0.026 A 
ATOM      8  C6  UNL d   1       2.935  -1.919  -2.641  0.00  0.00    -0.082 A 
ATOM      9  C7  UNL d   1       3.364  -2.971  -3.486  0.00  0.00     0.045 A 
ENDROOT
TORSDOF 0
ENDMDL
