MODEL 1
REMARK minimizedAffinity -0.0524055623
REMARK minimizedRMSD -1
REMARK  0 active torsions:
REMARK  status: ('A' for Active; 'I' for Inactive)
ROOT
ATOM      1  C   UNL d   1       4.261  -5.456  -1.372  0.00  0.00    -0.002 A 
ATOM      2  C1  UNL d   1       4.078  -4.690  -0.229  0.00  0.00     0.010 A 
ATOM      3  C2  UNL d   1       3.495  -3.424  -0.309  0.00  0.00     0.041 A 
ATOM      4  C3  UNL d   1       3.094  -2.936  -1.568  0.00  0.00    -0.075 A 
ATOM      5  S   UNL d   1       2.357  -1.415  -1.907  0.00  0.00     0.015 SA
ATOM      6  C4  UNL d   1       2.267  -1.746  -3.576  0.00  0.00     0.022 A 
ATOM      7  C5  UNL d   1       2.782  -2.983  -3.885  0.00  0.00     0.026 A 
ATOM      8  C6  UNL d   1       3.266  -3.689  -2.733  0.00  0.00    -0.082 A 
ATOM      9  C7  UNL d   1       3.861  -4.969  -2.619  0.00  0.00     0.045 A 
ENDROOT
TORSDOF 0
ENDMDL
