MODEL 1
REMARK minimizedAffinity 13.9107275
REMARK minimizedRMSD -1
REMARK  0 active torsions:
REMARK  status: ('A' for Active; 'I' for Inactive)
ROOT
ATOM      1  C   UNL d   1       2.759  -4.985  -3.952  0.00  0.00    -0.002 A 
ATOM      2  C1  UNL d   1       1.737  -4.112  -3.607  0.00  0.00     0.010 A 
ATOM      3  C2  UNL d   1       1.689  -3.543  -2.333  0.00  0.00     0.041 A 
ATOM      4  C3  UNL d   1       2.697  -3.868  -1.403  0.00  0.00    -0.075 A 
ATOM      5  S   UNL d   1       2.843  -3.291   0.215  0.00  0.00     0.015 SA
ATOM      6  C4  UNL d   1       4.266  -4.189   0.485  0.00  0.00     0.022 A 
ATOM      7  C5  UNL d   1       4.635  -4.917  -0.621  0.00  0.00     0.026 A 
ATOM      8  C6  UNL d   1       3.737  -4.743  -1.728  0.00  0.00    -0.082 A 
ATOM      9  C7  UNL d   1       3.756  -5.305  -3.028  0.00  0.00     0.045 A 
ENDROOT
TORSDOF 0
ENDMDL
