MODEL 1
REMARK minimizedAffinity -0.0827102214
REMARK minimizedRMSD -1
REMARK  0 active torsions:
REMARK  status: ('A' for Active; 'I' for Inactive)
ROOT
ATOM      1  C   UNL d   1       4.458  -5.003  -3.023  0.00  0.00    -0.002 A 
ATOM      2  C1  UNL d   1       3.763  -4.420  -4.073  0.00  0.00     0.010 A 
ATOM      3  C2  UNL d   1       2.885  -3.360  -3.841  0.00  0.00     0.041 A 
ATOM      4  C3  UNL d   1       2.716  -2.890  -2.523  0.00  0.00    -0.075 A 
ATOM      5  S   UNL d   1       1.694  -1.603  -2.002  0.00  0.00     0.015 SA
ATOM      6  C4  UNL d   1       2.157  -1.797  -0.373  0.00  0.00     0.022 A 
ATOM      7  C5  UNL d   1       3.067  -2.814  -0.213  0.00  0.00     0.026 A 
ATOM      8  C6  UNL d   1       3.405  -3.461  -1.450  0.00  0.00    -0.082 A 
ATOM      9  C7  UNL d   1       4.288  -4.535  -1.717  0.00  0.00     0.045 A 
ENDROOT
TORSDOF 0
ENDMDL
