MODEL 1
REMARK minimizedAffinity -3.05788016
REMARK minimizedRMSD -1
REMARK  0 active torsions:
REMARK  status: ('A' for Active; 'I' for Inactive)
ROOT
ATOM      1  C   UNL d   1       2.485  -1.067  -1.501  0.00  0.00    -0.002 A 
ATOM      2  C1  UNL d   1       2.961  -1.628  -0.325  0.00  0.00     0.010 A 
ATOM      3  C2  UNL d   1       3.465  -2.930  -0.312  0.00  0.00     0.041 A 
ATOM      4  C3  UNL d   1       3.485  -3.665  -1.513  0.00  0.00    -0.075 A 
ATOM      5  S   UNL d   1       4.058  -5.276  -1.737  0.00  0.00     0.015 SA
ATOM      6  C4  UNL d   1       3.684  -5.257  -3.399  0.00  0.00     0.022 A 
ATOM      7  C5  UNL d   1       3.135  -4.059  -3.791  0.00  0.00     0.026 A 
ATOM      8  C6  UNL d   1       3.012  -3.122  -2.711  0.00  0.00    -0.082 A 
ATOM      9  C7  UNL d   1       2.506  -1.800  -2.691  0.00  0.00     0.045 A 
ENDROOT
TORSDOF 0
ENDMDL
