MODEL 1
REMARK minimizedAffinity 2.4574039
REMARK minimizedRMSD -1
REMARK  0 active torsions:
REMARK  status: ('A' for Active; 'I' for Inactive)
ROOT
ATOM      1  C   UNL d   1      -0.008  -2.934  -1.200  0.00  0.00    -0.002 A 
ATOM      2  C1  UNL d   1       0.979  -2.383  -0.395  0.00  0.00     0.010 A 
ATOM      3  C2  UNL d   1       0.806  -2.303   0.988  0.00  0.00     0.041 A 
ATOM      4  C3  UNL d   1      -0.386  -2.794   1.555  0.00  0.00    -0.075 A 
ATOM      5  S   UNL d   1      -0.817  -2.803   3.224  0.00  0.00     0.015 SA
ATOM      6  C4  UNL d   1      -2.321  -3.540   2.909  0.00  0.00     0.022 A 
ATOM      7  C5  UNL d   1      -2.507  -3.780   1.569  0.00  0.00     0.026 A 
ATOM      8  C6  UNL d   1      -1.394  -3.355   0.766  0.00  0.00    -0.082 A 
ATOM      9  C7  UNL d   1      -1.190  -3.420  -0.633  0.00  0.00     0.045 A 
ENDROOT
TORSDOF 0
ENDMDL
