MODEL 1
REMARK minimizedAffinity 1.78927433
REMARK minimizedRMSD -1
REMARK  0 active torsions:
REMARK  status: ('A' for Active; 'I' for Inactive)
ROOT
ATOM      1  C   UNL d   1      -2.243   2.395   5.235  0.00  0.00    -0.002 A 
ATOM      2  C1  UNL d   1      -2.976   1.870   4.180  0.00  0.00     0.010 A 
ATOM      3  C2  UNL d   1      -2.773   0.554   3.760  0.00  0.00     0.041 A 
ATOM      4  C3  UNL d   1      -1.812  -0.233   4.424  0.00  0.00    -0.075 A 
ATOM      5  S   UNL d   1      -1.393  -1.870   4.083  0.00  0.00     0.015 SA
ATOM      6  C4  UNL d   1      -0.232  -1.911   5.329  0.00  0.00     0.022 A 
ATOM      7  C5  UNL d   1      -0.152  -0.714   5.999  0.00  0.00     0.026 A 
ATOM      8  C6  UNL d   1      -1.062   0.273   5.489  0.00  0.00    -0.082 A 
ATOM      9  C7  UNL d   1      -1.290   1.611   5.892  0.00  0.00     0.045 A 
ENDROOT
TORSDOF 0
ENDMDL
