MODEL 1
REMARK minimizedAffinity 12.515646
REMARK minimizedRMSD -1
REMARK  0 active torsions:
REMARK  status: ('A' for Active; 'I' for Inactive)
ROOT
ATOM      1  C   UNL d   1      -1.707  -3.819  -1.595  0.00  0.00    -0.002 A 
ATOM      2  C1  UNL d   1      -1.481  -5.166  -1.839  0.00  0.00     0.010 A 
ATOM      3  C2  UNL d   1      -1.843  -5.737  -3.060  0.00  0.00     0.041 A 
ATOM      4  C3  UNL d   1      -2.441  -4.923  -4.043  0.00  0.00    -0.075 A 
ATOM      5  S   UNL d   1      -2.967  -5.404  -5.612  0.00  0.00     0.015 SA
ATOM      6  C4  UNL d   1      -3.503  -3.833  -5.996  0.00  0.00     0.022 A 
ATOM      7  C5  UNL d   1      -3.295  -2.950  -4.963  0.00  0.00     0.026 A 
ATOM      8  C6  UNL d   1      -2.678  -3.564  -3.820  0.00  0.00    -0.082 A 
ATOM      9  C7  UNL d   1      -2.301  -3.015  -2.571  0.00  0.00     0.045 A 
ENDROOT
TORSDOF 0
ENDMDL
