MODEL 1
REMARK minimizedAffinity 4.93403292
REMARK minimizedRMSD -1
REMARK  0 active torsions:
REMARK  status: ('A' for Active; 'I' for Inactive)
ROOT
ATOM      1  C   UNL d   1      -1.665   2.274   1.750  0.00  0.00    -0.002 A 
ATOM      2  C1  UNL d   1      -2.957   2.156   2.243  0.00  0.00     0.010 A 
ATOM      3  C2  UNL d   1      -3.193   1.551   3.479  0.00  0.00     0.041 A 
ATOM      4  C3  UNL d   1      -2.098   1.064   4.220  0.00  0.00    -0.075 A 
ATOM      5  S   UNL d   1      -2.146   0.287   5.758  0.00  0.00     0.015 SA
ATOM      6  C4  UNL d   1      -0.453   0.094   5.797  0.00  0.00     0.022 A 
ATOM      7  C5  UNL d   1       0.150   0.604   4.672  0.00  0.00     0.026 A 
ATOM      8  C6  UNL d   1      -0.788   1.172   3.745  0.00  0.00    -0.082 A 
ATOM      9  C7  UNL d   1      -0.582   1.790   2.488  0.00  0.00     0.045 A 
ENDROOT
TORSDOF 0
ENDMDL
