MODEL 1
REMARK minimizedAffinity 1.42582679
REMARK minimizedRMSD -1
REMARK  0 active torsions:
REMARK  status: ('A' for Active; 'I' for Inactive)
ROOT
ATOM      1  C   UNL d   1      -0.785  -1.847   4.086  0.00  0.00    -0.002 A 
ATOM      2  C1  UNL d   1      -1.779  -2.672   3.579  0.00  0.00     0.010 A 
ATOM      3  C2  UNL d   1      -2.943  -2.128   3.032  0.00  0.00     0.041 A 
ATOM      4  C3  UNL d   1      -3.092  -0.727   3.002  0.00  0.00    -0.075 A 
ATOM      5  S   UNL d   1      -4.431   0.163   2.380  0.00  0.00     0.015 SA
ATOM      6  C4  UNL d   1      -3.715   1.659   2.773  0.00  0.00     0.022 A 
ATOM      7  C5  UNL d   1      -2.484   1.502   3.365  0.00  0.00     0.026 A 
ATOM      8  C6  UNL d   1      -2.105   0.124   3.506  0.00  0.00    -0.082 A 
ATOM      9  C7  UNL d   1      -0.937  -0.458   4.055  0.00  0.00     0.045 A 
ENDROOT
TORSDOF 0
ENDMDL
