MODEL 1
REMARK minimizedAffinity 6.4945364
REMARK minimizedRMSD -1
REMARK  0 active torsions:
REMARK  status: ('A' for Active; 'I' for Inactive)
ROOT
ATOM      1  C   UNL d   1       1.393   5.151   0.272  0.00  0.00    -0.002 A 
ATOM      2  C1  UNL d   1       1.361   4.130   1.211  0.00  0.00     0.010 A 
ATOM      3  C2  UNL d   1       1.490   2.797   0.816  0.00  0.00     0.041 A 
ATOM      4  C3  UNL d   1       1.655   2.504  -0.552  0.00  0.00    -0.075 A 
ATOM      5  S   UNL d   1       1.833   0.946  -1.268  0.00  0.00     0.015 SA
ATOM      6  C4  UNL d   1       1.957   1.599  -2.837  0.00  0.00     0.022 A 
ATOM      7  C5  UNL d   1       1.866   2.970  -2.834  0.00  0.00     0.026 A 
ATOM      8  C6  UNL d   1       1.691   3.515  -1.517  0.00  0.00    -0.082 A 
ATOM      9  C7  UNL d   1       1.557   4.856  -1.085  0.00  0.00     0.045 A 
ENDROOT
TORSDOF 0
ENDMDL
