MODEL 1
REMARK minimizedAffinity 4.24938536
REMARK minimizedRMSD -1
REMARK  0 active torsions:
REMARK  status: ('A' for Active; 'I' for Inactive)
ROOT
ATOM      1  C   UNL d   1      -1.040   3.293  -4.486  0.00  0.00    -0.002 A 
ATOM      2  C1  UNL d   1      -1.352   4.540  -3.963  0.00  0.00     0.010 A 
ATOM      3  C2  UNL d   1      -0.611   5.072  -2.905  0.00  0.00     0.041 A 
ATOM      4  C3  UNL d   1       0.459   4.323  -2.378  0.00  0.00    -0.075 A 
ATOM      5  S   UNL d   1       1.505   4.774  -1.084  0.00  0.00     0.015 SA
ATOM      6  C4  UNL d   1       2.391   3.322  -1.195  0.00  0.00     0.022 A 
ATOM      7  C5  UNL d   1       1.914   2.502  -2.190  0.00  0.00     0.026 A 
ATOM      8  C6  UNL d   1       0.793   3.066  -2.888  0.00  0.00    -0.082 A 
ATOM      9  C7  UNL d   1       0.023   2.553  -3.960  0.00  0.00     0.045 A 
ENDROOT
TORSDOF 0
ENDMDL
