MODEL 1
REMARK minimizedAffinity 4.89883995
REMARK minimizedRMSD -1
REMARK  0 active torsions:
REMARK  status: ('A' for Active; 'I' for Inactive)
ROOT
ATOM      1  N1  IND d   1      -1.985  -1.079  -3.338  0.00  0.00    -0.196 N 
ATOM      2  C2  IND d   1      -3.111  -0.514  -2.806  0.00  0.00     0.054 A 
ATOM      3  C3  IND d   1      -3.054  -0.534  -1.456  0.00  0.00    -0.031 A 
ATOM      4  C4  IND d   1      -1.165  -1.352   0.090  0.00  0.00     0.051 A 
ATOM      5  C5  IND d   1       0.047  -1.982   0.069  0.00  0.00    -0.031 A 
ATOM      6  C6  IND d   1       0.658  -2.348  -1.113  0.00  0.00     0.015 A 
ATOM      7  C7  IND d   1       0.081  -2.086  -2.324  0.00  0.00    -0.016 A 
ATOM      8  C8  IND d   1      -1.153  -1.453  -2.306  0.00  0.00    -0.047 A 
ATOM      9  C9  IND d   1      -1.798  -1.118  -1.108  0.00  0.00    -0.096 A 
ATOM     10  HN1 IND d   1      -1.824  -1.183  -4.176  0.00  0.00     0.298 HD
ENDROOT
TORSDOF 0
ENDMDL
