MODEL 1
REMARK minimizedAffinity 9.58800697
REMARK minimizedRMSD -1
REMARK  0 active torsions:
REMARK  status: ('A' for Active; 'I' for Inactive)
ROOT
ATOM      1  N1  IND d   1       3.056   1.526   2.248  0.00  0.00    -0.196 N 
ATOM      2  C2  IND d   1       2.610   2.149   1.116  0.00  0.00     0.054 A 
ATOM      3  C3  IND d   1       1.698   1.378   0.483  0.00  0.00    -0.031 A 
ATOM      4  C4  IND d   1       0.714  -0.897   1.180  0.00  0.00     0.051 A 
ATOM      5  C5  IND d   1       0.839  -1.882   2.119  0.00  0.00    -0.031 A 
ATOM      6  C6  IND d   1       1.724  -1.778   3.172  0.00  0.00     0.015 A 
ATOM      7  C7  IND d   1       2.514  -0.675   3.332  0.00  0.00    -0.016 A 
ATOM      8  C8  IND d   1       2.396   0.324   2.376  0.00  0.00    -0.047 A 
ATOM      9  C9  IND d   1       1.530   0.205   1.282  0.00  0.00    -0.096 A 
ATOM     10  HN1 IND d   1       3.650   1.834   2.789  0.00  0.00     0.298 HD
ENDROOT
TORSDOF 0
ENDMDL
