MODEL 1
REMARK minimizedAffinity 4.44929457
REMARK minimizedRMSD -1
REMARK  0 active torsions:
REMARK  status: ('A' for Active; 'I' for Inactive)
ROOT
ATOM      1  N1  IND d   1       0.782   4.909  -1.561  0.00  0.00    -0.196 N 
ATOM      2  C2  IND d   1       2.064   5.264  -1.875  0.00  0.00     0.054 A 
ATOM      3  C3  IND d   1       2.943   4.428  -1.279  0.00  0.00    -0.031 A 
ATOM      4  C4  IND d   1       2.497   2.348   0.171  0.00  0.00     0.051 A 
ATOM      5  C5  IND d   1       1.487   1.645   0.764  0.00  0.00    -0.031 A 
ATOM      6  C6  IND d   1       0.162   1.999   0.607  0.00  0.00     0.015 A 
ATOM      7  C7  IND d   1      -0.203   3.068  -0.162  0.00  0.00    -0.016 A 
ATOM      8  C8  IND d   1       0.821   3.789  -0.759  0.00  0.00    -0.047 A 
ATOM      9  C9  IND d   1       2.169   3.460  -0.569  0.00  0.00    -0.096 A 
ATOM     10  HN1 IND d   1       0.070   5.316  -1.820  0.00  0.00     0.298 HD
ENDROOT
TORSDOF 0
ENDMDL
