MODEL 1
REMARK minimizedAffinity 9.22355366
REMARK minimizedRMSD -1
REMARK  0 active torsions:
REMARK  status: ('A' for Active; 'I' for Inactive)
ROOT
ATOM      1  N1  IND d   1       0.418  -1.508   1.693  0.00  0.00    -0.196 N 
ATOM      2  C2  IND d   1      -0.800  -1.350   1.092  0.00  0.00     0.054 A 
ATOM      3  C3  IND d   1      -0.878  -0.138   0.498  0.00  0.00    -0.031 A 
ATOM      4  C4  IND d   1       0.910   1.704   0.299  0.00  0.00     0.051 A 
ATOM      5  C5  IND d   1       2.168   2.034   0.718  0.00  0.00    -0.031 A 
ATOM      6  C6  IND d   1       2.924   1.181   1.497  0.00  0.00     0.015 A 
ATOM      7  C7  IND d   1       2.452  -0.043   1.877  0.00  0.00    -0.016 A 
ATOM      8  C8  IND d   1       1.172  -0.378   1.460  0.00  0.00    -0.047 A 
ATOM      9  C9  IND d   1       0.383   0.501   0.706  0.00  0.00    -0.096 A 
ATOM     10  HN1 IND d   1       0.672  -2.197   2.140  0.00  0.00     0.298 HD
ENDROOT
TORSDOF 0
ENDMDL
