MODEL 1
REMARK minimizedAffinity 5.51827526
REMARK minimizedRMSD -1
REMARK  1 active torsions:
REMARK  status: ('A' for Active; 'I' for Inactive)
REMARK    1  A    between atoms: C1_2  and  C2_3 
ROOT
ATOM      1  C2  UNL d   1       0.067  -0.732   2.523  0.00  0.00    -0.073 A 
ATOM      2  C3  UNL d   1       0.922   0.350   2.762  0.00  0.00    -0.002 A 
ATOM      3  C4  UNL d   1       2.023   0.206   3.607  0.00  0.00     0.004 A 
ATOM      4  C5  UNL d   1       2.285  -1.021   4.216  0.00  0.00    -0.004 A 
ATOM      5  C6  UNL d   1       1.449  -2.118   3.980  0.00  0.00    -0.075 A 
ATOM      6  C7  UNL d   1       1.716  -3.444   4.629  0.00  0.00     0.076 C 
ATOM      7  C8  UNL d   1       0.344  -1.965   3.132  0.00  0.00     0.001 A 
ENDROOT
BRANCH   1   8
ATOM      8  C1  UNL d   1      -1.119  -0.583   1.606  0.00  0.00     0.053 C 
ATOM      9  C   UNL d   1      -1.923   0.670   1.913  0.00  0.00     0.018 C 
ENDBRANCH   1   8
TORSDOF 1
ENDMDL
