MODEL 1
REMARK minimizedAffinity 7.06219625
REMARK minimizedRMSD -1
REMARK  1 active torsions:
REMARK  status: ('A' for Active; 'I' for Inactive)
REMARK    1  A    between atoms: C1_2  and  C2_3 
ROOT
ATOM      1  C2  UNL d   1      -1.484  -2.642  -5.232  0.00  0.00    -0.073 A 
ATOM      2  C3  UNL d   1      -1.518  -2.622  -3.833  0.00  0.00    -0.002 A 
ATOM      3  C4  UNL d   1      -0.870  -1.609  -3.126  0.00  0.00     0.004 A 
ATOM      4  C5  UNL d   1      -0.187  -0.603  -3.810  0.00  0.00    -0.004 A 
ATOM      5  C6  UNL d   1      -0.151  -0.599  -5.208  0.00  0.00    -0.075 A 
ATOM      6  C7  UNL d   1       0.581   0.475  -5.958  0.00  0.00     0.076 C 
ATOM      7  C8  UNL d   1      -0.803  -1.622  -5.910  0.00  0.00     0.001 A 
ENDROOT
BRANCH   1   8
ATOM      8  C1  UNL d   1      -2.188  -3.731  -5.999  0.00  0.00     0.053 C 
ATOM      9  C   UNL d   1      -1.398  -5.031  -6.000  0.00  0.00     0.018 C 
ENDBRANCH   1   8
TORSDOF 1
ENDMDL
