MODEL 1
REMARK minimizedAffinity 11.3117485
REMARK minimizedRMSD -1
REMARK  1 active torsions:
REMARK  status: ('A' for Active; 'I' for Inactive)
REMARK    1  A    between atoms: C1_2  and  C2_3 
ROOT
ATOM      1  C2  UNL d   1      -0.970  -2.753  -5.106  0.00  0.00    -0.073 A 
ATOM      2  C3  UNL d   1      -1.524  -2.616  -3.828  0.00  0.00    -0.002 A 
ATOM      3  C4  UNL d   1      -1.147  -1.554  -3.006  0.00  0.00     0.004 A 
ATOM      4  C5  UNL d   1      -0.218  -0.615  -3.454  0.00  0.00    -0.004 A 
ATOM      5  C6  UNL d   1       0.339  -0.728  -4.732  0.00  0.00    -0.075 A 
ATOM      6  C7  UNL d   1       1.341   0.273  -5.229  0.00  0.00     0.076 C 
ATOM      7  C8  UNL d   1      -0.043  -1.799  -5.551  0.00  0.00     0.001 A 
ENDROOT
BRANCH   1   8
ATOM      8  C1  UNL d   1      -1.379  -3.895  -6.000  0.00  0.00     0.053 C 
ATOM      9  C   UNL d   1      -1.149  -5.245  -5.341  0.00  0.00     0.018 C 
ENDBRANCH   1   8
TORSDOF 1
ENDMDL
