MODEL 1
REMARK minimizedAffinity 15.547431
REMARK minimizedRMSD -1
REMARK  1 active torsions:
REMARK  status: ('A' for Active; 'I' for Inactive)
REMARK    1  A    between atoms: C1_2  and  C2_3 
ROOT
ATOM      1  C2  UNL d   1       3.175  -3.669   5.061  0.00  0.00    -0.073 A 
ATOM      2  C3  UNL d   1       2.998  -3.010   3.839  0.00  0.00    -0.002 A 
ATOM      3  C4  UNL d   1       1.717  -2.825   3.316  0.00  0.00     0.004 A 
ATOM      4  C5  UNL d   1       0.602  -3.291   4.012  0.00  0.00    -0.004 A 
ATOM      5  C6  UNL d   1       0.757  -3.941   5.240  0.00  0.00    -0.075 A 
ATOM      6  C7  UNL d   1      -0.433  -4.450   6.000  0.00  0.00     0.076 C 
ATOM      7  C8  UNL d   1       2.046  -4.125   5.757  0.00  0.00     0.001 A 
ENDROOT
BRANCH   1   8
ATOM      8  C1  UNL d   1       4.555  -3.865   5.632  0.00  0.00     0.053 C 
ATOM      9  C   UNL d   1       5.127  -5.230   5.285  0.00  0.00     0.018 C 
ENDBRANCH   1   8
TORSDOF 1
ENDMDL
