MODEL 1
REMARK minimizedAffinity 16.7357922
REMARK minimizedRMSD -1
REMARK  1 active torsions:
REMARK  status: ('A' for Active; 'I' for Inactive)
REMARK    1  A    between atoms: C1_2  and  C2_3 
ROOT
ATOM      1  C2  UNL d   1      -5.511   3.247  -0.350  0.00  0.00    -0.073 A 
ATOM      2  C3  UNL d   1      -4.612   2.687   0.565  0.00  0.00    -0.002 A 
ATOM      3  C4  UNL d   1      -4.170   1.374   0.405  0.00  0.00     0.004 A 
ATOM      4  C5  UNL d   1      -4.615   0.609  -0.673  0.00  0.00    -0.004 A 
ATOM      5  C6  UNL d   1      -5.505   1.154  -1.605  0.00  0.00    -0.075 A 
ATOM      6  C7  UNL d   1      -5.995   0.344  -2.769  0.00  0.00     0.076 C 
ATOM      7  C8  UNL d   1      -5.947   2.473  -1.436  0.00  0.00     0.001 A 
ENDROOT
BRANCH   1   8
ATOM      8  C1  UNL d   1      -5.987   4.667  -0.186  0.00  0.00     0.053 C 
ATOM      9  C   UNL d   1      -5.991   5.423  -1.505  0.00  0.00     0.018 C 
ENDBRANCH   1   8
TORSDOF 1
ENDMDL
