MODEL 1
REMARK minimizedAffinity 5.42853928
REMARK minimizedRMSD -1
REMARK  1 active torsions:
REMARK  status: ('A' for Active; 'I' for Inactive)
REMARK    1  A    between atoms: C1_2  and  C2_3 
ROOT
ATOM      1  C2  UNL d   1       3.265  -3.379   4.872  0.00  0.00    -0.073 A 
ATOM      2  C3  UNL d   1       3.986  -2.199   5.090  0.00  0.00    -0.002 A 
ATOM      3  C4  UNL d   1       5.346  -2.250   5.398  0.00  0.00     0.004 A 
ATOM      4  C5  UNL d   1       6.000  -3.479   5.485  0.00  0.00    -0.004 A 
ATOM      5  C6  UNL d   1       5.300  -4.668   5.258  0.00  0.00    -0.075 A 
ATOM      6  C7  UNL d   1       5.989  -5.998   5.350  0.00  0.00     0.076 C 
ATOM      7  C8  UNL d   1       3.934  -4.609   4.952  0.00  0.00     0.001 A 
ENDROOT
BRANCH   1   8
ATOM      8  C1  UNL d   1       1.798  -3.328   4.532  0.00  0.00     0.053 C 
ATOM      9  C   UNL d   1       1.544  -2.630   3.206  0.00  0.00     0.018 C 
ENDBRANCH   1   8
TORSDOF 1
ENDMDL
