MODEL 1
REMARK minimizedAffinity 9.71609974
REMARK minimizedRMSD -1
REMARK  1 active torsions:
REMARK  status: ('A' for Active; 'I' for Inactive)
REMARK    1  A    between atoms: C1_2  and  C2_3 
ROOT
ATOM      1  C2  UNL d   1      -0.006  -2.762   3.126  0.00  0.00    -0.073 A 
ATOM      2  C3  UNL d   1       1.386  -2.899   3.113  0.00  0.00    -0.002 A 
ATOM      3  C4  UNL d   1       2.021  -3.736   4.032  0.00  0.00     0.004 A 
ATOM      4  C5  UNL d   1       1.270  -4.448   4.967  0.00  0.00    -0.004 A 
ATOM      5  C6  UNL d   1      -0.123  -4.334   4.988  0.00  0.00    -0.075 A 
ATOM      6  C7  UNL d   1      -0.945  -5.091   5.989  0.00  0.00     0.076 C 
ATOM      7  C8  UNL d   1      -0.753  -3.489   4.064  0.00  0.00     0.001 A 
ENDROOT
BRANCH   1   8
ATOM      8  C1  UNL d   1      -0.696  -1.865   2.131  0.00  0.00     0.053 C 
ATOM      9  C   UNL d   1      -2.165  -2.221   1.964  0.00  0.00     0.018 C 
ENDBRANCH   1   8
TORSDOF 1
ENDMDL
