MODEL 1
REMARK minimizedAffinity -2.24328089
REMARK minimizedRMSD -1
REMARK  0 active torsions:
REMARK  status: ('A' for Active; 'I' for Inactive)
ROOT
ATOM      1  N1  IND d   1       0.841   2.221  -4.791  0.00  0.00    -0.196 N 
ATOM      2  C2  IND d   1      -0.292   2.584  -4.117  0.00  0.00     0.054 A 
ATOM      3  C3  IND d   1      -0.010   2.815  -2.815  0.00  0.00    -0.031 A 
ATOM      4  C4  IND d   1       2.257   2.757  -1.597  0.00  0.00     0.051 A 
ATOM      5  C5  IND d   1       3.574   2.443  -1.786  0.00  0.00    -0.031 A 
ATOM      6  C6  IND d   1       4.057   2.032  -3.011  0.00  0.00     0.015 A 
ATOM      7  C7  IND d   1       3.240   1.932  -4.102  0.00  0.00    -0.016 A 
ATOM      8  C8  IND d   1       1.901   2.244  -3.912  0.00  0.00    -0.047 A 
ATOM      9  C9  IND d   1       1.397   2.620  -2.660  0.00  0.00    -0.096 A 
ATOM     10  HN1 IND d   1       0.883   2.014  -5.625  0.00  0.00     0.298 HD
ENDROOT
TORSDOF 0
ENDMDL
