MODEL 1
REMARK minimizedAffinity -3.16453552
REMARK minimizedRMSD -1
REMARK  0 active torsions:
REMARK  status: ('A' for Active; 'I' for Inactive)
ROOT
ATOM      1  N1  IND d   1       1.978   1.785   0.072  0.00  0.00    -0.196 N 
ATOM      2  C2  IND d   1       0.659   1.501   0.293  0.00  0.00     0.054 A 
ATOM      3  C3  IND d   1      -0.056   1.676  -0.841  0.00  0.00    -0.031 A 
ATOM      4  C4  IND d   1       0.748   2.326  -3.198  0.00  0.00     0.051 A 
ATOM      5  C5  IND d   1       1.861   2.721  -3.886  0.00  0.00    -0.031 A 
ATOM      6  C6  IND d   1       3.096   2.823  -3.278  0.00  0.00     0.015 A 
ATOM      7  C7  IND d   1       3.266   2.522  -1.956  0.00  0.00    -0.016 A 
ATOM      8  C8  IND d   1       2.136   2.128  -1.253  0.00  0.00    -0.047 A 
ATOM      9  C9  IND d   1       0.873   2.063  -1.855  0.00  0.00    -0.096 A 
ATOM     10  HN1 IND d   1       2.603   1.754   0.661  0.00  0.00     0.298 HD
ENDROOT
TORSDOF 0
ENDMDL
