MODEL 1
REMARK minimizedAffinity -1.34976041
REMARK minimizedRMSD -1
REMARK  0 active torsions:
REMARK  status: ('A' for Active; 'I' for Inactive)
ROOT
ATOM      1  N1  IND d   1      -0.032  -2.689   1.044  0.00  0.00    -0.196 N 
ATOM      2  C2  IND d   1      -1.332  -3.056   1.253  0.00  0.00     0.054 A 
ATOM      3  C3  IND d   1      -2.165  -2.044   0.920  0.00  0.00    -0.031 A 
ATOM      4  C4  IND d   1      -1.619   0.263  -0.082  0.00  0.00     0.051 A 
ATOM      5  C5  IND d   1      -0.568   1.070  -0.419  0.00  0.00    -0.031 A 
ATOM      6  C6  IND d   1       0.741   0.656  -0.284  0.00  0.00     0.015 A 
ATOM      7  C7  IND d   1       1.050  -0.591   0.182  0.00  0.00    -0.016 A 
ATOM      8  C8  IND d   1      -0.014  -1.410   0.531  0.00  0.00    -0.047 A 
ATOM      9  C9  IND d   1      -1.344  -0.980   0.438  0.00  0.00    -0.096 A 
ATOM     10  HN1 IND d   1       0.659  -3.175   1.205  0.00  0.00     0.298 HD
ENDROOT
TORSDOF 0
ENDMDL
