MODEL 1
REMARK minimizedAffinity 0.749555111
REMARK minimizedRMSD -1
REMARK  0 active torsions:
REMARK  status: ('A' for Active; 'I' for Inactive)
ROOT
ATOM      1  N1  IND d   1       0.193   1.808   0.124  0.00  0.00    -0.196 N 
ATOM      2  C2  IND d   1      -0.726   0.835  -0.158  0.00  0.00     0.054 A 
ATOM      3  C3  IND d   1      -0.174  -0.390  -0.009  0.00  0.00    -0.031 A 
ATOM      4  C4  IND d   1       2.188  -1.035   0.786  0.00  0.00     0.051 A 
ATOM      5  C5  IND d   1       3.396  -0.493   1.125  0.00  0.00    -0.031 A 
ATOM      6  C6  IND d   1       3.601   0.872   1.151  0.00  0.00     0.015 A 
ATOM      7  C7  IND d   1       2.598   1.749   0.849  0.00  0.00    -0.016 A 
ATOM      8  C8  IND d   1       1.372   1.202   0.497  0.00  0.00    -0.047 A 
ATOM      9  C9  IND d   1       1.170  -0.183   0.428  0.00  0.00    -0.096 A 
ATOM     10  HN1 IND d   1       0.056   2.655   0.077  0.00  0.00     0.298 HD
ENDROOT
TORSDOF 0
ENDMDL
