MODEL 1
REMARK minimizedAffinity -0.274539649
REMARK minimizedRMSD -1
REMARK  0 active torsions:
REMARK  status: ('A' for Active; 'I' for Inactive)
ROOT
ATOM      1  N1  IND d   1       1.014   1.875   0.348  0.00  0.00    -0.196 N 
ATOM      2  C2  IND d   1       0.180   0.829   0.065  0.00  0.00     0.054 A 
ATOM      3  C3  IND d   1       0.727  -0.335   0.480  0.00  0.00    -0.031 A 
ATOM      4  C4  IND d   1       2.934  -0.747   1.740  0.00  0.00     0.051 A 
ATOM      5  C5  IND d   1       4.054  -0.105   2.190  0.00  0.00    -0.031 A 
ATOM      6  C6  IND d   1       4.219   1.258   2.049  0.00  0.00     0.015 A 
ATOM      7  C7  IND d   1       3.262   2.034   1.459  0.00  0.00    -0.016 A 
ATOM      8  C8  IND d   1       2.127   1.385   0.995  0.00  0.00    -0.047 A 
ATOM      9  C9  IND d   1       1.972  -0.004   1.097  0.00  0.00    -0.096 A 
ATOM     10  HN1 IND d   1       0.868   2.700   0.155  0.00  0.00     0.298 HD
ENDROOT
TORSDOF 0
ENDMDL
