MODEL 1
REMARK minimizedAffinity -2.36143255
REMARK minimizedRMSD -1
REMARK  0 active torsions:
REMARK  status: ('A' for Active; 'I' for Inactive)
ROOT
ATOM      1  N1  IND d   1       1.628  -0.171   0.656  0.00  0.00    -0.196 N 
ATOM      2  C2  IND d   1       1.407   0.866  -0.207  0.00  0.00     0.054 A 
ATOM      3  C3  IND d   1       0.144   0.817  -0.687  0.00  0.00    -0.031 A 
ATOM      4  C4  IND d   1      -1.761  -0.817  -0.115  0.00  0.00     0.051 A 
ATOM      5  C5  IND d   1      -2.028  -1.955   0.594  0.00  0.00    -0.031 A 
ATOM      6  C6  IND d   1      -1.071  -2.566   1.379  0.00  0.00     0.015 A 
ATOM      7  C7  IND d   1       0.191  -2.055   1.492  0.00  0.00    -0.016 A 
ATOM      8  C8  IND d   1       0.467  -0.904   0.768  0.00  0.00    -0.047 A 
ATOM      9  C9  IND d   1      -0.487  -0.303  -0.063  0.00  0.00    -0.096 A 
ATOM     10  HN1 IND d   1       2.368  -0.337   1.062  0.00  0.00     0.298 HD
ENDROOT
TORSDOF 0
ENDMDL
