MODEL 1
REMARK minimizedAffinity 3.81972837
REMARK minimizedRMSD -1
REMARK  0 active torsions:
REMARK  status: ('A' for Active; 'I' for Inactive)
ROOT
ATOM      1  N1  IND d   1       4.894   1.678   3.494  0.00  0.00    -0.196 N 
ATOM      2  C2  IND d   1       4.691   0.425   2.986  0.00  0.00     0.054 A 
ATOM      3  C3  IND d   1       4.074   0.499   1.785  0.00  0.00    -0.031 A 
ATOM      4  C4  IND d   1       3.398   2.574   0.419  0.00  0.00     0.051 A 
ATOM      5  C5  IND d   1       3.346   3.938   0.486  0.00  0.00    -0.031 A 
ATOM      6  C6  IND d   1       3.820   4.632   1.580  0.00  0.00     0.015 A 
ATOM      7  C7  IND d   1       4.376   3.986   2.648  0.00  0.00    -0.016 A 
ATOM      8  C8  IND d   1       4.424   2.601   2.586  0.00  0.00    -0.047 A 
ATOM      9  C9  IND d   1       3.906   1.888   1.497  0.00  0.00    -0.096 A 
ATOM     10  HN1 IND d   1       5.255   1.858   4.253  0.00  0.00     0.298 HD
ENDROOT
TORSDOF 0
ENDMDL
