MODEL 1
REMARK minimizedAffinity -2.82750726
REMARK minimizedRMSD -1
REMARK  0 active torsions:
REMARK  status: ('A' for Active; 'I' for Inactive)
ROOT
ATOM      1  N1  IND d   1       0.918   1.368   0.565  0.00  0.00    -0.196 N 
ATOM      2  C2  IND d   1       1.895   0.436   0.350  0.00  0.00     0.054 A 
ATOM      3  C3  IND d   1       1.353  -0.798   0.248  0.00  0.00    -0.031 A 
ATOM      4  C4  IND d   1      -1.121  -1.508   0.301  0.00  0.00     0.051 A 
ATOM      5  C5  IND d   1      -2.379  -1.016   0.510  0.00  0.00    -0.031 A 
ATOM      6  C6  IND d   1      -2.607   0.323   0.750  0.00  0.00     0.015 A 
ATOM      7  C7  IND d   1      -1.582   1.226   0.779  0.00  0.00    -0.016 A 
ATOM      8  C8  IND d   1      -0.303   0.729   0.574  0.00  0.00    -0.047 A 
ATOM      9  C9  IND d   1      -0.061  -0.636   0.372  0.00  0.00    -0.096 A 
ATOM     10  HN1 IND d   1       1.044   2.211   0.675  0.00  0.00     0.298 HD
ENDROOT
TORSDOF 0
ENDMDL
