MODEL 1
REMARK minimizedAffinity 6.16781092
REMARK minimizedRMSD -1
REMARK  0 active torsions:
REMARK  status: ('A' for Active; 'I' for Inactive)
ROOT
ATOM      1  N1  IND d   1       0.202   1.281  -1.794  0.00  0.00    -0.196 N 
ATOM      2  C2  IND d   1       0.359   0.378  -2.808  0.00  0.00     0.054 A 
ATOM      3  C3  IND d   1      -0.276  -0.778  -2.511  0.00  0.00    -0.031 A 
ATOM      4  C4  IND d   1      -1.718  -1.373  -0.463  0.00  0.00     0.051 A 
ATOM      5  C5  IND d   1      -2.122  -0.884   0.748  0.00  0.00    -0.031 A 
ATOM      6  C6  IND d   1      -1.768   0.377   1.181  0.00  0.00     0.015 A 
ATOM      7  C7  IND d   1      -1.002   1.205   0.411  0.00  0.00    -0.016 A 
ATOM      8  C8  IND d   1      -0.583   0.710  -0.816  0.00  0.00    -0.047 A 
ATOM      9  C9  IND d   1      -0.904  -0.585  -1.242  0.00  0.00    -0.096 A 
ATOM     10  HN1 IND d   1       0.537   2.073  -1.770  0.00  0.00     0.298 HD
ENDROOT
TORSDOF 0
ENDMDL
