MODEL 1
REMARK minimizedAffinity -2.59884214
REMARK minimizedRMSD -1
REMARK  0 active torsions:
REMARK  status: ('A' for Active; 'I' for Inactive)
ROOT
ATOM      1  N1  IND d   1      -0.192  -2.345   1.452  0.00  0.00    -0.196 N 
ATOM      2  C2  IND d   1      -1.532  -2.606   1.374  0.00  0.00     0.054 A 
ATOM      3  C3  IND d   1      -2.175  -1.587   0.762  0.00  0.00    -0.031 A 
ATOM      4  C4  IND d   1      -1.214   0.560  -0.284  0.00  0.00     0.051 A 
ATOM      5  C5  IND d   1      -0.049   1.259  -0.429  0.00  0.00    -0.031 A 
ATOM      6  C6  IND d   1       1.153   0.782   0.053  0.00  0.00     0.015 A 
ATOM      7  C7  IND d   1       1.236  -0.423   0.690  0.00  0.00    -0.016 A 
ATOM      8  C8  IND d   1       0.054  -1.133   0.846  0.00  0.00    -0.047 A 
ATOM      9  C9  IND d   1      -1.176  -0.634   0.397  0.00  0.00    -0.096 A 
ATOM     10  HN1 IND d   1       0.398  -2.853   1.818  0.00  0.00     0.298 HD
ENDROOT
TORSDOF 0
ENDMDL
