MODEL 1
REMARK minimizedAffinity -1.65280414
REMARK minimizedRMSD -1
REMARK  0 active torsions:
REMARK  status: ('A' for Active; 'I' for Inactive)
ROOT
ATOM      1  N1  IND d   1       3.226  -0.548   1.771  0.00  0.00    -0.196 N 
ATOM      2  C2  IND d   1       3.853   0.667   1.778  0.00  0.00     0.054 A 
ATOM      3  C3  IND d   1       3.143   1.566   1.060  0.00  0.00    -0.031 A 
ATOM      4  C4  IND d   1       0.874   1.289  -0.125  0.00  0.00     0.051 A 
ATOM      5  C5  IND d   1      -0.069   0.352  -0.439  0.00  0.00    -0.031 A 
ATOM      6  C6  IND d   1       0.038  -0.959  -0.022  0.00  0.00     0.015 A 
ATOM      7  C7  IND d   1       1.092  -1.381   0.738  0.00  0.00    -0.016 A 
ATOM      8  C8  IND d   1       2.056  -0.434   1.053  0.00  0.00    -0.047 A 
ATOM      9  C9  IND d   1       1.974   0.888   0.597  0.00  0.00    -0.096 A 
ATOM     10  HN1 IND d   1       3.514  -1.263   2.152  0.00  0.00     0.298 HD
ENDROOT
TORSDOF 0
ENDMDL
