MODEL 1
REMARK minimizedAffinity -3.65074182
REMARK minimizedRMSD -1
REMARK  0 active torsions:
REMARK  status: ('A' for Active; 'I' for Inactive)
ROOT
ATOM      1  N1  IND d   1       0.674   0.613   0.448  0.00  0.00    -0.196 N 
ATOM      2  C2  IND d   1      -0.319   1.316  -0.174  0.00  0.00     0.054 A 
ATOM      3  C3  IND d   1      -1.437   0.562  -0.276  0.00  0.00    -0.031 A 
ATOM      4  C4  IND d   1      -1.891  -1.815   0.601  0.00  0.00     0.051 A 
ATOM      5  C5  IND d   1      -1.276  -2.877   1.204  0.00  0.00    -0.031 A 
ATOM      6  C6  IND d   1       0.046  -2.827   1.596  0.00  0.00     0.015 A 
ATOM      7  C7  IND d   1       0.803  -1.705   1.409  0.00  0.00    -0.016 A 
ATOM      8  C8  IND d   1       0.184  -0.628   0.791  0.00  0.00    -0.047 A 
ATOM      9  C9  IND d   1      -1.145  -0.687   0.353  0.00  0.00    -0.096 A 
ATOM     10  HN1 IND d   1       1.471   0.898   0.600  0.00  0.00     0.298 HD
ENDROOT
TORSDOF 0
ENDMDL
