MODEL 1
REMARK minimizedAffinity -3.71988058
REMARK minimizedRMSD -1
REMARK  0 active torsions:
REMARK  status: ('A' for Active; 'I' for Inactive)
ROOT
ATOM      1  N1  IND d   1       1.171  -0.185   0.752  0.00  0.00    -0.196 N 
ATOM      2  C2  IND d   1       0.946   0.790  -0.179  0.00  0.00     0.054 A 
ATOM      3  C3  IND d   1      -0.298   0.670  -0.695  0.00  0.00    -0.031 A 
ATOM      4  C4  IND d   1      -2.168  -0.992  -0.086  0.00  0.00     0.051 A 
ATOM      5  C5  IND d   1      -2.422  -2.093   0.682  0.00  0.00    -0.031 A 
ATOM      6  C6  IND d   1      -1.473  -2.624   1.532  0.00  0.00     0.015 A 
ATOM      7  C7  IND d   1      -0.233  -2.064   1.654  0.00  0.00    -0.016 A 
ATOM      8  C8  IND d   1       0.031  -0.949   0.871  0.00  0.00    -0.047 A 
ATOM      9  C9  IND d   1      -0.914  -0.431  -0.025  0.00  0.00    -0.096 A 
ATOM     10  HN1 IND d   1       1.901  -0.302   1.190  0.00  0.00     0.298 HD
ENDROOT
TORSDOF 0
ENDMDL
