MODEL 1
REMARK minimizedAffinity -5.08968496
REMARK minimizedRMSD -1
REMARK  0 active torsions:
REMARK  status: ('A' for Active; 'I' for Inactive)
ROOT
ATOM      1  N1  IND d   1       1.545   0.823   0.826  0.00  0.00    -0.196 N 
ATOM      2  C2  IND d   1       2.421  -0.220   0.942  0.00  0.00     0.054 A 
ATOM      3  C3  IND d   1       1.752  -1.395   0.969  0.00  0.00    -0.031 A 
ATOM      4  C4  IND d   1      -0.771  -1.846   0.735  0.00  0.00     0.051 A 
ATOM      5  C5  IND d   1      -1.976  -1.206   0.645  0.00  0.00    -0.031 A 
ATOM      6  C6  IND d   1      -2.070   0.170   0.607  0.00  0.00     0.015 A 
ATOM      7  C7  IND d   1      -0.957   0.961   0.647  0.00  0.00    -0.016 A 
ATOM      8  C8  IND d   1       0.267   0.316   0.746  0.00  0.00    -0.047 A 
ATOM      9  C9  IND d   1       0.366  -1.079   0.827  0.00  0.00    -0.096 A 
ATOM     10  HN1 IND d   1       1.757   1.656   0.808  0.00  0.00     0.298 HD
ENDROOT
TORSDOF 0
ENDMDL
