MODEL 1
REMARK minimizedAffinity -0.82660532
REMARK minimizedRMSD -1
REMARK  0 active torsions:
REMARK  status: ('A' for Active; 'I' for Inactive)
ROOT
ATOM      1  N1  IND d   1       0.247   1.444   0.297  0.00  0.00    -0.196 N 
ATOM      2  C2  IND d   1       1.503   0.905   0.266  0.00  0.00     0.054 A 
ATOM      3  C3  IND d   1       1.438  -0.443   0.340  0.00  0.00    -0.031 A 
ATOM      4  C4  IND d   1      -0.627  -1.979   0.416  0.00  0.00     0.051 A 
ATOM      5  C5  IND d   1      -1.990  -1.947   0.501  0.00  0.00    -0.031 A 
ATOM      6  C6  IND d   1      -2.692  -0.759   0.520  0.00  0.00     0.015 A 
ATOM      7  C7  IND d   1      -2.054   0.446   0.443  0.00  0.00    -0.016 A 
ATOM      8  C8  IND d   1      -0.669   0.418   0.363  0.00  0.00    -0.047 A 
ATOM      9  C9  IND d   1       0.051  -0.783   0.387  0.00  0.00    -0.096 A 
ATOM     10  HN1 IND d   1       0.061   2.284   0.278  0.00  0.00     0.298 HD
ENDROOT
TORSDOF 0
ENDMDL
