MODEL 1
REMARK minimizedAffinity 6.10408926
REMARK minimizedRMSD -1
REMARK  0 active torsions:
REMARK  status: ('A' for Active; 'I' for Inactive)
ROOT
ATOM      1  C1  DEN d   1       1.304  -1.198   3.208  0.00  0.00     0.130 A 
ATOM      2  C2  DEN d   1       2.463  -1.981   3.631  0.00  0.00    -0.031 A 
ATOM      3  C3  DEN d   1       2.573  -3.152   2.739  0.00  0.00     0.027 A 
ATOM      4  C4  DEN d   1       1.073  -3.825   0.751  0.00  0.00     0.027 A 
ATOM      5  C5  DEN d   1      -0.040  -3.478   0.018  0.00  0.00    -0.003 A 
ATOM      6  C6  DEN d   1      -0.797  -2.376   0.314  0.00  0.00     0.001 A 
ATOM      7  C7  DEN d   1      -0.423  -1.554   1.345  0.00  0.00     0.017 A 
ATOM      8  C8  DEN d   1       0.693  -1.901   2.094  0.00  0.00    -0.094 A 
ATOM      9  C9  DEN d   1       1.452  -3.013   1.771  0.00  0.00    -0.072 A 
ENDROOT
TORSDOF 0
ENDMDL
