MODEL 1
REMARK minimizedAffinity 16.7581329
REMARK minimizedRMSD -1
REMARK  0 active torsions:
REMARK  status: ('A' for Active; 'I' for Inactive)
ROOT
ATOM      1  C1  DEN d   1       1.113  -0.341   2.475  0.00  0.00     0.130 A 
ATOM      2  C2  DEN d   1       2.463  -0.895   2.516  0.00  0.00    -0.031 A 
ATOM      3  C3  DEN d   1       2.613  -1.818   1.373  0.00  0.00     0.027 A 
ATOM      4  C4  DEN d   1       0.897  -2.434  -0.451  0.00  0.00     0.027 A 
ATOM      5  C5  DEN d   1      -0.389  -2.226  -0.898  0.00  0.00    -0.003 A 
ATOM      6  C6  DEN d   1      -1.268  -1.408  -0.239  0.00  0.00     0.001 A 
ATOM      7  C7  DEN d   1      -0.858  -0.732   0.880  0.00  0.00     0.017 A 
ATOM      8  C8  DEN d   1       0.435  -0.943   1.341  0.00  0.00    -0.094 A 
ATOM      9  C9  DEN d   1       1.312  -1.764   0.654  0.00  0.00    -0.072 A 
ENDROOT
TORSDOF 0
ENDMDL
