MODEL 1
REMARK minimizedAffinity 10.8158979
REMARK minimizedRMSD -1
REMARK  0 active torsions:
REMARK  status: ('A' for Active; 'I' for Inactive)
ROOT
ATOM      1  C1  DEN d   1       2.666  -1.274   1.292  0.00  0.00     0.130 A 
ATOM      2  C2  DEN d   1       2.594  -0.438   2.488  0.00  0.00    -0.031 A 
ATOM      3  C3  DEN d   1       1.255   0.183   2.530  0.00  0.00     0.027 A 
ATOM      4  C4  DEN d   1      -0.705  -0.070   0.873  0.00  0.00     0.027 A 
ATOM      5  C5  DEN d   1      -1.113  -0.665  -0.300  0.00  0.00    -0.003 A 
ATOM      6  C6  DEN d   1      -0.286  -1.471  -1.037  0.00  0.00     0.001 A 
ATOM      7  C7  DEN d   1       0.979  -1.740  -0.584  0.00  0.00     0.017 A 
ATOM      8  C8  DEN d   1       1.400  -1.138   0.595  0.00  0.00    -0.094 A 
ATOM      9  C9  DEN d   1       0.544  -0.337   1.331  0.00  0.00    -0.072 A 
ENDROOT
TORSDOF 0
ENDMDL
