MODEL 1
REMARK minimizedAffinity 3.03026009
REMARK minimizedRMSD -1
REMARK  0 active torsions:
REMARK  status: ('A' for Active; 'I' for Inactive)
ROOT
ATOM      1  C1  DEN d   1       5.878  -1.527   4.555  0.00  0.00     0.130 A 
ATOM      2  C2  DEN d   1       5.998  -2.428   5.698  0.00  0.00    -0.031 A 
ATOM      3  C3  DEN d   1       4.677  -3.041   5.938  0.00  0.00     0.027 A 
ATOM      4  C4  DEN d   1       2.467  -2.687   4.654  0.00  0.00     0.027 A 
ATOM      5  C5  DEN d   1       1.868  -2.008   3.617  0.00  0.00    -0.003 A 
ATOM      6  C6  DEN d   1       2.550  -1.103   2.847  0.00  0.00     0.001 A 
ATOM      7  C7  DEN d   1       3.883  -0.885   3.075  0.00  0.00     0.017 A 
ATOM      8  C8  DEN d   1       4.492  -1.561   4.124  0.00  0.00    -0.094 A 
ATOM      9  C9  DEN d   1       3.789  -2.481   4.883  0.00  0.00    -0.072 A 
ENDROOT
TORSDOF 0
ENDMDL
