MODEL 1
REMARK minimizedAffinity -2.42525029
REMARK minimizedRMSD -1
REMARK  0 active torsions:
REMARK  status: ('A' for Active; 'I' for Inactive)
ROOT
ATOM      1  C1  DEN d   1       4.619  -2.683   6.000  0.00  0.00     0.130 A 
ATOM      2  C2  DEN d   1       6.000  -2.443   5.589  0.00  0.00    -0.031 A 
ATOM      3  C3  DEN d   1       5.974  -1.760   4.280  0.00  0.00     0.027 A 
ATOM      4  C4  DEN d   1       3.942  -1.049   2.860  0.00  0.00     0.027 A 
ATOM      5  C5  DEN d   1       2.567  -1.049   2.790  0.00  0.00    -0.003 A 
ATOM      6  C6  DEN d   1       1.786  -1.620   3.760  0.00  0.00     0.001 A 
ATOM      7  C7  DEN d   1       2.375  -2.174   4.866  0.00  0.00     0.017 A 
ATOM      8  C8  DEN d   1       3.761  -2.184   4.940  0.00  0.00    -0.094 A 
ATOM      9  C9  DEN d   1       4.533  -1.591   3.955  0.00  0.00    -0.072 A 
ENDROOT
TORSDOF 0
ENDMDL
