MODEL 1
REMARK minimizedAffinity 2.13304663
REMARK minimizedRMSD -1
REMARK  0 active torsions:
REMARK  status: ('A' for Active; 'I' for Inactive)
ROOT
ATOM      1  C1  DEN d   1       4.647  -2.799   5.889  0.00  0.00     0.130 A 
ATOM      2  C2  DEN d   1       5.999  -2.406   5.502  0.00  0.00    -0.031 A 
ATOM      3  C3  DEN d   1       5.912  -1.669   4.225  0.00  0.00     0.027 A 
ATOM      4  C4  DEN d   1       3.826  -1.099   2.820  0.00  0.00     0.027 A 
ATOM      5  C5  DEN d   1       2.457  -1.232   2.737  0.00  0.00    -0.003 A 
ATOM      6  C6  DEN d   1       1.733  -1.921   3.673  0.00  0.00     0.001 A 
ATOM      7  C7  DEN d   1       2.368  -2.464   4.758  0.00  0.00     0.017 A 
ATOM      8  C8  DEN d   1       3.749  -2.340   4.845  0.00  0.00    -0.094 A 
ATOM      9  C9  DEN d   1       4.462  -1.630   3.894  0.00  0.00    -0.072 A 
ENDROOT
TORSDOF 0
ENDMDL
