MODEL 1
REMARK minimizedAffinity 2.8828845
REMARK minimizedRMSD -1
REMARK  0 active torsions:
REMARK  status: ('A' for Active; 'I' for Inactive)
ROOT
ATOM      1  C1  DEN d   1       4.692  -2.457   5.088  0.00  0.00     0.130 A 
ATOM      2  C2  DEN d   1       6.000  -1.967   4.662  0.00  0.00    -0.031 A 
ATOM      3  C3  DEN d   1       5.804  -1.124   3.465  0.00  0.00     0.027 A 
ATOM      4  C4  DEN d   1       3.614  -0.530   2.240  0.00  0.00     0.027 A 
ATOM      5  C5  DEN d   1       2.250  -0.720   2.224  0.00  0.00    -0.003 A 
ATOM      6  C6  DEN d   1       1.613  -1.523   3.133  0.00  0.00     0.001 A 
ATOM      7  C7  DEN d   1       2.336  -2.130   4.126  0.00  0.00     0.017 A 
ATOM      8  C8  DEN d   1       3.713  -1.949   4.144  0.00  0.00    -0.094 A 
ATOM      9  C9  DEN d   1       4.336  -1.124   3.223  0.00  0.00    -0.072 A 
ENDROOT
TORSDOF 0
ENDMDL
