MODEL 1
REMARK minimizedAffinity 9.81327152
REMARK minimizedRMSD -1
REMARK  0 active torsions:
REMARK  status: ('A' for Active; 'I' for Inactive)
ROOT
ATOM      1  C1  DEN d   1       2.324  -2.060   3.038  0.00  0.00     0.130 A 
ATOM      2  C2  DEN d   1       2.353  -2.734   4.333  0.00  0.00    -0.031 A 
ATOM      3  C3  DEN d   1       2.379  -1.700   5.386  0.00  0.00     0.027 A 
ATOM      4  C4  DEN d   1       2.373   0.868   5.139  0.00  0.00     0.027 A 
ATOM      5  C5  DEN d   1       2.364   1.909   4.237  0.00  0.00    -0.003 A 
ATOM      6  C6  DEN d   1       2.376   1.702   2.883  0.00  0.00     0.001 A 
ATOM      7  C7  DEN d   1       2.351   0.423   2.392  0.00  0.00     0.017 A 
ATOM      8  C8  DEN d   1       2.367  -0.631   3.295  0.00  0.00    -0.094 A 
ATOM      9  C9  DEN d   1       2.343  -0.402   4.660  0.00  0.00    -0.072 A 
ENDROOT
TORSDOF 0
ENDMDL
