MODEL 1
REMARK minimizedAffinity -1.70364606
REMARK minimizedRMSD -1
REMARK  0 active torsions:
REMARK  status: ('A' for Active; 'I' for Inactive)
ROOT
ATOM      1  C1  DEN d   1       1.992  -1.262   4.534  0.00  0.00     0.130 A 
ATOM      2  C2  DEN d   1       1.885  -0.987   3.103  0.00  0.00    -0.031 A 
ATOM      3  C3  DEN d   1       3.206  -1.234   2.491  0.00  0.00     0.027 A 
ATOM      4  C4  DEN d   1       5.393  -2.015   3.612  0.00  0.00     0.027 A 
ATOM      5  C5  DEN d   1       5.978  -2.365   4.808  0.00  0.00    -0.003 A 
ATOM      6  C6  DEN d   1       5.291  -2.340   5.992  0.00  0.00     0.001 A 
ATOM      7  C7  DEN d   1       3.964  -2.000   6.000  0.00  0.00     0.017 A 
ATOM      8  C8  DEN d   1       3.369  -1.638   4.798  0.00  0.00    -0.094 A 
ATOM      9  C9  DEN d   1       4.078  -1.681   3.610  0.00  0.00    -0.072 A 
ENDROOT
TORSDOF 0
ENDMDL
