MODEL 1
REMARK minimizedAffinity 2.42601037
REMARK minimizedRMSD -1
REMARK  0 active torsions:
REMARK  status: ('A' for Active; 'I' for Inactive)
ROOT
ATOM      1  C1  DEN d   1       4.656  -2.814   5.991  0.00  0.00     0.130 A 
ATOM      2  C2  DEN d   1       6.000  -2.918   5.429  0.00  0.00    -0.031 A 
ATOM      3  C3  DEN d   1       5.936  -2.503   4.013  0.00  0.00     0.027 A 
ATOM      4  C4  DEN d   1       3.899  -1.707   2.646  0.00  0.00     0.027 A 
ATOM      5  C5  DEN d   1       2.544  -1.465   2.688  0.00  0.00    -0.003 A 
ATOM      6  C6  DEN d   1       1.798  -1.685   3.816  0.00  0.00     0.001 A 
ATOM      7  C7  DEN d   1       2.411  -2.120   4.961  0.00  0.00     0.017 A 
ATOM      8  C8  DEN d   1       3.775  -2.374   4.924  0.00  0.00    -0.094 A 
ATOM      9  C9  DEN d   1       4.514  -2.133   3.778  0.00  0.00    -0.072 A 
ENDROOT
TORSDOF 0
ENDMDL
