MODEL 1
REMARK minimizedAffinity 12.0585918
REMARK minimizedRMSD -1
REMARK  0 active torsions:
REMARK  status: ('A' for Active; 'I' for Inactive)
ROOT
ATOM      1  C1  DEN d   1       0.079   3.517   1.506  0.00  0.00     0.130 A 
ATOM      2  C2  DEN d   1       0.214   3.546   0.052  0.00  0.00    -0.031 A 
ATOM      3  C3  DEN d   1       1.524   2.961  -0.297  0.00  0.00     0.027 A 
ATOM      4  C4  DEN d   1       3.345   2.014   1.265  0.00  0.00     0.027 A 
ATOM      5  C5  DEN d   1       3.688   1.784   2.579  0.00  0.00    -0.003 A 
ATOM      6  C6  DEN d   1       2.874   2.144   3.621  0.00  0.00     0.001 A 
ATOM      7  C7  DEN d   1       1.655   2.713   3.363  0.00  0.00     0.017 A 
ATOM      8  C8  DEN d   1       1.305   2.954   2.041  0.00  0.00    -0.094 A 
ATOM      9  C9  DEN d   1       2.136   2.572   1.002  0.00  0.00    -0.072 A 
ENDROOT
TORSDOF 0
ENDMDL
