MODEL 1
REMARK minimizedAffinity 14.4142962
REMARK minimizedRMSD -1
REMARK  0 active torsions:
REMARK  status: ('A' for Active; 'I' for Inactive)
ROOT
ATOM      1  C4' PXY d   1      -3.263   1.244  -0.722  0.00  0.00     0.077 C 
ATOM      2  C1' PXY d   1      -0.762  -1.154   3.905  0.00  0.00     0.077 C 
ATOM      3  C1  PXY d   1      -1.406  -0.521   2.687  0.00  0.00    -0.082 A 
ATOM      4  C2  PXY d   1      -2.688  -0.193   2.722  0.00  0.00     0.003 A 
ATOM      5  C3  PXY d   1      -3.294   0.351   1.619  0.00  0.00     0.003 A 
ATOM      6  C4  PXY d   1      -2.569   0.611   0.487  0.00  0.00    -0.082 A 
ATOM      7  C5  PXY d   1      -1.258   0.289   0.448  0.00  0.00     0.003 A 
ATOM      8  C6  PXY d   1      -0.671  -0.300   1.564  0.00  0.00     0.003 A 
ENDROOT
TORSDOF 0
ENDMDL
