MODEL 1
REMARK minimizedAffinity -2.39162588
REMARK minimizedRMSD -1
REMARK  0 active torsions:
REMARK  status: ('A' for Active; 'I' for Inactive)
ROOT
ATOM      1  C4' PXY d   1       1.085   0.048  -4.587  0.00  0.00     0.077 C 
ATOM      2  C1' PXY d   1       1.726  -0.531   1.129  0.00  0.00     0.077 C 
ATOM      3  C1  PXY d   1       1.565  -0.368  -0.370  0.00  0.00    -0.082 A 
ATOM      4  C2  PXY d   1       0.534  -0.929  -0.982  0.00  0.00     0.003 A 
ATOM      5  C3  PXY d   1       0.391  -0.818  -2.341  0.00  0.00     0.003 A 
ATOM      6  C4  PXY d   1       1.283  -0.082  -3.074  0.00  0.00    -0.082 A 
ATOM      7  C5  PXY d   1       2.331   0.502  -2.456  0.00  0.00     0.003 A 
ATOM      8  C6  PXY d   1       2.481   0.344  -1.081  0.00  0.00     0.003 A 
ENDROOT
TORSDOF 0
ENDMDL
