MODEL 1
REMARK minimizedAffinity 7.80683994
REMARK minimizedRMSD -1
REMARK  0 active torsions:
REMARK  status: ('A' for Active; 'I' for Inactive)
ROOT
ATOM      1  C4' PXY d   1       0.707  -1.191   4.152  0.00  0.00     0.077 C 
ATOM      2  C1' PXY d   1      -2.349   0.664  -0.391  0.00  0.00     0.077 C 
ATOM      3  C1  PXY d   1      -1.539   0.172   0.792  0.00  0.00    -0.082 A 
ATOM      4  C2  PXY d   1      -2.141  -0.056   1.948  0.00  0.00     0.003 A 
ATOM      5  C3  PXY d   1      -1.418  -0.470   3.037  0.00  0.00     0.003 A 
ATOM      6  C4  PXY d   1      -0.073  -0.704   2.928  0.00  0.00    -0.082 A 
ATOM      7  C5  PXY d   1       0.547  -0.483   1.749  0.00  0.00     0.003 A 
ATOM      8  C6  PXY d   1      -0.198  -0.024   0.667  0.00  0.00     0.003 A 
ENDROOT
TORSDOF 0
ENDMDL
