MODEL 1
REMARK minimizedAffinity 3.31615901
REMARK minimizedRMSD -1
REMARK  0 active torsions:
REMARK  status: ('A' for Active; 'I' for Inactive)
ROOT
ATOM      1  C4' PXY d   1       2.055   1.792   1.880  0.00  0.00     0.077 C 
ATOM      2  C1' PXY d   1       6.000   6.000   2.265  0.00  0.00     0.077 C 
ATOM      3  C1  PXY d   1       4.971   4.890   2.174  0.00  0.00    -0.082 A 
ATOM      4  C2  PXY d   1       4.335   4.680   1.033  0.00  0.00     0.003 A 
ATOM      5  C3  PXY d   1       3.379   3.701   0.942  0.00  0.00     0.003 A 
ATOM      6  C4  PXY d   1       3.109   2.895   2.015  0.00  0.00    -0.082 A 
ATOM      7  C5  PXY d   1       3.761   3.096   3.179  0.00  0.00     0.003 A 
ATOM      8  C6  PXY d   1       4.699   4.121   3.263  0.00  0.00     0.003 A 
ENDROOT
TORSDOF 0
ENDMDL
