MODEL 1
REMARK minimizedAffinity 0.246074557
REMARK minimizedRMSD -1
REMARK  0 active torsions:
REMARK  status: ('A' for Active; 'I' for Inactive)
ROOT
ATOM      1  C4' PXY d   1      -0.386  -1.782   5.244  0.00  0.00     0.077 C 
ATOM      2  C1' PXY d   1      -1.428   0.571   0.068  0.00  0.00     0.077 C 
ATOM      3  C1  PXY d   1      -1.163  -0.038   1.431  0.00  0.00    -0.082 A 
ATOM      4  C2  PXY d   1       0.000  -0.619   1.673  0.00  0.00     0.003 A 
ATOM      5  C3  PXY d   1       0.244  -1.203   2.890  0.00  0.00     0.003 A 
ATOM      6  C4  PXY d   1      -0.693  -1.146   3.886  0.00  0.00    -0.082 A 
ATOM      7  C5  PXY d   1      -1.879  -0.546   3.650  0.00  0.00     0.003 A 
ATOM      8  C6  PXY d   1      -2.122   0.005   2.395  0.00  0.00     0.003 A 
ENDROOT
TORSDOF 0
ENDMDL
