MODEL 1
REMARK minimizedAffinity 0.0874527991
REMARK minimizedRMSD -1
REMARK  0 active torsions:
REMARK  status: ('A' for Active; 'I' for Inactive)
ROOT
ATOM      1  C4' PXY d   1      -2.176  -0.701   3.717  0.00  0.00     0.077 C 
ATOM      2  C1' PXY d   1       0.031  -0.174  -1.599  0.00  0.00     0.077 C 
ATOM      3  C1  PXY d   1      -0.559  -0.307  -0.209  0.00  0.00    -0.082 A 
ATOM      4  C2  PXY d   1       0.243  -0.328   0.843  0.00  0.00     0.003 A 
ATOM      5  C3  PXY d   1      -0.272  -0.480   2.105  0.00  0.00     0.003 A 
ATOM      6  C4  PXY d   1      -1.625  -0.559   2.296  0.00  0.00    -0.082 A 
ATOM      7  C5  PXY d   1      -2.451  -0.527   1.228  0.00  0.00     0.003 A 
ATOM      8  C6  PXY d   1      -1.906  -0.414  -0.047  0.00  0.00     0.003 A 
ENDROOT
TORSDOF 0
ENDMDL
