MODEL 1
REMARK minimizedAffinity 0.608839214
REMARK minimizedRMSD -1
REMARK  0 active torsions:
REMARK  status: ('A' for Active; 'I' for Inactive)
ROOT
ATOM      1  C4' PXY d   1      -0.723  -1.232   3.178  0.00  0.00     0.077 C 
ATOM      2  C1' PXY d   1      -1.138   1.558  -1.868  0.00  0.00     0.077 C 
ATOM      3  C1  PXY d   1      -1.040   0.832  -0.540  0.00  0.00    -0.082 A 
ATOM      4  C2  PXY d   1       0.123   0.337  -0.150  0.00  0.00     0.003 A 
ATOM      5  C3  PXY d   1       0.223  -0.350   1.033  0.00  0.00     0.003 A 
ATOM      6  C4  PXY d   1      -0.867  -0.484   1.850  0.00  0.00    -0.082 A 
ATOM      7  C5  PXY d   1      -2.055   0.028   1.464  0.00  0.00     0.003 A 
ATOM      8  C6  PXY d   1      -2.145   0.685   0.240  0.00  0.00     0.003 A 
ENDROOT
TORSDOF 0
ENDMDL
