MODEL 1
REMARK minimizedAffinity 1.23039365
REMARK minimizedRMSD -1
REMARK  0 active torsions:
REMARK  status: ('A' for Active; 'I' for Inactive)
ROOT
ATOM      1  C4' PXY d   1      -3.406  -1.798   3.760  0.00  0.00     0.077 C 
ATOM      2  C1' PXY d   1       0.167   0.919   0.119  0.00  0.00     0.077 C 
ATOM      3  C1  PXY d   1      -0.760   0.200   1.079  0.00  0.00    -0.082 A 
ATOM      4  C2  PXY d   1      -2.032   0.030   0.757  0.00  0.00     0.003 A 
ATOM      5  C3  PXY d   1      -2.891  -0.589   1.627  0.00  0.00     0.003 A 
ATOM      6  C4  PXY d   1      -2.432  -1.087   2.817  0.00  0.00    -0.082 A 
ATOM      7  C5  PXY d   1      -1.133  -0.927   3.149  0.00  0.00     0.003 A 
ATOM      8  C6  PXY d   1      -0.286  -0.259   2.269  0.00  0.00     0.003 A 
ENDROOT
TORSDOF 0
ENDMDL
