MODEL 1
REMARK minimizedAffinity -0.0771599934
REMARK minimizedRMSD -1
REMARK  0 active torsions:
REMARK  status: ('A' for Active; 'I' for Inactive)
ROOT
ATOM      1  C4' PXY d   1       1.974  -1.162   1.854  0.00  0.00     0.077 C 
ATOM      2  C1' PXY d   1      -3.389   0.111   0.112  0.00  0.00     0.077 C 
ATOM      3  C1  PXY d   1      -1.984  -0.216   0.580  0.00  0.00    -0.082 A 
ATOM      4  C2  PXY d   1      -1.053  -0.522  -0.309  0.00  0.00     0.003 A 
ATOM      5  C3  PXY d   1       0.214  -0.852   0.099  0.00  0.00     0.003 A 
ATOM      6  C4  PXY d   1       0.545  -0.816   1.427  0.00  0.00    -0.082 A 
ATOM      7  C5  PXY d   1      -0.396  -0.494   2.339  0.00  0.00     0.003 A 
ATOM      8  C6  PXY d   1      -1.687  -0.203   1.907  0.00  0.00     0.003 A 
ENDROOT
TORSDOF 0
ENDMDL
