MODEL 1
REMARK minimizedAffinity -3.8503952
REMARK minimizedRMSD -1
REMARK  1 active torsions:
REMARK  status: ('A' for Active; 'I' for Inactive)
REMARK    1  A    between atoms: N_2  and  C1_3 
ROOT
ATOM      1  C1  UNL d   1      -1.064   1.042  -1.553  0.00  0.00     0.143 A 
ATOM      2  C2  UNL d   1      -0.829   1.456  -0.237  0.00  0.00    -0.057 A 
ATOM      3  C3  UNL d   1      -0.141   0.641   0.669  0.00  0.00     0.033 A 
ATOM      4  C4  UNL d   1       0.301  -0.621   0.282  0.00  0.00    -0.042 A 
ATOM      5  C5  UNL d   1       0.056  -1.063  -1.013  0.00  0.00     0.033 A 
ATOM      6  C6  UNL d   1      -0.626  -0.242  -1.915  0.00  0.00    -0.057 A 
ENDROOT
BRANCH   1   7
ATOM      7  N   UNL d   1      -1.828   1.766  -2.471  0.00  0.00    -0.732 N 
ATOM      8  C   UNL d   1      -1.739   1.485  -3.888  0.00  0.00     0.284 C 
ATOM      9  H3  UNL d   1      -2.775   1.936  -2.140  0.00  0.00     0.395 HD
ENDBRANCH   1   7
TORSDOF 1
ENDMDL
