MODEL 1
REMARK minimizedAffinity -4.48156404
REMARK minimizedRMSD -1
REMARK  1 active torsions:
REMARK  status: ('A' for Active; 'I' for Inactive)
REMARK    1  A    between atoms: N_2  and  C1_3 
ROOT
ATOM      1  C1  UNL d   1      -0.326   0.127  -0.288  0.00  0.00     0.143 A 
ATOM      2  C2  UNL d   1      -0.684  -0.244  -1.588  0.00  0.00    -0.057 A 
ATOM      3  C3  UNL d   1      -1.510   0.569  -2.374  0.00  0.00     0.033 A 
ATOM      4  C4  UNL d   1      -2.017   1.758  -1.861  0.00  0.00    -0.042 A 
ATOM      5  C5  UNL d   1      -1.694   2.135  -0.562  0.00  0.00     0.033 A 
ATOM      6  C6  UNL d   1      -0.864   1.322   0.215  0.00  0.00    -0.057 A 
ENDROOT
BRANCH   1   7
ATOM      7  N   UNL d   1       0.411  -0.685   0.578  0.00  0.00    -0.732 N 
ATOM      8  C   UNL d   1       1.724  -1.162   0.203  0.00  0.00     0.284 C 
ATOM      9  H3  UNL d   1       0.339  -0.385   1.547  0.00  0.00     0.395 HD
ENDBRANCH   1   7
TORSDOF 1
ENDMDL
