MODEL 1
REMARK minimizedAffinity -5.43063259
REMARK minimizedRMSD -1
REMARK  1 active torsions:
REMARK  status: ('A' for Active; 'I' for Inactive)
REMARK    1  A    between atoms: N_2  and  C1_3 
ROOT
ATOM      1  C1  UNL d   1       0.074  -0.936   0.548  0.00  0.00     0.143 A 
ATOM      2  C2  UNL d   1       0.747  -1.982  -0.093  0.00  0.00    -0.057 A 
ATOM      3  C3  UNL d   1       0.992  -3.196   0.561  0.00  0.00     0.033 A 
ATOM      4  C4  UNL d   1       0.592  -3.374   1.882  0.00  0.00    -0.042 A 
ATOM      5  C5  UNL d   1      -0.056  -2.339   2.546  0.00  0.00     0.033 A 
ATOM      6  C6  UNL d   1      -0.303  -1.132   1.885  0.00  0.00    -0.057 A 
ENDROOT
BRANCH   1   7
ATOM      7  N   UNL d   1      -0.112   0.329  -0.016  0.00  0.00    -0.732 N 
ATOM      8  C   UNL d   1      -1.027   1.276   0.585  0.00  0.00     0.284 C 
ATOM      9  H3  UNL d   1       0.760   0.742  -0.340  0.00  0.00     0.395 HD
ENDBRANCH   1   7
TORSDOF 1
ENDMDL
