MODEL 1
REMARK minimizedAffinity 0.359249741
REMARK minimizedRMSD -1
REMARK  1 active torsions:
REMARK  status: ('A' for Active; 'I' for Inactive)
REMARK    1  A    between atoms: N_2  and  C1_3 
ROOT
ATOM      1  C1  UNL d   1      -0.474   0.115  -0.477  0.00  0.00     0.143 A 
ATOM      2  C2  UNL d   1      -0.675   0.886   0.673  0.00  0.00    -0.057 A 
ATOM      3  C3  UNL d   1      -1.519   2.003   0.659  0.00  0.00     0.033 A 
ATOM      4  C4  UNL d   1      -2.156   2.387  -0.516  0.00  0.00    -0.042 A 
ATOM      5  C5  UNL d   1      -1.951   1.650  -1.677  0.00  0.00     0.033 A 
ATOM      6  C6  UNL d   1      -1.113   0.531  -1.656  0.00  0.00    -0.057 A 
ENDROOT
BRANCH   1   7
ATOM      7  N   UNL d   1       0.428  -0.949  -0.552  0.00  0.00    -0.732 N 
ATOM      8  C   UNL d   1       1.552  -1.028   0.357  0.00  0.00     0.284 C 
ATOM      9  H3  UNL d   1      -0.034  -1.839  -0.720  0.00  0.00     0.395 HD
ENDBRANCH   1   7
TORSDOF 1
ENDMDL
