MODEL 1
REMARK minimizedAffinity -4.54118204
REMARK minimizedRMSD -1
REMARK  1 active torsions:
REMARK  status: ('A' for Active; 'I' for Inactive)
REMARK    1  A    between atoms: N_2  and  C1_3 
ROOT
ATOM      1  C1  UNL d   1       0.001  -0.213  -0.181  0.00  0.00     0.143 A 
ATOM      2  C2  UNL d   1      -0.009  -1.130   0.875  0.00  0.00    -0.057 A 
ATOM      3  C3  UNL d   1       0.931  -2.165   0.948  0.00  0.00     0.033 A 
ATOM      4  C4  UNL d   1       1.884  -2.319  -0.055  0.00  0.00    -0.042 A 
ATOM      5  C5  UNL d   1       1.897  -1.434  -1.127  0.00  0.00     0.033 A 
ATOM      6  C6  UNL d   1       0.959  -0.399  -1.190  0.00  0.00    -0.057 A 
ENDROOT
BRANCH   1   7
ATOM      7  N   UNL d   1      -0.967   0.777  -0.360  0.00  0.00    -0.732 N 
ATOM      8  C   UNL d   1      -1.141   1.413  -1.649  0.00  0.00     0.284 C 
ATOM      9  H3  UNL d   1      -1.839   0.559   0.116  0.00  0.00     0.395 HD
ENDBRANCH   1   7
TORSDOF 1
ENDMDL
