MODEL 1
REMARK minimizedAffinity -1.00112808
REMARK minimizedRMSD -1
REMARK  1 active torsions:
REMARK  status: ('A' for Active; 'I' for Inactive)
REMARK    1  A    between atoms: N_2  and  C1_3 
ROOT
ATOM      1  C1  UNL d   1       0.615  -1.063   2.096  0.00  0.00     0.143 A 
ATOM      2  C2  UNL d   1       1.828  -1.455   1.520  0.00  0.00    -0.057 A 
ATOM      3  C3  UNL d   1       2.144  -1.125   0.196  0.00  0.00     0.033 A 
ATOM      4  C4  UNL d   1       1.236  -0.420  -0.587  0.00  0.00    -0.042 A 
ATOM      5  C5  UNL d   1       0.013  -0.042  -0.043  0.00  0.00     0.033 A 
ATOM      6  C6  UNL d   1      -0.293  -0.369   1.281  0.00  0.00    -0.057 A 
ENDROOT
BRANCH   1   7
ATOM      7  N   UNL d   1       0.201  -1.445   3.374  0.00  0.00    -0.732 N 
ATOM      8  C   UNL d   1       1.122  -1.404   4.490  0.00  0.00     0.284 C 
ATOM      9  H3  UNL d   1      -0.734  -1.112   3.595  0.00  0.00     0.395 HD
ENDBRANCH   1   7
TORSDOF 1
ENDMDL
