MODEL 1
REMARK minimizedAffinity -4.63164806
REMARK minimizedRMSD -1
REMARK  1 active torsions:
REMARK  status: ('A' for Active; 'I' for Inactive)
REMARK    1  A    between atoms: N_2  and  C1_3 
ROOT
ATOM      1  C1  UNL d   1       0.481  -0.749   0.126  0.00  0.00     0.143 A 
ATOM      2  C2  UNL d   1      -0.126  -1.913  -0.358  0.00  0.00    -0.057 A 
ATOM      3  C3  UNL d   1       0.162  -3.166   0.196  0.00  0.00     0.033 A 
ATOM      4  C4  UNL d   1       1.088  -3.281   1.228  0.00  0.00    -0.042 A 
ATOM      5  C5  UNL d   1       1.722  -2.140   1.708  0.00  0.00     0.033 A 
ATOM      6  C6  UNL d   1       1.425  -0.891   1.155  0.00  0.00    -0.057 A 
ENDROOT
BRANCH   1   7
ATOM      7  N   UNL d   1       0.310   0.513  -0.448  0.00  0.00    -0.732 N 
ATOM      8  C   UNL d   1      -0.877   0.819  -1.217  0.00  0.00     0.284 C 
ATOM      9  H3  UNL d   1       0.611   1.264   0.169  0.00  0.00     0.395 HD
ENDBRANCH   1   7
TORSDOF 1
ENDMDL
