MODEL 1
REMARK minimizedAffinity -1.79226696
REMARK minimizedRMSD -1
REMARK  1 active torsions:
REMARK  status: ('A' for Active; 'I' for Inactive)
REMARK    1  A    between atoms: N_2  and  C1_3 
ROOT
ATOM      1  C1  UNL d   1       1.355  -0.782   0.402  0.00  0.00     0.143 A 
ATOM      2  C2  UNL d   1       1.531  -0.242  -0.877  0.00  0.00    -0.057 A 
ATOM      3  C3  UNL d   1       0.571   0.602  -1.448  0.00  0.00     0.033 A 
ATOM      4  C4  UNL d   1      -0.601   0.898  -0.759  0.00  0.00    -0.042 A 
ATOM      5  C5  UNL d   1      -0.809   0.353   0.503  0.00  0.00     0.033 A 
ATOM      6  C6  UNL d   1       0.157  -0.484   1.070  0.00  0.00    -0.057 A 
ENDROOT
BRANCH   1   7
ATOM      7  N   UNL d   1       2.227  -1.705   0.984  0.00  0.00    -0.732 N 
ATOM      8  C   UNL d   1       1.800  -3.064   1.236  0.00  0.00     0.284 C 
ATOM      9  H3  UNL d   1       3.174  -1.627   0.620  0.00  0.00     0.395 HD
ENDBRANCH   1   7
TORSDOF 1
ENDMDL
