MODEL 1
REMARK minimizedAffinity -4.33490849
REMARK minimizedRMSD -1
REMARK  1 active torsions:
REMARK  status: ('A' for Active; 'I' for Inactive)
REMARK    1  A    between atoms: N_2  and  C1_3 
ROOT
ATOM      1  C1  UNL d   1       0.067   0.304  -0.001  0.00  0.00     0.143 A 
ATOM      2  C2  UNL d   1       1.419   0.251  -0.357  0.00  0.00    -0.057 A 
ATOM      3  C3  UNL d   1       2.256  -0.765   0.119  0.00  0.00     0.033 A 
ATOM      4  C4  UNL d   1       1.761  -1.733   0.987  0.00  0.00    -0.042 A 
ATOM      5  C5  UNL d   1       0.427  -1.685   1.375  0.00  0.00     0.033 A 
ATOM      6  C6  UNL d   1      -0.406  -0.672   0.891  0.00  0.00    -0.057 A 
ENDROOT
BRANCH   1   7
ATOM      7  N   UNL d   1      -0.792   1.345  -0.362  0.00  0.00    -0.732 N 
ATOM      8  C   UNL d   1      -1.302   1.444  -1.713  0.00  0.00     0.284 C 
ATOM      9  H3  UNL d   1      -1.482   1.547   0.359  0.00  0.00     0.395 HD
ENDBRANCH   1   7
TORSDOF 1
ENDMDL
