MODEL 1
REMARK minimizedAffinity -2.2758925
REMARK minimizedRMSD -1
REMARK  1 active torsions:
REMARK  status: ('A' for Active; 'I' for Inactive)
REMARK    1  A    between atoms: N_2  and  C1_3 
ROOT
ATOM      1  C1  UNL d   1       0.147  -0.383  -0.315  0.00  0.00     0.143 A 
ATOM      2  C2  UNL d   1       1.422   0.127  -0.584  0.00  0.00    -0.057 A 
ATOM      3  C3  UNL d   1       2.577  -0.558  -0.187  0.00  0.00     0.033 A 
ATOM      4  C4  UNL d   1       2.476  -1.755   0.514  0.00  0.00    -0.042 A 
ATOM      5  C5  UNL d   1       1.219  -2.269   0.814  0.00  0.00     0.033 A 
ATOM      6  C6  UNL d   1       0.070  -1.583   0.409  0.00  0.00    -0.057 A 
ENDROOT
BRANCH   1   7
ATOM      7  N   UNL d   1      -1.039   0.299  -0.597  0.00  0.00    -0.732 N 
ATOM      8  C   UNL d   1      -1.340   0.728  -1.946  0.00  0.00     0.284 C 
ATOM      9  H3  UNL d   1      -1.836  -0.084  -0.095  0.00  0.00     0.395 HD
ENDBRANCH   1   7
TORSDOF 1
ENDMDL
