MODEL 1
REMARK minimizedAffinity -3.84554791
REMARK minimizedRMSD -1
REMARK  1 active torsions:
REMARK  status: ('A' for Active; 'I' for Inactive)
REMARK    1  A    between atoms: N_2  and  C1_3 
ROOT
ATOM      1  C1  UNL d   1      -0.231   0.104  -0.175  0.00  0.00     0.143 A 
ATOM      2  C2  UNL d   1       1.126   0.032  -0.507  0.00  0.00    -0.057 A 
ATOM      3  C3  UNL d   1       1.919  -1.046  -0.094  0.00  0.00     0.033 A 
ATOM      4  C4  UNL d   1       1.373  -2.059   0.687  0.00  0.00    -0.042 A 
ATOM      5  C5  UNL d   1       0.032  -1.995   1.051  0.00  0.00     0.033 A 
ATOM      6  C6  UNL d   1      -0.756  -0.920   0.629  0.00  0.00    -0.057 A 
ENDROOT
BRANCH   1   7
ATOM      7  N   UNL d   1      -1.048   1.198  -0.473  0.00  0.00    -0.732 N 
ATOM      8  C   UNL d   1      -1.821   1.229  -1.695  0.00  0.00     0.284 C 
ATOM      9  H3  UNL d   1      -1.547   1.544   0.344  0.00  0.00     0.395 HD
ENDBRANCH   1   7
TORSDOF 1
ENDMDL
