MODEL 1
REMARK minimizedAffinity -2.60609388
REMARK minimizedRMSD -1
REMARK  1 active torsions:
REMARK  status: ('A' for Active; 'I' for Inactive)
REMARK    1  A    between atoms: N_2  and  C1_3 
ROOT
ATOM      1  C1  UNL d   1      -0.307  -0.082   0.095  0.00  0.00     0.143 A 
ATOM      2  C2  UNL d   1      -0.088  -1.453   0.264  0.00  0.00    -0.057 A 
ATOM      3  C3  UNL d   1      -0.799  -2.190   1.220  0.00  0.00     0.033 A 
ATOM      4  C4  UNL d   1      -1.723  -1.559   2.046  0.00  0.00    -0.042 A 
ATOM      5  C5  UNL d   1      -1.939  -0.192   1.912  0.00  0.00     0.033 A 
ATOM      6  C6  UNL d   1      -1.231   0.536   0.952  0.00  0.00    -0.057 A 
ENDROOT
BRANCH   1   7
ATOM      7  N   UNL d   1       0.438   0.724  -0.770  0.00  0.00    -0.732 N 
ATOM      8  C   UNL d   1       1.883   0.733  -0.707  0.00  0.00     0.284 C 
ATOM      9  H3  UNL d   1       0.062   0.730  -1.715  0.00  0.00     0.395 HD
ENDBRANCH   1   7
TORSDOF 1
ENDMDL
