MODEL 1
REMARK minimizedAffinity -0.0500347652
REMARK minimizedRMSD -1
REMARK  1 active torsions:
REMARK  status: ('A' for Active; 'I' for Inactive)
REMARK    1  A    between atoms: N_2  and  C1_3 
ROOT
ATOM      1  C1  UNL d   1      -0.885   1.156  -0.635  0.00  0.00     0.143 A 
ATOM      2  C2  UNL d   1      -0.588  -0.198  -0.446  0.00  0.00    -0.057 A 
ATOM      3  C3  UNL d   1       0.663  -0.608   0.030  0.00  0.00     0.033 A 
ATOM      4  C4  UNL d   1       1.653   0.331   0.299  0.00  0.00    -0.042 A 
ATOM      5  C5  UNL d   1       1.389   1.681   0.095  0.00  0.00     0.033 A 
ATOM      6  C6  UNL d   1       0.135   2.084  -0.375  0.00  0.00    -0.057 A 
ENDROOT
BRANCH   1   7
ATOM      7  N   UNL d   1      -2.076   1.620  -1.199  0.00  0.00    -0.732 N 
ATOM      8  C   UNL d   1      -2.175   1.852  -2.624  0.00  0.00     0.284 C 
ATOM      9  H3  UNL d   1      -2.896   1.178  -0.792  0.00  0.00     0.395 HD
ENDBRANCH   1   7
TORSDOF 1
ENDMDL
