MODEL 1
REMARK minimizedAffinity -3.1979804
REMARK minimizedRMSD -1
REMARK  1 active torsions:
REMARK  status: ('A' for Active; 'I' for Inactive)
REMARK    1  A    between atoms: N_2  and  C1_3 
ROOT
ATOM      1  C1  UNL d   1      -1.017   1.319  -0.957  0.00  0.00     0.143 A 
ATOM      2  C2  UNL d   1      -1.532   0.974   0.297  0.00  0.00    -0.057 A 
ATOM      3  C3  UNL d   1      -0.942  -0.032   1.072  0.00  0.00     0.033 A 
ATOM      4  C4  UNL d   1       0.160  -0.732   0.592  0.00  0.00    -0.042 A 
ATOM      5  C5  UNL d   1       0.674  -0.423  -0.662  0.00  0.00     0.033 A 
ATOM      6  C6  UNL d   1       0.084   0.587  -1.429  0.00  0.00    -0.057 A 
ENDROOT
BRANCH   1   7
ATOM      7  N   UNL d   1      -1.617   2.242  -1.817  0.00  0.00    -0.732 N 
ATOM      8  C   UNL d   1      -2.723   1.849  -2.664  0.00  0.00     0.284 C 
ATOM      9  H3  UNL d   1      -1.727   3.158  -1.389  0.00  0.00     0.395 HD
ENDBRANCH   1   7
TORSDOF 1
ENDMDL
