MODEL 1
REMARK minimizedAffinity -2.84902573
REMARK minimizedRMSD -1
REMARK  1 active torsions:
REMARK  status: ('A' for Active; 'I' for Inactive)
REMARK    1  A    between atoms: N_2  and  C1_3 
ROOT
ATOM      1  C1  UNL d   1      -1.147   0.518  -1.195  0.00  0.00     0.143 A 
ATOM      2  C2  UNL d   1      -0.404  -0.575  -1.655  0.00  0.00    -0.057 A 
ATOM      3  C3  UNL d   1       0.836  -0.899  -1.092  0.00  0.00     0.033 A 
ATOM      4  C4  UNL d   1       1.370  -0.115  -0.074  0.00  0.00    -0.042 A 
ATOM      5  C5  UNL d   1       0.661   0.990   0.381  0.00  0.00     0.033 A 
ATOM      6  C6  UNL d   1      -0.580   1.305  -0.181  0.00  0.00    -0.057 A 
ENDROOT
BRANCH   1   7
ATOM      7  N   UNL d   1      -2.340   0.949  -1.781  0.00  0.00    -0.732 N 
ATOM      8  C   UNL d   1      -2.400   1.250  -3.195  0.00  0.00     0.284 C 
ATOM      9  H3  UNL d   1      -3.150   0.445  -1.428  0.00  0.00     0.395 HD
ENDBRANCH   1   7
TORSDOF 1
ENDMDL
