MODEL 1
REMARK minimizedAffinity -2.47059274
REMARK minimizedRMSD -1
REMARK  1 active torsions:
REMARK  status: ('A' for Active; 'I' for Inactive)
REMARK    1  A    between atoms: N_2  and  C1_3 
ROOT
ATOM      1  C1  UNL d   1      -1.512   0.727  -1.863  0.00  0.00     0.143 A 
ATOM      2  C2  UNL d   1      -0.738  -0.436  -1.787  0.00  0.00    -0.057 A 
ATOM      3  C3  UNL d   1       0.035  -0.721  -0.655  0.00  0.00     0.033 A 
ATOM      4  C4  UNL d   1       0.071   0.170   0.412  0.00  0.00    -0.042 A 
ATOM      5  C5  UNL d   1      -0.670   1.344   0.348  0.00  0.00     0.033 A 
ATOM      6  C6  UNL d   1      -1.446   1.620  -0.782  0.00  0.00    -0.057 A 
ENDROOT
BRANCH   1   7
ATOM      7  N   UNL d   1      -2.225   1.115  -3.000  0.00  0.00    -0.732 N 
ATOM      8  C   UNL d   1      -2.691   2.477  -3.150  0.00  0.00     0.284 C 
ATOM      9  H3  UNL d   1      -1.846   0.709  -3.853  0.00  0.00     0.395 HD
ENDBRANCH   1   7
TORSDOF 1
ENDMDL
