MODEL 1
REMARK minimizedAffinity -2.10594416
REMARK minimizedRMSD -1
REMARK  3 active torsions:
REMARK  status: ('A' for Active; 'I' for Inactive)
REMARK    1  A    between atoms: C3'_2  and  C2'_3 
REMARK    2  A    between atoms: C2'_3  and  C1'_4 
REMARK    3  A    between atoms: C1'_4  and  C1_5 
ROOT
ATOM      1  C1  N4B d   1      -4.554   2.584  -3.691  0.00  0.00    -0.075 A 
ATOM      2  C2  N4B d   1      -3.364   2.972  -3.038  0.00  0.00     0.002 A 
ATOM      3  C3  N4B d   1      -3.344   3.112  -1.672  0.00  0.00     0.002 A 
ATOM      4  C4  N4B d   1      -4.503   2.888  -0.943  0.00  0.00    -0.004 A 
ATOM      5  C5  N4B d   1      -5.642   2.488  -1.579  0.00  0.00     0.002 A 
ATOM      6  C6  N4B d   1      -5.674   2.340  -2.951  0.00  0.00     0.002 A 
ENDROOT
BRANCH   1   7
ATOM      7  C1' N4B d   1      -4.646   2.501  -5.190  0.00  0.00     0.057 C 
BRANCH   7   8
ATOM      8  C2' N4B d   1      -5.999   3.046  -5.639  0.00  0.00     0.009 C 
BRANCH   8   9
ATOM      9  C3' N4B d   1      -5.927   4.520  -6.000  0.00  0.00     0.004 C 
ATOM     10  C4' N4B d   1      -4.543   5.082  -5.869  0.00  0.00     0.003 C 
ENDBRANCH   8   9
ENDBRANCH   7   8
ENDBRANCH   1   7
TORSDOF 3
ENDMDL
