MODEL 1
REMARK minimizedAffinity 0.323950917
REMARK minimizedRMSD -1
REMARK  3 active torsions:
REMARK  status: ('A' for Active; 'I' for Inactive)
REMARK    1  A    between atoms: C3'_2  and  C2'_3 
REMARK    2  A    between atoms: C2'_3  and  C1'_4 
REMARK    3  A    between atoms: C1'_4  and  C1_5 
ROOT
ATOM      1  C1  N4B d   1      -0.420  -2.176   3.520  0.00  0.00    -0.075 A 
ATOM      2  C2  N4B d   1      -0.035  -1.583   2.297  0.00  0.00     0.002 A 
ATOM      3  C3  N4B d   1       1.295  -1.474   1.976  0.00  0.00     0.002 A 
ATOM      4  C4  N4B d   1       2.256  -1.930   2.866  0.00  0.00    -0.004 A 
ATOM      5  C5  N4B d   1       1.875  -2.523   4.034  0.00  0.00     0.002 A 
ATOM      6  C6  N4B d   1       0.541  -2.644   4.368  0.00  0.00     0.002 A 
ENDROOT
BRANCH   1   7
ATOM      7  C1' N4B d   1      -1.859  -2.240   3.953  0.00  0.00     0.057 C 
BRANCH   7   8
ATOM      8  C2' N4B d   1      -1.925  -2.225   5.477  0.00  0.00     0.009 C 
BRANCH   8   9
ATOM      9  C3' N4B d   1      -2.731  -1.049   6.000  0.00  0.00     0.004 C 
ATOM     10  C4' N4B d   1      -4.208  -1.311   6.000  0.00  0.00     0.003 C 
ENDBRANCH   8   9
ENDBRANCH   7   8
ENDBRANCH   1   7
TORSDOF 3
ENDMDL
