MODEL 1
REMARK minimizedAffinity 2.30396748
REMARK minimizedRMSD -1
REMARK  3 active torsions:
REMARK  status: ('A' for Active; 'I' for Inactive)
REMARK    1  A    between atoms: C3'_2  and  C2'_3 
REMARK    2  A    between atoms: C2'_3  and  C1'_4 
REMARK    3  A    between atoms: C1'_4  and  C1_5 
ROOT
ATOM      1  C1  N4B d   1       3.135  -3.956  -3.111  0.00  0.00    -0.075 A 
ATOM      2  C2  N4B d   1       2.095  -4.125  -2.171  0.00  0.00     0.002 A 
ATOM      3  C3  N4B d   1       0.797  -3.849  -2.526  0.00  0.00     0.002 A 
ATOM      4  C4  N4B d   1       0.519  -3.387  -3.804  0.00  0.00    -0.004 A 
ATOM      5  C5  N4B d   1       1.526  -3.250  -4.714  0.00  0.00     0.002 A 
ATOM      6  C6  N4B d   1       2.835  -3.528  -4.372  0.00  0.00     0.002 A 
ENDROOT
BRANCH   1   7
ATOM      7  C1' N4B d   1       4.579  -4.163  -2.744  0.00  0.00     0.057 C 
BRANCH   7   8
ATOM      8  C2' N4B d   1       4.794  -3.732  -1.296  0.00  0.00     0.009 C 
BRANCH   8   9
ATOM      9  C3' N4B d   1       5.916  -2.717  -1.165  0.00  0.00     0.004 C 
ATOM     10  C4' N4B d   1       5.662  -1.705  -0.088  0.00  0.00     0.003 C 
ENDBRANCH   8   9
ENDBRANCH   7   8
ENDBRANCH   1   7
TORSDOF 3
ENDMDL
