MODEL 1
REMARK minimizedAffinity 0.174155205
REMARK minimizedRMSD -1
REMARK  3 active torsions:
REMARK  status: ('A' for Active; 'I' for Inactive)
REMARK    1  A    between atoms: C3'_2  and  C2'_3 
REMARK    2  A    between atoms: C2'_3  and  C1'_4 
REMARK    3  A    between atoms: C1'_4  and  C1_5 
ROOT
ATOM      1  C1  N4B d   1      -4.433   1.893  -3.671  0.00  0.00    -0.075 A 
ATOM      2  C2  N4B d   1      -5.152   3.013  -4.143  0.00  0.00     0.002 A 
ATOM      3  C3  N4B d   1      -5.899   2.916  -5.292  0.00  0.00     0.002 A 
ATOM      4  C4  N4B d   1      -5.927   1.719  -5.992  0.00  0.00    -0.004 A 
ATOM      5  C5  N4B d   1      -5.250   0.634  -5.516  0.00  0.00     0.002 A 
ATOM      6  C6  N4B d   1      -4.499   0.717  -4.361  0.00  0.00     0.002 A 
ENDROOT
BRANCH   1   7
ATOM      7  C1' N4B d   1      -3.534   1.976  -2.468  0.00  0.00     0.057 C 
BRANCH   7   8
ATOM      8  C2' N4B d   1      -2.216   2.630  -2.872  0.00  0.00     0.009 C 
BRANCH   8   9
ATOM      9  C3' N4B d   1      -1.022   1.946  -2.229  0.00  0.00     0.004 C 
ATOM     10  C4' N4B d   1      -0.245   1.103  -3.196  0.00  0.00     0.003 C 
ENDBRANCH   8   9
ENDBRANCH   7   8
ENDBRANCH   1   7
TORSDOF 3
ENDMDL
