MODEL 1
REMARK minimizedAffinity 6.26071262
REMARK minimizedRMSD -1
REMARK  3 active torsions:
REMARK  status: ('A' for Active; 'I' for Inactive)
REMARK    1  A    between atoms: C3'_2  and  C2'_3 
REMARK    2  A    between atoms: C2'_3  and  C1'_4 
REMARK    3  A    between atoms: C1'_4  and  C1_5 
ROOT
ATOM      1  C1  N4B d   1      -4.548   2.070  -3.451  0.00  0.00    -0.075 A 
ATOM      2  C2  N4B d   1      -5.274   3.257  -3.691  0.00  0.00     0.002 A 
ATOM      3  C3  N4B d   1      -5.999   3.396  -4.848  0.00  0.00     0.002 A 
ATOM      4  C4  N4B d   1      -5.999   2.373  -5.785  0.00  0.00    -0.004 A 
ATOM      5  C5  N4B d   1      -5.316   1.219  -5.534  0.00  0.00     0.002 A 
ATOM      6  C6  N4B d   1      -4.586   1.064  -4.373  0.00  0.00     0.002 A 
ENDROOT
BRANCH   1   7
ATOM      7  C1' N4B d   1      -3.671   1.906  -2.239  0.00  0.00     0.057 C 
BRANCH   7   8
ATOM      8  C2' N4B d   1      -4.550   1.798  -0.996  0.00  0.00     0.009 C 
BRANCH   8   9
ATOM      9  C3' N4B d   1      -3.765   1.323   0.215  0.00  0.00     0.004 C 
ATOM     10  C4' N4B d   1      -4.102  -0.083   0.611  0.00  0.00     0.003 C 
ENDBRANCH   8   9
ENDBRANCH   7   8
ENDBRANCH   1   7
TORSDOF 3
ENDMDL
