MODEL 1
REMARK minimizedAffinity 5.52635193
REMARK minimizedRMSD -1
REMARK  3 active torsions:
REMARK  status: ('A' for Active; 'I' for Inactive)
REMARK    1  A    between atoms: C3'_2  and  C2'_3 
REMARK    2  A    between atoms: C2'_3  and  C1'_4 
REMARK    3  A    between atoms: C1'_4  and  C1_5 
ROOT
ATOM      1  C1  N4B d   1      -5.210   2.705  -3.447  0.00  0.00    -0.075 A 
ATOM      2  C2  N4B d   1      -4.990   1.871  -4.566  0.00  0.00     0.002 A 
ATOM      3  C3  N4B d   1      -5.282   2.326  -5.828  0.00  0.00     0.002 A 
ATOM      4  C4  N4B d   1      -5.810   3.597  -5.995  0.00  0.00    -0.004 A 
ATOM      5  C5  N4B d   1      -5.996   4.405  -4.911  0.00  0.00     0.002 A 
ATOM      6  C6  N4B d   1      -5.703   3.963  -3.637  0.00  0.00     0.002 A 
ENDROOT
BRANCH   1   7
ATOM      7  C1' N4B d   1      -4.987   2.221  -2.040  0.00  0.00     0.057 C 
BRANCH   7   8
ATOM      8  C2' N4B d   1      -3.489   2.187  -1.754  0.00  0.00     0.009 C 
BRANCH   8   9
ATOM      9  C3' N4B d   1      -2.689   2.904  -2.828  0.00  0.00     0.004 C 
ATOM     10  C4' N4B d   1      -1.246   2.496  -2.847  0.00  0.00     0.003 C 
ENDBRANCH   8   9
ENDBRANCH   7   8
ENDBRANCH   1   7
TORSDOF 3
ENDMDL
