MODEL 1
REMARK minimizedAffinity 1.15748823
REMARK minimizedRMSD -1
REMARK  3 active torsions:
REMARK  status: ('A' for Active; 'I' for Inactive)
REMARK    1  A    between atoms: C3'_2  and  C2'_3 
REMARK    2  A    between atoms: C2'_3  and  C1'_4 
REMARK    3  A    between atoms: C1'_4  and  C1_5 
ROOT
ATOM      1  C1  N4B d   1      -4.614   2.685  -4.793  0.00  0.00    -0.075 A 
ATOM      2  C2  N4B d   1      -5.619   2.955  -5.747  0.00  0.00     0.002 A 
ATOM      3  C3  N4B d   1      -5.997   4.251  -6.000  0.00  0.00     0.002 A 
ATOM      4  C4  N4B d   1      -5.399   5.288  -5.300  0.00  0.00    -0.004 A 
ATOM      5  C5  N4B d   1      -4.411   5.021  -4.398  0.00  0.00     0.002 A 
ATOM      6  C6  N4B d   1      -4.018   3.724  -4.137  0.00  0.00     0.002 A 
ENDROOT
BRANCH   1   7
ATOM      7  C1' N4B d   1      -4.228   1.280  -4.421  0.00  0.00     0.057 C 
BRANCH   7   8
ATOM      8  C2' N4B d   1      -5.307   0.318  -4.911  0.00  0.00     0.009 C 
BRANCH   8   9
ATOM      9  C3' N4B d   1      -5.100  -1.088  -4.375  0.00  0.00     0.004 C 
ATOM     10  C4' N4B d   1      -6.000  -1.406  -3.218  0.00  0.00     0.003 C 
ENDBRANCH   8   9
ENDBRANCH   7   8
ENDBRANCH   1   7
TORSDOF 3
ENDMDL
