MODEL 1
REMARK minimizedAffinity 5.20961714
REMARK minimizedRMSD -1
REMARK  3 active torsions:
REMARK  status: ('A' for Active; 'I' for Inactive)
REMARK    1  A    between atoms: C3'_2  and  C2'_3 
REMARK    2  A    between atoms: C2'_3  and  C1'_4 
REMARK    3  A    between atoms: C1'_4  and  C1_5 
ROOT
ATOM      1  C1  N4B d   1       0.242  -0.104   0.649  0.00  0.00    -0.075 A 
ATOM      2  C2  N4B d   1      -0.942   0.631   0.420  0.00  0.00     0.002 A 
ATOM      3  C3  N4B d   1      -1.497   1.373   1.434  0.00  0.00     0.002 A 
ATOM      4  C4  N4B d   1      -0.899   1.379   2.685  0.00  0.00    -0.004 A 
ATOM      5  C5  N4B d   1       0.258   0.687   2.891  0.00  0.00     0.002 A 
ATOM      6  C6  N4B d   1       0.829  -0.060   1.880  0.00  0.00     0.002 A 
ENDROOT
BRANCH   1   7
ATOM      7  C1' N4B d   1       0.838  -0.998  -0.404  0.00  0.00     0.057 C 
BRANCH   7   8
ATOM      8  C2' N4B d   1       1.174  -2.350   0.219  0.00  0.00     0.009 C 
BRANCH   8   9
ATOM      9  C3' N4B d   1       1.147  -3.470  -0.807  0.00  0.00     0.004 C 
ATOM     10  C4' N4B d   1       0.819  -4.803  -0.202  0.00  0.00     0.003 C 
ENDBRANCH   8   9
ENDBRANCH   7   8
ENDBRANCH   1   7
TORSDOF 3
ENDMDL
