MODEL 1
REMARK minimizedAffinity -3.13110876
REMARK minimizedRMSD -1
REMARK  1 active torsions:
REMARK  status: ('A' for Active; 'I' for Inactive)
REMARK    1  A    between atoms: C3_4  and  O_7 
ROOT
ATOM      1  C   UNL d   1      -0.947  -2.541   0.077  0.00  0.00    -0.033 A 
ATOM      2  C1  UNL d   1      -0.276  -2.111  -1.069  0.00  0.00     0.039 A 
ATOM      3  C2  UNL d   1       0.349  -0.862  -1.086  0.00  0.00    -0.080 A 
ATOM      4  C3  UNL d   1       0.296  -0.056   0.047  0.00  0.00     0.150 A 
ATOM      5  C4  UNL d   1      -0.368  -0.480   1.194  0.00  0.00    -0.007 A 
ATOM      6  C5  UNL d   1      -0.992  -1.727   1.209  0.00  0.00     0.039 A 
ENDROOT
BRANCH   4   7
ATOM      7  O   UNL d   1       0.887   1.173   0.076  0.00  0.00    -0.526 OA
ATOM      8  H5  UNL d   1       1.282   1.345  -0.795  0.00  0.00     0.418 HD
ENDBRANCH   4   7
TORSDOF 1
ENDMDL
