MODEL 1
REMARK minimizedAffinity -4.49455929
REMARK minimizedRMSD -1
REMARK  1 active torsions:
REMARK  status: ('A' for Active; 'I' for Inactive)
REMARK    1  A    between atoms: C3_4  and  O_7 
ROOT
ATOM      1  C   UNL d   1       1.535   2.772   0.896  0.00  0.00    -0.033 A 
ATOM      2  C1  UNL d   1       1.783   1.728   1.789  0.00  0.00     0.039 A 
ATOM      3  C2  UNL d   1       1.089   0.523   1.667  0.00  0.00    -0.080 A 
ATOM      4  C3  UNL d   1       0.151   0.374   0.649  0.00  0.00     0.150 A 
ATOM      5  C4  UNL d   1      -0.099   1.409  -0.246  0.00  0.00    -0.007 A 
ATOM      6  C5  UNL d   1       0.595   2.612  -0.123  0.00  0.00     0.039 A 
ENDROOT
BRANCH   4   7
ATOM      7  O   UNL d   1      -0.555  -0.781   0.493  0.00  0.00    -0.526 OA
ATOM      8  H5  UNL d   1      -0.299  -1.396   1.201  0.00  0.00     0.418 HD
ENDBRANCH   4   7
TORSDOF 1
ENDMDL
