MODEL 1
REMARK minimizedAffinity -4.03165197
REMARK minimizedRMSD -1
REMARK  1 active torsions:
REMARK  status: ('A' for Active; 'I' for Inactive)
REMARK    1  A    between atoms: C3_4  and  O_7 
ROOT
ATOM      1  C   UNL d   1      -0.115  -2.741   1.106  0.00  0.00    -0.033 A 
ATOM      2  C1  UNL d   1      -0.916  -1.754   1.684  0.00  0.00     0.039 A 
ATOM      3  C2  UNL d   1      -0.967  -0.476   1.123  0.00  0.00    -0.080 A 
ATOM      4  C3  UNL d   1      -0.214  -0.199  -0.015  0.00  0.00     0.150 A 
ATOM      5  C4  UNL d   1       0.583  -1.178  -0.598  0.00  0.00    -0.007 A 
ATOM      6  C5  UNL d   1       0.633  -2.453  -0.036  0.00  0.00     0.039 A 
ENDROOT
BRANCH   4   7
ATOM      7  O   UNL d   1      -0.228   1.034  -0.595  0.00  0.00    -0.526 OA
ATOM      8  H5  UNL d   1      -0.800   1.616  -0.067  0.00  0.00     0.418 HD
ENDBRANCH   4   7
TORSDOF 1
ENDMDL
