MODEL 1
REMARK minimizedAffinity -2.42424703
REMARK minimizedRMSD -1
REMARK  1 active torsions:
REMARK  status: ('A' for Active; 'I' for Inactive)
REMARK    1  A    between atoms: C3_4  and  O_7 
ROOT
ATOM      1  C   UNL d   1      -0.172   1.370   0.271  0.00  0.00    -0.033 A 
ATOM      2  C1  UNL d   1      -0.887   0.937   1.389  0.00  0.00     0.039 A 
ATOM      3  C2  UNL d   1      -1.053  -0.428   1.628  0.00  0.00    -0.080 A 
ATOM      4  C3  UNL d   1      -0.499  -1.349   0.744  0.00  0.00     0.150 A 
ATOM      5  C4  UNL d   1       0.218  -0.925  -0.370  0.00  0.00    -0.007 A 
ATOM      6  C5  UNL d   1       0.382   0.439  -0.608  0.00  0.00     0.039 A 
ENDROOT
BRANCH   4   7
ATOM      7  O   UNL d   1      -0.639  -2.692   0.933  0.00  0.00    -0.526 OA
ATOM      8  H5  UNL d   1      -1.182  -2.836   1.726  0.00  0.00     0.418 HD
ENDBRANCH   4   7
TORSDOF 1
ENDMDL
