MODEL 1
REMARK minimizedAffinity -5.06477737
REMARK minimizedRMSD -1
REMARK  1 active torsions:
REMARK  status: ('A' for Active; 'I' for Inactive)
REMARK    1  A    between atoms: C3_4  and  O_7 
ROOT
ATOM      1  C   UNL d   1      -0.230  -0.165   1.140  0.00  0.00    -0.033 A 
ATOM      2  C1  UNL d   1       0.990  -0.842   1.201  0.00  0.00     0.039 A 
ATOM      3  C2  UNL d   1       1.034  -2.224   1.007  0.00  0.00    -0.080 A 
ATOM      4  C3  UNL d   1      -0.147  -2.916   0.752  0.00  0.00     0.150 A 
ATOM      5  C4  UNL d   1      -1.365  -2.247   0.686  0.00  0.00    -0.007 A 
ATOM      6  C5  UNL d   1      -1.407  -0.868   0.881  0.00  0.00     0.039 A 
ENDROOT
BRANCH   4   7
ATOM      7  O   UNL d   1      -0.154  -4.266   0.561  0.00  0.00    -0.526 OA
ATOM      8  H5  UNL d   1       0.754  -4.596   0.663  0.00  0.00     0.418 HD
ENDBRANCH   4   7
TORSDOF 1
ENDMDL
