MODEL 1
REMARK minimizedAffinity -2.63689828
REMARK minimizedRMSD -1
REMARK  1 active torsions:
REMARK  status: ('A' for Active; 'I' for Inactive)
REMARK    1  A    between atoms: C3_4  and  O_7 
ROOT
ATOM      1  C   UNL d   1       0.242   0.552   0.457  0.00  0.00    -0.033 A 
ATOM      2  C1  UNL d   1       0.865  -0.411  -0.340  0.00  0.00     0.039 A 
ATOM      3  C2  UNL d   1       0.333  -1.699  -0.424  0.00  0.00    -0.080 A 
ATOM      4  C3  UNL d   1      -0.820  -2.011   0.292  0.00  0.00     0.150 A 
ATOM      5  C4  UNL d   1      -1.447  -1.055   1.085  0.00  0.00    -0.007 A 
ATOM      6  C5  UNL d   1      -0.914   0.230   1.168  0.00  0.00     0.039 A 
ENDROOT
BRANCH   4   7
ATOM      7  O   UNL d   1      -1.372  -3.256   0.245  0.00  0.00    -0.526 OA
ATOM      8  H5  UNL d   1      -0.816  -3.819  -0.319  0.00  0.00     0.418 HD
ENDBRANCH   4   7
TORSDOF 1
ENDMDL
