MODEL 1
REMARK minimizedAffinity -2.71003413
REMARK minimizedRMSD -1
REMARK  1 active torsions:
REMARK  status: ('A' for Active; 'I' for Inactive)
REMARK    1  A    between atoms: C3_4  and  O_7 
ROOT
ATOM      1  C   UNL d   1      -0.429  -0.565   0.273  0.00  0.00    -0.033 A 
ATOM      2  C1  UNL d   1      -0.551   0.151  -0.919  0.00  0.00     0.039 A 
ATOM      3  C2  UNL d   1      -0.098   1.470  -0.993  0.00  0.00    -0.080 A 
ATOM      4  C3  UNL d   1       0.475   2.060   0.131  0.00  0.00     0.150 A 
ATOM      5  C4  UNL d   1       0.603   1.351   1.321  0.00  0.00    -0.007 A 
ATOM      6  C5  UNL d   1       0.150   0.034   1.393  0.00  0.00     0.039 A 
ENDROOT
BRANCH   4   7
ATOM      7  O   UNL d   1       0.927   3.345   0.108  0.00  0.00    -0.526 OA
ATOM      8  H5  UNL d   1       0.747   3.720  -0.770  0.00  0.00     0.418 HD
ENDBRANCH   4   7
TORSDOF 1
ENDMDL
