MODEL 1
REMARK minimizedAffinity -3.31796503
REMARK minimizedRMSD -1
REMARK  1 active torsions:
REMARK  status: ('A' for Active; 'I' for Inactive)
REMARK    1  A    between atoms: C3_4  and  O_7 
ROOT
ATOM      1  C   UNL d   1      -0.878  -3.496  -0.065  0.00  0.00    -0.033 A 
ATOM      2  C1  UNL d   1      -0.178  -2.967  -1.151  0.00  0.00     0.039 A 
ATOM      3  C2  UNL d   1       0.222  -1.629  -1.141  0.00  0.00    -0.080 A 
ATOM      4  C3  UNL d   1      -0.084  -0.833  -0.041  0.00  0.00     0.150 A 
ATOM      5  C4  UNL d   1      -0.778  -1.354   1.046  0.00  0.00    -0.007 A 
ATOM      6  C5  UNL d   1      -1.177  -2.690   1.034  0.00  0.00     0.039 A 
ENDROOT
BRANCH   4   7
ATOM      7  O   UNL d   1       0.281   0.480   0.012  0.00  0.00    -0.526 OA
ATOM      8  H5  UNL d   1       0.728   0.709  -0.820  0.00  0.00     0.418 HD
ENDBRANCH   4   7
TORSDOF 1
ENDMDL
