MODEL 1
REMARK minimizedAffinity -1.43494177
REMARK minimizedRMSD -1
REMARK  1 active torsions:
REMARK  status: ('A' for Active; 'I' for Inactive)
REMARK    1  A    between atoms: C3_4  and  O_7 
ROOT
ATOM      1  C   UNL d   1      -0.726  -1.566   1.595  0.00  0.00    -0.033 A 
ATOM      2  C1  UNL d   1      -1.801  -0.817   1.112  0.00  0.00     0.039 A 
ATOM      3  C2  UNL d   1      -1.568   0.355   0.389  0.00  0.00    -0.080 A 
ATOM      4  C3  UNL d   1      -0.259   0.765   0.156  0.00  0.00     0.150 A 
ATOM      5  C4  UNL d   1       0.817   0.021   0.630  0.00  0.00    -0.007 A 
ATOM      6  C5  UNL d   1       0.583  -1.148   1.353  0.00  0.00     0.039 A 
ENDROOT
BRANCH   4   7
ATOM      7  O   UNL d   1       0.018   1.904  -0.540  0.00  0.00    -0.526 OA
ATOM      8  H5  UNL d   1      -0.822   2.329  -0.781  0.00  0.00     0.418 HD
ENDBRANCH   4   7
TORSDOF 1
ENDMDL
