MODEL 1
REMARK minimizedAffinity -3.06708217
REMARK minimizedRMSD -1
REMARK  1 active torsions:
REMARK  status: ('A' for Active; 'I' for Inactive)
REMARK    1  A    between atoms: C3_4  and  O_7 
ROOT
ATOM      1  C   UNL d   1      -0.193   0.034   0.798  0.00  0.00    -0.033 A 
ATOM      2  C1  UNL d   1       0.038  -1.340   0.708  0.00  0.00     0.039 A 
ATOM      3  C2  UNL d   1       0.407  -1.908  -0.513  0.00  0.00    -0.080 A 
ATOM      4  C3  UNL d   1       0.543  -1.093  -1.633  0.00  0.00     0.150 A 
ATOM      5  C4  UNL d   1       0.318   0.277  -1.549  0.00  0.00    -0.007 A 
ATOM      6  C5  UNL d   1      -0.052   0.843  -0.330  0.00  0.00     0.039 A 
ENDROOT
BRANCH   4   7
ATOM      7  O   UNL d   1       0.897  -1.603  -2.847  0.00  0.00    -0.526 OA
ATOM      8  H5  UNL d   1       0.991  -2.566  -2.760  0.00  0.00     0.418 HD
ENDBRANCH   4   7
TORSDOF 1
ENDMDL
