MODEL 1
REMARK minimizedAffinity -3.94484854
REMARK minimizedRMSD -1
REMARK  1 active torsions:
REMARK  status: ('A' for Active; 'I' for Inactive)
REMARK    1  A    between atoms: C3_4  and  O_7 
ROOT
ATOM      1  C   UNL d   1      -0.706  -2.897   0.320  0.00  0.00    -0.033 A 
ATOM      2  C1  UNL d   1      -0.868  -2.122   1.470  0.00  0.00     0.039 A 
ATOM      3  C2  UNL d   1      -0.568  -0.758   1.443  0.00  0.00    -0.080 A 
ATOM      4  C3  UNL d   1      -0.110  -0.182   0.262  0.00  0.00     0.150 A 
ATOM      5  C4  UNL d   1       0.050  -0.948  -0.889  0.00  0.00    -0.007 A 
ATOM      6  C5  UNL d   1      -0.249  -2.309  -0.860  0.00  0.00     0.039 A 
ENDROOT
BRANCH   4   7
ATOM      7  O   UNL d   1       0.200   1.143   0.188  0.00  0.00    -0.526 OA
ATOM      8  H5  UNL d   1       0.068   1.539   1.066  0.00  0.00     0.418 HD
ENDBRANCH   4   7
TORSDOF 1
ENDMDL
