MODEL 1
REMARK minimizedAffinity -4.66336012
REMARK minimizedRMSD -1
REMARK  1 active torsions:
REMARK  status: ('A' for Active; 'I' for Inactive)
REMARK    1  A    between atoms: C3_4  and  O_7 
ROOT
ATOM      1  C   UNL d   1      -0.161  -1.069  -2.465  0.00  0.00    -0.033 A 
ATOM      2  C1  UNL d   1      -0.096  -2.435  -2.187  0.00  0.00     0.039 A 
ATOM      3  C2  UNL d   1      -0.210  -2.888  -0.871  0.00  0.00    -0.080 A 
ATOM      4  C3  UNL d   1      -0.390  -1.965   0.156  0.00  0.00     0.150 A 
ATOM      5  C4  UNL d   1      -0.460  -0.603  -0.114  0.00  0.00    -0.007 A 
ATOM      6  C5  UNL d   1      -0.345  -0.152  -1.429  0.00  0.00     0.039 A 
ENDROOT
BRANCH   4   7
ATOM      7  O   UNL d   1      -0.502  -2.359   1.456  0.00  0.00    -0.526 OA
ATOM      8  H5  UNL d   1      -0.406  -3.325   1.495  0.00  0.00     0.418 HD
ENDBRANCH   4   7
TORSDOF 1
ENDMDL
