MODEL 1
REMARK minimizedAffinity -4.54915047
REMARK minimizedRMSD -1
REMARK  1 active torsions:
REMARK  status: ('A' for Active; 'I' for Inactive)
REMARK    1  A    between atoms: C3_4  and  O_7 
ROOT
ATOM      1  C   UNL d   1      -0.284   0.696   0.788  0.00  0.00    -0.033 A 
ATOM      2  C1  UNL d   1      -1.210  -0.260   1.208  0.00  0.00     0.039 A 
ATOM      3  C2  UNL d   1      -0.996  -1.612   0.930  0.00  0.00    -0.080 A 
ATOM      4  C3  UNL d   1       0.147  -1.993   0.233  0.00  0.00     0.150 A 
ATOM      5  C4  UNL d   1       1.076  -1.046  -0.186  0.00  0.00    -0.007 A 
ATOM      6  C5  UNL d   1       0.860   0.303   0.092  0.00  0.00     0.039 A 
ENDROOT
BRANCH   4   7
ATOM      7  O   UNL d   1       0.396  -3.299  -0.066  0.00  0.00    -0.526 OA
ATOM      8  H5  UNL d   1      -0.345  -3.837   0.260  0.00  0.00     0.418 HD
ENDBRANCH   4   7
TORSDOF 1
ENDMDL
