MODEL 1
REMARK minimizedAffinity 0.302808106
REMARK minimizedRMSD -1
REMARK  1 active torsions:
REMARK  status: ('A' for Active; 'I' for Inactive)
REMARK    1  A    between atoms: C3_4  and  O_7 
ROOT
ATOM      1  C   UNL d   1      -0.872  -2.712   0.856  0.00  0.00    -0.033 A 
ATOM      2  C1  UNL d   1      -0.723  -1.780   1.885  0.00  0.00     0.039 A 
ATOM      3  C2  UNL d   1      -0.390  -0.457   1.589  0.00  0.00    -0.080 A 
ATOM      4  C3  UNL d   1      -0.209  -0.079   0.261  0.00  0.00     0.150 A 
ATOM      5  C4  UNL d   1      -0.360  -1.001  -0.769  0.00  0.00    -0.007 A 
ATOM      6  C5  UNL d   1      -0.692  -2.322  -0.471  0.00  0.00     0.039 A 
ENDROOT
BRANCH   4   7
ATOM      7  O   UNL d   1       0.121   1.200  -0.077  0.00  0.00    -0.526 OA
ATOM      8  H5  UNL d   1       0.220   1.718   0.739  0.00  0.00     0.418 HD
ENDBRANCH   4   7
TORSDOF 1
ENDMDL
