MODEL 1
REMARK minimizedAffinity -3.75427771
REMARK minimizedRMSD -1
REMARK  1 active torsions:
REMARK  status: ('A' for Active; 'I' for Inactive)
REMARK    1  A    between atoms: C3_4  and  O_7 
ROOT
ATOM      1  C   UNL d   1      -0.221   0.136   0.325  0.00  0.00    -0.033 A 
ATOM      2  C1  UNL d   1      -1.209  -0.603   0.979  0.00  0.00     0.039 A 
ATOM      3  C2  UNL d   1      -1.123  -1.995   1.029  0.00  0.00    -0.080 A 
ATOM      4  C3  UNL d   1      -0.046  -2.636   0.422  0.00  0.00     0.150 A 
ATOM      5  C4  UNL d   1       0.943  -1.905  -0.228  0.00  0.00    -0.007 A 
ATOM      6  C5  UNL d   1       0.855  -0.515  -0.278  0.00  0.00     0.039 A 
ENDROOT
BRANCH   4   7
ATOM      7  O   UNL d   1       0.078  -3.993   0.441  0.00  0.00    -0.526 OA
ATOM      8  H5  UNL d   1      -0.693  -4.367   0.900  0.00  0.00     0.418 HD
ENDBRANCH   4   7
TORSDOF 1
ENDMDL
