MODEL 1
REMARK minimizedAffinity -3.45100999
REMARK minimizedRMSD -1
REMARK  0 active torsions:
REMARK  status: ('A' for Active; 'I' for Inactive)
ROOT
ATOM      1  C   UNL d   1       1.758  -1.878   1.023  0.00  0.00    -0.002 A 
ATOM      2  C1  UNL d   1       1.493  -2.568  -0.152  0.00  0.00     0.010 A 
ATOM      3  C2  UNL d   1       0.632  -2.031  -1.111  0.00  0.00     0.041 A 
ATOM      4  C3  UNL d   1       0.039  -0.777  -0.869  0.00  0.00    -0.075 A 
ATOM      5  S   UNL d   1      -1.047   0.077  -1.902  0.00  0.00     0.015 SA
ATOM      6  C4  UNL d   1      -1.183   1.377  -0.809  0.00  0.00     0.022 A 
ATOM      7  C5  UNL d   1      -0.425   1.182   0.322  0.00  0.00     0.026 A 
ATOM      8  C6  UNL d   1       0.292  -0.062   0.305  0.00  0.00    -0.082 A 
ATOM      9  C7  UNL d   1       1.168  -0.634   1.259  0.00  0.00     0.045 A 
ENDROOT
TORSDOF 0
ENDMDL
