MODEL 1
REMARK minimizedAffinity -2.82170916
REMARK minimizedRMSD -1
REMARK  0 active torsions:
REMARK  status: ('A' for Active; 'I' for Inactive)
ROOT
ATOM      1  C   UNL d   1       1.522   0.548   0.639  0.00  0.00    -0.002 A 
ATOM      2  C1  UNL d   1       0.708  -0.513   0.265  0.00  0.00     0.010 A 
ATOM      3  C2  UNL d   1      -0.228  -0.364  -0.760  0.00  0.00     0.041 A 
ATOM      4  C3  UNL d   1      -0.333   0.881  -1.411  0.00  0.00    -0.075 A 
ATOM      5  S   UNL d   1      -1.406   1.295  -2.695  0.00  0.00     0.015 SA
ATOM      6  C4  UNL d   1      -0.810   2.890  -2.779  0.00  0.00     0.022 A 
ATOM      7  C5  UNL d   1       0.184   3.118  -1.857  0.00  0.00     0.026 A 
ATOM      8  C6  UNL d   1       0.476   1.964  -1.054  0.00  0.00    -0.082 A 
ATOM      9  C7  UNL d   1       1.415   1.781  -0.010  0.00  0.00     0.045 A 
ENDROOT
TORSDOF 0
ENDMDL
