MODEL 1
REMARK minimizedAffinity -4.07642174
REMARK minimizedRMSD -1
REMARK  0 active torsions:
REMARK  status: ('A' for Active; 'I' for Inactive)
ROOT
ATOM      1  C   UNL d   1       0.877  -3.012   1.093  0.00  0.00    -0.002 A 
ATOM      2  C1  UNL d   1       2.227  -2.696   1.142  0.00  0.00     0.010 A 
ATOM      3  C2  UNL d   1       2.675  -1.430   0.761  0.00  0.00     0.041 A 
ATOM      4  C3  UNL d   1       1.733  -0.476   0.328  0.00  0.00    -0.075 A 
ATOM      5  S   UNL d   1       2.049   1.139  -0.187  0.00  0.00     0.015 SA
ATOM      6  C4  UNL d   1       0.400   1.448  -0.482  0.00  0.00     0.022 A 
ATOM      7  C5  UNL d   1      -0.388   0.356  -0.201  0.00  0.00     0.026 A 
ATOM      8  C6  UNL d   1       0.367  -0.770   0.271  0.00  0.00    -0.082 A 
ATOM      9  C7  UNL d   1      -0.055  -2.063   0.663  0.00  0.00     0.045 A 
ENDROOT
TORSDOF 0
ENDMDL
