MODEL 1
REMARK minimizedAffinity -2.34324479
REMARK minimizedRMSD -1
REMARK  0 active torsions:
REMARK  status: ('A' for Active; 'I' for Inactive)
ROOT
ATOM      1  C   UNL d   1      -1.172   0.589  -0.448  0.00  0.00    -0.002 A 
ATOM      2  C1  UNL d   1       0.016   1.303  -0.520  0.00  0.00     0.010 A 
ATOM      3  C2  UNL d   1       1.227   0.703  -0.168  0.00  0.00     0.041 A 
ATOM      4  C3  UNL d   1       1.224  -0.640   0.258  0.00  0.00    -0.075 A 
ATOM      5  S   UNL d   1       2.587  -1.581   0.737  0.00  0.00     0.015 SA
ATOM      6  C4  UNL d   1       1.624  -2.953   1.046  0.00  0.00     0.022 A 
ATOM      7  C5  UNL d   1       0.293  -2.716   0.796  0.00  0.00     0.026 A 
ATOM      8  C6  UNL d   1       0.041  -1.379   0.337  0.00  0.00    -0.082 A 
ATOM      9  C7  UNL d   1      -1.171  -0.743  -0.025  0.00  0.00     0.045 A 
ENDROOT
TORSDOF 0
ENDMDL
