MODEL 1
REMARK minimizedAffinity -2.5912981
REMARK minimizedRMSD -1
REMARK  0 active torsions:
REMARK  status: ('A' for Active; 'I' for Inactive)
ROOT
ATOM      1  C   UNL d   1       2.374  -2.168   0.514  0.00  0.00    -0.002 A 
ATOM      2  C1  UNL d   1       1.365  -2.818   1.210  0.00  0.00     0.010 A 
ATOM      3  C2  UNL d   1       0.117  -2.215   1.381  0.00  0.00     0.041 A 
ATOM      4  C3  UNL d   1      -0.102  -0.936   0.833  0.00  0.00    -0.075 A 
ATOM      5  S   UNL d   1      -1.551  -0.005   0.917  0.00  0.00     0.015 SA
ATOM      6  C4  UNL d   1      -0.865   1.279   0.029  0.00  0.00     0.022 A 
ATOM      7  C5  UNL d   1       0.437   1.019  -0.330  0.00  0.00     0.026 A 
ATOM      8  C6  UNL d   1       0.898  -0.261   0.127  0.00  0.00    -0.082 A 
ATOM      9  C7  UNL d   1       2.152  -0.899  -0.028  0.00  0.00     0.045 A 
ENDROOT
TORSDOF 0
ENDMDL
