MODEL 1
REMARK minimizedAffinity -2.35919952
REMARK minimizedRMSD -1
REMARK  0 active torsions:
REMARK  status: ('A' for Active; 'I' for Inactive)
ROOT
ATOM      1  C   UNL d   1       2.331  -2.027   0.855  0.00  0.00    -0.002 A 
ATOM      2  C1  UNL d   1       1.194  -2.639   1.363  0.00  0.00     0.010 A 
ATOM      3  C2  UNL d   1      -0.062  -2.052   1.200  0.00  0.00     0.041 A 
ATOM      4  C3  UNL d   1      -0.157  -0.827   0.510  0.00  0.00    -0.075 A 
ATOM      5  S   UNL d   1      -1.590   0.076   0.189  0.00  0.00     0.015 SA
ATOM      6  C4  UNL d   1      -0.727   1.296  -0.631  0.00  0.00     0.022 A 
ATOM      7  C5  UNL d   1       0.623   1.037  -0.668  0.00  0.00     0.026 A 
ATOM      8  C6  UNL d   1       0.973  -0.192  -0.011  0.00  0.00    -0.082 A 
ATOM      9  C7  UNL d   1       2.233  -0.812   0.171  0.00  0.00     0.045 A 
ENDROOT
TORSDOF 0
ENDMDL
