MODEL 1
REMARK minimizedAffinity -2.51560926
REMARK minimizedRMSD -1
REMARK  0 active torsions:
REMARK  status: ('A' for Active; 'I' for Inactive)
ROOT
ATOM      1  C   UNL d   1       1.569  -2.479   1.082  0.00  0.00    -0.002 A 
ATOM      2  C1  UNL d   1       2.338  -1.343   1.293  0.00  0.00     0.010 A 
ATOM      3  C2  UNL d   1       1.965  -0.119   0.734  0.00  0.00     0.041 A 
ATOM      4  C3  UNL d   1       0.793  -0.055  -0.046  0.00  0.00    -0.075 A 
ATOM      5  S   UNL d   1       0.141   1.336  -0.829  0.00  0.00     0.015 SA
ATOM      6  C4  UNL d   1      -1.174   0.455  -1.461  0.00  0.00     0.022 A 
ATOM      7  C5  UNL d   1      -1.132  -0.869  -1.094  0.00  0.00     0.026 A 
ATOM      8  C6  UNL d   1       0.002  -1.185  -0.272  0.00  0.00    -0.082 A 
ATOM      9  C7  UNL d   1       0.408  -2.412   0.308  0.00  0.00     0.045 A 
ENDROOT
TORSDOF 0
ENDMDL
