MODEL 1
REMARK minimizedAffinity -1.553702
REMARK minimizedRMSD -1
REMARK  0 active torsions:
REMARK  status: ('A' for Active; 'I' for Inactive)
ROOT
ATOM      1  C   UNL d   1      -0.771  -0.778   0.142  0.00  0.00    -0.002 A 
ATOM      2  C1  UNL d   1      -0.533   0.532  -0.249  0.00  0.00     0.010 A 
ATOM      3  C2  UNL d   1       0.696   1.140   0.015  0.00  0.00     0.041 A 
ATOM      4  C3  UNL d   1       1.692   0.402   0.683  0.00  0.00    -0.075 A 
ATOM      5  S   UNL d   1       3.273   0.939   1.112  0.00  0.00     0.015 SA
ATOM      6  C4  UNL d   1       3.670  -0.557   1.824  0.00  0.00     0.022 A 
ATOM      7  C5  UNL d   1       2.633  -1.457   1.746  0.00  0.00     0.026 A 
ATOM      8  C6  UNL d   1       1.476  -0.919   1.087  0.00  0.00    -0.082 A 
ATOM      9  C7  UNL d   1       0.219  -1.507   0.805  0.00  0.00     0.045 A 
ENDROOT
TORSDOF 0
ENDMDL
