MODEL 1
REMARK minimizedAffinity -0.0823867619
REMARK minimizedRMSD -1
REMARK  0 active torsions:
REMARK  status: ('A' for Active; 'I' for Inactive)
ROOT
ATOM      1  C   UNL d   1       0.527  -2.931   1.520  0.00  0.00    -0.002 A 
ATOM      2  C1  UNL d   1       1.867  -2.610   1.355  0.00  0.00     0.010 A 
ATOM      3  C2  UNL d   1       2.241  -1.390   0.789  0.00  0.00     0.041 A 
ATOM      4  C3  UNL d   1       1.235  -0.488   0.389  0.00  0.00    -0.075 A 
ATOM      5  S   UNL d   1       1.457   1.065  -0.327  0.00  0.00     0.015 SA
ATOM      6  C4  UNL d   1      -0.222   1.340  -0.429  0.00  0.00     0.022 A 
ATOM      7  C5  UNL d   1      -0.949   0.283   0.065  0.00  0.00     0.026 A 
ATOM      8  C6  UNL d   1      -0.121  -0.788   0.546  0.00  0.00    -0.082 A 
ATOM      9  C7  UNL d   1      -0.468  -2.033   1.122  0.00  0.00     0.045 A 
ENDROOT
TORSDOF 0
ENDMDL
