MODEL 1
REMARK minimizedAffinity -4.56433153
REMARK minimizedRMSD -1
REMARK  0 active torsions:
REMARK  status: ('A' for Active; 'I' for Inactive)
ROOT
ATOM      1  C   UNL d   1       1.774  -2.558   0.980  0.00  0.00    -0.002 A 
ATOM      2  C1  UNL d   1       0.411  -2.416   1.201  0.00  0.00     0.010 A 
ATOM      3  C2  UNL d   1      -0.261  -1.267   0.781  0.00  0.00     0.041 A 
ATOM      4  C3  UNL d   1       0.466  -0.252   0.128  0.00  0.00    -0.075 A 
ATOM      5  S   UNL d   1      -0.147   1.243  -0.474  0.00  0.00     0.015 SA
ATOM      6  C4  UNL d   1       1.386   1.729  -1.039  0.00  0.00     0.022 A 
ATOM      7  C5  UNL d   1       2.353   0.786  -0.783  0.00  0.00     0.026 A 
ATOM      8  C6  UNL d   1       1.839  -0.372  -0.107  0.00  0.00    -0.082 A 
ATOM      9  C7  UNL d   1       2.491  -1.549   0.331  0.00  0.00     0.045 A 
ENDROOT
TORSDOF 0
ENDMDL
