MODEL 1
REMARK minimizedAffinity -3.75232577
REMARK minimizedRMSD -1
REMARK  0 active torsions:
REMARK  status: ('A' for Active; 'I' for Inactive)
ROOT
ATOM      1  C   UNL d   1       0.003  -2.709  -0.382  0.00  0.00     0.077 C 
ATOM      2  C1  UNL d   1       0.506  -1.384  -0.873  0.00  0.00    -0.074 A 
ATOM      3  C2  UNL d   1       1.004  -1.240  -2.172  0.00  0.00    -0.005 A 
ATOM      4  C3  UNL d   1       1.459   0.001  -2.618  0.00  0.00     0.006 A 
ATOM      5  C4  UNL d   1       1.422   1.109  -1.770  0.00  0.00    -0.005 A 
ATOM      6  C5  UNL d   1       0.927   0.984  -0.468  0.00  0.00    -0.074 A 
ATOM      7  C6  UNL d   1       0.870   2.167   0.453  0.00  0.00     0.077 C 
ATOM      8  C7  UNL d   1       0.464  -0.264  -0.030  0.00  0.00    -0.001 A 
ENDROOT
TORSDOF 0
ENDMDL
