MODEL 1
REMARK minimizedAffinity -4.13070059
REMARK minimizedRMSD -1
REMARK  0 active torsions:
REMARK  status: ('A' for Active; 'I' for Inactive)
ROOT
ATOM      1  C   UNL d   1      -0.453  -1.320   0.914  0.00  0.00     0.077 C 
ATOM      2  C1  UNL d   1       0.143  -0.320  -0.033  0.00  0.00    -0.074 A 
ATOM      3  C2  UNL d   1       0.148   1.044   0.272  0.00  0.00    -0.005 A 
ATOM      4  C3  UNL d   1       0.714   1.961  -0.613  0.00  0.00     0.006 A 
ATOM      5  C4  UNL d   1       1.280   1.523  -1.811  0.00  0.00    -0.005 A 
ATOM      6  C5  UNL d   1       1.285   0.162  -2.133  0.00  0.00    -0.074 A 
ATOM      7  C6  UNL d   1       1.898  -0.326  -3.412  0.00  0.00     0.077 C 
ATOM      8  C7  UNL d   1       0.720  -0.753  -1.235  0.00  0.00    -0.001 A 
ENDROOT
TORSDOF 0
ENDMDL
