MODEL 1
REMARK minimizedAffinity -3.40523767
REMARK minimizedRMSD -1
REMARK  0 active torsions:
REMARK  status: ('A' for Active; 'I' for Inactive)
ROOT
ATOM      1  C   UNL d   1      -3.078   2.215   1.801  0.00  0.00     0.077 C 
ATOM      2  C1  UNL d   1      -2.041   1.180   1.482  0.00  0.00    -0.074 A 
ATOM      3  C2  UNL d   1      -1.854   0.071   2.313  0.00  0.00    -0.005 A 
ATOM      4  C3  UNL d   1      -0.892  -0.889   1.999  0.00  0.00     0.006 A 
ATOM      5  C4  UNL d   1      -0.109  -0.750   0.852  0.00  0.00    -0.005 A 
ATOM      6  C5  UNL d   1      -0.282   0.352   0.009  0.00  0.00    -0.074 A 
ATOM      7  C6  UNL d   1       0.544   0.512  -1.232  0.00  0.00     0.077 C 
ATOM      8  C7  UNL d   1      -1.256   1.309   0.328  0.00  0.00    -0.001 A 
ENDROOT
TORSDOF 0
ENDMDL
