MODEL 1
REMARK minimizedAffinity -5.63948393
REMARK minimizedRMSD -1
REMARK  0 active torsions:
REMARK  status: ('A' for Active; 'I' for Inactive)
ROOT
ATOM      1  C   UNL d   1      -0.686   0.685  -1.804  0.00  0.00     0.077 C 
ATOM      2  C1  UNL d   1       0.496  -0.221  -1.979  0.00  0.00    -0.074 A 
ATOM      3  C2  UNL d   1       1.660   0.229  -2.609  0.00  0.00    -0.005 A 
ATOM      4  C3  UNL d   1       2.755  -0.622  -2.756  0.00  0.00     0.006 A 
ATOM      5  C4  UNL d   1       2.698  -1.930  -2.275  0.00  0.00    -0.005 A 
ATOM      6  C5  UNL d   1       1.542  -2.399  -1.641  0.00  0.00    -0.074 A 
ATOM      7  C6  UNL d   1       1.467  -3.799  -1.109  0.00  0.00     0.077 C 
ATOM      8  C7  UNL d   1       0.449  -1.535  -1.491  0.00  0.00    -0.001 A 
ENDROOT
TORSDOF 0
ENDMDL
