MODEL 1
REMARK minimizedAffinity -5.41079569
REMARK minimizedRMSD -1
REMARK  0 active torsions:
REMARK  status: ('A' for Active; 'I' for Inactive)
ROOT
ATOM      1  C   UNL d   1       1.682  -2.938  -1.870  0.00  0.00     0.077 C 
ATOM      2  C1  UNL d   1       1.298  -1.532  -1.520  0.00  0.00    -0.074 A 
ATOM      3  C2  UNL d   1       1.857  -0.444  -2.198  0.00  0.00    -0.005 A 
ATOM      4  C3  UNL d   1       1.483   0.859  -1.867  0.00  0.00     0.006 A 
ATOM      5  C4  UNL d   1       0.547   1.086  -0.857  0.00  0.00    -0.005 A 
ATOM      6  C5  UNL d   1      -0.024   0.011  -0.169  0.00  0.00    -0.074 A 
ATOM      7  C6  UNL d   1      -1.038   0.237   0.912  0.00  0.00     0.077 C 
ATOM      8  C7  UNL d   1       0.353  -1.295  -0.512  0.00  0.00    -0.001 A 
ENDROOT
TORSDOF 0
ENDMDL
