MODEL 1
REMARK minimizedAffinity -3.21428108
REMARK minimizedRMSD -1
REMARK  0 active torsions:
REMARK  status: ('A' for Active; 'I' for Inactive)
ROOT
ATOM      1  C   UNL d   1       1.325  -0.408  -2.924  0.00  0.00     0.077 C 
ATOM      2  C1  UNL d   1       0.817  -0.272  -1.519  0.00  0.00    -0.074 A 
ATOM      3  C2  UNL d   1       0.002  -1.257  -0.951  0.00  0.00    -0.005 A 
ATOM      4  C3  UNL d   1      -0.455  -1.121   0.360  0.00  0.00     0.006 A 
ATOM      5  C4  UNL d   1      -0.104  -0.001   1.114  0.00  0.00    -0.005 A 
ATOM      6  C5  UNL d   1       0.711   0.993   0.563  0.00  0.00    -0.074 A 
ATOM      7  C6  UNL d   1       1.106   2.199   1.364  0.00  0.00     0.077 C 
ATOM      8  C7  UNL d   1       1.172   0.846  -0.752  0.00  0.00    -0.001 A 
ENDROOT
TORSDOF 0
ENDMDL
