MODEL 1
REMARK minimizedAffinity -4.97260475
REMARK minimizedRMSD -1
REMARK  0 active torsions:
REMARK  status: ('A' for Active; 'I' for Inactive)
ROOT
ATOM      1  C   UNL d   1      -3.123   0.381   0.567  0.00  0.00     0.077 C 
ATOM      2  C1  UNL d   1      -1.657   0.295   0.262  0.00  0.00    -0.074 A 
ATOM      3  C2  UNL d   1      -0.729   0.007   1.268  0.00  0.00    -0.005 A 
ATOM      4  C3  UNL d   1       0.630  -0.079   0.967  0.00  0.00     0.006 A 
ATOM      5  C4  UNL d   1       1.075   0.122  -0.340  0.00  0.00    -0.005 A 
ATOM      6  C5  UNL d   1       0.162   0.410  -1.359  0.00  0.00    -0.074 A 
ATOM      7  C6  UNL d   1       0.622   0.620  -2.771  0.00  0.00     0.077 C 
ATOM      8  C7  UNL d   1      -1.203   0.488  -1.051  0.00  0.00    -0.001 A 
ENDROOT
TORSDOF 0
ENDMDL
