MODEL 1
REMARK minimizedAffinity -4.1548357
REMARK minimizedRMSD -1
REMARK  0 active torsions:
REMARK  status: ('A' for Active; 'I' for Inactive)
ROOT
ATOM      1  C   UNL d   1       2.839   0.965  -1.489  0.00  0.00     0.077 C 
ATOM      2  C1  UNL d   1       1.422   0.517  -1.284  0.00  0.00    -0.074 A 
ATOM      3  C2  UNL d   1       0.719  -0.133  -2.303  0.00  0.00    -0.005 A 
ATOM      4  C3  UNL d   1      -0.595  -0.552  -2.094  0.00  0.00     0.006 A 
ATOM      5  C4  UNL d   1      -1.218  -0.325  -0.866  0.00  0.00    -0.005 A 
ATOM      6  C5  UNL d   1      -0.530   0.322   0.165  0.00  0.00    -0.074 A 
ATOM      7  C6  UNL d   1      -1.181   0.564   1.495  0.00  0.00     0.077 C 
ATOM      8  C7  UNL d   1       0.793   0.734  -0.050  0.00  0.00    -0.001 A 
ENDROOT
TORSDOF 0
ENDMDL
