MODEL 1
REMARK minimizedAffinity -2.63081193
REMARK minimizedRMSD -1
REMARK  0 active torsions:
REMARK  status: ('A' for Active; 'I' for Inactive)
ROOT
ATOM      1  C   UNL d   1      -1.499   1.085   2.447  0.00  0.00     0.077 C 
ATOM      2  C1  UNL d   1      -0.805   0.387   1.316  0.00  0.00    -0.074 A 
ATOM      3  C2  UNL d   1      -0.897  -1.000   1.162  0.00  0.00    -0.005 A 
ATOM      4  C3  UNL d   1      -0.254  -1.634   0.099  0.00  0.00     0.006 A 
ATOM      5  C4  UNL d   1       0.487  -0.888  -0.820  0.00  0.00    -0.005 A 
ATOM      6  C5  UNL d   1       0.590   0.500  -0.682  0.00  0.00    -0.074 A 
ATOM      7  C6  UNL d   1       1.374   1.317  -1.666  0.00  0.00     0.077 C 
ATOM      8  C7  UNL d   1      -0.065   1.130   0.384  0.00  0.00    -0.001 A 
ENDROOT
TORSDOF 0
ENDMDL
