MODEL 1
REMARK minimizedAffinity -4.18784142
REMARK minimizedRMSD -1
REMARK  0 active torsions:
REMARK  status: ('A' for Active; 'I' for Inactive)
ROOT
ATOM      1  C   UNL d   1       1.587  -0.433  -3.189  0.00  0.00     0.077 C 
ATOM      2  C1  UNL d   1       1.142   0.101  -1.860  0.00  0.00    -0.074 A 
ATOM      3  C2  UNL d   1       1.477   1.398  -1.458  0.00  0.00    -0.005 A 
ATOM      4  C3  UNL d   1       1.049   1.884  -0.223  0.00  0.00     0.006 A 
ATOM      5  C4  UNL d   1       0.282   1.079   0.621  0.00  0.00    -0.005 A 
ATOM      6  C5  UNL d   1      -0.064  -0.220   0.236  0.00  0.00    -0.074 A 
ATOM      7  C6  UNL d   1      -0.895  -1.094   1.127  0.00  0.00     0.077 C 
ATOM      8  C7  UNL d   1       0.365  -0.698  -1.010  0.00  0.00    -0.001 A 
ENDROOT
TORSDOF 0
ENDMDL
