MODEL 1
REMARK minimizedAffinity -1.2561872
REMARK minimizedRMSD -1
REMARK  0 active torsions:
REMARK  status: ('A' for Active; 'I' for Inactive)
ROOT
ATOM      1  C   UNL d   1      -3.936   1.291   2.077  0.00  0.00     0.077 C 
ATOM      2  C1  UNL d   1      -2.806   0.540   1.437  0.00  0.00    -0.074 A 
ATOM      3  C2  UNL d   1      -2.965  -0.790   1.035  0.00  0.00    -0.005 A 
ATOM      4  C3  UNL d   1      -1.908  -1.473   0.432  0.00  0.00     0.006 A 
ATOM      5  C4  UNL d   1      -0.685  -0.834   0.225  0.00  0.00    -0.005 A 
ATOM      6  C5  UNL d   1      -0.509   0.496   0.619  0.00  0.00    -0.074 A 
ATOM      7  C6  UNL d   1       0.796   1.201   0.395  0.00  0.00     0.077 C 
ATOM      8  C7  UNL d   1      -1.577   1.178   1.218  0.00  0.00    -0.001 A 
ENDROOT
TORSDOF 0
ENDMDL
