MODEL 1
REMARK minimizedAffinity -1.84405339
REMARK minimizedRMSD -1
REMARK  0 active torsions:
REMARK  status: ('A' for Active; 'I' for Inactive)
ROOT
ATOM      1  C   UNL d   1       1.300   0.119  -1.870  0.00  0.00     0.077 C 
ATOM      2  C1  UNL d   1       0.472  -0.548  -0.812  0.00  0.00    -0.074 A 
ATOM      3  C2  UNL d   1       0.636  -1.906  -0.521  0.00  0.00    -0.005 A 
ATOM      4  C3  UNL d   1      -0.135  -2.511   0.471  0.00  0.00     0.006 A 
ATOM      5  C4  UNL d   1      -1.076  -1.765   1.182  0.00  0.00    -0.005 A 
ATOM      6  C5  UNL d   1      -1.254  -0.406   0.905  0.00  0.00    -0.074 A 
ATOM      7  C6  UNL d   1      -2.254   0.412   1.666  0.00  0.00     0.077 C 
ATOM      8  C7  UNL d   1      -0.471   0.196  -0.089  0.00  0.00    -0.001 A 
ENDROOT
TORSDOF 0
ENDMDL
