MODEL 1
REMARK minimizedAffinity -4.42065954
REMARK minimizedRMSD -1
REMARK  0 active torsions:
REMARK  status: ('A' for Active; 'I' for Inactive)
ROOT
ATOM      1  C   UNL d   1       0.560  -2.944  -0.993  0.00  0.00     0.077 C 
ATOM      2  C1  UNL d   1       1.069  -1.594  -1.403  0.00  0.00    -0.074 A 
ATOM      3  C2  UNL d   1       1.957  -1.456  -2.474  0.00  0.00    -0.005 A 
ATOM      4  C3  UNL d   1       2.415  -0.193  -2.849  0.00  0.00     0.006 A 
ATOM      5  C4  UNL d   1       1.990   0.943  -2.158  0.00  0.00    -0.005 A 
ATOM      6  C5  UNL d   1       1.102   0.824  -1.085  0.00  0.00    -0.074 A 
ATOM      7  C6  UNL d   1       0.627   2.034  -0.338  0.00  0.00     0.077 C 
ATOM      8  C7  UNL d   1       0.641  -0.448  -0.718  0.00  0.00    -0.001 A 
ENDROOT
TORSDOF 0
ENDMDL
