MODEL 1
REMARK minimizedAffinity -2.84724498
REMARK minimizedRMSD -1
REMARK  0 active torsions:
REMARK  status: ('A' for Active; 'I' for Inactive)
ROOT
ATOM      1  C   UNL d   1      -0.061  -2.684   0.968  0.00  0.00     0.077 C 
ATOM      2  C1  UNL d   1       0.037  -1.309   0.378  0.00  0.00    -0.074 A 
ATOM      3  C2  UNL d   1      -0.430  -0.191   1.077  0.00  0.00    -0.005 A 
ATOM      4  C3  UNL d   1      -0.324   1.083   0.520  0.00  0.00     0.006 A 
ATOM      5  C4  UNL d   1       0.251   1.252  -0.741  0.00  0.00    -0.005 A 
ATOM      6  C5  UNL d   1       0.725   0.147  -1.454  0.00  0.00    -0.074 A 
ATOM      7  C6  UNL d   1       1.354   0.312  -2.806  0.00  0.00     0.077 C 
ATOM      8  C7  UNL d   1       0.620  -1.130  -0.884  0.00  0.00    -0.001 A 
ENDROOT
TORSDOF 0
ENDMDL
