MODEL 1
REMARK minimizedAffinity -5.48683453
REMARK minimizedRMSD -1
REMARK  0 active torsions:
REMARK  status: ('A' for Active; 'I' for Inactive)
ROOT
ATOM      1  C   UNL d   1      -0.744   0.383   1.176  0.00  0.00     0.077 C 
ATOM      2  C1  UNL d   1       0.079   0.015  -0.022  0.00  0.00    -0.074 A 
ATOM      3  C2  UNL d   1       0.658   1.002  -0.827  0.00  0.00    -0.005 A 
ATOM      4  C3  UNL d   1       1.429   0.645  -1.933  0.00  0.00     0.006 A 
ATOM      5  C4  UNL d   1       1.629  -0.701  -2.245  0.00  0.00    -0.005 A 
ATOM      6  C5  UNL d   1       1.059  -1.701  -1.451  0.00  0.00    -0.074 A 
ATOM      7  C6  UNL d   1       1.272  -3.152  -1.767  0.00  0.00     0.077 C 
ATOM      8  C7  UNL d   1       0.291  -1.334  -0.338  0.00  0.00    -0.001 A 
ENDROOT
TORSDOF 0
ENDMDL
