MODEL 1
REMARK minimizedAffinity -5.29579973
REMARK minimizedRMSD -1
REMARK  0 active torsions:
REMARK  status: ('A' for Active; 'I' for Inactive)
ROOT
ATOM      1  C   UNL d   1      -0.378  -1.174   1.479  0.00  0.00     0.077 C 
ATOM      2  C1  UNL d   1       0.179  -0.205   0.479  0.00  0.00    -0.074 A 
ATOM      3  C2  UNL d   1       0.575   1.080   0.867  0.00  0.00    -0.005 A 
ATOM      4  C3  UNL d   1       1.100   1.967  -0.072  0.00  0.00     0.006 A 
ATOM      5  C4  UNL d   1       1.234   1.581  -1.406  0.00  0.00    -0.005 A 
ATOM      6  C5  UNL d   1       0.845   0.301  -1.812  0.00  0.00    -0.074 A 
ATOM      7  C6  UNL d   1       0.992  -0.134  -3.240  0.00  0.00     0.077 C 
ATOM      8  C7  UNL d   1       0.325  -0.588  -0.861  0.00  0.00    -0.001 A 
ENDROOT
TORSDOF 0
ENDMDL
