MODEL 1
REMARK minimizedAffinity 13.6125822
REMARK minimizedRMSD -1
REMARK  0 active torsions:
REMARK  status: ('A' for Active; 'I' for Inactive)
ROOT
ATOM      1  C2' OXE d   1       2.644   1.754  -5.250  0.00  0.00     0.078 C 
ATOM      2  C1' OXE d   1       2.815   2.631  -2.589  0.00  0.00     0.078 C 
ATOM      3  C1  OXE d   1       2.642   3.675  -3.663  0.00  0.00    -0.078 A 
ATOM      4  C2  OXE d   1       2.606   3.240  -4.967  0.00  0.00    -0.078 A 
ATOM      5  C3  OXE d   1       2.393   4.157  -5.993  0.00  0.00     0.003 A 
ATOM      6  C4  OXE d   1       2.369   5.530  -5.723  0.00  0.00    -0.002 A 
ATOM      7  C5  OXE d   1       2.444   5.997  -4.406  0.00  0.00    -0.002 A 
ATOM      8  C6  OXE d   1       2.537   5.081  -3.364  0.00  0.00     0.003 A 
ENDROOT
TORSDOF 0
ENDMDL
