MODEL 1
REMARK minimizedAffinity -0.586473525
REMARK minimizedRMSD -1
REMARK  0 active torsions:
REMARK  status: ('A' for Active; 'I' for Inactive)
ROOT
ATOM      1  C2' OXE d   1      -0.680  -1.862   0.542  0.00  0.00     0.078 C 
ATOM      2  C1' OXE d   1       0.354  -4.297  -0.395  0.00  0.00     0.078 C 
ATOM      3  C1  OXE d   1      -0.493  -3.483  -1.340  0.00  0.00    -0.078 A 
ATOM      4  C2  OXE d   1      -1.033  -2.315  -0.858  0.00  0.00    -0.078 A 
ATOM      5  C3  OXE d   1      -1.777  -1.499  -1.705  0.00  0.00     0.003 A 
ATOM      6  C4  OXE d   1      -2.108  -1.930  -2.995  0.00  0.00    -0.002 A 
ATOM      7  C5  OXE d   1      -1.601  -3.135  -3.493  0.00  0.00    -0.002 A 
ATOM      8  C6  OXE d   1      -0.759  -3.901  -2.694  0.00  0.00     0.003 A 
ENDROOT
TORSDOF 0
ENDMDL
