MODEL 1
REMARK minimizedAffinity 7.15852785
REMARK minimizedRMSD -1
REMARK  0 active torsions:
REMARK  status: ('A' for Active; 'I' for Inactive)
ROOT
ATOM      1  C2' OXE d   1      -1.374  -3.263  -1.987  0.00  0.00     0.078 C 
ATOM      2  C1' OXE d   1      -4.087  -3.778  -2.493  0.00  0.00     0.078 C 
ATOM      3  C1  OXE d   1      -3.226  -3.339  -3.651  0.00  0.00    -0.078 A 
ATOM      4  C2  OXE d   1      -1.910  -3.045  -3.385  0.00  0.00    -0.078 A 
ATOM      5  C3  OXE d   1      -1.060  -2.688  -4.428  0.00  0.00     0.003 A 
ATOM      6  C4  OXE d   1      -1.566  -2.478  -5.716  0.00  0.00    -0.002 A 
ATOM      7  C5  OXE d   1      -2.912  -2.734  -6.000  0.00  0.00    -0.002 A 
ATOM      8  C6  OXE d   1      -3.744  -3.205  -4.990  0.00  0.00     0.003 A 
ENDROOT
TORSDOF 0
ENDMDL
