MODEL 1
REMARK minimizedAffinity 5.54382896
REMARK minimizedRMSD -1
REMARK  0 active torsions:
REMARK  status: ('A' for Active; 'I' for Inactive)
ROOT
ATOM      1  C2' OXE d   1       3.457   3.877  -2.532  0.00  0.00     0.078 C 
ATOM      2  C1' OXE d   1       0.711   3.702  -3.085  0.00  0.00     0.078 C 
ATOM      3  C1  OXE d   1       1.569   4.503  -4.031  0.00  0.00    -0.078 A 
ATOM      4  C2  OXE d   1       2.904   4.623  -3.728  0.00  0.00    -0.078 A 
ATOM      5  C3  OXE d   1       3.750   5.305  -4.597  0.00  0.00     0.003 A 
ATOM      6  C4  OXE d   1       3.228   6.000  -5.695  0.00  0.00    -0.002 A 
ATOM      7  C5  OXE d   1       1.865   5.924  -6.000  0.00  0.00    -0.002 A 
ATOM      8  C6  OXE d   1       1.031   5.147  -5.204  0.00  0.00     0.003 A 
ENDROOT
TORSDOF 0
ENDMDL
