MODEL 1
REMARK minimizedAffinity 3.06901479
REMARK minimizedRMSD -1
REMARK  0 active torsions:
REMARK  status: ('A' for Active; 'I' for Inactive)
ROOT
ATOM      1  C2' OXE d   1       0.841   1.990   3.352  0.00  0.00     0.078 C 
ATOM      2  C1' OXE d   1       0.701   4.091   1.496  0.00  0.00     0.078 C 
ATOM      3  C1  OXE d   1       1.655   2.959   1.207  0.00  0.00    -0.078 A 
ATOM      4  C2  OXE d   1       1.751   1.958   2.143  0.00  0.00    -0.078 A 
ATOM      5  C3  OXE d   1       2.576   0.864   1.900  0.00  0.00     0.003 A 
ATOM      6  C4  OXE d   1       3.422   0.847   0.784  0.00  0.00    -0.002 A 
ATOM      7  C5  OXE d   1       3.368   1.876  -0.162  0.00  0.00    -0.002 A 
ATOM      8  C6  OXE d   1       2.462   2.916   0.012  0.00  0.00     0.003 A 
ENDROOT
TORSDOF 0
ENDMDL
