MODEL 1
REMARK minimizedAffinity 7.40621901
REMARK minimizedRMSD -1
REMARK  0 active torsions:
REMARK  status: ('A' for Active; 'I' for Inactive)
ROOT
ATOM      1  C2' OXE d   1       0.032   0.929   3.316  0.00  0.00     0.078 C 
ATOM      2  C1' OXE d   1      -1.831   2.973   2.833  0.00  0.00     0.078 C 
ATOM      3  C1  OXE d   1      -0.425   3.167   2.322  0.00  0.00    -0.078 A 
ATOM      4  C2  OXE d   1       0.492   2.183   2.604  0.00  0.00    -0.078 A 
ATOM      5  C3  OXE d   1       1.789   2.287   2.110  0.00  0.00     0.003 A 
ATOM      6  C4  OXE d   1       2.208   3.454   1.460  0.00  0.00    -0.002 A 
ATOM      7  C5  OXE d   1       1.301   4.486   1.198  0.00  0.00    -0.002 A 
ATOM      8  C6  OXE d   1      -0.027   4.340   1.584  0.00  0.00     0.003 A 
ENDROOT
TORSDOF 0
ENDMDL
