MODEL 1
REMARK minimizedAffinity 4.26940346
REMARK minimizedRMSD -1
REMARK  0 active torsions:
REMARK  status: ('A' for Active; 'I' for Inactive)
ROOT
ATOM      1  C2' OXE d   1      -2.750  -1.409  -0.510  0.00  0.00     0.078 C 
ATOM      2  C1' OXE d   1      -5.057  -3.007  -0.433  0.00  0.00     0.078 C 
ATOM      3  C1  OXE d   1      -4.215  -3.046  -1.684  0.00  0.00    -0.078 A 
ATOM      4  C2  OXE d   1      -3.114  -2.225  -1.731  0.00  0.00    -0.078 A 
ATOM      5  C3  OXE d   1      -2.272  -2.263  -2.839  0.00  0.00     0.003 A 
ATOM      6  C4  OXE d   1      -2.622  -3.013  -3.969  0.00  0.00    -0.002 A 
ATOM      7  C5  OXE d   1      -3.761  -3.825  -3.957  0.00  0.00    -0.002 A 
ATOM      8  C6  OXE d   1      -4.543  -3.885  -2.810  0.00  0.00     0.003 A 
ENDROOT
TORSDOF 0
ENDMDL
