MODEL 1
REMARK minimizedAffinity 6.62426567
REMARK minimizedRMSD -1
REMARK  0 active torsions:
REMARK  status: ('A' for Active; 'I' for Inactive)
ROOT
ATOM      1  C2' OXE d   1       3.638   5.897  -5.856  0.00  0.00     0.078 C 
ATOM      2  C1' OXE d   1       0.882   5.381  -5.996  0.00  0.00     0.078 C 
ATOM      3  C1  OXE d   1       1.818   4.199  -5.949  0.00  0.00    -0.078 A 
ATOM      4  C2  OXE d   1       3.167   4.461  -5.928  0.00  0.00    -0.078 A 
ATOM      5  C3  OXE d   1       4.072   3.408  -5.829  0.00  0.00     0.003 A 
ATOM      6  C4  OXE d   1       3.628   2.082  -5.906  0.00  0.00    -0.002 A 
ATOM      7  C5  OXE d   1       2.261   1.793  -5.968  0.00  0.00    -0.002 A 
ATOM      8  C6  OXE d   1       1.342   2.837  -5.948  0.00  0.00     0.003 A 
ENDROOT
TORSDOF 0
ENDMDL
