MODEL 1
REMARK minimizedAffinity 8.93794632
REMARK minimizedRMSD -1
REMARK  0 active torsions:
REMARK  status: ('A' for Active; 'I' for Inactive)
ROOT
ATOM      1  C2' OXE d   1       3.080   0.902  -5.595  0.00  0.00     0.078 C 
ATOM      2  C1' OXE d   1       5.201   0.362  -3.837  0.00  0.00     0.078 C 
ATOM      3  C1  OXE d   1       4.382  -0.804  -4.330  0.00  0.00    -0.078 A 
ATOM      4  C2  OXE d   1       3.318  -0.526  -5.153  0.00  0.00    -0.078 A 
ATOM      5  C3  OXE d   1       2.563  -1.570  -5.681  0.00  0.00     0.003 A 
ATOM      6  C4  OXE d   1       2.783  -2.887  -5.259  0.00  0.00    -0.002 A 
ATOM      7  C5  OXE d   1       3.837  -3.188  -4.390  0.00  0.00    -0.002 A 
ATOM      8  C6  OXE d   1       4.671  -2.166  -3.951  0.00  0.00     0.003 A 
ENDROOT
TORSDOF 0
ENDMDL
