MODEL 1
REMARK minimizedAffinity 6.39562178
REMARK minimizedRMSD -1
REMARK  0 active torsions:
REMARK  status: ('A' for Active; 'I' for Inactive)
ROOT
ATOM      1  C2' OXE d   1       2.101   2.127  -5.966  0.00  0.00     0.078 C 
ATOM      2  C1' OXE d   1       1.286   2.339  -3.289  0.00  0.00     0.078 C 
ATOM      3  C1  OXE d   1       1.726   3.599  -3.992  0.00  0.00    -0.078 A 
ATOM      4  C2  OXE d   1       2.167   3.478  -5.287  0.00  0.00    -0.078 A 
ATOM      5  C3  OXE d   1       2.533   4.617  -6.000  0.00  0.00     0.003 A 
ATOM      6  C4  OXE d   1       2.601   5.861  -5.361  0.00  0.00    -0.002 A 
ATOM      7  C5  OXE d   1       2.194   5.999  -4.030  0.00  0.00    -0.002 A 
ATOM      8  C6  OXE d   1       1.714   4.888  -3.346  0.00  0.00     0.003 A 
ENDROOT
TORSDOF 0
ENDMDL
