MODEL 1
REMARK minimizedAffinity -1.12476957
REMARK minimizedRMSD -1
REMARK  0 active torsions:
REMARK  status: ('A' for Active; 'I' for Inactive)
ROOT
ATOM      1  C2' OXE d   1       2.617  -1.966  -5.923  0.00  0.00     0.078 C 
ATOM      2  C1' OXE d   1       4.818  -3.023  -4.537  0.00  0.00     0.078 C 
ATOM      3  C1  OXE d   1       4.870  -1.569  -4.936  0.00  0.00    -0.078 A 
ATOM      4  C2  OXE d   1       3.809  -1.073  -5.654  0.00  0.00    -0.078 A 
ATOM      5  C3  OXE d   1       3.781   0.275  -5.999  0.00  0.00     0.003 A 
ATOM      6  C4  OXE d   1       4.892   1.093  -5.756  0.00  0.00    -0.002 A 
ATOM      7  C5  OXE d   1       5.999   0.596  -5.060  0.00  0.00    -0.002 A 
ATOM      8  C6  OXE d   1       5.986  -0.718  -4.607  0.00  0.00     0.003 A 
ENDROOT
TORSDOF 0
ENDMDL
