MODEL 1
REMARK minimizedAffinity 7.28007936
REMARK minimizedRMSD -1
REMARK  0 active torsions:
REMARK  status: ('A' for Active; 'I' for Inactive)
ROOT
ATOM      1  C2' OXE d   1      -0.580  -1.855   0.389  0.00  0.00     0.078 C 
ATOM      2  C1' OXE d   1       1.221  -0.029   1.530  0.00  0.00     0.078 C 
ATOM      3  C1  OXE d   1       0.189  -0.658   2.434  0.00  0.00    -0.078 A 
ATOM      4  C2  OXE d   1      -0.717  -1.514   1.858  0.00  0.00    -0.078 A 
ATOM      5  C3  OXE d   1      -1.655  -2.164   2.655  0.00  0.00     0.003 A 
ATOM      6  C4  OXE d   1      -1.782  -1.836   4.010  0.00  0.00    -0.002 A 
ATOM      7  C5  OXE d   1      -0.894  -0.935   4.609  0.00  0.00    -0.002 A 
ATOM      8  C6  OXE d   1       0.122  -0.371   3.845  0.00  0.00     0.003 A 
ENDROOT
TORSDOF 0
ENDMDL
