MODEL 1
REMARK minimizedAffinity 12.1551237
REMARK minimizedRMSD -1
REMARK  0 active torsions:
REMARK  status: ('A' for Active; 'I' for Inactive)
ROOT
ATOM      1  C2' OXE d   1       1.816   1.294   2.230  0.00  0.00     0.078 C 
ATOM      2  C1' OXE d   1       2.308   3.682   0.840  0.00  0.00     0.078 C 
ATOM      3  C1  OXE d   1       0.966   3.521   1.509  0.00  0.00    -0.078 A 
ATOM      4  C2  OXE d   1       0.717   2.330   2.148  0.00  0.00    -0.078 A 
ATOM      5  C3  OXE d   1      -0.484   2.151   2.828  0.00  0.00     0.003 A 
ATOM      6  C4  OXE d   1      -1.500   3.111   2.739  0.00  0.00    -0.002 A 
ATOM      7  C5  OXE d   1      -1.282   4.314   2.060  0.00  0.00    -0.002 A 
ATOM      8  C6  OXE d   1      -0.042   4.553   1.477  0.00  0.00     0.003 A 
ENDROOT
TORSDOF 0
ENDMDL
