MODEL 1
REMARK minimizedAffinity 6.70416117
REMARK minimizedRMSD -1
REMARK  0 active torsions:
REMARK  status: ('A' for Active; 'I' for Inactive)
ROOT
ATOM      1  C2' OXE d   1       0.724   3.349  -3.213  0.00  0.00     0.078 C 
ATOM      2  C1' OXE d   1       0.997   3.089  -5.995  0.00  0.00     0.078 C 
ATOM      3  C1  OXE d   1       1.863   4.106  -5.295  0.00  0.00    -0.078 A 
ATOM      4  C2  OXE d   1       1.689   4.260  -3.941  0.00  0.00    -0.078 A 
ATOM      5  C3  OXE d   1       2.501   5.146  -3.238  0.00  0.00     0.003 A 
ATOM      6  C4  OXE d   1       3.384   5.991  -3.920  0.00  0.00    -0.002 A 
ATOM      7  C5  OXE d   1       3.548   5.879  -5.304  0.00  0.00    -0.002 A 
ATOM      8  C6  OXE d   1       2.827   4.915  -6.000  0.00  0.00     0.003 A 
ENDROOT
TORSDOF 0
ENDMDL
