MODEL 1
REMARK minimizedAffinity 4.80521297
REMARK minimizedRMSD -1
REMARK  0 active torsions:
REMARK  status: ('A' for Active; 'I' for Inactive)
ROOT
ATOM      1  C2' OXE d   1       0.609   2.402  -5.982  0.00  0.00     0.078 C 
ATOM      2  C1' OXE d   1       3.383   1.979  -5.897  0.00  0.00     0.078 C 
ATOM      3  C1  OXE d   1       2.889   3.404  -5.909  0.00  0.00    -0.078 A 
ATOM      4  C2  OXE d   1       1.532   3.602  -5.998  0.00  0.00    -0.078 A 
ATOM      5  C3  OXE d   1       1.020   4.896  -5.958  0.00  0.00     0.003 A 
ATOM      6  C4  OXE d   1       1.881   6.000  -5.983  0.00  0.00    -0.002 A 
ATOM      7  C5  OXE d   1       3.267   5.820  -5.933  0.00  0.00    -0.002 A 
ATOM      8  C6  OXE d   1       3.785   4.533  -5.853  0.00  0.00     0.003 A 
ENDROOT
TORSDOF 0
ENDMDL
