MODEL 1
REMARK minimizedAffinity 5.42840195
REMARK minimizedRMSD -1
REMARK  0 active torsions:
REMARK  status: ('A' for Active; 'I' for Inactive)
ROOT
ATOM      1  C2' OXE d   1       0.111  -4.652   0.358  0.00  0.00     0.078 C 
ATOM      2  C1' OXE d   1      -1.363  -2.791   1.855  0.00  0.00     0.078 C 
ATOM      3  C1  OXE d   1      -1.537  -2.785   0.357  0.00  0.00    -0.078 A 
ATOM      4  C2  OXE d   1      -0.777  -3.668  -0.372  0.00  0.00    -0.078 A 
ATOM      5  C3  OXE d   1      -0.939  -3.741  -1.752  0.00  0.00     0.003 A 
ATOM      6  C4  OXE d   1      -1.756  -2.820  -2.420  0.00  0.00    -0.002 A 
ATOM      7  C5  OXE d   1      -2.509  -1.887  -1.700  0.00  0.00    -0.002 A 
ATOM      8  C6  OXE d   1      -2.443  -1.884  -0.311  0.00  0.00     0.003 A 
ENDROOT
TORSDOF 0
ENDMDL
