MODEL 1
REMARK minimizedAffinity 11.413722
REMARK minimizedRMSD -1
REMARK  0 active torsions:
REMARK  status: ('A' for Active; 'I' for Inactive)
ROOT
ATOM      1  C2' OXE d   1      -1.481  -1.498   0.887  0.00  0.00     0.078 C 
ATOM      2  C1' OXE d   1      -2.103  -2.885   3.246  0.00  0.00     0.078 C 
ATOM      3  C1  OXE d   1      -1.415  -1.549   3.376  0.00  0.00    -0.078 A 
ATOM      4  C2  OXE d   1      -1.073  -0.899   2.215  0.00  0.00    -0.078 A 
ATOM      5  C3  OXE d   1      -0.486   0.362   2.279  0.00  0.00     0.003 A 
ATOM      6  C4  OXE d   1      -0.103   0.904   3.511  0.00  0.00    -0.002 A 
ATOM      7  C5  OXE d   1      -0.407   0.240   4.704  0.00  0.00    -0.002 A 
ATOM      8  C6  OXE d   1      -1.099  -0.965   4.656  0.00  0.00     0.003 A 
ENDROOT
TORSDOF 0
ENDMDL
