MODEL 1
REMARK minimizedAffinity 3.89294887
REMARK minimizedRMSD -1
REMARK  0 active torsions:
REMARK  status: ('A' for Active; 'I' for Inactive)
ROOT
ATOM      1  C2' OXE d   1       2.668   3.182  -0.512  0.00  0.00     0.078 C 
ATOM      2  C1' OXE d   1       2.021   4.692   1.764  0.00  0.00     0.078 C 
ATOM      3  C1  OXE d   1       1.037   4.686   0.621  0.00  0.00    -0.078 A 
ATOM      4  C2  OXE d   1       1.384   3.983  -0.507  0.00  0.00    -0.078 A 
ATOM      5  C3  OXE d   1       0.489   3.900  -1.570  0.00  0.00     0.003 A 
ATOM      6  C4  OXE d   1      -0.692   4.651  -1.563  0.00  0.00    -0.002 A 
ATOM      7  C5  OXE d   1      -1.046   5.406  -0.439  0.00  0.00    -0.002 A 
ATOM      8  C6  OXE d   1      -0.214   5.401   0.675  0.00  0.00     0.003 A 
ENDROOT
TORSDOF 0
ENDMDL
