MODEL 1
REMARK minimizedAffinity -2.65091252
REMARK minimizedRMSD -1
REMARK  1 active torsions:
REMARK  status: ('A' for Active; 'I' for Inactive)
REMARK    1  A    between atoms: C1_2  and  C2_3 
ROOT
ATOM      1  C2  UNL d   1       0.375   0.705  -4.699  0.00  0.00    -0.077 A 
ATOM      2  C3  UNL d   1       1.375   1.586  -5.135  0.00  0.00     0.002 A 
ATOM      3  C4  UNL d   1       2.568   1.710  -4.419  0.00  0.00     0.002 A 
ATOM      4  C5  UNL d   1       2.773   0.955  -3.266  0.00  0.00    -0.004 A 
ATOM      5  C6  UNL d   1       1.783   0.078  -2.824  0.00  0.00     0.002 A 
ATOM      6  C7  UNL d   1       0.590  -0.047  -3.537  0.00  0.00     0.002 A 
ENDROOT
BRANCH   1   7
ATOM      7  C1  UNL d   1      -0.891   0.533  -5.496  0.00  0.00     0.055 C 
ATOM      8  C   UNL d   1      -1.316  -0.927  -5.551  0.00  0.00     0.019 C 
ENDBRANCH   1   7
TORSDOF 1
ENDMDL
