MODEL 1
REMARK minimizedAffinity -4.45177603
REMARK minimizedRMSD -1
REMARK  1 active torsions:
REMARK  status: ('A' for Active; 'I' for Inactive)
REMARK    1  A    between atoms: C1_2  and  C2_3 
ROOT
ATOM      1  C2  UNL d   1      -1.891   0.134   2.493  0.00  0.00    -0.077 A 
ATOM      2  C3  UNL d   1      -1.585  -0.236   1.176  0.00  0.00     0.002 A 
ATOM      3  C4  UNL d   1      -0.591   0.440   0.466  0.00  0.00     0.002 A 
ATOM      4  C5  UNL d   1       0.108   1.485   1.065  0.00  0.00    -0.004 A 
ATOM      5  C6  UNL d   1      -0.191   1.862   2.374  0.00  0.00     0.002 A 
ATOM      6  C7  UNL d   1      -1.185   1.189   3.085  0.00  0.00     0.002 A 
ENDROOT
BRANCH   1   7
ATOM      7  C1  UNL d   1      -2.929  -0.625   3.278  0.00  0.00     0.055 C 
ATOM      8  C   UNL d   1      -2.579  -2.102   3.375  0.00  0.00     0.019 C 
ENDBRANCH   1   7
TORSDOF 1
ENDMDL
