MODEL 1
REMARK minimizedAffinity -1.37863636
REMARK minimizedRMSD -1
REMARK  1 active torsions:
REMARK  status: ('A' for Active; 'I' for Inactive)
REMARK    1  A    between atoms: C1_2  and  C2_3 
ROOT
ATOM      1  C2  UNL d   1      -0.857  -1.043  -0.976  0.00  0.00    -0.077 A 
ATOM      2  C3  UNL d   1      -2.153  -0.620  -0.649  0.00  0.00     0.002 A 
ATOM      3  C4  UNL d   1      -3.246  -1.461  -0.868  0.00  0.00     0.002 A 
ATOM      4  C5  UNL d   1      -3.054  -2.730  -1.409  0.00  0.00    -0.004 A 
ATOM      5  C6  UNL d   1      -1.770  -3.159  -1.740  0.00  0.00     0.002 A 
ATOM      6  C7  UNL d   1      -0.676  -2.320  -1.523  0.00  0.00     0.002 A 
ENDROOT
BRANCH   1   7
ATOM      7  C1  UNL d   1       0.329  -0.158  -0.695  0.00  0.00     0.055 C 
ATOM      8  C   UNL d   1       0.157   0.599   0.614  0.00  0.00     0.019 C 
ENDBRANCH   1   7
TORSDOF 1
ENDMDL
