MODEL 1
REMARK minimizedAffinity -3.2970202
REMARK minimizedRMSD -1
REMARK  1 active torsions:
REMARK  status: ('A' for Active; 'I' for Inactive)
REMARK    1  A    between atoms: C1_2  and  C2_3 
ROOT
ATOM      1  C2  UNL d   1      -0.074   0.440   1.433  0.00  0.00    -0.077 A 
ATOM      2  C3  UNL d   1      -0.637   0.119   0.190  0.00  0.00     0.002 A 
ATOM      3  C4  UNL d   1       0.051  -0.699  -0.707  0.00  0.00     0.002 A 
ATOM      4  C5  UNL d   1       1.305  -1.206  -0.370  0.00  0.00    -0.004 A 
ATOM      5  C6  UNL d   1       1.875  -0.891   0.863  0.00  0.00     0.002 A 
ATOM      6  C7  UNL d   1       1.188  -0.072   1.761  0.00  0.00     0.002 A 
ENDROOT
BRANCH   1   7
ATOM      7  C1  UNL d   1      -0.836   1.282   2.423  0.00  0.00     0.055 C 
ATOM      8  C   UNL d   1      -2.009   0.514   3.016  0.00  0.00     0.019 C 
ENDBRANCH   1   7
TORSDOF 1
ENDMDL
