MODEL 1
REMARK minimizedAffinity -1.77109778
REMARK minimizedRMSD -1
REMARK  1 active torsions:
REMARK  status: ('A' for Active; 'I' for Inactive)
REMARK    1  A    between atoms: C1_2  and  C2_3 
ROOT
ATOM      1  C2  UNL d   1       0.068  -0.816  -0.641  0.00  0.00    -0.077 A 
ATOM      2  C3  UNL d   1       0.624  -0.848  -1.927  0.00  0.00     0.002 A 
ATOM      3  C4  UNL d   1       0.034  -1.618  -2.932  0.00  0.00     0.002 A 
ATOM      4  C5  UNL d   1      -1.115  -2.357  -2.662  0.00  0.00    -0.004 A 
ATOM      5  C6  UNL d   1      -1.674  -2.334  -1.385  0.00  0.00     0.002 A 
ATOM      6  C7  UNL d   1      -1.086  -1.566  -0.379  0.00  0.00     0.002 A 
ENDROOT
BRANCH   1   7
ATOM      7  C1  UNL d   1       0.673   0.052   0.431  0.00  0.00     0.055 C 
ATOM      8  C   UNL d   1       0.153  -0.327   1.810  0.00  0.00     0.019 C 
ENDBRANCH   1   7
TORSDOF 1
ENDMDL
