MODEL 1
REMARK minimizedAffinity -1.32752275
REMARK minimizedRMSD -1
REMARK  1 active torsions:
REMARK  status: ('A' for Active; 'I' for Inactive)
REMARK    1  A    between atoms: N_2  and  C1_3 
ROOT
ATOM      1  C1  UNL d   1      -3.693   1.230  -4.110  0.00  0.00     0.143 A 
ATOM      2  C2  UNL d   1      -4.906   0.959  -4.752  0.00  0.00    -0.057 A 
ATOM      3  C3  UNL d   1      -5.998   1.828  -4.637  0.00  0.00     0.033 A 
ATOM      4  C4  UNL d   1      -5.904   2.972  -3.852  0.00  0.00    -0.042 A 
ATOM      5  C5  UNL d   1      -4.716   3.249  -3.185  0.00  0.00     0.033 A 
ATOM      6  C6  UNL d   1      -3.627   2.381  -3.309  0.00  0.00    -0.057 A 
ENDROOT
BRANCH   1   7
ATOM      7  N   UNL d   1      -2.603   0.356  -4.106  0.00  0.00    -0.732 N 
ATOM      8  C   UNL d   1      -1.959  -0.012  -2.864  0.00  0.00     0.284 C 
ATOM      9  H3  UNL d   1      -2.722  -0.416  -4.758  0.00  0.00     0.395 HD
ENDBRANCH   1   7
TORSDOF 1
ENDMDL
