MODEL 1
REMARK minimizedAffinity 1.67180991
REMARK minimizedRMSD -1
REMARK  1 active torsions:
REMARK  status: ('A' for Active; 'I' for Inactive)
REMARK    1  A    between atoms: N_2  and  C1_3 
ROOT
ATOM      1  C1  UNL d   1      -4.088   0.495  -2.078  0.00  0.00     0.143 A 
ATOM      2  C2  UNL d   1      -3.149  -0.077  -2.943  0.00  0.00    -0.057 A 
ATOM      3  C3  UNL d   1      -3.016   0.365  -4.265  0.00  0.00     0.033 A 
ATOM      4  C4  UNL d   1      -3.843   1.370  -4.755  0.00  0.00    -0.042 A 
ATOM      5  C5  UNL d   1      -4.800   1.936  -3.921  0.00  0.00     0.033 A 
ATOM      6  C6  UNL d   1      -4.923   1.495  -2.600  0.00  0.00    -0.057 A 
ENDROOT
BRANCH   1   7
ATOM      7  N   UNL d   1      -4.335   0.033  -0.783  0.00  0.00    -0.732 N 
ATOM      8  C   UNL d   1      -5.484   0.503  -0.039  0.00  0.00     0.284 C 
ATOM      9  H3  UNL d   1      -4.156  -0.964  -0.685  0.00  0.00     0.395 HD
ENDBRANCH   1   7
TORSDOF 1
ENDMDL
