MODEL 1
REMARK minimizedAffinity 5.9030838
REMARK minimizedRMSD -1
REMARK  1 active torsions:
REMARK  status: ('A' for Active; 'I' for Inactive)
REMARK    1  A    between atoms: N_2  and  C1_3 
ROOT
ATOM      1  C1  UNL d   1      -5.367   1.061  -2.449  0.00  0.00     0.143 A 
ATOM      2  C2  UNL d   1      -4.537   2.078  -2.934  0.00  0.00    -0.057 A 
ATOM      3  C3  UNL d   1      -3.849   1.938  -4.145  0.00  0.00     0.033 A 
ATOM      4  C4  UNL d   1      -3.956   0.763  -4.881  0.00  0.00    -0.042 A 
ATOM      5  C5  UNL d   1      -4.756  -0.271  -4.407  0.00  0.00     0.033 A 
ATOM      6  C6  UNL d   1      -5.446  -0.123  -3.200  0.00  0.00    -0.057 A 
ENDROOT
BRANCH   1   7
ATOM      7  N   UNL d   1      -6.000   1.100  -1.204  0.00  0.00    -0.732 N 
ATOM      8  C   UNL d   1      -5.908  -0.022  -0.295  0.00  0.00     0.284 C 
ATOM      9  H3  UNL d   1      -5.915   2.008  -0.754  0.00  0.00     0.395 HD
ENDBRANCH   1   7
TORSDOF 1
ENDMDL
