MODEL 1
REMARK minimizedAffinity 1.03281546
REMARK minimizedRMSD -1
REMARK  1 active torsions:
REMARK  status: ('A' for Active; 'I' for Inactive)
REMARK    1  A    between atoms: N_2  and  C1_3 
ROOT
ATOM      1  C1  UNL d   1      -4.816   1.222  -2.609  0.00  0.00     0.143 A 
ATOM      2  C2  UNL d   1      -3.423   1.184  -2.736  0.00  0.00    -0.057 A 
ATOM      3  C3  UNL d   1      -2.813   0.779  -3.930  0.00  0.00     0.033 A 
ATOM      4  C4  UNL d   1      -3.589   0.376  -5.012  0.00  0.00    -0.042 A 
ATOM      5  C5  UNL d   1      -4.975   0.382  -4.900  0.00  0.00     0.033 A 
ATOM      6  C6  UNL d   1      -5.578   0.794  -3.707  0.00  0.00    -0.057 A 
ENDROOT
BRANCH   1   7
ATOM      7  N   UNL d   1      -5.480   1.521  -1.417  0.00  0.00    -0.732 N 
ATOM      8  C   UNL d   1      -5.437   0.603  -0.299  0.00  0.00     0.284 C 
ATOM      9  H3  UNL d   1      -5.387   2.500  -1.155  0.00  0.00     0.395 HD
ENDBRANCH   1   7
TORSDOF 1
ENDMDL
