MODEL 1
REMARK minimizedAffinity 1.8321681
REMARK minimizedRMSD -1
REMARK  1 active torsions:
REMARK  status: ('A' for Active; 'I' for Inactive)
REMARK    1  A    between atoms: N_2  and  C1_3 
ROOT
ATOM      1  C1  UNL d   1      -5.261   0.764  -2.327  0.00  0.00     0.143 A 
ATOM      2  C2  UNL d   1      -3.870   0.647  -2.409  0.00  0.00    -0.057 A 
ATOM      3  C3  UNL d   1      -3.235   0.361  -3.624  0.00  0.00     0.033 A 
ATOM      4  C4  UNL d   1      -3.986   0.156  -4.776  0.00  0.00    -0.042 A 
ATOM      5  C5  UNL d   1      -5.373   0.242  -4.714  0.00  0.00     0.033 A 
ATOM      6  C6  UNL d   1      -6.000   0.535  -3.499  0.00  0.00    -0.057 A 
ENDROOT
BRANCH   1   7
ATOM      7  N   UNL d   1      -5.957   0.950  -1.130  0.00  0.00    -0.732 N 
ATOM      8  C   UNL d   1      -5.649   0.147   0.034  0.00  0.00     0.284 C 
ATOM      9  H3  UNL d   1      -6.123   1.932  -0.926  0.00  0.00     0.395 HD
ENDBRANCH   1   7
TORSDOF 1
ENDMDL
