MODEL 1
REMARK minimizedAffinity 8.64493752
REMARK minimizedRMSD -1
REMARK  1 active torsions:
REMARK  status: ('A' for Active; 'I' for Inactive)
REMARK    1  A    between atoms: N_2  and  C1_3 
ROOT
ATOM      1  C1  UNL d   1      -3.450  -4.881  -4.194  0.00  0.00     0.143 A 
ATOM      2  C2  UNL d   1      -2.819  -3.742  -3.682  0.00  0.00    -0.057 A 
ATOM      3  C3  UNL d   1      -2.265  -3.735  -2.397  0.00  0.00     0.033 A 
ATOM      4  C4  UNL d   1      -2.358  -4.861  -1.586  0.00  0.00    -0.042 A 
ATOM      5  C5  UNL d   1      -3.003  -5.996  -2.065  0.00  0.00     0.033 A 
ATOM      6  C6  UNL d   1      -3.548  -6.000  -3.352  0.00  0.00    -0.057 A 
ENDROOT
BRANCH   1   7
ATOM      7  N   UNL d   1      -4.107  -4.919  -5.427  0.00  0.00    -0.732 N 
ATOM      8  C   UNL d   1      -5.240  -5.795  -5.631  0.00  0.00     0.284 C 
ATOM      9  H3  UNL d   1      -4.217  -3.994  -5.837  0.00  0.00     0.395 HD
ENDBRANCH   1   7
TORSDOF 1
ENDMDL
