MODEL 1
REMARK minimizedAffinity 3.47385907
REMARK minimizedRMSD -1
REMARK  1 active torsions:
REMARK  status: ('A' for Active; 'I' for Inactive)
REMARK    1  A    between atoms: N_2  and  C1_3 
ROOT
ATOM      1  C1  UNL d   1       0.316  -0.727  -0.863  0.00  0.00     0.143 A 
ATOM      2  C2  UNL d   1      -0.829  -1.456  -1.198  0.00  0.00    -0.057 A 
ATOM      3  C3  UNL d   1      -0.794  -2.852  -1.311  0.00  0.00     0.033 A 
ATOM      4  C4  UNL d   1       0.399  -3.541  -1.120  0.00  0.00    -0.042 A 
ATOM      5  C5  UNL d   1       1.555  -2.834  -0.811  0.00  0.00     0.033 A 
ATOM      6  C6  UNL d   1       1.512  -1.442  -0.693  0.00  0.00    -0.057 A 
ENDROOT
BRANCH   1   7
ATOM      7  N   UNL d   1       0.368   0.669  -0.832  0.00  0.00    -0.732 N 
ATOM      8  C   UNL d   1       1.439   1.352  -0.138  0.00  0.00     0.284 C 
ATOM      9  H3  UNL d   1       0.118   1.087  -1.725  0.00  0.00     0.395 HD
ENDBRANCH   1   7
TORSDOF 1
ENDMDL
