MODEL 1
REMARK minimizedAffinity -3.86258745
REMARK minimizedRMSD -1
REMARK  0 active torsions:
REMARK  status: ('A' for Active; 'I' for Inactive)
ROOT
ATOM      1  C   UNL d   1      -2.172   2.580   2.223  0.00  0.00     0.078 C 
ATOM      2  C1  UNL d   1      -1.230   2.105   1.158  0.00  0.00    -0.077 A 
ATOM      3  C2  UNL d   1      -0.895   0.750   1.043  0.00  0.00    -0.001 A 
ATOM      4  C3  UNL d   1      -0.010   0.322   0.053  0.00  0.00     0.003 A 
ATOM      5  C4  UNL d   1       0.550   1.244  -0.830  0.00  0.00    -0.005 A 
ATOM      6  C5  UNL d   1       0.224   2.594  -0.723  0.00  0.00     0.003 A 
ATOM      7  C6  UNL d   1      -0.661   3.024   0.267  0.00  0.00    -0.001 A 
ENDROOT
TORSDOF 0
ENDMDL
