MODEL 1
REMARK minimizedAffinity -4.45923471
REMARK minimizedRMSD -1
REMARK  0 active torsions:
REMARK  status: ('A' for Active; 'I' for Inactive)
ROOT
ATOM      1  C   UNL d   1       1.645  -0.310  -0.862  0.00  0.00     0.078 C 
ATOM      2  C1  UNL d   1       0.594   0.088   0.131  0.00  0.00    -0.077 A 
ATOM      3  C2  UNL d   1      -0.211   1.213  -0.083  0.00  0.00    -0.001 A 
ATOM      4  C3  UNL d   1      -1.178   1.578   0.855  0.00  0.00     0.003 A 
ATOM      5  C4  UNL d   1      -1.349   0.824   2.014  0.00  0.00    -0.005 A 
ATOM      6  C5  UNL d   1      -0.551  -0.296   2.237  0.00  0.00     0.003 A 
ATOM      7  C6  UNL d   1       0.417  -0.663   1.300  0.00  0.00    -0.001 A 
ENDROOT
TORSDOF 0
ENDMDL
