MODEL 1
REMARK minimizedAffinity -4.0896883
REMARK minimizedRMSD -1
REMARK  0 active torsions:
REMARK  status: ('A' for Active; 'I' for Inactive)
ROOT
ATOM      1  C   UNL d   1       0.838  -1.016  -0.518  0.00  0.00     0.078 C 
ATOM      2  C1  UNL d   1       0.156   0.137   0.156  0.00  0.00    -0.077 A 
ATOM      3  C2  UNL d   1       0.179   1.418  -0.408  0.00  0.00    -0.001 A 
ATOM      4  C3  UNL d   1      -0.452   2.484   0.236  0.00  0.00     0.003 A 
ATOM      5  C4  UNL d   1      -1.109   2.279   1.447  0.00  0.00    -0.005 A 
ATOM      6  C5  UNL d   1      -1.135   1.008   2.017  0.00  0.00     0.003 A 
ATOM      7  C6  UNL d   1      -0.505  -0.059   1.375  0.00  0.00    -0.001 A 
ENDROOT
TORSDOF 0
ENDMDL
