MODEL 1
REMARK minimizedAffinity -5.42650509
REMARK minimizedRMSD -1
REMARK  0 active torsions:
REMARK  status: ('A' for Active; 'I' for Inactive)
ROOT
ATOM      1  C   UNL d   1       1.105  -0.581  -0.715  0.00  0.00     0.078 C 
ATOM      2  C1  UNL d   1       0.028   0.040   0.125  0.00  0.00    -0.077 A 
ATOM      3  C2  UNL d   1      -0.646   1.190  -0.302  0.00  0.00    -0.001 A 
ATOM      4  C3  UNL d   1      -1.640   1.763   0.494  0.00  0.00     0.003 A 
ATOM      5  C4  UNL d   1      -1.967   1.192   1.723  0.00  0.00    -0.005 A 
ATOM      6  C5  UNL d   1      -1.299   0.049   2.157  0.00  0.00     0.003 A 
ATOM      7  C6  UNL d   1      -0.306  -0.525   1.362  0.00  0.00    -0.001 A 
ENDROOT
TORSDOF 0
ENDMDL
