MODEL 1
REMARK minimizedAffinity -3.59563756
REMARK minimizedRMSD -1
REMARK  0 active torsions:
REMARK  status: ('A' for Active; 'I' for Inactive)
ROOT
ATOM      1  C   UNL d   1       0.624   2.014  -1.062  0.00  0.00     0.078 C 
ATOM      2  C1  UNL d   1       0.341   1.014   0.019  0.00  0.00    -0.077 A 
ATOM      3  C2  UNL d   1      -0.631   1.263   0.996  0.00  0.00    -0.001 A 
ATOM      4  C3  UNL d   1      -0.877   0.328   2.002  0.00  0.00     0.003 A 
ATOM      5  C4  UNL d   1      -0.155  -0.864   2.042  0.00  0.00    -0.005 A 
ATOM      6  C5  UNL d   1       0.815  -1.120   1.075  0.00  0.00     0.003 A 
ATOM      7  C6  UNL d   1       1.063  -0.185   0.068  0.00  0.00    -0.001 A 
ENDROOT
TORSDOF 0
ENDMDL
