MODEL 1
REMARK minimizedAffinity -3.33977079
REMARK minimizedRMSD -1
REMARK  0 active torsions:
REMARK  status: ('A' for Active; 'I' for Inactive)
ROOT
ATOM      1  C   UNL d   1      -2.314   2.169   1.262  0.00  0.00     0.078 C 
ATOM      2  C1  UNL d   1      -1.227   1.296   0.710  0.00  0.00    -0.077 A 
ATOM      3  C2  UNL d   1      -0.722   0.219   1.449  0.00  0.00    -0.001 A 
ATOM      4  C3  UNL d   1       0.296  -0.580   0.927  0.00  0.00     0.003 A 
ATOM      5  C4  UNL d   1       0.820  -0.310  -0.336  0.00  0.00    -0.005 A 
ATOM      6  C5  UNL d   1       0.325   0.761  -1.078  0.00  0.00     0.003 A 
ATOM      7  C6  UNL d   1      -0.693   1.561  -0.557  0.00  0.00    -0.001 A 
ENDROOT
TORSDOF 0
ENDMDL
