MODEL 1
REMARK minimizedAffinity -4.63693237
REMARK minimizedRMSD -1
REMARK  0 active torsions:
REMARK  status: ('A' for Active; 'I' for Inactive)
ROOT
ATOM      1  C   UNL d   1       0.707  -0.807  -0.929  0.00  0.00     0.078 C 
ATOM      2  C1  UNL d   1      -0.177   0.039  -0.062  0.00  0.00    -0.077 A 
ATOM      3  C2  UNL d   1      -0.510  -0.362   1.238  0.00  0.00    -0.001 A 
ATOM      4  C3  UNL d   1      -1.342   0.430   2.030  0.00  0.00     0.003 A 
ATOM      5  C4  UNL d   1      -1.850   1.628   1.531  0.00  0.00    -0.005 A 
ATOM      6  C5  UNL d   1      -1.526   2.034   0.238  0.00  0.00     0.003 A 
ATOM      7  C6  UNL d   1      -0.694   1.243  -0.556  0.00  0.00    -0.001 A 
ENDROOT
TORSDOF 0
ENDMDL
