MODEL 1
REMARK minimizedAffinity -5.04948425
REMARK minimizedRMSD -1
REMARK  0 active torsions:
REMARK  status: ('A' for Active; 'I' for Inactive)
ROOT
ATOM      1  C   UNL d   1      -2.066   2.281   1.543  0.00  0.00     0.078 C 
ATOM      2  C1  UNL d   1      -1.154   1.251   0.945  0.00  0.00    -0.077 A 
ATOM      3  C2  UNL d   1      -0.721   0.150   1.694  0.00  0.00    -0.001 A 
ATOM      4  C3  UNL d   1       0.135  -0.796   1.127  0.00  0.00     0.003 A 
ATOM      5  C4  UNL d   1       0.566  -0.650  -0.190  0.00  0.00    -0.005 A 
ATOM      6  C5  UNL d   1       0.142   0.444  -0.942  0.00  0.00     0.003 A 
ATOM      7  C6  UNL d   1      -0.714   1.390  -0.377  0.00  0.00    -0.001 A 
ENDROOT
TORSDOF 0
ENDMDL
