MODEL 1
REMARK minimizedAffinity -3.2644577
REMARK minimizedRMSD -1
REMARK  0 active torsions:
REMARK  status: ('A' for Active; 'I' for Inactive)
ROOT
ATOM      1  C   UNL d   1      -1.959   2.796   1.491  0.00  0.00     0.078 C 
ATOM      2  C1  UNL d   1      -1.164   1.601   1.056  0.00  0.00    -0.077 A 
ATOM      3  C2  UNL d   1      -0.744   0.638   1.982  0.00  0.00    -0.001 A 
ATOM      4  C3  UNL d   1       0.005  -0.463   1.564  0.00  0.00     0.003 A 
ATOM      5  C4  UNL d   1       0.341  -0.612   0.220  0.00  0.00    -0.005 A 
ATOM      6  C5  UNL d   1      -0.071   0.342  -0.708  0.00  0.00     0.003 A 
ATOM      7  C6  UNL d   1      -0.819   1.444  -0.292  0.00  0.00    -0.001 A 
ENDROOT
TORSDOF 0
ENDMDL
