MODEL 1
REMARK minimizedAffinity -4.68529701
REMARK minimizedRMSD -1
REMARK  0 active torsions:
REMARK  status: ('A' for Active; 'I' for Inactive)
ROOT
ATOM      1  C   UNL d   1       0.856  -1.082  -0.752  0.00  0.00     0.078 C 
ATOM      2  C1  UNL d   1       0.060  -0.227   0.188  0.00  0.00    -0.077 A 
ATOM      3  C2  UNL d   1       0.033  -0.496   1.562  0.00  0.00    -0.001 A 
ATOM      4  C3  UNL d   1      -0.720   0.302   2.423  0.00  0.00     0.003 A 
ATOM      5  C4  UNL d   1      -1.455   1.375   1.921  0.00  0.00    -0.005 A 
ATOM      6  C5  UNL d   1      -1.437   1.649   0.555  0.00  0.00     0.003 A 
ATOM      7  C6  UNL d   1      -0.683   0.852  -0.308  0.00  0.00    -0.001 A 
ENDROOT
TORSDOF 0
ENDMDL
