MODEL 1
REMARK minimizedAffinity -5.77283478
REMARK minimizedRMSD -1
REMARK  0 active torsions:
REMARK  status: ('A' for Active; 'I' for Inactive)
ROOT
ATOM      1  C   UNL d   1       0.097  -0.345  -0.654  0.00  0.00     0.078 C 
ATOM      2  C1  UNL d   1      -0.443   1.005  -0.287  0.00  0.00    -0.077 A 
ATOM      3  C2  UNL d   1      -0.005   2.160  -0.947  0.00  0.00    -0.001 A 
ATOM      4  C3  UNL d   1      -0.508   3.411  -0.589  0.00  0.00     0.003 A 
ATOM      5  C4  UNL d   1      -1.451   3.520   0.432  0.00  0.00    -0.005 A 
ATOM      6  C5  UNL d   1      -1.891   2.377   1.095  0.00  0.00     0.003 A 
ATOM      7  C6  UNL d   1      -1.389   1.124   0.738  0.00  0.00    -0.001 A 
ENDROOT
TORSDOF 0
ENDMDL
