MODEL 1
REMARK minimizedAffinity -3.65530324
REMARK minimizedRMSD -1
REMARK  0 active torsions:
REMARK  status: ('A' for Active; 'I' for Inactive)
ROOT
ATOM      1  C   UNL d   1       2.755  -5.495   0.185  0.00  0.00     0.078 C 
ATOM      2  C1  UNL d   1       1.893  -4.701  -0.750  0.00  0.00    -0.077 A 
ATOM      3  C2  UNL d   1       2.292  -3.438  -1.202  0.00  0.00    -0.001 A 
ATOM      4  C3  UNL d   1       1.474  -2.705  -2.064  0.00  0.00     0.003 A 
ATOM      5  C4  UNL d   1       0.252  -3.228  -2.481  0.00  0.00    -0.005 A 
ATOM      6  C5  UNL d   1      -0.156  -4.483  -2.034  0.00  0.00     0.003 A 
ATOM      7  C6  UNL d   1       0.661  -5.217  -1.172  0.00  0.00    -0.001 A 
ENDROOT
TORSDOF 0
ENDMDL
