MODEL 1
REMARK minimizedAffinity -2.01183248
REMARK minimizedRMSD -1
REMARK  0 active torsions:
REMARK  status: ('A' for Active; 'I' for Inactive)
ROOT
ATOM      1  C   UNL d   1       0.860  -0.532   0.123  0.00  0.00     0.078 C 
ATOM      2  C1  UNL d   1       0.908  -1.678  -0.842  0.00  0.00    -0.077 A 
ATOM      3  C2  UNL d   1       0.336  -1.572  -2.116  0.00  0.00    -0.001 A 
ATOM      4  C3  UNL d   1       0.379  -2.651  -3.001  0.00  0.00     0.003 A 
ATOM      5  C4  UNL d   1       0.992  -3.843  -2.622  0.00  0.00    -0.005 A 
ATOM      6  C5  UNL d   1       1.562  -3.959  -1.356  0.00  0.00     0.003 A 
ATOM      7  C6  UNL d   1       1.520  -2.881  -0.469  0.00  0.00    -0.001 A 
ENDROOT
TORSDOF 0
ENDMDL
