MODEL 1
REMARK minimizedAffinity -4.85122681
REMARK minimizedRMSD -1
REMARK  0 active torsions:
REMARK  status: ('A' for Active; 'I' for Inactive)
ROOT
ATOM      1  C4' PXY d   1       0.684  -1.131  -1.529  0.00  0.00     0.077 C 
ATOM      2  C1' PXY d   1      -1.184   1.042   3.491  0.00  0.00     0.077 C 
ATOM      3  C1  PXY d   1      -0.682   0.476   2.177  0.00  0.00    -0.082 A 
ATOM      4  C2  PXY d   1      -1.507   0.380   1.148  0.00  0.00     0.003 A 
ATOM      5  C3  PXY d   1      -1.078  -0.159  -0.037  0.00  0.00     0.003 A 
ATOM      6  C4  PXY d   1       0.223  -0.557  -0.187  0.00  0.00    -0.082 A 
ATOM      7  C5  PXY d   1       1.075  -0.453   0.856  0.00  0.00     0.003 A 
ATOM      8  C6  PXY d   1       0.609   0.060   2.063  0.00  0.00     0.003 A 
ENDROOT
TORSDOF 0
ENDMDL
