MODEL 1
REMARK minimizedAffinity 0.554329395
REMARK minimizedRMSD -1
REMARK  0 active torsions:
REMARK  status: ('A' for Active; 'I' for Inactive)
ROOT
ATOM      1  C4' PXY d   1      -1.914  -1.714  -4.890  0.00  0.00     0.077 C 
ATOM      2  C1' PXY d   1       2.183   1.725  -2.699  0.00  0.00     0.077 C 
ATOM      3  C1  PXY d   1       1.114   0.813  -3.267  0.00  0.00    -0.082 A 
ATOM      4  C2  PXY d   1       0.520   1.131  -4.406  0.00  0.00     0.003 A 
ATOM      5  C3  PXY d   1      -0.472   0.334  -4.917  0.00  0.00     0.003 A 
ATOM      6  C4  PXY d   1      -0.822  -0.828  -4.284  0.00  0.00    -0.082 A 
ATOM      7  C5  PXY d   1      -0.213  -1.165  -3.128  0.00  0.00     0.003 A 
ATOM      8  C6  PXY d   1       0.762  -0.322  -2.604  0.00  0.00     0.003 A 
ENDROOT
TORSDOF 0
ENDMDL
