MODEL 1
REMARK minimizedAffinity -4.51739359
REMARK minimizedRMSD -1
REMARK  0 active torsions:
REMARK  status: ('A' for Active; 'I' for Inactive)
ROOT
ATOM      1  C4' PXY d   1       0.096  -0.771  -1.806  0.00  0.00     0.077 C 
ATOM      2  C1' PXY d   1      -0.780   1.622   3.382  0.00  0.00     0.077 C 
ATOM      3  C1  PXY d   1      -0.563   0.992   2.021  0.00  0.00    -0.082 A 
ATOM      4  C2  PXY d   1       0.632   0.524   1.700  0.00  0.00     0.003 A 
ATOM      5  C3  PXY d   1       0.854  -0.020   0.461  0.00  0.00     0.003 A 
ATOM      6  C4  PXY d   1      -0.171  -0.135  -0.439  0.00  0.00    -0.082 A 
ATOM      7  C5  PXY d   1      -1.396   0.330  -0.115  0.00  0.00     0.003 A 
ATOM      8  C6  PXY d   1      -1.591   0.916   1.132  0.00  0.00     0.003 A 
ENDROOT
TORSDOF 0
ENDMDL
