MODEL 1
REMARK minimizedAffinity -5.68198633
REMARK minimizedRMSD -1
REMARK  0 active torsions:
REMARK  status: ('A' for Active; 'I' for Inactive)
ROOT
ATOM      1  C4' PXY d   1       0.473  -1.353  -1.318  0.00  0.00     0.077 C 
ATOM      2  C1' PXY d   1      -0.846   2.009   3.196  0.00  0.00     0.077 C 
ATOM      3  C1  PXY d   1      -0.512   1.122   2.013  0.00  0.00    -0.082 A 
ATOM      4  C2  PXY d   1       0.751   0.833   1.748  0.00  0.00     0.003 A 
ATOM      5  C3  PXY d   1       1.073   0.058   0.664  0.00  0.00     0.003 A 
ATOM      6  C4  PXY d   1       0.089  -0.469  -0.128  0.00  0.00    -0.082 A 
ATOM      7  C5  PXY d   1      -1.204  -0.188   0.142  0.00  0.00     0.003 A 
ATOM      8  C6  PXY d   1      -1.507   0.634   1.223  0.00  0.00     0.003 A 
ENDROOT
TORSDOF 0
ENDMDL
