MODEL 1
REMARK minimizedAffinity -4.60988665
REMARK minimizedRMSD -1
REMARK  0 active torsions:
REMARK  status: ('A' for Active; 'I' for Inactive)
ROOT
ATOM      1  C4' PXY d   1       0.428  -0.712  -1.662  0.00  0.00     0.077 C 
ATOM      2  C1' PXY d   1      -0.456   1.080   3.762  0.00  0.00     0.077 C 
ATOM      3  C1  PXY d   1      -0.211   0.611   2.341  0.00  0.00    -0.082 A 
ATOM      4  C2  PXY d   1      -1.169   0.737   1.437  0.00  0.00     0.003 A 
ATOM      5  C3  PXY d   1      -0.976   0.289   0.155  0.00  0.00     0.003 A 
ATOM      6  C4  PXY d   1       0.229  -0.244  -0.218  0.00  0.00    -0.082 A 
ATOM      7  C5  PXY d   1       1.215  -0.366   0.696  0.00  0.00     0.003 A 
ATOM      8  C6  PXY d   1       0.984   0.057   2.002  0.00  0.00     0.003 A 
ENDROOT
TORSDOF 0
ENDMDL
