MODEL 1
REMARK minimizedAffinity -4.49086857
REMARK minimizedRMSD -1
REMARK  0 active torsions:
REMARK  status: ('A' for Active; 'I' for Inactive)
ROOT
ATOM      1  C4' PXY d   1      -0.601   1.587   3.386  0.00  0.00     0.077 C 
ATOM      2  C1' PXY d   1       0.747  -1.146  -1.526  0.00  0.00     0.077 C 
ATOM      3  C1  PXY d   1       0.403  -0.435  -0.232  0.00  0.00    -0.082 A 
ATOM      4  C2  PXY d   1      -0.837  -0.026  -0.020  0.00  0.00     0.003 A 
ATOM      5  C3  PXY d   1      -1.158   0.647   1.131  0.00  0.00     0.003 A 
ATOM      6  C4  PXY d   1      -0.211   0.856   2.098  0.00  0.00    -0.082 A 
ATOM      7  C5  PXY d   1       1.054   0.432   1.894  0.00  0.00     0.003 A 
ATOM      8  C6  PXY d   1       1.368  -0.213   0.701  0.00  0.00     0.003 A 
ENDROOT
TORSDOF 0
ENDMDL
