MODEL 1
REMARK minimizedAffinity -4.01259232
REMARK minimizedRMSD -1
REMARK  0 active torsions:
REMARK  status: ('A' for Active; 'I' for Inactive)
ROOT
ATOM      1  C4' PXY d   1       2.246  -0.166   3.185  0.00  0.00     0.077 C 
ATOM      2  C1' PXY d   1      -2.472   1.005   0.056  0.00  0.00     0.077 C 
ATOM      3  C1  PXY d   1      -1.238   0.707   0.885  0.00  0.00    -0.082 A 
ATOM      4  C2  PXY d   1      -0.164   0.202   0.301  0.00  0.00     0.003 A 
ATOM      5  C3  PXY d   1       0.949  -0.104   1.042  0.00  0.00     0.003 A 
ATOM      6  C4  PXY d   1       0.981   0.160   2.385  0.00  0.00    -0.082 A 
ATOM      7  C5  PXY d   1      -0.107   0.685   2.986  0.00  0.00     0.003 A 
ATOM      8  C6  PXY d   1      -1.241   0.950   2.224  0.00  0.00     0.003 A 
ENDROOT
TORSDOF 0
ENDMDL
