MODEL 1
REMARK minimizedAffinity -4.76188612
REMARK minimizedRMSD -1
REMARK  0 active torsions:
REMARK  status: ('A' for Active; 'I' for Inactive)
ROOT
ATOM      1  C4' PXY d   1      -0.147  -0.091  -1.232  0.00  0.00     0.077 C 
ATOM      2  C1' PXY d   1       0.263   0.804   4.464  0.00  0.00     0.077 C 
ATOM      3  C1  PXY d   1       0.142   0.569   2.971  0.00  0.00    -0.082 A 
ATOM      4  C2  PXY d   1       1.153   0.029   2.311  0.00  0.00     0.003 A 
ATOM      5  C3  PXY d   1       1.073  -0.161   0.955  0.00  0.00     0.003 A 
ATOM      6  C4  PXY d   1      -0.073   0.156   0.277  0.00  0.00    -0.082 A 
ATOM      7  C5  PXY d   1      -1.113   0.698   0.946  0.00  0.00     0.003 A 
ATOM      8  C6  PXY d   1      -0.997   0.921   2.315  0.00  0.00     0.003 A 
ENDROOT
TORSDOF 0
ENDMDL
