MODEL 1
REMARK minimizedAffinity -5.40911961
REMARK minimizedRMSD -1
REMARK  0 active torsions:
REMARK  status: ('A' for Active; 'I' for Inactive)
ROOT
ATOM      1  C4' PXY d   1      -2.240   0.297  -0.066  0.00  0.00     0.077 C 
ATOM      2  C1' PXY d   1       2.461   0.534   3.289  0.00  0.00     0.077 C 
ATOM      3  C1  PXY d   1       1.221   0.471   2.420  0.00  0.00    -0.082 A 
ATOM      4  C2  PXY d   1       1.311   0.010   1.183  0.00  0.00     0.003 A 
ATOM      5  C3  PXY d   1       0.206  -0.024   0.373  0.00  0.00     0.003 A 
ATOM      6  C4  PXY d   1      -1.015   0.370   0.851  0.00  0.00    -0.082 A 
ATOM      7  C5  PXY d   1      -1.118   0.832   2.115  0.00  0.00     0.003 A 
ATOM      8  C6  PXY d   1       0.024   0.897   2.908  0.00  0.00     0.003 A 
ENDROOT
TORSDOF 0
ENDMDL
