MODEL 1
REMARK minimizedAffinity 6.09230137
REMARK minimizedRMSD -1
REMARK  0 active torsions:
REMARK  status: ('A' for Active; 'I' for Inactive)
ROOT
ATOM      1  C   UNL d   1      -3.344   4.862   5.996  0.00  0.00     0.172 C 
ATOM      2  N   UNL d   1      -3.547   3.566   5.392  0.00  0.00    -0.070 N 
ATOM      3  C1  UNL d   1      -4.130   2.485   5.997  0.00  0.00    -0.004 A 
ATOM      4  C2  UNL d   1      -4.137   1.447   5.091  0.00  0.00    -0.047 A 
ATOM      5  C3  UNL d   1      -3.536   1.920   3.900  0.00  0.00    -0.047 A 
ATOM      6  C4  UNL d   1      -3.180   3.235   4.114  0.00  0.00    -0.004 A 
ENDROOT
TORSDOF 0
ENDMDL
