MODEL 1
REMARK minimizedAffinity 5.74518585
REMARK minimizedRMSD -1
REMARK  0 active torsions:
REMARK  status: ('A' for Active; 'I' for Inactive)
ROOT
ATOM      1  C   UNL d   1      -3.878   3.432  -4.387  0.00  0.00     0.172 C 
ATOM      2  N   UNL d   1      -3.177   2.484  -3.554  0.00  0.00    -0.070 N 
ATOM      3  C1  UNL d   1      -3.601   2.025  -2.336  0.00  0.00    -0.004 A 
ATOM      4  C2  UNL d   1      -2.656   1.138  -1.866  0.00  0.00    -0.047 A 
ATOM      5  C3  UNL d   1      -1.628   1.063  -2.836  0.00  0.00    -0.047 A 
ATOM      6  C4  UNL d   1      -1.975   1.906  -3.870  0.00  0.00    -0.004 A 
ENDROOT
TORSDOF 0
ENDMDL
