MODEL 1
REMARK minimizedAffinity 6.48073196
REMARK minimizedRMSD -1
REMARK  0 active torsions:
REMARK  status: ('A' for Active; 'I' for Inactive)
ROOT
ATOM      1  C   UNL d   1       2.197  -4.654  -0.970  0.00  0.00     0.172 C 
ATOM      2  N   UNL d   1       1.796  -3.323  -0.581  0.00  0.00    -0.070 N 
ATOM      3  C1  UNL d   1       2.497  -2.488   0.248  0.00  0.00    -0.004 A 
ATOM      4  C2  UNL d   1       1.783  -1.315   0.368  0.00  0.00    -0.047 A 
ATOM      5  C3  UNL d   1       0.612  -1.451  -0.415  0.00  0.00    -0.047 A 
ATOM      6  C4  UNL d   1       0.645  -2.703  -0.991  0.00  0.00    -0.004 A 
ENDROOT
TORSDOF 0
ENDMDL
