MODEL 1
REMARK minimizedAffinity 0.162197933
REMARK minimizedRMSD -1
REMARK  0 active torsions:
REMARK  status: ('A' for Active; 'I' for Inactive)
ROOT
ATOM      1  C   UNL d   1       0.214  -2.192   0.952  0.00  0.00     0.172 C 
ATOM      2  N   UNL d   1       1.333  -2.980   0.492  0.00  0.00    -0.070 N 
ATOM      3  C1  UNL d   1       2.644  -2.784   0.838  0.00  0.00    -0.004 A 
ATOM      4  C2  UNL d   1       3.399  -3.740   0.193  0.00  0.00    -0.047 A 
ATOM      5  C3  UNL d   1       2.511  -4.537  -0.568  0.00  0.00    -0.047 A 
ATOM      6  C4  UNL d   1       1.239  -4.045  -0.365  0.00  0.00    -0.004 A 
ENDROOT
TORSDOF 0
ENDMDL
