MODEL 1
REMARK minimizedAffinity 4.76961327
REMARK minimizedRMSD -1
REMARK  0 active torsions:
REMARK  status: ('A' for Active; 'I' for Inactive)
ROOT
ATOM      1  C   UNL d   1      -0.760  -1.452   2.911  0.00  0.00     0.172 C 
ATOM      2  N   UNL d   1       0.595  -1.370   2.417  0.00  0.00    -0.070 N 
ATOM      3  C1  UNL d   1       1.024  -1.797   1.189  0.00  0.00    -0.004 A 
ATOM      4  C2  UNL d   1       2.376  -1.543   1.103  0.00  0.00    -0.047 A 
ATOM      5  C3  UNL d   1       2.773  -0.944   2.322  0.00  0.00    -0.047 A 
ATOM      6  C4  UNL d   1       1.651  -0.849   3.118  0.00  0.00    -0.004 A 
ENDROOT
TORSDOF 0
ENDMDL
