MODEL 1
REMARK minimizedAffinity -0.294403553
REMARK minimizedRMSD -1
REMARK  0 active torsions:
REMARK  status: ('A' for Active; 'I' for Inactive)
ROOT
ATOM      1  C   UNL d   1       0.981  -1.036   2.969  0.00  0.00     0.172 C 
ATOM      2  N   UNL d   1       1.760  -1.779   2.006  0.00  0.00    -0.070 N 
ATOM      3  C1  UNL d   1       2.349  -2.996   2.223  0.00  0.00    -0.004 A 
ATOM      4  C2  UNL d   1       2.996  -3.365   1.064  0.00  0.00    -0.047 A 
ATOM      5  C3  UNL d   1       2.791  -2.332   0.118  0.00  0.00    -0.047 A 
ATOM      6  C4  UNL d   1       2.023  -1.363   0.727  0.00  0.00    -0.004 A 
ENDROOT
TORSDOF 0
ENDMDL
