MODEL 1
REMARK minimizedAffinity -0.501277804
REMARK minimizedRMSD -1
REMARK  1 active torsions:
REMARK  status: ('A' for Active; 'I' for Inactive)
REMARK    1  A    between atoms: N_2  and  C1_3 
ROOT
ATOM      1  C1  UNL d   1      -0.405   1.936   0.879  0.00  0.00     0.143 A 
ATOM      2  C2  UNL d   1       0.607   1.449   0.045  0.00  0.00    -0.057 A 
ATOM      3  C3  UNL d   1       0.595   0.128  -0.417  0.00  0.00     0.033 A 
ATOM      4  C4  UNL d   1      -0.418  -0.742  -0.027  0.00  0.00    -0.042 A 
ATOM      5  C5  UNL d   1      -1.421  -0.288   0.822  0.00  0.00     0.033 A 
ATOM      6  C6  UNL d   1      -1.407   1.035   1.274  0.00  0.00    -0.057 A 
ENDROOT
BRANCH   1   7
ATOM      7  N   UNL d   1      -0.397   3.210   1.451  0.00  0.00    -0.732 N 
ATOM      8  C   UNL d   1      -0.774   3.400   2.835  0.00  0.00     0.284 C 
ATOM      9  H3  UNL d   1       0.408   3.761   1.160  0.00  0.00     0.395 HD
ENDBRANCH   1   7
TORSDOF 1
ENDMDL
