MODEL 1
REMARK minimizedAffinity -1.96738243
REMARK minimizedRMSD -1
REMARK  1 active torsions:
REMARK  status: ('A' for Active; 'I' for Inactive)
REMARK    1  A    between atoms: N_2  and  C1_3 
ROOT
ATOM      1  C1  UNL d   1       0.259   0.863  -0.146  0.00  0.00     0.143 A 
ATOM      2  C2  UNL d   1      -0.784   0.373   0.648  0.00  0.00    -0.057 A 
ATOM      3  C3  UNL d   1      -1.763   1.227   1.170  0.00  0.00     0.033 A 
ATOM      4  C4  UNL d   1      -1.700   2.596   0.930  0.00  0.00    -0.042 A 
ATOM      5  C5  UNL d   1      -0.659   3.109   0.165  0.00  0.00     0.033 A 
ATOM      6  C6  UNL d   1       0.312   2.250  -0.359  0.00  0.00    -0.057 A 
ENDROOT
BRANCH   1   7
ATOM      7  N   UNL d   1       1.317   0.080  -0.612  0.00  0.00    -0.732 N 
ATOM      8  C   UNL d   1       2.610   0.125   0.037  0.00  0.00     0.284 C 
ATOM      9  H3  UNL d   1       1.019  -0.856  -0.880  0.00  0.00     0.395 HD
ENDBRANCH   1   7
TORSDOF 1
ENDMDL
