MODEL 1
REMARK minimizedAffinity -2.18395329
REMARK minimizedRMSD -1
REMARK  1 active torsions:
REMARK  status: ('A' for Active; 'I' for Inactive)
REMARK    1  A    between atoms: N_2  and  C1_3 
ROOT
ATOM      1  C1  UNL d   1      -1.272  -4.973  -1.914  0.00  0.00     0.143 A 
ATOM      2  C2  UNL d   1      -0.247  -5.550  -2.672  0.00  0.00    -0.057 A 
ATOM      3  C3  UNL d   1       0.611  -4.763  -3.451  0.00  0.00     0.033 A 
ATOM      4  C4  UNL d   1       0.439  -3.384  -3.508  0.00  0.00    -0.042 A 
ATOM      5  C5  UNL d   1      -0.589  -2.792  -2.782  0.00  0.00     0.033 A 
ATOM      6  C6  UNL d   1      -1.438  -3.582  -2.001  0.00  0.00    -0.057 A 
ENDROOT
BRANCH   1   7
ATOM      7  N   UNL d   1      -2.219  -5.710  -1.198  0.00  0.00    -0.732 N 
ATOM      8  C   UNL d   1      -2.858  -5.149  -0.028  0.00  0.00     0.284 C 
ATOM      9  H3  UNL d   1      -2.847  -6.230  -1.807  0.00  0.00     0.395 HD
ENDBRANCH   1   7
TORSDOF 1
ENDMDL
