MODEL 1
REMARK minimizedAffinity -1.6725024
REMARK minimizedRMSD -1
REMARK  1 active torsions:
REMARK  status: ('A' for Active; 'I' for Inactive)
REMARK    1  A    between atoms: N_2  and  C1_3 
ROOT
ATOM      1  C1  UNL d   1       3.852   3.833  -4.118  0.00  0.00     0.143 A 
ATOM      2  C2  UNL d   1       3.217   3.016  -5.059  0.00  0.00    -0.057 A 
ATOM      3  C3  UNL d   1       3.953   2.250  -5.972  0.00  0.00     0.033 A 
ATOM      4  C4  UNL d   1       5.343   2.312  -5.978  0.00  0.00    -0.042 A 
ATOM      5  C5  UNL d   1       5.995   3.137  -5.069  0.00  0.00     0.033 A 
ATOM      6  C6  UNL d   1       5.254   3.893  -4.156  0.00  0.00    -0.057 A 
ENDROOT
BRANCH   1   7
ATOM      7  N   UNL d   1       3.175   4.693  -3.251  0.00  0.00    -0.732 N 
ATOM      8  C   UNL d   1       1.849   5.173  -3.575  0.00  0.00     0.284 C 
ATOM      9  H3  UNL d   1       3.295   4.433  -2.274  0.00  0.00     0.395 HD
ENDBRANCH   1   7
TORSDOF 1
ENDMDL
