MODEL 1
REMARK minimizedAffinity 7.29634762
REMARK minimizedRMSD -1
REMARK  1 active torsions:
REMARK  status: ('A' for Active; 'I' for Inactive)
REMARK    1  A    between atoms: N_2  and  C1_3 
ROOT
ATOM      1  C1  UNL d   1       4.715   2.939  -5.158  0.00  0.00     0.143 A 
ATOM      2  C2  UNL d   1       3.885   2.051  -5.851  0.00  0.00    -0.057 A 
ATOM      3  C3  UNL d   1       2.765   1.476  -5.238  0.00  0.00     0.033 A 
ATOM      4  C4  UNL d   1       2.471   1.758  -3.908  0.00  0.00    -0.042 A 
ATOM      5  C5  UNL d   1       3.296   2.619  -3.193  0.00  0.00     0.033 A 
ATOM      6  C6  UNL d   1       4.409   3.195  -3.813  0.00  0.00    -0.057 A 
ENDROOT
BRANCH   1   7
ATOM      7  N   UNL d   1       5.898   3.467  -5.682  0.00  0.00    -0.732 N 
ATOM      8  C   UNL d   1       6.000   4.875  -6.000  0.00  0.00     0.284 C 
ATOM      9  H3  UNL d   1       6.726   3.080  -5.234  0.00  0.00     0.395 HD
ENDBRANCH   1   7
TORSDOF 1
ENDMDL
