MODEL 1
REMARK minimizedAffinity -3.21803212
REMARK minimizedRMSD -1
REMARK  1 active torsions:
REMARK  status: ('A' for Active; 'I' for Inactive)
REMARK    1  A    between atoms: N_2  and  C1_3 
ROOT
ATOM      1  C1  UNL d   1      -0.396  -0.339   0.058  0.00  0.00     0.143 A 
ATOM      2  C2  UNL d   1      -1.520   0.360   0.511  0.00  0.00    -0.057 A 
ATOM      3  C3  UNL d   1      -1.555   1.759   0.507  0.00  0.00     0.033 A 
ATOM      4  C4  UNL d   1      -0.451   2.487   0.076  0.00  0.00    -0.042 A 
ATOM      5  C5  UNL d   1       0.687   1.814  -0.355  0.00  0.00     0.033 A 
ATOM      6  C6  UNL d   1       0.713   0.416  -0.356  0.00  0.00    -0.057 A 
ENDROOT
BRANCH   1   7
ATOM      7  N   UNL d   1      -0.263  -1.728   0.128  0.00  0.00    -0.732 N 
ATOM      8  C   UNL d   1      -0.240  -2.529  -1.077  0.00  0.00     0.284 C 
ATOM      9  H3  UNL d   1       0.412  -2.018   0.833  0.00  0.00     0.395 HD
ENDBRANCH   1   7
TORSDOF 1
ENDMDL
