MODEL 1
REMARK minimizedAffinity -3.76905632
REMARK minimizedRMSD -1
REMARK  1 active torsions:
REMARK  status: ('A' for Active; 'I' for Inactive)
REMARK    1  A    between atoms: N_2  and  C1_3 
ROOT
ATOM      1  C1  UNL d   1       0.242  -0.840  -0.099  0.00  0.00     0.143 A 
ATOM      2  C2  UNL d   1       1.272   0.012  -0.512  0.00  0.00    -0.057 A 
ATOM      3  C3  UNL d   1       1.115   1.403  -0.493  0.00  0.00     0.033 A 
ATOM      4  C4  UNL d   1      -0.089   1.968  -0.086  0.00  0.00    -0.042 A 
ATOM      5  C5  UNL d   1      -1.135   1.140   0.305  0.00  0.00     0.033 A 
ATOM      6  C6  UNL d   1      -0.970  -0.249   0.290  0.00  0.00    -0.057 A 
ENDROOT
BRANCH   1   7
ATOM      7  N   UNL d   1       0.301  -2.233  -0.188  0.00  0.00    -0.732 N 
ATOM      8  C   UNL d   1      -0.458  -2.941  -1.196  0.00  0.00     0.284 C 
ATOM      9  H3  UNL d   1       1.244  -2.591  -0.049  0.00  0.00     0.395 HD
ENDBRANCH   1   7
TORSDOF 1
ENDMDL
