MODEL 1
REMARK minimizedAffinity -3.4483633
REMARK minimizedRMSD -1
REMARK  1 active torsions:
REMARK  status: ('A' for Active; 'I' for Inactive)
REMARK    1  A    between atoms: N_2  and  C1_3 
ROOT
ATOM      1  C1  UNL d   1      -0.002  -2.256  -0.516  0.00  0.00     0.143 A 
ATOM      2  C2  UNL d   1       1.105  -2.468   0.313  0.00  0.00    -0.057 A 
ATOM      3  C3  UNL d   1       1.884  -1.400   0.772  0.00  0.00     0.033 A 
ATOM      4  C4  UNL d   1       1.587  -0.097   0.385  0.00  0.00    -0.042 A 
ATOM      5  C5  UNL d   1       0.507   0.135  -0.459  0.00  0.00     0.033 A 
ATOM      6  C6  UNL d   1      -0.272  -0.936  -0.909  0.00  0.00    -0.057 A 
ENDROOT
BRANCH   1   7
ATOM      7  N   UNL d   1      -0.756  -3.285  -1.085  0.00  0.00    -0.732 N 
ATOM      8  C   UNL d   1      -1.096  -3.258  -2.492  0.00  0.00     0.284 C 
ATOM      9  H3  UNL d   1      -0.484  -4.202  -0.740  0.00  0.00     0.395 HD
ENDBRANCH   1   7
TORSDOF 1
ENDMDL
