MODEL 1
REMARK minimizedAffinity -3.36028361
REMARK minimizedRMSD -1
REMARK  1 active torsions:
REMARK  status: ('A' for Active; 'I' for Inactive)
REMARK    1  A    between atoms: N_2  and  C1_3 
ROOT
ATOM      1  C1  UNL d   1      -0.730   0.405   0.613  0.00  0.00     0.143 A 
ATOM      2  C2  UNL d   1      -0.217   1.672   0.912  0.00  0.00    -0.057 A 
ATOM      3  C3  UNL d   1      -1.065   2.762   1.147  0.00  0.00     0.033 A 
ATOM      4  C4  UNL d   1      -2.444   2.609   1.056  0.00  0.00    -0.042 A 
ATOM      5  C5  UNL d   1      -2.975   1.365   0.736  0.00  0.00     0.033 A 
ATOM      6  C6  UNL d   1      -2.124   0.279   0.510  0.00  0.00    -0.057 A 
ENDROOT
BRANCH   1   7
ATOM      7  N   UNL d   1       0.063  -0.694   0.273  0.00  0.00    -0.732 N 
ATOM      8  C   UNL d   1      -0.470  -1.762  -0.545  0.00  0.00     0.284 C 
ATOM      9  H3  UNL d   1       1.017  -0.428   0.040  0.00  0.00     0.395 HD
ENDBRANCH   1   7
TORSDOF 1
ENDMDL
