MODEL 1
REMARK minimizedAffinity -2.08272743
REMARK minimizedRMSD -1
REMARK  1 active torsions:
REMARK  status: ('A' for Active; 'I' for Inactive)
REMARK    1  A    between atoms: N_2  and  C1_3 
ROOT
ATOM      1  C1  UNL d   1      -0.119  -1.183  -0.253  0.00  0.00     0.143 A 
ATOM      2  C2  UNL d   1      -0.906  -1.438  -1.381  0.00  0.00    -0.057 A 
ATOM      3  C3  UNL d   1      -0.780  -2.634  -2.098  0.00  0.00     0.033 A 
ATOM      4  C4  UNL d   1       0.158  -3.586  -1.715  0.00  0.00    -0.042 A 
ATOM      5  C5  UNL d   1       0.968  -3.343  -0.612  0.00  0.00     0.033 A 
ATOM      6  C6  UNL d   1       0.833  -2.150   0.105  0.00  0.00    -0.057 A 
ENDROOT
BRANCH   1   7
ATOM      7  N   UNL d   1      -0.128   0.028   0.444  0.00  0.00    -0.732 N 
ATOM      8  C   UNL d   1      -1.299   0.879   0.429  0.00  0.00     0.284 C 
ATOM      9  H3  UNL d   1       0.322  -0.044   1.354  0.00  0.00     0.395 HD
ENDBRANCH   1   7
TORSDOF 1
ENDMDL
