MODEL 1
REMARK minimizedAffinity 1.56928587
REMARK minimizedRMSD -1
REMARK  0 active torsions:
REMARK  status: ('A' for Active; 'I' for Inactive)
ROOT
ATOM      1  C   UNL d   1       1.905  -3.227   2.548  0.00  0.00     0.023 A 
ATOM      2  C1  UNL d   1       0.993  -2.773   1.596  0.00  0.00     0.003 A 
ATOM      3  C2  UNL d   1       1.166  -1.522   1.001  0.00  0.00     0.048 A 
ATOM      4  C3  UNL d   1       2.256  -0.730   1.363  0.00  0.00     0.023 A 
ATOM      5  C4  UNL d   1       3.172  -1.180   2.314  0.00  0.00     0.048 A 
ATOM      6  C5  UNL d   1       2.994  -2.432   2.907  0.00  0.00     0.003 A 
ATOM      7  I   UNL d   1       2.516   1.133   0.479  0.00  0.00    -0.146 I 
ENDROOT
TORSDOF 0
ENDMDL
