MODEL 1
REMARK minimizedAffinity 2.07241297
REMARK minimizedRMSD -1
REMARK  0 active torsions:
REMARK  status: ('A' for Active; 'I' for Inactive)
ROOT
ATOM      1  C   UNL d   1       0.542  -2.715   2.141  0.00  0.00     0.023 A 
ATOM      2  C1  UNL d   1       1.838  -2.335   2.487  0.00  0.00     0.003 A 
ATOM      3  C2  UNL d   1       2.338  -1.098   2.075  0.00  0.00     0.048 A 
ATOM      4  C3  UNL d   1       1.536  -0.246   1.318  0.00  0.00     0.023 A 
ATOM      5  C4  UNL d   1       0.237  -0.621   0.970  0.00  0.00     0.048 A 
ATOM      6  C5  UNL d   1      -0.258  -1.859   1.384  0.00  0.00     0.003 A 
ATOM      7  I   UNL d   1       2.277   1.596   0.704  0.00  0.00    -0.146 I 
ENDROOT
TORSDOF 0
ENDMDL
