MODEL 1
REMARK minimizedAffinity 2.68358326
REMARK minimizedRMSD -1
REMARK  0 active torsions:
REMARK  status: ('A' for Active; 'I' for Inactive)
ROOT
ATOM      1  C   UNL d   1      -2.380  -2.634   0.167  0.00  0.00     0.023 A 
ATOM      2  C1  UNL d   1      -2.314  -2.868  -1.207  0.00  0.00     0.003 A 
ATOM      3  C2  UNL d   1      -1.084  -2.818  -1.866  0.00  0.00     0.048 A 
ATOM      4  C3  UNL d   1       0.076  -2.535  -1.146  0.00  0.00     0.023 A 
ATOM      5  C4  UNL d   1       0.015  -2.302   0.229  0.00  0.00     0.048 A 
ATOM      6  C5  UNL d   1      -1.217  -2.352   0.884  0.00  0.00     0.003 A 
ATOM      7  I   UNL d   1       1.908  -2.461  -2.126  0.00  0.00    -0.146 I 
ENDROOT
TORSDOF 0
ENDMDL
