MODEL 1
REMARK minimizedAffinity 1.93322742
REMARK minimizedRMSD -1
REMARK  0 active torsions:
REMARK  status: ('A' for Active; 'I' for Inactive)
ROOT
ATOM      1  C   UNL d   1      -1.409  -2.100   0.974  0.00  0.00     0.023 A 
ATOM      2  C1  UNL d   1      -1.542  -0.714   0.888  0.00  0.00     0.003 A 
ATOM      3  C2  UNL d   1      -0.415   0.104   0.989  0.00  0.00     0.048 A 
ATOM      4  C3  UNL d   1       0.842  -0.471   1.175  0.00  0.00     0.023 A 
ATOM      5  C4  UNL d   1       0.980  -1.857   1.261  0.00  0.00     0.048 A 
ATOM      6  C5  UNL d   1      -0.150  -2.671   1.160  0.00  0.00     0.003 A 
ATOM      7  I   UNL d   1       2.522   0.744   1.325  0.00  0.00    -0.146 I 
ENDROOT
TORSDOF 0
ENDMDL
