MODEL 1
REMARK minimizedAffinity 12.4770107
REMARK minimizedRMSD -1
REMARK  0 active torsions:
REMARK  status: ('A' for Active; 'I' for Inactive)
ROOT
ATOM      1  C   UNL d   1      -0.758  -3.158  -1.510  0.00  0.00     0.023 A 
ATOM      2  C1  UNL d   1      -1.349  -2.644  -0.356  0.00  0.00     0.003 A 
ATOM      3  C2  UNL d   1      -0.603  -1.851   0.519  0.00  0.00     0.048 A 
ATOM      4  C3  UNL d   1       0.734  -1.576   0.233  0.00  0.00     0.023 A 
ATOM      5  C4  UNL d   1       1.329  -2.087  -0.921  0.00  0.00     0.048 A 
ATOM      6  C5  UNL d   1       0.580  -2.880  -1.792  0.00  0.00     0.003 A 
ATOM      7  I   UNL d   1       1.846  -0.396   1.533  0.00  0.00    -0.146 I 
ENDROOT
TORSDOF 0
ENDMDL
