MODEL 1
REMARK minimizedAffinity 8.00719833
REMARK minimizedRMSD -1
REMARK  0 active torsions:
REMARK  status: ('A' for Active; 'I' for Inactive)
ROOT
ATOM      1  C   UNL d   1       2.300   0.553   1.988  0.00  0.00     0.023 A 
ATOM      2  C1  UNL d   1       2.772  -0.703   1.608  0.00  0.00     0.003 A 
ATOM      3  C2  UNL d   1       3.343  -0.883   0.347  0.00  0.00     0.048 A 
ATOM      4  C3  UNL d   1       3.441   0.198  -0.529  0.00  0.00     0.023 A 
ATOM      5  C4  UNL d   1       2.971   1.457  -0.152  0.00  0.00     0.048 A 
ATOM      6  C5  UNL d   1       2.399   1.632   1.109  0.00  0.00     0.003 A 
ATOM      7  I   UNL d   1       4.291  -0.068  -2.406  0.00  0.00    -0.146 I 
ENDROOT
TORSDOF 0
ENDMDL
