MODEL 1
REMARK minimizedAffinity 10.5103121
REMARK minimizedRMSD -1
REMARK  0 active torsions:
REMARK  status: ('A' for Active; 'I' for Inactive)
ROOT
ATOM      1  C   UNL d   1      -1.098  -1.469  -1.106  0.00  0.00     0.023 A 
ATOM      2  C1  UNL d   1      -0.979  -1.135   0.243  0.00  0.00     0.003 A 
ATOM      3  C2  UNL d   1       0.281  -1.085   0.842  0.00  0.00     0.048 A 
ATOM      4  C3  UNL d   1       1.418  -1.369   0.086  0.00  0.00     0.023 A 
ATOM      5  C4  UNL d   1       1.304  -1.702  -1.264  0.00  0.00     0.048 A 
ATOM      6  C5  UNL d   1       0.042  -1.752  -1.859  0.00  0.00     0.003 A 
ATOM      7  I   UNL d   1       3.295  -1.295   0.976  0.00  0.00    -0.146 I 
ENDROOT
TORSDOF 0
ENDMDL
