MODEL 1
REMARK minimizedAffinity -6.06628819e-05
REMARK minimizedRMSD -1
REMARK  0 active torsions:
REMARK  status: ('A' for Active; 'I' for Inactive)
ROOT
ATOM      1  C   UNL d   1       0.435   1.112   1.317  0.00  0.00     0.023 A 
ATOM      2  C1  UNL d   1       0.316  -0.276   1.389  0.00  0.00     0.003 A 
ATOM      3  C2  UNL d   1       1.455  -1.081   1.315  0.00  0.00     0.048 A 
ATOM      4  C3  UNL d   1       2.710  -0.491   1.169  0.00  0.00     0.023 A 
ATOM      5  C4  UNL d   1       2.834   0.897   1.097  0.00  0.00     0.048 A 
ATOM      6  C5  UNL d   1       1.692   1.698   1.171  0.00  0.00     0.003 A 
ATOM      7  I   UNL d   1       4.406  -1.686   1.059  0.00  0.00    -0.146 I 
ENDROOT
TORSDOF 0
ENDMDL
