MODEL 1
REMARK minimizedAffinity 0.305546135
REMARK minimizedRMSD -1
REMARK  0 active torsions:
REMARK  status: ('A' for Active; 'I' for Inactive)
ROOT
ATOM      1  C   UNL d   1      -4.397   2.189  -4.811  0.00  0.00     0.023 A 
ATOM      2  C1  UNL d   1      -4.838   1.227  -3.902  0.00  0.00     0.003 A 
ATOM      3  C2  UNL d   1      -4.156   1.039  -2.698  0.00  0.00     0.048 A 
ATOM      4  C3  UNL d   1      -3.035   1.817  -2.409  0.00  0.00     0.023 A 
ATOM      5  C4  UNL d   1      -2.592   2.781  -3.315  0.00  0.00     0.048 A 
ATOM      6  C5  UNL d   1      -3.276   2.965  -4.518  0.00  0.00     0.003 A 
ATOM      7  I   UNL d   1      -2.019   1.538  -0.617  0.00  0.00    -0.146 I 
ENDROOT
TORSDOF 0
ENDMDL
