MODEL 1
REMARK minimizedAffinity -0.898183286
REMARK minimizedRMSD -1
REMARK  0 active torsions:
REMARK  status: ('A' for Active; 'I' for Inactive)
ROOT
ATOM      1  C   UNL d   1      -1.123  -1.240   1.668  0.00  0.00     0.124 A 
ATOM      2  C1  UNL d   1      -1.522   0.067   1.428  0.00  0.00     0.062 A 
ATOM      3  C2  UNL d   1      -0.815   0.862   0.531  0.00  0.00     0.162 A 
ATOM      4  C3  UNL d   1       0.300   0.351  -0.134  0.00  0.00    -0.034 A 
ATOM      5  C4  UNL d   1       0.695  -0.965   0.113  0.00  0.00     0.162 A 
ATOM      6  C5  UNL d   1      -0.015  -1.755   1.010  0.00  0.00     0.062 A 
ATOM      7  F   UNL d   1       0.372  -3.018   1.241  0.00  0.00    -0.097 F 
ATOM      8  F1  UNL d   1       1.762  -1.488  -0.510  0.00  0.00    -0.096 F 
ATOM      9  I   UNL d   1       1.361   1.535  -1.477  0.00  0.00    -0.060 I 
ATOM     10  F2  UNL d   1      -1.223   2.122   0.319  0.00  0.00    -0.096 F 
ATOM     11  F3  UNL d   1      -2.592   0.568   2.063  0.00  0.00    -0.097 F 
ATOM     12  F4  UNL d   1      -1.806  -2.002   2.533  0.00  0.00    -0.092 F 
ENDROOT
TORSDOF 0
ENDMDL
