MODEL 1
REMARK minimizedAffinity -5.14521027
REMARK minimizedRMSD -1
REMARK  0 active torsions:
REMARK  status: ('A' for Active; 'I' for Inactive)
ROOT
ATOM      1  C   UNL d   1      -2.098  -2.005   1.315  0.00  0.00     0.124 A 
ATOM      2  C1  UNL d   1      -0.808  -2.343   0.929  0.00  0.00     0.062 A 
ATOM      3  C2  UNL d   1       0.068  -1.360   0.477  0.00  0.00     0.162 A 
ATOM      4  C3  UNL d   1      -0.342  -0.029   0.409  0.00  0.00    -0.034 A 
ATOM      5  C4  UNL d   1      -1.641   0.304   0.798  0.00  0.00     0.162 A 
ATOM      6  C5  UNL d   1      -2.513  -0.682   1.249  0.00  0.00     0.062 A 
ATOM      7  F   UNL d   1      -3.759  -0.353   1.621  0.00  0.00    -0.097 F 
ATOM      8  F1  UNL d   1      -2.068   1.574   0.745  0.00  0.00    -0.096 F 
ATOM      9  I   UNL d   1       0.965   1.443  -0.266  0.00  0.00    -0.060 I 
ATOM     10  F2  UNL d   1       1.308  -1.716   0.111  0.00  0.00    -0.096 F 
ATOM     11  F3  UNL d   1      -0.405  -3.620   0.991  0.00  0.00    -0.097 F 
ATOM     12  F4  UNL d   1      -2.939  -2.952   1.749  0.00  0.00    -0.092 F 
ENDROOT
TORSDOF 0
ENDMDL
