MODEL 1
REMARK minimizedAffinity -2.27235556
REMARK minimizedRMSD -1
REMARK  0 active torsions:
REMARK  status: ('A' for Active; 'I' for Inactive)
ROOT
ATOM      1  C   UNL d   1      -1.533  -1.289   1.695  0.00  0.00     0.124 A 
ATOM      2  C1  UNL d   1      -1.776   0.067   1.519  0.00  0.00     0.062 A 
ATOM      3  C2  UNL d   1      -0.899   0.843   0.767  0.00  0.00     0.162 A 
ATOM      4  C3  UNL d   1       0.229   0.266   0.184  0.00  0.00    -0.034 A 
ATOM      5  C4  UNL d   1       0.467  -1.097   0.366  0.00  0.00     0.162 A 
ATOM      6  C5  UNL d   1      -0.412  -1.869   1.119  0.00  0.00     0.062 A 
ATOM      7  F   UNL d   1      -0.176  -3.178   1.288  0.00  0.00    -0.097 F 
ATOM      8  F1  UNL d   1       1.542  -1.684  -0.180  0.00  0.00    -0.096 F 
ATOM      9  I   UNL d   1       1.542   1.423  -0.941  0.00  0.00    -0.060 I 
ATOM     10  F2  UNL d   1      -1.159   2.150   0.613  0.00  0.00    -0.096 F 
ATOM     11  F3  UNL d   1      -2.858   0.630   2.075  0.00  0.00    -0.097 F 
ATOM     12  F4  UNL d   1      -2.378  -2.033   2.420  0.00  0.00    -0.092 F 
ENDROOT
TORSDOF 0
ENDMDL
