MODEL 1
REMARK minimizedAffinity 0.134610608
REMARK minimizedRMSD -1
REMARK  0 active torsions:
REMARK  status: ('A' for Active; 'I' for Inactive)
ROOT
ATOM      1  C   UNL d   1      -0.893  -1.693   0.919  0.00  0.00     0.124 A 
ATOM      2  C1  UNL d   1       0.452  -1.998   0.762  0.00  0.00     0.062 A 
ATOM      3  C2  UNL d   1       1.300  -1.108   0.109  0.00  0.00     0.162 A 
ATOM      4  C3  UNL d   1       0.806   0.096  -0.391  0.00  0.00    -0.034 A 
ATOM      5  C4  UNL d   1      -0.548   0.395  -0.231  0.00  0.00     0.162 A 
ATOM      6  C5  UNL d   1      -1.392  -0.497   0.422  0.00  0.00     0.062 A 
ATOM      7  F   UNL d   1      -2.691  -0.201   0.572  0.00  0.00    -0.097 F 
ATOM      8  F1  UNL d   1      -1.057   1.544  -0.700  0.00  0.00    -0.096 F 
ATOM      9  I   UNL d   1       2.071   1.430  -1.368  0.00  0.00    -0.060 I 
ATOM     10  F2  UNL d   1       2.595  -1.429  -0.027  0.00  0.00    -0.096 F 
ATOM     11  F3  UNL d   1       0.936  -3.153   1.240  0.00  0.00    -0.097 F 
ATOM     12  F4  UNL d   1      -1.707  -2.552   1.546  0.00  0.00    -0.092 F 
ENDROOT
TORSDOF 0
ENDMDL
