MODEL 1
REMARK minimizedAffinity -0.485218942
REMARK minimizedRMSD -1
REMARK  0 active torsions:
REMARK  status: ('A' for Active; 'I' for Inactive)
ROOT
ATOM      1  C   UNL d   1      -0.093  -1.268   1.315  0.00  0.00     0.124 A 
ATOM      2  C1  UNL d   1       1.021  -0.473   1.086  0.00  0.00     0.062 A 
ATOM      3  C2  UNL d   1       0.956   0.578   0.177  0.00  0.00     0.162 A 
ATOM      4  C3  UNL d   1      -0.228   0.841  -0.512  0.00  0.00    -0.034 A 
ATOM      5  C4  UNL d   1      -1.344   0.037  -0.278  0.00  0.00     0.162 A 
ATOM      6  C5  UNL d   1      -1.275  -1.013   0.633  0.00  0.00     0.062 A 
ATOM      7  F   UNL d   1      -2.352  -1.780   0.852  0.00  0.00    -0.097 F 
ATOM      8  F1  UNL d   1      -2.499   0.262  -0.922  0.00  0.00    -0.096 F 
ATOM      9  I   UNL d   1      -0.329   2.412  -1.873  0.00  0.00    -0.060 I 
ATOM     10  F2  UNL d   1       2.049   1.330  -0.024  0.00  0.00    -0.096 F 
ATOM     11  F3  UNL d   1       2.164  -0.718   1.743  0.00  0.00    -0.097 F 
ATOM     12  F4  UNL d   1      -0.028  -2.280   2.190  0.00  0.00    -0.092 F 
ENDROOT
TORSDOF 0
ENDMDL
