MODEL 1
REMARK minimizedAffinity -3.1738255
REMARK minimizedRMSD -1
REMARK  0 active torsions:
REMARK  status: ('A' for Active; 'I' for Inactive)
ROOT
ATOM      1  C   UNL d   1       0.663   1.375  -2.025  0.00  0.00     0.124 A 
ATOM      2  C1  UNL d   1      -0.100   0.311  -2.484  0.00  0.00     0.062 A 
ATOM      3  C2  UNL d   1      -0.416  -0.743  -1.631  0.00  0.00     0.162 A 
ATOM      4  C3  UNL d   1       0.029  -0.737  -0.310  0.00  0.00    -0.034 A 
ATOM      5  C4  UNL d   1       0.797   0.337   0.145  0.00  0.00     0.162 A 
ATOM      6  C5  UNL d   1       1.111   1.387  -0.711  0.00  0.00     0.062 A 
ATOM      7  F   UNL d   1       1.848   2.415  -0.266  0.00  0.00    -0.097 F 
ATOM      8  F1  UNL d   1       1.242   0.374   1.410  0.00  0.00    -0.096 F 
ATOM      9  I   UNL d   1      -0.442  -2.311   0.968  0.00  0.00    -0.060 I 
ATOM     10  F2  UNL d   1      -1.155  -1.759  -2.102  0.00  0.00    -0.096 F 
ATOM     11  F3  UNL d   1      -0.533   0.296  -3.753  0.00  0.00    -0.097 F 
ATOM     12  F4  UNL d   1       0.967   2.387  -2.848  0.00  0.00    -0.092 F 
ENDROOT
TORSDOF 0
ENDMDL
