MODEL 1
REMARK minimizedAffinity -0.803927064
REMARK minimizedRMSD -1
REMARK  0 active torsions:
REMARK  status: ('A' for Active; 'I' for Inactive)
ROOT
ATOM      1  C   UNL d   1       0.406  -2.169   0.542  0.00  0.00     0.124 A 
ATOM      2  C1  UNL d   1       1.171  -1.012   0.598  0.00  0.00     0.062 A 
ATOM      3  C2  UNL d   1       0.552   0.233   0.664  0.00  0.00     0.162 A 
ATOM      4  C3  UNL d   1      -0.839   0.328   0.677  0.00  0.00    -0.034 A 
ATOM      5  C4  UNL d   1      -1.602  -0.840   0.620  0.00  0.00     0.162 A 
ATOM      6  C5  UNL d   1      -0.979  -2.083   0.553  0.00  0.00     0.062 A 
ATOM      7  F   UNL d   1      -1.719  -3.199   0.500  0.00  0.00    -0.097 F 
ATOM      8  F1  UNL d   1      -2.942  -0.785   0.630  0.00  0.00    -0.096 F 
ATOM      9  I   UNL d   1      -1.768   2.188   0.776  0.00  0.00    -0.060 I 
ATOM     10  F2  UNL d   1       1.316   1.334   0.717  0.00  0.00    -0.096 F 
ATOM     11  F3  UNL d   1       2.509  -1.094   0.586  0.00  0.00    -0.097 F 
ATOM     12  F4  UNL d   1       1.004  -3.366   0.477  0.00  0.00    -0.092 F 
ENDROOT
TORSDOF 0
ENDMDL
