MODEL 1
REMARK minimizedAffinity 0.564258099
REMARK minimizedRMSD -1
REMARK  0 active torsions:
REMARK  status: ('A' for Active; 'I' for Inactive)
ROOT
ATOM      1  C   UNL d   1       0.294  -2.174   0.685  0.00  0.00     0.124 A 
ATOM      2  C1  UNL d   1       1.265  -1.351   0.132  0.00  0.00     0.062 A 
ATOM      3  C2  UNL d   1       0.962  -0.032  -0.193  0.00  0.00     0.162 A 
ATOM      4  C3  UNL d   1      -0.318   0.473   0.035  0.00  0.00    -0.034 A 
ATOM      5  C4  UNL d   1      -1.290  -0.361   0.591  0.00  0.00     0.162 A 
ATOM      6  C5  UNL d   1      -0.982  -1.679   0.914  0.00  0.00     0.062 A 
ATOM      7  F   UNL d   1      -1.922  -2.473   1.449  0.00  0.00    -0.097 F 
ATOM      8  F1  UNL d   1      -2.531   0.092   0.823  0.00  0.00    -0.096 F 
ATOM      9  I   UNL d   1      -0.775   2.445  -0.450  0.00  0.00    -0.060 I 
ATOM     10  F2  UNL d   1       1.920   0.740  -0.726  0.00  0.00    -0.096 F 
ATOM     11  F3  UNL d   1       2.498  -1.828  -0.091  0.00  0.00    -0.097 F 
ATOM     12  F4  UNL d   1       0.587  -3.443   0.996  0.00  0.00    -0.092 F 
ENDROOT
TORSDOF 0
ENDMDL
