MODEL 1
REMARK minimizedAffinity 1.57178271
REMARK minimizedRMSD -1
REMARK  0 active torsions:
REMARK  status: ('A' for Active; 'I' for Inactive)
ROOT
ATOM      1  C   UNL d   1       0.489  -2.001   0.799  0.00  0.00     0.124 A 
ATOM      2  C1  UNL d   1      -0.823  -1.556   0.707  0.00  0.00     0.062 A 
ATOM      3  C2  UNL d   1      -1.100  -0.302   0.172  0.00  0.00     0.162 A 
ATOM      4  C3  UNL d   1      -0.064   0.517  -0.277  0.00  0.00    -0.034 A 
ATOM      5  C4  UNL d   1       1.253   0.063  -0.181  0.00  0.00     0.162 A 
ATOM      6  C5  UNL d   1       1.525  -1.192   0.356  0.00  0.00     0.062 A 
ATOM      7  F   UNL d   1       2.793  -1.620   0.444  0.00  0.00    -0.097 F 
ATOM      8  F1  UNL d   1       2.273   0.824  -0.603  0.00  0.00    -0.096 F 
ATOM      9  I   UNL d   1      -0.475   2.393  -1.079  0.00  0.00    -0.060 I 
ATOM     10  F2  UNL d   1      -2.377   0.103   0.095  0.00  0.00    -0.096 F 
ATOM     11  F3  UNL d   1      -1.825  -2.336   1.137  0.00  0.00    -0.097 F 
ATOM     12  F4  UNL d   1       0.753  -3.208   1.316  0.00  0.00    -0.092 F 
ENDROOT
TORSDOF 0
ENDMDL
