MODEL 1
REMARK minimizedAffinity -0.809275448
REMARK minimizedRMSD -1
REMARK  0 active torsions:
REMARK  status: ('A' for Active; 'I' for Inactive)
ROOT
ATOM      1  C   UNL d   1      -1.606  -2.312   1.361  0.00  0.00     0.124 A 
ATOM      2  C1  UNL d   1      -2.169  -1.050   1.232  0.00  0.00     0.062 A 
ATOM      3  C2  UNL d   1      -1.443  -0.016   0.649  0.00  0.00     0.162 A 
ATOM      4  C3  UNL d   1      -0.145  -0.240   0.188  0.00  0.00    -0.034 A 
ATOM      5  C4  UNL d   1       0.415  -1.511   0.322  0.00  0.00     0.162 A 
ATOM      6  C5  UNL d   1      -0.315  -2.542   0.906  0.00  0.00     0.062 A 
ATOM      7  F   UNL d   1       0.230  -3.760   1.030  0.00  0.00    -0.097 F 
ATOM      8  F1  UNL d   1       1.660  -1.761  -0.110  0.00  0.00    -0.096 F 
ATOM      9  I   UNL d   1       0.944   1.304  -0.685  0.00  0.00    -0.060 I 
ATOM     10  F2  UNL d   1      -2.012   1.194   0.537  0.00  0.00    -0.096 F 
ATOM     11  F3  UNL d   1      -3.416  -0.826   1.672  0.00  0.00    -0.097 F 
ATOM     12  F4  UNL d   1      -2.307  -3.305   1.924  0.00  0.00    -0.092 F 
ENDROOT
TORSDOF 0
ENDMDL
