MODEL 1
REMARK minimizedAffinity 4.35496759
REMARK minimizedRMSD -1
REMARK  0 active torsions:
REMARK  status: ('A' for Active; 'I' for Inactive)
ROOT
ATOM      1  C   UNL d   1       1.211  -1.316  -0.119  0.00  0.00     0.124 A 
ATOM      2  C1  UNL d   1       0.267  -1.959   0.670  0.00  0.00     0.062 A 
ATOM      3  C2  UNL d   1      -0.901  -1.301   1.042  0.00  0.00     0.162 A 
ATOM      4  C3  UNL d   1      -1.134   0.009   0.623  0.00  0.00    -0.034 A 
ATOM      5  C4  UNL d   1      -0.181   0.650  -0.169  0.00  0.00     0.162 A 
ATOM      6  C5  UNL d   1       0.986  -0.012  -0.538  0.00  0.00     0.062 A 
ATOM      7  F   UNL d   1       1.896   0.611  -1.301  0.00  0.00    -0.097 F 
ATOM      8  F1  UNL d   1      -0.373   1.910  -0.589  0.00  0.00    -0.096 F 
ATOM      9  I   UNL d   1      -2.880   0.997   1.177  0.00  0.00    -0.060 I 
ATOM     10  F2  UNL d   1      -1.795  -1.947   1.805  0.00  0.00    -0.096 F 
ATOM     11  F3  UNL d   1       0.483  -3.219   1.077  0.00  0.00    -0.097 F 
ATOM     12  F4  UNL d   1       2.335  -1.952  -0.474  0.00  0.00    -0.092 F 
ENDROOT
TORSDOF 0
ENDMDL
