MODEL 1
REMARK minimizedAffinity -4.18940401
REMARK minimizedRMSD -1
REMARK  0 active torsions:
REMARK  status: ('A' for Active; 'I' for Inactive)
ROOT
ATOM      1  C   UNL d   1       1.102   0.481   0.114  0.00  0.00     0.124 A 
ATOM      2  C1  UNL d   1      -0.244   0.817   0.139  0.00  0.00     0.062 A 
ATOM      3  C2  UNL d   1      -1.202  -0.152   0.423  0.00  0.00     0.162 A 
ATOM      4  C3  UNL d   1      -0.817  -1.467   0.686  0.00  0.00    -0.034 A 
ATOM      5  C4  UNL d   1       0.539  -1.797   0.657  0.00  0.00     0.162 A 
ATOM      6  C5  UNL d   1       1.492  -0.825   0.373  0.00  0.00     0.062 A 
ATOM      7  F   UNL d   1       2.793  -1.152   0.348  0.00  0.00    -0.097 F 
ATOM      8  F1  UNL d   1       0.944  -3.052   0.905  0.00  0.00    -0.096 F 
ATOM      9  I   UNL d   1      -2.247  -2.918   1.111  0.00  0.00    -0.060 I 
ATOM     10  F2  UNL d   1      -2.496   0.201   0.441  0.00  0.00    -0.096 F 
ATOM     11  F3  UNL d   1      -0.624   2.078  -0.112  0.00  0.00    -0.097 F 
ATOM     12  F4  UNL d   1       2.022   1.415  -0.161  0.00  0.00    -0.092 F 
ENDROOT
TORSDOF 0
ENDMDL
