MODEL 1
REMARK minimizedAffinity -0.992386043
REMARK minimizedRMSD -1
REMARK  0 active torsions:
REMARK  status: ('A' for Active; 'I' for Inactive)
ROOT
ATOM      1  C   UNL d   1      -1.532  -1.721   1.108  0.00  0.00     0.124 A 
ATOM      2  C1  UNL d   1      -0.300  -2.131   0.615  0.00  0.00     0.062 A 
ATOM      3  C2  UNL d   1       0.552  -1.212   0.010  0.00  0.00     0.162 A 
ATOM      4  C3  UNL d   1       0.176   0.127  -0.105  0.00  0.00    -0.034 A 
ATOM      5  C4  UNL d   1      -1.064   0.531   0.392  0.00  0.00     0.162 A 
ATOM      6  C5  UNL d   1      -1.912  -0.392   0.997  0.00  0.00     0.062 A 
ATOM      7  F   UNL d   1      -3.101   0.006   1.472  0.00  0.00    -0.097 F 
ATOM      8  F1  UNL d   1      -1.457   1.810   0.298  0.00  0.00    -0.096 F 
ATOM      9  I   UNL d   1       1.447   1.504  -1.010  0.00  0.00    -0.060 I 
ATOM     10  F2  UNL d   1       1.735  -1.635  -0.458  0.00  0.00    -0.096 F 
ATOM     11  F3  UNL d   1       0.069  -3.415   0.721  0.00  0.00    -0.097 F 
ATOM     12  F4  UNL d   1      -2.350  -2.608   1.690  0.00  0.00    -0.092 F 
ENDROOT
TORSDOF 0
ENDMDL
