MODEL 1
REMARK minimizedAffinity 9.23240566
REMARK minimizedRMSD -1
REMARK  0 active torsions:
REMARK  status: ('A' for Active; 'I' for Inactive)
ROOT
ATOM      1  C1  DEN d   1       0.844  -1.207   1.346  0.00  0.00     0.130 A 
ATOM      2  C2  DEN d   1      -0.439  -0.823   0.763  0.00  0.00    -0.031 A 
ATOM      3  C3  DEN d   1      -1.510  -1.311   1.654  0.00  0.00     0.027 A 
ATOM      4  C4  DEN d   1      -1.308  -2.613   3.872  0.00  0.00     0.027 A 
ATOM      5  C5  DEN d   1      -0.426  -3.178   4.765  0.00  0.00    -0.003 A 
ATOM      6  C6  DEN d   1       0.929  -3.157   4.566  0.00  0.00     0.001 A 
ATOM      7  C7  DEN d   1       1.444  -2.517   3.469  0.00  0.00     0.017 A 
ATOM      8  C8  DEN d   1       0.560  -1.951   2.560  0.00  0.00    -0.094 A 
ATOM      9  C9  DEN d   1      -0.806  -1.973   2.786  0.00  0.00    -0.072 A 
ENDROOT
TORSDOF 0
ENDMDL
