MODEL 1
REMARK minimizedAffinity 14.8363352
REMARK minimizedRMSD -1
REMARK  0 active torsions:
REMARK  status: ('A' for Active; 'I' for Inactive)
ROOT
ATOM      1  C1  DEN d   1       4.079  -2.432   1.369  0.00  0.00     0.130 A 
ATOM      2  C2  DEN d   1       5.311  -1.808   1.845  0.00  0.00    -0.031 A 
ATOM      3  C3  DEN d   1       5.107  -0.345   1.855  0.00  0.00     0.027 A 
ATOM      4  C4  DEN d   1       3.014   1.006   1.189  0.00  0.00     0.027 A 
ATOM      5  C5  DEN d   1       1.725   0.917   0.711  0.00  0.00    -0.003 A 
ATOM      6  C6  DEN d   1       1.146  -0.283   0.390  0.00  0.00     0.001 A 
ATOM      7  C7  DEN d   1       1.843  -1.446   0.585  0.00  0.00     0.017 A 
ATOM      8  C8  DEN d   1       3.146  -1.363   1.059  0.00  0.00    -0.094 A 
ATOM      9  C9  DEN d   1       3.709  -0.142   1.390  0.00  0.00    -0.072 A 
ENDROOT
TORSDOF 0
ENDMDL
