MODEL 1
REMARK minimizedAffinity 3.5456109
REMARK minimizedRMSD -1
REMARK  0 active torsions:
REMARK  status: ('A' for Active; 'I' for Inactive)
ROOT
ATOM      1  C1  DEN d   1      -1.304  -5.502  -5.949  0.00  0.00     0.130 A 
ATOM      2  C2  DEN d   1      -2.726  -5.829  -5.999  0.00  0.00    -0.031 A 
ATOM      3  C3  DEN d   1      -3.205  -6.000  -4.613  0.00  0.00     0.027 A 
ATOM      4  C4  DEN d   1      -1.890  -5.785  -2.404  0.00  0.00     0.027 A 
ATOM      5  C5  DEN d   1      -0.652  -5.533  -1.855  0.00  0.00    -0.003 A 
ATOM      6  C6  DEN d   1       0.453  -5.288  -2.626  0.00  0.00     0.001 A 
ATOM      7  C7  DEN d   1       0.333  -5.246  -3.990  0.00  0.00     0.017 A 
ATOM      8  C8  DEN d   1      -0.910  -5.506  -4.552  0.00  0.00    -0.094 A 
ATOM      9  C9  DEN d   1      -2.018  -5.739  -3.755  0.00  0.00    -0.072 A 
ENDROOT
TORSDOF 0
ENDMDL
