MODEL 1
REMARK minimizedAffinity 6.17041016
REMARK minimizedRMSD -1
REMARK  0 active torsions:
REMARK  status: ('A' for Active; 'I' for Inactive)
ROOT
ATOM      1  C1  DEN d   1      -4.583  -5.983  -5.848  0.00  0.00     0.130 A 
ATOM      2  C2  DEN d   1      -5.560  -4.906  -5.989  0.00  0.00    -0.031 A 
ATOM      3  C3  DEN d   1      -4.828  -3.624  -5.999  0.00  0.00     0.027 A 
ATOM      4  C4  DEN d   1      -2.290  -3.203  -5.817  0.00  0.00     0.027 A 
ATOM      5  C5  DEN d   1      -1.060  -3.805  -5.671  0.00  0.00    -0.003 A 
ATOM      6  C6  DEN d   1      -0.922  -5.161  -5.540  0.00  0.00     0.001 A 
ATOM      7  C7  DEN d   1      -2.029  -5.965  -5.599  0.00  0.00     0.017 A 
ATOM      8  C8  DEN d   1      -3.274  -5.365  -5.739  0.00  0.00    -0.094 A 
ATOM      9  C9  DEN d   1      -3.392  -3.993  -5.882  0.00  0.00    -0.072 A 
ENDROOT
TORSDOF 0
ENDMDL
