MODEL 1
REMARK minimizedAffinity 4.44887781
REMARK minimizedRMSD -1
REMARK  0 active torsions:
REMARK  status: ('A' for Active; 'I' for Inactive)
ROOT
ATOM      1  C1  DEN d   1      -4.768  -5.894  -5.996  0.00  0.00     0.130 A 
ATOM      2  C2  DEN d   1      -5.717  -4.785  -5.960  0.00  0.00    -0.031 A 
ATOM      3  C3  DEN d   1      -4.947  -3.525  -5.937  0.00  0.00     0.027 A 
ATOM      4  C4  DEN d   1      -2.390  -3.185  -5.960  0.00  0.00     0.027 A 
ATOM      5  C5  DEN d   1      -1.173  -3.829  -5.977  0.00  0.00    -0.003 A 
ATOM      6  C6  DEN d   1      -1.068  -5.195  -5.967  0.00  0.00     0.001 A 
ATOM      7  C7  DEN d   1      -2.203  -5.962  -5.985  0.00  0.00     0.017 A 
ATOM      8  C8  DEN d   1      -3.434  -5.321  -5.961  0.00  0.00    -0.094 A 
ATOM      9  C9  DEN d   1      -3.519  -3.939  -5.983  0.00  0.00    -0.072 A 
ENDROOT
TORSDOF 0
ENDMDL
