MODEL 1
REMARK minimizedAffinity 17.4383621
REMARK minimizedRMSD -1
REMARK  0 active torsions:
REMARK  status: ('A' for Active; 'I' for Inactive)
ROOT
ATOM      1  C1  DEN d   1      -1.600  -3.559  -3.049  0.00  0.00     0.130 A 
ATOM      2  C2  DEN d   1      -0.812  -4.715  -2.633  0.00  0.00    -0.031 A 
ATOM      3  C3  DEN d   1      -1.241  -5.874  -3.442  0.00  0.00     0.027 A 
ATOM      4  C4  DEN d   1      -3.036  -5.988  -5.290  0.00  0.00     0.027 A 
ATOM      5  C5  DEN d   1      -3.978  -5.263  -5.986  0.00  0.00    -0.003 A 
ATOM      6  C6  DEN d   1      -4.216  -3.939  -5.730  0.00  0.00     0.001 A 
ATOM      7  C7  DEN d   1      -3.471  -3.286  -4.784  0.00  0.00     0.017 A 
ATOM      8  C8  DEN d   1      -2.523  -4.012  -4.073  0.00  0.00    -0.094 A 
ATOM      9  C9  DEN d   1      -2.290  -5.347  -4.355  0.00  0.00    -0.072 A 
ENDROOT
TORSDOF 0
ENDMDL
