MODEL 1
REMARK minimizedAffinity -0.429375082
REMARK minimizedRMSD -1
REMARK  0 active torsions:
REMARK  status: ('A' for Active; 'I' for Inactive)
ROOT
ATOM      1  C1  DEN d   1      -2.861  -3.420  -3.119  0.00  0.00     0.130 A 
ATOM      2  C2  DEN d   1      -2.625  -3.751  -4.522  0.00  0.00    -0.031 A 
ATOM      3  C3  DEN d   1      -3.567  -2.963  -5.341  0.00  0.00     0.027 A 
ATOM      4  C4  DEN d   1      -5.356  -1.268  -4.579  0.00  0.00     0.027 A 
ATOM      5  C5  DEN d   1      -5.937  -0.665  -3.486  0.00  0.00    -0.003 A 
ATOM      6  C6  DEN d   1      -5.560  -0.960  -2.203  0.00  0.00     0.001 A 
ATOM      7  C7  DEN d   1      -4.542  -1.850  -1.982  0.00  0.00     0.017 A 
ATOM      8  C8  DEN d   1      -3.957  -2.469  -3.079  0.00  0.00    -0.094 A 
ATOM      9  C9  DEN d   1      -4.344  -2.148  -4.369  0.00  0.00    -0.072 A 
ENDROOT
TORSDOF 0
ENDMDL
