MODEL 1
REMARK minimizedAffinity 12.7823992
REMARK minimizedRMSD -1
REMARK  0 active torsions:
REMARK  status: ('A' for Active; 'I' for Inactive)
ROOT
ATOM      1  C1  DEN d   1      -0.744  -1.719   0.184  0.00  0.00     0.130 A 
ATOM      2  C2  DEN d   1       0.497  -1.083   0.616  0.00  0.00    -0.031 A 
ATOM      3  C3  DEN d   1       0.363   0.372   0.402  0.00  0.00     0.027 A 
ATOM      4  C4  DEN d   1      -1.638   1.696  -0.545  0.00  0.00     0.027 A 
ATOM      5  C5  DEN d   1      -2.911   1.590  -1.059  0.00  0.00    -0.003 A 
ATOM      6  C6  DEN d   1      -3.533   0.381  -1.226  0.00  0.00     0.001 A 
ATOM      7  C7  DEN d   1      -2.900  -0.768  -0.832  0.00  0.00     0.017 A 
ATOM      8  C8  DEN d   1      -1.613  -0.670  -0.319  0.00  0.00    -0.094 A 
ATOM      9  C9  DEN d   1      -1.006   0.562  -0.148  0.00  0.00    -0.072 A 
ENDROOT
TORSDOF 0
ENDMDL
