MODEL 1
REMARK minimizedAffinity 3.94972491
REMARK minimizedRMSD -1
REMARK  0 active torsions:
REMARK  status: ('A' for Active; 'I' for Inactive)
ROOT
ATOM      1  C1  DEN d   1      -4.465  -5.100  -4.796  0.00  0.00     0.130 A 
ATOM      2  C2  DEN d   1      -4.092  -5.838  -6.000  0.00  0.00    -0.031 A 
ATOM      3  C3  DEN d   1      -2.625  -6.000  -6.000  0.00  0.00     0.027 A 
ATOM      4  C4  DEN d   1      -0.903  -5.188  -4.260  0.00  0.00     0.027 A 
ATOM      5  C5  DEN d   1      -0.741  -4.506  -3.074  0.00  0.00    -0.003 A 
ATOM      6  C6  DEN d   1      -1.797  -3.950  -2.402  0.00  0.00     0.001 A 
ATOM      7  C7  DEN d   1      -3.068  -4.105  -2.888  0.00  0.00     0.017 A 
ATOM      8  C8  DEN d   1      -3.238  -4.784  -4.087  0.00  0.00    -0.094 A 
ATOM      9  C9  DEN d   1      -2.160  -5.350  -4.745  0.00  0.00    -0.072 A 
ENDROOT
TORSDOF 0
ENDMDL
