MODEL 1
REMARK minimizedAffinity 18.5486889
REMARK minimizedRMSD -1
REMARK  0 active torsions:
REMARK  status: ('A' for Active; 'I' for Inactive)
ROOT
ATOM      1  C1  DEN d   1       1.299  -1.970   0.627  0.00  0.00     0.130 A 
ATOM      2  C2  DEN d   1       0.037  -1.347   0.237  0.00  0.00    -0.031 A 
ATOM      3  C3  DEN d   1      -0.936  -1.566   1.327  0.00  0.00     0.027 A 
ATOM      4  C4  DEN d   1      -0.610  -2.796   3.570  0.00  0.00     0.027 A 
ATOM      5  C5  DEN d   1       0.286  -3.500   4.344  0.00  0.00    -0.003 A 
ATOM      6  C6  DEN d   1       1.561  -3.770   3.923  0.00  0.00     0.001 A 
ATOM      7  C7  DEN d   1       1.991  -3.295   2.713  0.00  0.00     0.017 A 
ATOM      8  C8  DEN d   1       1.091  -2.591   1.923  0.00  0.00    -0.094 A 
ATOM      9  C9  DEN d   1      -0.190  -2.317   2.372  0.00  0.00    -0.072 A 
ENDROOT
TORSDOF 0
ENDMDL
