MODEL 1
REMARK minimizedAffinity 3.99668264
REMARK minimizedRMSD -1
REMARK  0 active torsions:
REMARK  status: ('A' for Active; 'I' for Inactive)
ROOT
ATOM      1  C1  DEN d   1      -1.521  -2.657   3.882  0.00  0.00     0.130 A 
ATOM      2  C2  DEN d   1      -2.328  -1.504   4.271  0.00  0.00    -0.031 A 
ATOM      3  C3  DEN d   1      -2.114  -0.439   3.271  0.00  0.00     0.027 A 
ATOM      4  C4  DEN d   1      -0.622  -0.464   1.167  0.00  0.00     0.027 A 
ATOM      5  C5  DEN d   1       0.262  -1.218   0.428  0.00  0.00    -0.003 A 
ATOM      6  C6  DEN d   1       0.637  -2.480   0.802  0.00  0.00     0.001 A 
ATOM      7  C7  DEN d   1       0.091  -3.046   1.924  0.00  0.00     0.017 A 
ATOM      8  C8  DEN d   1      -0.796  -2.290   2.679  0.00  0.00    -0.094 A 
ATOM      9  C9  DEN d   1      -1.172  -1.019   2.277  0.00  0.00    -0.072 A 
ENDROOT
TORSDOF 0
ENDMDL
