MODEL 1
REMARK minimizedAffinity 7.20708799
REMARK minimizedRMSD -1
REMARK  0 active torsions:
REMARK  status: ('A' for Active; 'I' for Inactive)
ROOT
ATOM      1  C1  DEN d   1      -1.143  -3.633  -4.100  0.00  0.00     0.130 A 
ATOM      2  C2  DEN d   1      -0.513  -4.854  -3.606  0.00  0.00    -0.031 A 
ATOM      3  C3  DEN d   1      -1.352  -5.999  -4.013  0.00  0.00     0.027 A 
ATOM      4  C4  DEN d   1      -3.553  -5.999  -5.358  0.00  0.00     0.027 A 
ATOM      5  C5  DEN d   1      -4.485  -5.203  -5.985  0.00  0.00    -0.003 A 
ATOM      6  C6  DEN d   1      -4.388  -3.837  -5.999  0.00  0.00     0.001 A 
ATOM      7  C7  DEN d   1      -3.311  -3.227  -5.412  0.00  0.00     0.017 A 
ATOM      8  C8  DEN d   1      -2.370  -4.023  -4.771  0.00  0.00    -0.094 A 
ATOM      9  C9  DEN d   1      -2.480  -5.403  -4.779  0.00  0.00    -0.072 A 
ENDROOT
TORSDOF 0
ENDMDL
