MODEL 1
REMARK minimizedAffinity 9.14096832
REMARK minimizedRMSD -1
REMARK  0 active torsions:
REMARK  status: ('A' for Active; 'I' for Inactive)
ROOT
ATOM      1  C1  DEN d   1      -5.993  -0.320  -4.224  0.00  0.00     0.130 A 
ATOM      2  C2  DEN d   1      -4.912  -0.518  -5.186  0.00  0.00    -0.031 A 
ATOM      3  C3  DEN d   1      -3.645  -0.622  -4.436  0.00  0.00     0.027 A 
ATOM      4  C4  DEN d   1      -3.254  -0.503  -1.889  0.00  0.00     0.027 A 
ATOM      5  C5  DEN d   1      -3.864  -0.334  -0.666  0.00  0.00    -0.003 A 
ATOM      6  C6  DEN d   1      -5.211  -0.117  -0.546  0.00  0.00     0.001 A 
ATOM      7  C7  DEN d   1      -6.000  -0.107  -1.667  0.00  0.00     0.017 A 
ATOM      8  C8  DEN d   1      -5.390  -0.269  -2.904  0.00  0.00    -0.094 A 
ATOM      9  C9  DEN d   1      -4.028  -0.500  -3.003  0.00  0.00    -0.072 A 
ENDROOT
TORSDOF 0
ENDMDL
