MODEL 1
REMARK minimizedAffinity 0.216164574
REMARK minimizedRMSD -1
REMARK  0 active torsions:
REMARK  status: ('A' for Active; 'I' for Inactive)
ROOT
ATOM      1  C1  DEN d   1      -5.170  -3.615  -5.999  0.00  0.00     0.130 A 
ATOM      2  C2  DEN d   1      -5.985  -4.822  -5.897  0.00  0.00    -0.031 A 
ATOM      3  C3  DEN d   1      -5.077  -5.972  -5.715  0.00  0.00     0.027 A 
ATOM      4  C4  DEN d   1      -2.502  -6.000  -5.577  0.00  0.00     0.027 A 
ATOM      5  C5  DEN d   1      -1.366  -5.221  -5.624  0.00  0.00    -0.003 A 
ATOM      6  C6  DEN d   1      -1.417  -3.868  -5.831  0.00  0.00     0.001 A 
ATOM      7  C7  DEN d   1      -2.631  -3.245  -5.955  0.00  0.00     0.017 A 
ATOM      8  C8  DEN d   1      -3.780  -4.025  -5.916  0.00  0.00    -0.094 A 
ATOM      9  C9  DEN d   1      -3.708  -5.390  -5.693  0.00  0.00    -0.072 A 
ENDROOT
TORSDOF 0
ENDMDL
