MODEL 1
REMARK minimizedAffinity 1.24621081
REMARK minimizedRMSD -1
REMARK  0 active torsions:
REMARK  status: ('A' for Active; 'I' for Inactive)
ROOT
ATOM      1  C1  DEN d   1      -5.686  -1.627  -2.258  0.00  0.00     0.130 A 
ATOM      2  C2  DEN d   1      -5.809  -0.455  -1.395  0.00  0.00    -0.031 A 
ATOM      3  C3  DEN d   1      -5.953   0.734  -2.259  0.00  0.00     0.027 A 
ATOM      4  C4  DEN d   1      -6.000   0.874  -4.834  0.00  0.00     0.027 A 
ATOM      5  C5  DEN d   1      -5.918   0.144  -5.999  0.00  0.00    -0.003 A 
ATOM      6  C6  DEN d   1      -5.721  -1.212  -6.000  0.00  0.00     0.001 A 
ATOM      7  C7  DEN d   1      -5.644  -1.887  -4.810  0.00  0.00     0.017 A 
ATOM      8  C8  DEN d   1      -5.718  -1.157  -3.631  0.00  0.00    -0.094 A 
ATOM      9  C9  DEN d   1      -5.930   0.211  -3.652  0.00  0.00    -0.072 A 
ENDROOT
TORSDOF 0
ENDMDL
