MODEL 1
REMARK minimizedAffinity 0.0448832922
REMARK minimizedRMSD -1
REMARK  0 active torsions:
REMARK  status: ('A' for Active; 'I' for Inactive)
ROOT
ATOM      1  C1  DEN d   1      -3.762  -2.987  -5.246  0.00  0.00     0.130 A 
ATOM      2  C2  DEN d   1      -2.971  -3.849  -4.372  0.00  0.00    -0.031 A 
ATOM      3  C3  DEN d   1      -3.265  -3.476  -2.974  0.00  0.00     0.027 A 
ATOM      4  C4  DEN d   1      -4.864  -1.660  -2.082  0.00  0.00     0.027 A 
ATOM      5  C5  DEN d   1      -5.745  -0.664  -2.442  0.00  0.00    -0.003 A 
ATOM      6  C6  DEN d   1      -5.998  -0.353  -3.752  0.00  0.00     0.001 A 
ATOM      7  C7  DEN d   1      -5.398  -1.074  -4.750  0.00  0.00     0.017 A 
ATOM      8  C8  DEN d   1      -4.503  -2.075  -4.394  0.00  0.00    -0.094 A 
ATOM      9  C9  DEN d   1      -4.269  -2.383  -3.065  0.00  0.00    -0.072 A 
ENDROOT
TORSDOF 0
ENDMDL
