MODEL 1
REMARK minimizedAffinity 2.86381388
REMARK minimizedRMSD -1
REMARK  0 active torsions:
REMARK  status: ('A' for Active; 'I' for Inactive)
ROOT
ATOM      1  C   UNL d   1       1.817   0.105   0.088  0.00  0.00     0.077 C 
ATOM      2  C1  UNL d   1       0.320   0.198   0.122  0.00  0.00    -0.074 A 
ATOM      3  C2  UNL d   1      -0.422   0.279  -1.061  0.00  0.00    -0.005 A 
ATOM      4  C3  UNL d   1      -1.814   0.355  -1.013  0.00  0.00     0.006 A 
ATOM      5  C4  UNL d   1      -2.477   0.351   0.214  0.00  0.00    -0.005 A 
ATOM      6  C5  UNL d   1      -1.751   0.270   1.407  0.00  0.00    -0.074 A 
ATOM      7  C6  UNL d   1      -2.449   0.254   2.735  0.00  0.00     0.077 C 
ATOM      8  C7  UNL d   1      -0.353   0.186   1.351  0.00  0.00    -0.001 A 
ENDROOT
TORSDOF 0
ENDMDL
