MODEL 1
REMARK minimizedAffinity 1.3059665
REMARK minimizedRMSD -1
REMARK  0 active torsions:
REMARK  status: ('A' for Active; 'I' for Inactive)
ROOT
ATOM      1  C   UNL d   1      -3.557  -1.178   3.320  0.00  0.00     0.077 C 
ATOM      2  C1  UNL d   1      -2.274  -0.729   2.685  0.00  0.00    -0.074 A 
ATOM      3  C2  UNL d   1      -1.091  -0.659   3.427  0.00  0.00    -0.005 A 
ATOM      4  C3  UNL d   1       0.096  -0.248   2.820  0.00  0.00     0.006 A 
ATOM      5  C4  UNL d   1       0.112   0.095   1.468  0.00  0.00    -0.005 A 
ATOM      6  C5  UNL d   1      -1.061   0.030   0.710  0.00  0.00    -0.074 A 
ATOM      7  C6  UNL d   1      -1.060   0.386  -0.747  0.00  0.00     0.077 C 
ATOM      8  C7  UNL d   1      -2.249  -0.390   1.325  0.00  0.00    -0.001 A 
ENDROOT
TORSDOF 0
ENDMDL
