MODEL 1
REMARK minimizedAffinity 6.72365999
REMARK minimizedRMSD -1
REMARK  0 active torsions:
REMARK  status: ('A' for Active; 'I' for Inactive)
ROOT
ATOM      1  C   UNL d   1      -2.297   1.470   1.085  0.00  0.00     0.077 C 
ATOM      2  C1  UNL d   1      -2.289   0.379   2.115  0.00  0.00    -0.074 A 
ATOM      3  C2  UNL d   1      -3.421  -0.414   2.331  0.00  0.00    -0.005 A 
ATOM      4  C3  UNL d   1      -3.396  -1.431   3.285  0.00  0.00     0.006 A 
ATOM      5  C4  UNL d   1      -2.241  -1.666   4.031  0.00  0.00    -0.005 A 
ATOM      6  C5  UNL d   1      -1.099  -0.884   3.828  0.00  0.00    -0.074 A 
ATOM      7  C6  UNL d   1       0.155  -1.130   4.615  0.00  0.00     0.077 C 
ATOM      8  C7  UNL d   1      -1.130   0.131   2.863  0.00  0.00    -0.001 A 
ENDROOT
TORSDOF 0
ENDMDL
