MODEL 1
REMARK minimizedAffinity 4.71081114
REMARK minimizedRMSD -1
REMARK  0 active torsions:
REMARK  status: ('A' for Active; 'I' for Inactive)
ROOT
ATOM      1  C   UNL d   1       1.476   0.043   0.099  0.00  0.00     0.077 C 
ATOM      2  C1  UNL d   1       0.264   0.121   0.979  0.00  0.00    -0.074 A 
ATOM      3  C2  UNL d   1      -0.865   0.847   0.585  0.00  0.00    -0.005 A 
ATOM      4  C3  UNL d   1      -1.988   0.903   1.410  0.00  0.00     0.006 A 
ATOM      5  C4  UNL d   1      -1.994   0.234   2.635  0.00  0.00    -0.005 A 
ATOM      6  C5  UNL d   1      -0.876  -0.498   3.044  0.00  0.00    -0.074 A 
ATOM      7  C6  UNL d   1      -0.870  -1.232   4.353  0.00  0.00     0.077 C 
ATOM      8  C7  UNL d   1       0.247  -0.555   2.207  0.00  0.00    -0.001 A 
ENDROOT
TORSDOF 0
ENDMDL
