MODEL 1
REMARK minimizedAffinity 4.57988501
REMARK minimizedRMSD -1
REMARK  0 active torsions:
REMARK  status: ('A' for Active; 'I' for Inactive)
ROOT
ATOM      1  C   UNL d   1       0.626  -0.262   0.011  0.00  0.00     0.077 C 
ATOM      2  C1  UNL d   1      -0.304  -0.307   1.186  0.00  0.00    -0.074 A 
ATOM      3  C2  UNL d   1      -1.622   0.149   1.078  0.00  0.00    -0.005 A 
ATOM      4  C3  UNL d   1      -2.479   0.092   2.177  0.00  0.00     0.006 A 
ATOM      5  C4  UNL d   1      -2.027  -0.421   3.394  0.00  0.00    -0.005 A 
ATOM      6  C5  UNL d   1      -0.713  -0.882   3.521  0.00  0.00    -0.074 A 
ATOM      7  C6  UNL d   1      -0.215  -1.445   4.819  0.00  0.00     0.077 C 
ATOM      8  C7  UNL d   1       0.140  -0.828   2.410  0.00  0.00    -0.001 A 
ENDROOT
TORSDOF 0
ENDMDL
