MODEL 1
REMARK minimizedAffinity -4.69183731
REMARK minimizedRMSD -1
REMARK  0 active torsions:
REMARK  status: ('A' for Active; 'I' for Inactive)
ROOT
ATOM      1  C   UNL d   1      -2.272  -0.894   0.504  0.00  0.00     0.077 C 
ATOM      2  C1  UNL d   1      -1.115  -0.052   0.955  0.00  0.00    -0.074 A 
ATOM      3  C2  UNL d   1      -0.022   0.177   0.114  0.00  0.00    -0.005 A 
ATOM      4  C3  UNL d   1       1.042   0.970   0.544  0.00  0.00     0.006 A 
ATOM      5  C4  UNL d   1       1.023   1.542   1.816  0.00  0.00    -0.005 A 
ATOM      6  C5  UNL d   1      -0.062   1.325   2.671  0.00  0.00    -0.074 A 
ATOM      7  C6  UNL d   1      -0.103   1.940   4.038  0.00  0.00     0.077 C 
ATOM      8  C7  UNL d   1      -1.131   0.533   2.229  0.00  0.00    -0.001 A 
ENDROOT
TORSDOF 0
ENDMDL
