MODEL 1
REMARK minimizedAffinity 3.32282996
REMARK minimizedRMSD -1
REMARK  0 active torsions:
REMARK  status: ('A' for Active; 'I' for Inactive)
ROOT
ATOM      1  C   UNL d   1       1.261  -1.505   4.473  0.00  0.00     0.077 C 
ATOM      2  C1  UNL d   1       0.733  -0.776   3.273  0.00  0.00    -0.074 A 
ATOM      3  C2  UNL d   1       1.583  -0.402   2.228  0.00  0.00    -0.005 A 
ATOM      4  C3  UNL d   1       1.076   0.267   1.114  0.00  0.00     0.006 A 
ATOM      5  C4  UNL d   1      -0.285   0.567   1.034  0.00  0.00    -0.005 A 
ATOM      6  C5  UNL d   1      -1.150   0.199   2.069  0.00  0.00    -0.074 A 
ATOM      7  C6  UNL d   1      -2.617   0.505   1.994  0.00  0.00     0.077 C 
ATOM      8  C7  UNL d   1      -0.634  -0.478   3.182  0.00  0.00    -0.001 A 
ENDROOT
TORSDOF 0
ENDMDL
