MODEL 1
REMARK minimizedAffinity -1.22404635
REMARK minimizedRMSD -1
REMARK  0 active torsions:
REMARK  status: ('A' for Active; 'I' for Inactive)
ROOT
ATOM      1  C   UNL d   1       0.522  -0.047  -0.676  0.00  0.00     0.077 C 
ATOM      2  C1  UNL d   1      -0.097  -0.043   0.691  0.00  0.00    -0.074 A 
ATOM      3  C2  UNL d   1      -1.385   0.462   0.895  0.00  0.00    -0.005 A 
ATOM      4  C3  UNL d   1      -1.951   0.451   2.170  0.00  0.00     0.006 A 
ATOM      5  C4  UNL d   1      -1.236  -0.064   3.251  0.00  0.00    -0.005 A 
ATOM      6  C5  UNL d   1       0.054  -0.573   3.067  0.00  0.00    -0.074 A 
ATOM      7  C6  UNL d   1       0.833  -1.139   4.217  0.00  0.00     0.077 C 
ATOM      8  C7  UNL d   1       0.613  -0.565   1.781  0.00  0.00    -0.001 A 
ENDROOT
TORSDOF 0
ENDMDL
