MODEL 1
REMARK minimizedAffinity 3.00320387
REMARK minimizedRMSD -1
REMARK  0 active torsions:
REMARK  status: ('A' for Active; 'I' for Inactive)
ROOT
ATOM      1  C   UNL d   1      -1.831   1.082   0.691  0.00  0.00     0.077 C 
ATOM      2  C1  UNL d   1      -1.418   0.448   1.986  0.00  0.00    -0.074 A 
ATOM      3  C2  UNL d   1      -2.362   0.146   2.973  0.00  0.00    -0.005 A 
ATOM      4  C3  UNL d   1      -1.964  -0.452   4.168  0.00  0.00     0.006 A 
ATOM      5  C4  UNL d   1      -0.620  -0.754   4.389  0.00  0.00    -0.005 A 
ATOM      6  C5  UNL d   1       0.339  -0.460   3.415  0.00  0.00    -0.074 A 
ATOM      7  C6  UNL d   1       1.786  -0.787   3.632  0.00  0.00     0.077 C 
ATOM      8  C7  UNL d   1      -0.070   0.135   2.213  0.00  0.00    -0.001 A 
ENDROOT
TORSDOF 0
ENDMDL
