MODEL 1
REMARK minimizedAffinity 9.35233307
REMARK minimizedRMSD -1
REMARK  0 active torsions:
REMARK  status: ('A' for Active; 'I' for Inactive)
ROOT
ATOM      1  C   UNL d   1       1.757   0.450   1.066  0.00  0.00     0.077 C 
ATOM      2  C1  UNL d   1       0.332   0.119   0.737  0.00  0.00    -0.074 A 
ATOM      3  C2  UNL d   1      -0.016  -0.400  -0.514  0.00  0.00    -0.005 A 
ATOM      4  C3  UNL d   1      -1.345  -0.712  -0.802  0.00  0.00     0.006 A 
ATOM      5  C4  UNL d   1      -2.338  -0.509   0.157  0.00  0.00    -0.005 A 
ATOM      6  C5  UNL d   1      -2.009   0.008   1.414  0.00  0.00    -0.074 A 
ATOM      7  C6  UNL d   1      -3.062   0.224   2.460  0.00  0.00     0.077 C 
ATOM      8  C7  UNL d   1      -0.671   0.313   1.698  0.00  0.00    -0.001 A 
ENDROOT
TORSDOF 0
ENDMDL
