MODEL 1
REMARK minimizedAffinity 6.06018496
REMARK minimizedRMSD -1
REMARK  0 active torsions:
REMARK  status: ('A' for Active; 'I' for Inactive)
ROOT
ATOM      1  C1  DEN d   1       0.349  -2.593   0.660  0.00  0.00     0.130 A 
ATOM      2  C2  DEN d   1      -0.908  -1.919   0.977  0.00  0.00    -0.031 A 
ATOM      3  C3  DEN d   1      -0.586  -0.577   1.501  0.00  0.00     0.027 A 
ATOM      4  C4  DEN d   1       1.722   0.521   1.846  0.00  0.00     0.027 A 
ATOM      5  C5  DEN d   1       3.082   0.335   1.731  0.00  0.00    -0.003 A 
ATOM      6  C6  DEN d   1       3.623  -0.842   1.286  0.00  0.00     0.001 A 
ATOM      7  C7  DEN d   1       2.798  -1.864   0.898  0.00  0.00     0.017 A 
ATOM      8  C8  DEN d   1       1.426  -1.687   1.018  0.00  0.00    -0.094 A 
ATOM      9  C9  DEN d   1       0.898  -0.485   1.458  0.00  0.00    -0.072 A 
ENDROOT
TORSDOF 0
ENDMDL
