MODEL 1
REMARK minimizedAffinity 4.18135071
REMARK minimizedRMSD -1
REMARK  0 active torsions:
REMARK  status: ('A' for Active; 'I' for Inactive)
ROOT
ATOM      1  C1  DEN d   1      -0.670  -2.161   1.372  0.00  0.00     0.130 A 
ATOM      2  C2  DEN d   1       0.558  -2.675   1.972  0.00  0.00    -0.031 A 
ATOM      3  C3  DEN d   1       1.562  -2.824   0.900  0.00  0.00     0.027 A 
ATOM      4  C4  DEN d   1       1.338  -2.306  -1.617  0.00  0.00     0.027 A 
ATOM      5  C5  DEN d   1       0.482  -1.860  -2.600  0.00  0.00    -0.003 A 
ATOM      6  C6  DEN d   1      -0.818  -1.520  -2.335  0.00  0.00     0.001 A 
ATOM      7  C7  DEN d   1      -1.287  -1.575  -1.049  0.00  0.00     0.017 A 
ATOM      8  C8  DEN d   1      -0.431  -2.030  -0.054  0.00  0.00    -0.094 A 
ATOM      9  C9  DEN d   1       0.883  -2.358  -0.340  0.00  0.00    -0.072 A 
ENDROOT
TORSDOF 0
ENDMDL
