MODEL 1
REMARK minimizedAffinity 4.68228912
REMARK minimizedRMSD -1
REMARK  0 active torsions:
REMARK  status: ('A' for Active; 'I' for Inactive)
ROOT
ATOM      1  C1  DEN d   1       1.361  -1.902  -1.969  0.00  0.00     0.130 A 
ATOM      2  C2  DEN d   1       0.042  -2.381  -2.373  0.00  0.00    -0.031 A 
ATOM      3  C3  DEN d   1      -0.700  -2.759  -1.153  0.00  0.00     0.027 A 
ATOM      4  C4  DEN d   1       0.061  -2.643   1.309  0.00  0.00     0.027 A 
ATOM      5  C5  DEN d   1       1.103  -2.314   2.148  0.00  0.00    -0.003 A 
ATOM      6  C6  DEN d   1       2.306  -1.861   1.675  0.00  0.00     0.001 A 
ATOM      7  C7  DEN d   1       2.481  -1.681   0.328  0.00  0.00     0.017 A 
ATOM      8  C8  DEN d   1       1.438  -2.017  -0.524  0.00  0.00    -0.094 A 
ATOM      9  C9  DEN d   1       0.225  -2.462  -0.026  0.00  0.00    -0.072 A 
ENDROOT
TORSDOF 0
ENDMDL
