MODEL 1
REMARK minimizedAffinity -1.44229186
REMARK minimizedRMSD -1
REMARK  0 active torsions:
REMARK  status: ('A' for Active; 'I' for Inactive)
ROOT
ATOM      1  C1  DEN d   1      -0.255  -2.397   1.699  0.00  0.00     0.130 A 
ATOM      2  C2  DEN d   1       1.124  -2.631   2.117  0.00  0.00    -0.031 A 
ATOM      3  C3  DEN d   1       1.951  -2.776   0.902  0.00  0.00     0.027 A 
ATOM      4  C4  DEN d   1       1.234  -2.658  -1.573  0.00  0.00     0.027 A 
ATOM      5  C5  DEN d   1       0.165  -2.490  -2.424  0.00  0.00    -0.003 A 
ATOM      6  C6  DEN d   1      -1.114  -2.315  -1.966  0.00  0.00     0.001 A 
ATOM      7  C7  DEN d   1      -1.350  -2.258  -0.617  0.00  0.00     0.017 A 
ATOM      8  C8  DEN d   1      -0.278  -2.434   0.248  0.00  0.00    -0.094 A 
ATOM      9  C9  DEN d   1       1.009  -2.598  -0.235  0.00  0.00    -0.072 A 
ENDROOT
TORSDOF 0
ENDMDL
