MODEL 1
REMARK minimizedAffinity 1.33538747
REMARK minimizedRMSD -1
REMARK  0 active torsions:
REMARK  status: ('A' for Active; 'I' for Inactive)
ROOT
ATOM      1  C1  DEN d   1       0.265  -2.650  -2.620  0.00  0.00     0.130 A 
ATOM      2  C2  DEN d   1       1.611  -2.389  -2.117  0.00  0.00    -0.031 A 
ATOM      3  C3  DEN d   1       1.526  -2.227  -0.651  0.00  0.00     0.027 A 
ATOM      4  C4  DEN d   1      -0.545  -2.359   0.879  0.00  0.00     0.027 A 
ATOM      5  C5  DEN d   1      -1.909  -2.548   0.908  0.00  0.00    -0.003 A 
ATOM      6  C6  DEN d   1      -2.643  -2.749  -0.231  0.00  0.00     0.001 A 
ATOM      7  C7  DEN d   1      -2.010  -2.811  -1.444  0.00  0.00     0.017 A 
ATOM      8  C8  DEN d   1      -0.636  -2.613  -1.482  0.00  0.00    -0.094 A 
ATOM      9  C9  DEN d   1       0.090  -2.424  -0.318  0.00  0.00    -0.072 A 
ENDROOT
TORSDOF 0
ENDMDL
