MODEL 1
REMARK minimizedAffinity 15.6813049
REMARK minimizedRMSD -1
REMARK  0 active torsions:
REMARK  status: ('A' for Active; 'I' for Inactive)
ROOT
ATOM      1  C1  DEN d   1       2.009  -1.150   0.799  0.00  0.00     0.130 A 
ATOM      2  C2  DEN d   1       1.200  -0.374   1.735  0.00  0.00    -0.031 A 
ATOM      3  C3  DEN d   1      -0.222  -0.616   1.419  0.00  0.00     0.027 A 
ATOM      4  C4  DEN d   1      -1.244  -2.115  -0.414  0.00  0.00     0.027 A 
ATOM      5  C5  DEN d   1      -0.956  -2.962  -1.461  0.00  0.00    -0.003 A 
ATOM      6  C6  DEN d   1       0.329  -3.237  -1.847  0.00  0.00     0.001 A 
ATOM      7  C7  DEN d   1       1.377  -2.693  -1.151  0.00  0.00     0.017 A 
ATOM      8  C8  DEN d   1       1.095  -1.831  -0.099  0.00  0.00    -0.094 A 
ATOM      9  C9  DEN d   1      -0.212  -1.576   0.283  0.00  0.00    -0.072 A 
ENDROOT
TORSDOF 0
ENDMDL
