MODEL 1
REMARK minimizedAffinity 5.91070271
REMARK minimizedRMSD -1
REMARK  0 active torsions:
REMARK  status: ('A' for Active; 'I' for Inactive)
ROOT
ATOM      1  C1  DEN d   1      -2.996   2.244  -1.107  0.00  0.00     0.130 A 
ATOM      2  C2  DEN d   1      -3.587   3.089  -2.141  0.00  0.00    -0.031 A 
ATOM      3  C3  DEN d   1      -4.779   3.746  -1.569  0.00  0.00     0.027 A 
ATOM      4  C4  DEN d   1      -5.759   3.543   0.808  0.00  0.00     0.027 A 
ATOM      5  C5  DEN d   1      -5.611   2.936   2.035  0.00  0.00    -0.003 A 
ATOM      6  C6  DEN d   1      -4.609   2.037   2.289  0.00  0.00     0.001 A 
ATOM      7  C7  DEN d   1      -3.688   1.754   1.315  0.00  0.00     0.017 A 
ATOM      8  C8  DEN d   1      -3.836   2.356   0.072  0.00  0.00    -0.094 A 
ATOM      9  C9  DEN d   1      -4.848   3.271  -0.161  0.00  0.00    -0.072 A 
ENDROOT
TORSDOF 0
ENDMDL
