MODEL 1
REMARK minimizedAffinity -5.44071245
REMARK minimizedRMSD -1
REMARK  0 active torsions:
REMARK  status: ('A' for Active; 'I' for Inactive)
ROOT
ATOM      1  C1  DEN d   1      -0.572  -1.176   0.097  0.00  0.00     0.130 A 
ATOM      2  C2  DEN d   1      -0.811   0.191  -0.359  0.00  0.00    -0.031 A 
ATOM      3  C3  DEN d   1       0.411   0.978  -0.101  0.00  0.00     0.027 A 
ATOM      4  C4  DEN d   1       2.641   0.217   0.948  0.00  0.00     0.027 A 
ATOM      5  C5  DEN d   1       3.315  -0.849   1.502  0.00  0.00    -0.003 A 
ATOM      6  C6  DEN d   1       2.734  -2.080   1.656  0.00  0.00     0.001 A 
ATOM      7  C7  DEN d   1       1.455  -2.288   1.210  0.00  0.00     0.017 A 
ATOM      8  C8  DEN d   1       0.767  -1.216   0.658  0.00  0.00    -0.094 A 
ATOM      9  C9  DEN d   1       1.376   0.018   0.499  0.00  0.00    -0.072 A 
ENDROOT
TORSDOF 0
ENDMDL
