MODEL 1
REMARK minimizedAffinity 0.0602001138
REMARK minimizedRMSD -1
REMARK  0 active torsions:
REMARK  status: ('A' for Active; 'I' for Inactive)
ROOT
ATOM      1  C1  DEN d   1      -5.209   1.679  -4.778  0.00  0.00     0.130 A 
ATOM      2  C2  DEN d   1      -5.663   0.366  -4.329  0.00  0.00    -0.031 A 
ATOM      3  C3  DEN d   1      -4.800  -0.057  -3.209  0.00  0.00     0.027 A 
ATOM      4  C4  DEN d   1      -2.818   1.189  -2.127  0.00  0.00     0.027 A 
ATOM      5  C5  DEN d   1      -2.050   2.331  -2.174  0.00  0.00    -0.003 A 
ATOM      6  C6  DEN d   1      -2.258   3.313  -3.106  0.00  0.00     0.001 A 
ATOM      7  C7  DEN d   1      -3.288   3.192  -4.001  0.00  0.00     0.017 A 
ATOM      8  C8  DEN d   1      -4.061   2.039  -3.965  0.00  0.00    -0.094 A 
ATOM      9  C9  DEN d   1      -3.843   1.064  -3.007  0.00  0.00    -0.072 A 
ENDROOT
TORSDOF 0
ENDMDL
