MODEL 1
REMARK minimizedAffinity 4.58926964
REMARK minimizedRMSD -1
REMARK  0 active torsions:
REMARK  status: ('A' for Active; 'I' for Inactive)
ROOT
ATOM      1  C   UNL d   1      -2.196  -3.131   2.519  0.00  0.00     0.077 C 
ATOM      2  C1  UNL d   1      -1.147  -2.129   2.138  0.00  0.00    -0.074 A 
ATOM      3  C2  UNL d   1      -1.200  -0.815   2.615  0.00  0.00    -0.005 A 
ATOM      4  C3  UNL d   1      -0.211   0.102   2.260  0.00  0.00     0.006 A 
ATOM      5  C4  UNL d   1       0.839  -0.284   1.426  0.00  0.00    -0.005 A 
ATOM      6  C5  UNL d   1       0.910  -1.593   0.941  0.00  0.00    -0.074 A 
ATOM      7  C6  UNL d   1       2.037  -2.027   0.052  0.00  0.00     0.077 C 
ATOM      8  C7  UNL d   1      -0.084  -2.512   1.308  0.00  0.00    -0.001 A 
ENDROOT
TORSDOF 0
ENDMDL
