MODEL 1
REMARK minimizedAffinity 4.63415289
REMARK minimizedRMSD -1
REMARK  0 active torsions:
REMARK  status: ('A' for Active; 'I' for Inactive)
ROOT
ATOM      1  C   UNL d   1      -1.213   0.310   1.184  0.00  0.00     0.077 C 
ATOM      2  C1  UNL d   1      -0.436  -0.905   1.597  0.00  0.00    -0.074 A 
ATOM      3  C2  UNL d   1      -0.788  -1.630   2.740  0.00  0.00    -0.005 A 
ATOM      4  C3  UNL d   1      -0.063  -2.763   3.105  0.00  0.00     0.006 A 
ATOM      5  C4  UNL d   1       1.021  -3.184   2.333  0.00  0.00    -0.005 A 
ATOM      6  C5  UNL d   1       1.387  -2.472   1.185  0.00  0.00    -0.074 A 
ATOM      7  C6  UNL d   1       2.542  -2.916   0.338  0.00  0.00     0.077 C 
ATOM      8  C7  UNL d   1       0.649  -1.338   0.821  0.00  0.00    -0.001 A 
ENDROOT
TORSDOF 0
ENDMDL
