MODEL 1
REMARK minimizedAffinity 7.25673819
REMARK minimizedRMSD -1
REMARK  0 active torsions:
REMARK  status: ('A' for Active; 'I' for Inactive)
ROOT
ATOM      1  C   UNL d   1       4.807  -3.756  -0.142  0.00  0.00     0.077 C 
ATOM      2  C1  UNL d   1       4.827  -2.263   0.002  0.00  0.00    -0.074 A 
ATOM      3  C2  UNL d   1       5.995  -1.592   0.378  0.00  0.00    -0.005 A 
ATOM      4  C3  UNL d   1       6.000  -0.202   0.498  0.00  0.00     0.006 A 
ATOM      5  C4  UNL d   1       4.839   0.529   0.244  0.00  0.00    -0.005 A 
ATOM      6  C5  UNL d   1       3.662  -0.125  -0.134  0.00  0.00    -0.074 A 
ATOM      7  C6  UNL d   1       2.408   0.647  -0.420  0.00  0.00     0.077 C 
ATOM      8  C7  UNL d   1       3.667  -1.521  -0.259  0.00  0.00    -0.001 A 
ENDROOT
TORSDOF 0
ENDMDL
