MODEL 1
REMARK minimizedAffinity 4.747612
REMARK minimizedRMSD -1
REMARK  0 active torsions:
REMARK  status: ('A' for Active; 'I' for Inactive)
ROOT
ATOM      1  C   UNL d   1       2.188  -1.867   1.146  0.00  0.00     0.077 C 
ATOM      2  C1  UNL d   1       0.991  -1.350   1.888  0.00  0.00    -0.074 A 
ATOM      3  C2  UNL d   1       0.975  -0.054   2.413  0.00  0.00    -0.005 A 
ATOM      4  C3  UNL d   1      -0.149   0.416   3.092  0.00  0.00     0.006 A 
ATOM      5  C4  UNL d   1      -1.266  -0.405   3.254  0.00  0.00    -0.005 A 
ATOM      6  C5  UNL d   1      -1.268  -1.704   2.736  0.00  0.00    -0.074 A 
ATOM      7  C6  UNL d   1      -2.464  -2.595   2.893  0.00  0.00     0.077 C 
ATOM      8  C7  UNL d   1      -0.138  -2.166   2.049  0.00  0.00    -0.001 A 
ENDROOT
TORSDOF 0
ENDMDL
