MODEL 1
REMARK minimizedAffinity -3.85112286
REMARK minimizedRMSD -1
REMARK  0 active torsions:
REMARK  status: ('A' for Active; 'I' for Inactive)
ROOT
ATOM      1  C   UNL d   1       1.510  -2.071   0.822  0.00  0.00     0.077 C 
ATOM      2  C1  UNL d   1       2.765  -2.786   1.225  0.00  0.00    -0.074 A 
ATOM      3  C2  UNL d   1       3.652  -3.279   0.262  0.00  0.00    -0.005 A 
ATOM      4  C3  UNL d   1       4.820  -3.933   0.652  0.00  0.00     0.006 A 
ATOM      5  C4  UNL d   1       5.114  -4.101   2.006  0.00  0.00    -0.005 A 
ATOM      6  C5  UNL d   1       4.239  -3.613   2.983  0.00  0.00    -0.074 A 
ATOM      7  C6  UNL d   1       4.544  -3.776   4.443  0.00  0.00     0.077 C 
ATOM      8  C7  UNL d   1       3.071  -2.951   2.583  0.00  0.00    -0.001 A 
ENDROOT
TORSDOF 0
ENDMDL
