MODEL 1
REMARK minimizedAffinity 5.60511303
REMARK minimizedRMSD -1
REMARK  0 active torsions:
REMARK  status: ('A' for Active; 'I' for Inactive)
ROOT
ATOM      1  C   UNL d   1      -0.726  -0.743   0.351  0.00  0.00     0.077 C 
ATOM      2  C1  UNL d   1      -1.945  -0.288   1.096  0.00  0.00    -0.074 A 
ATOM      3  C2  UNL d   1      -1.851   0.664   2.116  0.00  0.00    -0.005 A 
ATOM      4  C3  UNL d   1      -2.995   1.084   2.794  0.00  0.00     0.006 A 
ATOM      5  C4  UNL d   1      -4.243   0.557   2.460  0.00  0.00    -0.005 A 
ATOM      6  C5  UNL d   1      -4.357  -0.396   1.443  0.00  0.00    -0.074 A 
ATOM      7  C6  UNL d   1      -5.692  -0.965   1.065  0.00  0.00     0.077 C 
ATOM      8  C7  UNL d   1      -3.204  -0.808   0.761  0.00  0.00    -0.001 A 
ENDROOT
TORSDOF 0
ENDMDL
