MODEL 1
REMARK minimizedAffinity -0.647741199
REMARK minimizedRMSD -1
REMARK  0 active torsions:
REMARK  status: ('A' for Active; 'I' for Inactive)
ROOT
ATOM      1  C   UNL d   1       3.042  -4.107   0.921  0.00  0.00     0.077 C 
ATOM      2  C1  UNL d   1       2.319  -2.797   0.822  0.00  0.00    -0.074 A 
ATOM      3  C2  UNL d   1       2.571  -1.914  -0.233  0.00  0.00    -0.005 A 
ATOM      4  C3  UNL d   1       1.883  -0.703  -0.317  0.00  0.00     0.006 A 
ATOM      5  C4  UNL d   1       0.940  -0.363   0.653  0.00  0.00    -0.005 A 
ATOM      6  C5  UNL d   1       0.674  -1.233   1.715  0.00  0.00    -0.074 A 
ATOM      7  C6  UNL d   1      -0.344  -0.887   2.761  0.00  0.00     0.077 C 
ATOM      8  C7  UNL d   1       1.364  -2.451   1.788  0.00  0.00    -0.001 A 
ENDROOT
TORSDOF 0
ENDMDL
