MODEL 1
REMARK minimizedAffinity 5.58759689
REMARK minimizedRMSD -1
REMARK  0 active torsions:
REMARK  status: ('A' for Active; 'I' for Inactive)
ROOT
ATOM      1  C   UNL d   1       0.757  -4.880   2.621  0.00  0.00     0.077 C 
ATOM      2  C1  UNL d   1       0.592  -3.410   2.377  0.00  0.00    -0.074 A 
ATOM      3  C2  UNL d   1      -0.243  -2.635   3.189  0.00  0.00    -0.005 A 
ATOM      4  C3  UNL d   1      -0.379  -1.267   2.955  0.00  0.00     0.006 A 
ATOM      5  C4  UNL d   1       0.317  -0.660   1.909  0.00  0.00    -0.005 A 
ATOM      6  C5  UNL d   1       1.157  -1.418   1.087  0.00  0.00    -0.074 A 
ATOM      7  C6  UNL d   1       1.920  -0.780  -0.036  0.00  0.00     0.077 C 
ATOM      8  C7  UNL d   1       1.294  -2.791   1.333  0.00  0.00    -0.001 A 
ENDROOT
TORSDOF 0
ENDMDL
