MODEL 1
REMARK minimizedAffinity -3.55550671
REMARK minimizedRMSD -1
REMARK  0 active torsions:
REMARK  status: ('A' for Active; 'I' for Inactive)
ROOT
ATOM      1  C   UNL d   1       0.717   0.337  -0.492  0.00  0.00     0.077 C 
ATOM      2  C1  UNL d   1       0.701  -0.748   0.544  0.00  0.00    -0.074 A 
ATOM      3  C2  UNL d   1      -0.115  -0.650   1.675  0.00  0.00    -0.005 A 
ATOM      4  C3  UNL d   1      -0.126  -1.671   2.625  0.00  0.00     0.006 A 
ATOM      5  C4  UNL d   1       0.678  -2.799   2.454  0.00  0.00    -0.005 A 
ATOM      6  C5  UNL d   1       1.500  -2.915   1.329  0.00  0.00    -0.074 A 
ATOM      7  C6  UNL d   1       2.363  -4.124   1.125  0.00  0.00     0.077 C 
ATOM      8  C7  UNL d   1       1.500  -1.887   0.375  0.00  0.00    -0.001 A 
ENDROOT
TORSDOF 0
ENDMDL
