MODEL 1
REMARK minimizedAffinity -4.71206045
REMARK minimizedRMSD -1
REMARK  1 active torsions:
REMARK  status: ('A' for Active; 'I' for Inactive)
REMARK    1  A    between atoms: C1_2  and  C2_3 
ROOT
ATOM      1  C2  UNL d   1      -0.679   0.756   1.676  0.00  0.00    -0.081 A 
ATOM      2  C3  UNL d   1      -1.598   0.384   0.687  0.00  0.00     0.006 A 
ATOM      3  C4  UNL d   1      -1.155  -0.083  -0.552  0.00  0.00     0.002 A 
ATOM      4  C5  UNL d   1       0.214  -0.195  -0.820  0.00  0.00    -0.080 A 
ATOM      5  C6  UNL d   1       0.703  -0.724  -2.136  0.00  0.00     0.076 C 
ATOM      6  C7  UNL d   1       1.132   0.193   0.161  0.00  0.00     0.002 A 
ATOM      7  C8  UNL d   1       0.689   0.662   1.400  0.00  0.00     0.006 A 
ENDROOT
BRANCH   1   8
ATOM      8  C1  UNL d   1      -1.155   1.200   3.036  0.00  0.00     0.054 C 
ATOM      9  C   UNL d   1      -0.078   0.995   4.092  0.00  0.00     0.018 C 
ENDBRANCH   1   8
TORSDOF 1
ENDMDL
