MODEL 1
REMARK minimizedAffinity -3.49113274
REMARK minimizedRMSD -1
REMARK  1 active torsions:
REMARK  status: ('A' for Active; 'I' for Inactive)
REMARK    1  A    between atoms: C1_2  and  C2_3 
ROOT
ATOM      1  C2  UNL d   1      -0.236  -0.598  -0.567  0.00  0.00    -0.081 A 
ATOM      2  C3  UNL d   1      -1.512  -0.305  -0.070  0.00  0.00     0.006 A 
ATOM      3  C4  UNL d   1      -1.664   0.279   1.190  0.00  0.00     0.002 A 
ATOM      4  C5  UNL d   1      -0.544   0.586   1.970  0.00  0.00    -0.080 A 
ATOM      5  C6  UNL d   1      -0.691   1.241   3.311  0.00  0.00     0.076 C 
ATOM      6  C7  UNL d   1       0.730   0.277   1.480  0.00  0.00     0.002 A 
ATOM      7  C8  UNL d   1       0.882  -0.307   0.221  0.00  0.00     0.006 A 
ENDROOT
BRANCH   1   8
ATOM      8  C1  UNL d   1      -0.066  -1.168  -1.952  0.00  0.00     0.054 C 
ATOM      9  C   UNL d   1       1.047  -0.459  -2.710  0.00  0.00     0.018 C 
ENDBRANCH   1   8
TORSDOF 1
ENDMDL
