MODEL 1
REMARK minimizedAffinity -5.88701105
REMARK minimizedRMSD -1
REMARK  1 active torsions:
REMARK  status: ('A' for Active; 'I' for Inactive)
REMARK    1  A    between atoms: C1_2  and  C2_3 
ROOT
ATOM      1  C2  UNL d   1       0.660  -0.560  -0.133  0.00  0.00    -0.081 A 
ATOM      2  C3  UNL d   1       1.436  -0.660   1.028  0.00  0.00     0.006 A 
ATOM      3  C4  UNL d   1       1.034  -0.023   2.205  0.00  0.00     0.002 A 
ATOM      4  C5  UNL d   1      -0.152   0.718   2.242  0.00  0.00    -0.080 A 
ATOM      5  C6  UNL d   1      -0.610   1.381   3.506  0.00  0.00     0.076 C 
ATOM      6  C7  UNL d   1      -0.919   0.832   1.077  0.00  0.00     0.002 A 
ATOM      7  C8  UNL d   1      -0.517   0.195  -0.100  0.00  0.00     0.006 A 
ENDROOT
BRANCH   1   8
ATOM      8  C1  UNL d   1       1.057  -1.299  -1.386  0.00  0.00     0.054 C 
ATOM      9  C   UNL d   1       0.996  -0.392  -2.606  0.00  0.00     0.018 C 
ENDBRANCH   1   8
TORSDOF 1
ENDMDL
