MODEL 1
REMARK minimizedAffinity -3.19916844
REMARK minimizedRMSD -1
REMARK  1 active torsions:
REMARK  status: ('A' for Active; 'I' for Inactive)
REMARK    1  A    between atoms: C1_2  and  C2_3 
ROOT
ATOM      1  C2  UNL d   1       0.363  -0.224  -1.114  0.00  0.00    -0.081 A 
ATOM      2  C3  UNL d   1       1.141   0.198  -0.028  0.00  0.00     0.006 A 
ATOM      3  C4  UNL d   1       0.537   0.541   1.184  0.00  0.00     0.002 A 
ATOM      4  C5  UNL d   1      -0.851   0.462   1.333  0.00  0.00    -0.080 A 
ATOM      5  C6  UNL d   1      -1.509   0.799   2.639  0.00  0.00     0.076 C 
ATOM      6  C7  UNL d   1      -1.630   0.057   0.244  0.00  0.00     0.002 A 
ATOM      7  C8  UNL d   1      -1.027  -0.286  -0.969  0.00  0.00     0.006 A 
ENDROOT
BRANCH   1   8
ATOM      8  C1  UNL d   1       1.016  -0.657  -2.401  0.00  0.00     0.054 C 
ATOM      9  C   UNL d   1       1.457   0.542  -3.229  0.00  0.00     0.018 C 
ENDBRANCH   1   8
TORSDOF 1
ENDMDL
