MODEL 1
REMARK minimizedAffinity -5.71527624
REMARK minimizedRMSD -1
REMARK  1 active torsions:
REMARK  status: ('A' for Active; 'I' for Inactive)
REMARK    1  A    between atoms: C1_2  and  C2_3 
ROOT
ATOM      1  C2  UNL d   1       0.019   0.072  -0.697  0.00  0.00    -0.081 A 
ATOM      2  C3  UNL d   1      -1.291   0.432  -0.356  0.00  0.00     0.006 A 
ATOM      3  C4  UNL d   1      -1.588   0.887   0.931  0.00  0.00     0.002 A 
ATOM      4  C5  UNL d   1      -0.580   0.996   1.895  0.00  0.00    -0.080 A 
ATOM      5  C6  UNL d   1      -0.880   1.512   3.271  0.00  0.00     0.076 C 
ATOM      6  C7  UNL d   1       0.725   0.620   1.560  0.00  0.00     0.002 A 
ATOM      7  C8  UNL d   1       1.022   0.165   0.273  0.00  0.00     0.006 A 
ENDROOT
BRANCH   1   8
ATOM      8  C1  UNL d   1       0.354  -0.357  -2.103  0.00  0.00     0.054 C 
ATOM      9  C   UNL d   1       1.198   0.691  -2.815  0.00  0.00     0.018 C 
ENDBRANCH   1   8
TORSDOF 1
ENDMDL
