MODEL 1
REMARK minimizedAffinity -5.5950985
REMARK minimizedRMSD -1
REMARK  1 active torsions:
REMARK  status: ('A' for Active; 'I' for Inactive)
REMARK    1  A    between atoms: C1_2  and  C2_3 
ROOT
ATOM      1  C2  UNL d   1       0.201  -0.684  -0.365  0.00  0.00    -0.081 A 
ATOM      2  C3  UNL d   1      -1.103  -0.256  -0.089  0.00  0.00     0.006 A 
ATOM      3  C4  UNL d   1      -1.397   0.388   1.115  0.00  0.00     0.002 A 
ATOM      4  C5  UNL d   1      -0.392   0.623   2.059  0.00  0.00    -0.080 A 
ATOM      5  C6  UNL d   1      -0.688   1.340   3.342  0.00  0.00     0.076 C 
ATOM      6  C7  UNL d   1       0.908   0.179   1.791  0.00  0.00     0.002 A 
ATOM      7  C8  UNL d   1       1.202  -0.465   0.588  0.00  0.00     0.006 A 
ENDROOT
BRANCH   1   8
ATOM      8  C1  UNL d   1       0.535  -1.321  -1.689  0.00  0.00     0.054 C 
ATOM      9  C   UNL d   1       1.348  -0.380  -2.567  0.00  0.00     0.018 C 
ENDBRANCH   1   8
TORSDOF 1
ENDMDL
