MODEL 1
REMARK minimizedAffinity -5.84247637
REMARK minimizedRMSD -1
REMARK  1 active torsions:
REMARK  status: ('A' for Active; 'I' for Inactive)
REMARK    1  A    between atoms: C1_2  and  C2_3 
ROOT
ATOM      1  C2  UNL d   1       0.027  -0.384  -0.708  0.00  0.00    -0.081 A 
ATOM      2  C3  UNL d   1      -1.292  -0.116  -0.323  0.00  0.00     0.006 A 
ATOM      3  C4  UNL d   1      -1.562   0.492   0.905  0.00  0.00     0.002 A 
ATOM      4  C5  UNL d   1      -0.517   0.849   1.765  0.00  0.00    -0.080 A 
ATOM      5  C6  UNL d   1      -0.792   1.530   3.073  0.00  0.00     0.076 C 
ATOM      6  C7  UNL d   1       0.800   0.565   1.388  0.00  0.00     0.002 A 
ATOM      7  C8  UNL d   1       1.070  -0.043   0.161  0.00  0.00     0.006 A 
ENDROOT
BRANCH   1   8
ATOM      8  C1  UNL d   1       0.325  -0.981  -2.060  0.00  0.00     0.054 C 
ATOM      9  C   UNL d   1       0.709   0.094  -3.067  0.00  0.00     0.018 C 
ENDBRANCH   1   8
TORSDOF 1
ENDMDL
