MODEL 1
REMARK minimizedAffinity -4.55592012
REMARK minimizedRMSD -1
REMARK  1 active torsions:
REMARK  status: ('A' for Active; 'I' for Inactive)
REMARK    1  A    between atoms: C1_2  and  C2_3 
ROOT
ATOM      1  C2  UNL d   1      -0.204  -0.634  -0.546  0.00  0.00    -0.081 A 
ATOM      2  C3  UNL d   1      -1.456  -0.265  -0.039  0.00  0.00     0.006 A 
ATOM      3  C4  UNL d   1      -1.557   0.390   1.190  0.00  0.00     0.002 A 
ATOM      4  C5  UNL d   1      -0.409   0.694   1.929  0.00  0.00    -0.080 A 
ATOM      5  C6  UNL d   1      -0.501   1.424   3.236  0.00  0.00     0.076 C 
ATOM      6  C7  UNL d   1       0.841   0.309   1.431  0.00  0.00     0.002 A 
ATOM      7  C8  UNL d   1       0.942  -0.346   0.202  0.00  0.00     0.006 A 
ENDROOT
BRANCH   1   8
ATOM      8  C1  UNL d   1      -0.087  -1.283  -1.902  0.00  0.00     0.054 C 
ATOM      9  C   UNL d   1       0.331  -0.276  -2.963  0.00  0.00     0.018 C 
ENDBRANCH   1   8
TORSDOF 1
ENDMDL
