MODEL 1
REMARK minimizedAffinity -2.17132711
REMARK minimizedRMSD -1
REMARK  0 active torsions:
REMARK  status: ('A' for Active; 'I' for Inactive)
ROOT
ATOM      1  C1  BNZ d   1      -1.219  -0.043   0.163  0.00  0.00     0.000 A 
ATOM      2  C2  BNZ d   1      -1.521  -0.248   1.483  0.00  0.00     0.000 A 
ATOM      3  C3  BNZ d   1      -0.573  -0.707   2.354  0.00  0.00     0.000 A 
ATOM      4  C4  BNZ d   1       0.662  -0.998   1.897  0.00  0.00     0.000 A 
ATOM      5  C5  BNZ d   1       0.979  -0.806   0.568  0.00  0.00     0.000 A 
ATOM      6  C6  BNZ d   1       0.034  -0.307  -0.299  0.00  0.00     0.000 A 
ENDROOT
TORSDOF 0
ENDMDL
