MODEL 1
REMARK minimizedAffinity -3.65169287
REMARK minimizedRMSD -1
REMARK  0 active torsions:
REMARK  status: ('A' for Active; 'I' for Inactive)
ROOT
ATOM      1  C1  BNZ d   1      -0.722   0.266   0.019  0.00  0.00     0.000 A 
ATOM      2  C2  BNZ d   1       0.007   0.082  -1.126  0.00  0.00     0.000 A 
ATOM      3  C3  BNZ d   1       1.091  -0.750  -1.139  0.00  0.00     0.000 A 
ATOM      4  C4  BNZ d   1       1.469  -1.365   0.000  0.00  0.00     0.000 A 
ATOM      5  C5  BNZ d   1       0.750  -1.183   1.165  0.00  0.00     0.000 A 
ATOM      6  C6  BNZ d   1      -0.364  -0.375   1.165  0.00  0.00     0.000 A 
ENDROOT
TORSDOF 0
ENDMDL
