MODEL 1
REMARK minimizedAffinity -2.63723421
REMARK minimizedRMSD -1
REMARK  0 active torsions:
REMARK  status: ('A' for Active; 'I' for Inactive)
ROOT
ATOM      1  C1  BNZ d   1       0.432   3.171  -2.195  0.00  0.00     0.000 A 
ATOM      2  C2  BNZ d   1      -0.732   3.468  -2.853  0.00  0.00     0.000 A 
ATOM      3  C3  BNZ d   1      -1.810   2.632  -2.780  0.00  0.00     0.000 A 
ATOM      4  C4  BNZ d   1      -1.711   1.481  -2.083  0.00  0.00     0.000 A 
ATOM      5  C5  BNZ d   1      -0.541   1.163  -1.423  0.00  0.00     0.000 A 
ATOM      6  C6  BNZ d   1       0.530   2.026  -1.466  0.00  0.00     0.000 A 
ENDROOT
TORSDOF 0
ENDMDL
