MODEL 1
REMARK minimizedAffinity -1.90013742
REMARK minimizedRMSD -1
REMARK  0 active torsions:
REMARK  status: ('A' for Active; 'I' for Inactive)
ROOT
ATOM      1  C1  BNZ d   1      -1.061   1.162   1.831  0.00  0.00     0.000 A 
ATOM      2  C2  BNZ d   1      -1.029  -0.016   2.529  0.00  0.00     0.000 A 
ATOM      3  C3  BNZ d   1      -0.490  -1.144   1.975  0.00  0.00     0.000 A 
ATOM      4  C4  BNZ d   1      -0.021  -1.102   0.712  0.00  0.00     0.000 A 
ATOM      5  C5  BNZ d   1      -0.054   0.075  -0.008  0.00  0.00     0.000 A 
ATOM      6  C6  BNZ d   1      -0.561   1.218   0.566  0.00  0.00     0.000 A 
ENDROOT
TORSDOF 0
ENDMDL
