MODEL 1
REMARK minimizedAffinity -3.5461185
REMARK minimizedRMSD -1
REMARK  0 active torsions:
REMARK  status: ('A' for Active; 'I' for Inactive)
ROOT
ATOM      1  C1  BNZ d   1       2.236  -2.680   0.962  0.00  0.00     0.000 A 
ATOM      2  C2  BNZ d   1       1.743  -1.963  -0.095  0.00  0.00     0.000 A 
ATOM      3  C3  BNZ d   1       0.622  -1.193   0.043  0.00  0.00     0.000 A 
ATOM      4  C4  BNZ d   1      -0.027  -1.172   1.225  0.00  0.00     0.000 A 
ATOM      5  C5  BNZ d   1       0.453  -1.897   2.298  0.00  0.00     0.000 A 
ATOM      6  C6  BNZ d   1       1.603  -2.641   2.166  0.00  0.00     0.000 A 
ENDROOT
TORSDOF 0
ENDMDL
