MODEL 1
REMARK minimizedAffinity -3.36816525
REMARK minimizedRMSD -1
REMARK  0 active torsions:
REMARK  status: ('A' for Active; 'I' for Inactive)
ROOT
ATOM      1  C1  BNZ d   1      -1.137   3.359  -1.656  0.00  0.00     0.000 A 
ATOM      2  C2  BNZ d   1      -1.593   2.074  -1.529  0.00  0.00     0.000 A 
ATOM      3  C3  BNZ d   1      -0.933   1.035  -2.124  0.00  0.00     0.000 A 
ATOM      4  C4  BNZ d   1       0.158   1.287  -2.877  0.00  0.00     0.000 A 
ATOM      5  C5  BNZ d   1       0.624   2.578  -3.022  0.00  0.00     0.000 A 
ATOM      6  C6  BNZ d   1      -0.020   3.617  -2.389  0.00  0.00     0.000 A 
ENDROOT
TORSDOF 0
ENDMDL
