MODEL 1
REMARK minimizedAffinity 5.56731606
REMARK minimizedRMSD -1
REMARK  0 active torsions:
REMARK  status: ('A' for Active; 'I' for Inactive)
ROOT
ATOM      1  C1  BNZ d   1       3.010  -5.926  -4.810  0.00  0.00     0.000 A 
ATOM      2  C2  BNZ d   1       3.663  -5.683  -3.632  0.00  0.00     0.000 A 
ATOM      3  C3  BNZ d   1       4.996  -5.378  -3.620  0.00  0.00     0.000 A 
ATOM      4  C4  BNZ d   1       5.681  -5.357  -4.781  0.00  0.00     0.000 A 
ATOM      5  C5  BNZ d   1       5.039  -5.610  -5.977  0.00  0.00     0.000 A 
ATOM      6  C6  BNZ d   1       3.689  -5.878  -5.988  0.00  0.00     0.000 A 
ENDROOT
TORSDOF 0
ENDMDL
