MODEL 1
REMARK minimizedAffinity 4.57497644
REMARK minimizedRMSD -1
REMARK  0 active torsions:
REMARK  status: ('A' for Active; 'I' for Inactive)
ROOT
ATOM      1  C1  BNZ d   1       1.960   0.303   3.632  0.00  0.00     0.000 A 
ATOM      2  C2  BNZ d   1       2.475   1.408   3.009  0.00  0.00     0.000 A 
ATOM      3  C3  BNZ d   1       3.035   1.313   1.765  0.00  0.00     0.000 A 
ATOM      4  C4  BNZ d   1       3.115   0.109   1.164  0.00  0.00     0.000 A 
ATOM      5  C5  BNZ d   1       2.609  -1.016   1.783  0.00  0.00     0.000 A 
ATOM      6  C6  BNZ d   1       2.011  -0.911   3.018  0.00  0.00     0.000 A 
ENDROOT
TORSDOF 0
ENDMDL
