MODEL 1
REMARK minimizedAffinity -3.46115232
REMARK minimizedRMSD -1
REMARK  0 active torsions:
REMARK  status: ('A' for Active; 'I' for Inactive)
ROOT
ATOM      1  C1  BNZ d   1       3.101  -2.923   4.154  0.00  0.00     0.000 A 
ATOM      2  C2  BNZ d   1       3.272  -2.625   2.828  0.00  0.00     0.000 A 
ATOM      3  C3  BNZ d   1       2.564  -1.614   2.241  0.00  0.00     0.000 A 
ATOM      4  C4  BNZ d   1       1.657  -0.930   2.969  0.00  0.00     0.000 A 
ATOM      5  C5  BNZ d   1       1.466  -1.226   4.304  0.00  0.00     0.000 A 
ATOM      6  C6  BNZ d   1       2.209  -2.218   4.901  0.00  0.00     0.000 A 
ENDROOT
TORSDOF 0
ENDMDL
