MODEL 1
REMARK minimizedAffinity 1.01752746
REMARK minimizedRMSD -1
REMARK  0 active torsions:
REMARK  status: ('A' for Active; 'I' for Inactive)
ROOT
ATOM      1  C1  BNZ d   1       3.635  -6.000  -3.640  0.00  0.00     0.000 A 
ATOM      2  C2  BNZ d   1       4.997  -5.857  -3.640  0.00  0.00     0.000 A 
ATOM      3  C3  BNZ d   1       5.684  -5.701  -4.811  0.00  0.00     0.000 A 
ATOM      4  C4  BNZ d   1       5.015  -5.730  -5.982  0.00  0.00     0.000 A 
ATOM      5  C5  BNZ d   1       3.643  -5.882  -5.999  0.00  0.00     0.000 A 
ATOM      6  C6  BNZ d   1       2.950  -5.999  -4.816  0.00  0.00     0.000 A 
ENDROOT
TORSDOF 0
ENDMDL
