MODEL 1
REMARK minimizedAffinity 5.23685551
REMARK minimizedRMSD -1
REMARK  0 active torsions:
REMARK  status: ('A' for Active; 'I' for Inactive)
ROOT
ATOM      1  C1  BNZ d   1       2.941  -5.989  -3.621  0.00  0.00     0.000 A 
ATOM      2  C2  BNZ d   1       2.264  -5.983  -4.811  0.00  0.00     0.000 A 
ATOM      3  C3  BNZ d   1       2.938  -5.996  -6.000  0.00  0.00     0.000 A 
ATOM      4  C4  BNZ d   1       4.286  -5.974  -5.998  0.00  0.00     0.000 A 
ATOM      5  C5  BNZ d   1       4.984  -5.971  -4.807  0.00  0.00     0.000 A 
ATOM      6  C6  BNZ d   1       4.302  -5.997  -3.611  0.00  0.00     0.000 A 
ENDROOT
TORSDOF 0
ENDMDL
