MODEL 1
REMARK minimizedAffinity 7.5459795
REMARK minimizedRMSD -1
REMARK  0 active torsions:
REMARK  status: ('A' for Active; 'I' for Inactive)
ROOT
ATOM      1  C1  BNZ d   1       2.690   0.068   1.899  0.00  0.00     0.000 A 
ATOM      2  C2  BNZ d   1       3.063   1.092   1.069  0.00  0.00     0.000 A 
ATOM      3  C3  BNZ d   1       3.449   2.300   1.579  0.00  0.00     0.000 A 
ATOM      4  C4  BNZ d   1       3.423   2.496   2.913  0.00  0.00     0.000 A 
ATOM      5  C5  BNZ d   1       3.040   1.477   3.762  0.00  0.00     0.000 A 
ATOM      6  C6  BNZ d   1       2.690   0.249   3.248  0.00  0.00     0.000 A 
ENDROOT
TORSDOF 0
ENDMDL
