MODEL 1
REMARK minimizedAffinity 7.92393494
REMARK minimizedRMSD -1
REMARK  0 active torsions:
REMARK  status: ('A' for Active; 'I' for Inactive)
ROOT
ATOM      1  C1  BNZ d   1       1.857  -1.923   3.718  0.00  0.00     0.000 A 
ATOM      2  C2  BNZ d   1       1.772  -3.205   4.193  0.00  0.00     0.000 A 
ATOM      3  C3  BNZ d   1       2.852  -3.811   4.772  0.00  0.00     0.000 A 
ATOM      4  C4  BNZ d   1       4.025  -3.149   4.839  0.00  0.00     0.000 A 
ATOM      5  C5  BNZ d   1       4.130  -1.860   4.357  0.00  0.00     0.000 A 
ATOM      6  C6  BNZ d   1       3.030  -1.240   3.810  0.00  0.00     0.000 A 
ENDROOT
TORSDOF 0
ENDMDL
