MODEL 1
REMARK minimizedAffinity 2.24064422
REMARK minimizedRMSD -1
REMARK  0 active torsions:
REMARK  status: ('A' for Active; 'I' for Inactive)
ROOT
ATOM      1  C1  BNZ d   1      -4.874   2.421   2.596  0.00  0.00     0.000 A 
ATOM      2  C2  BNZ d   1      -6.000   2.956   2.029  0.00  0.00     0.000 A 
ATOM      3  C3  BNZ d   1      -6.000   3.362   0.723  0.00  0.00     0.000 A 
ATOM      4  C4  BNZ d   1      -4.865   3.270   0.000  0.00  0.00     0.000 A 
ATOM      5  C5  BNZ d   1      -3.720   2.742   0.561  0.00  0.00     0.000 A 
ATOM      6  C6  BNZ d   1      -3.734   2.298   1.863  0.00  0.00     0.000 A 
ENDROOT
TORSDOF 0
ENDMDL
