MODEL 1
REMARK minimizedAffinity 4.63458252
REMARK minimizedRMSD -1
REMARK  0 active torsions:
REMARK  status: ('A' for Active; 'I' for Inactive)
ROOT
ATOM      1  C1  BNZ d   1       2.335   0.076   2.408  0.00  0.00     0.000 A 
ATOM      2  C2  BNZ d   1       1.631   0.055   3.583  0.00  0.00     0.000 A 
ATOM      3  C3  BNZ d   1       1.587  -1.074   4.353  0.00  0.00     0.000 A 
ATOM      4  C4  BNZ d   1       2.213  -2.191   3.928  0.00  0.00     0.000 A 
ATOM      5  C5  BNZ d   1       2.919  -2.188   2.741  0.00  0.00     0.000 A 
ATOM      6  C6  BNZ d   1       2.993  -1.039   1.988  0.00  0.00     0.000 A 
ENDROOT
TORSDOF 0
ENDMDL
