MODEL 1
REMARK minimizedAffinity 1.58337414
REMARK minimizedRMSD -1
REMARK  0 active torsions:
REMARK  status: ('A' for Active; 'I' for Inactive)
ROOT
ATOM      1  C1  BNZ d   1      -5.925   0.815  -3.464  0.00  0.00     0.000 A 
ATOM      2  C2  BNZ d   1      -5.917   2.168  -3.681  0.00  0.00     0.000 A 
ATOM      3  C3  BNZ d   1      -5.974   2.673  -4.950  0.00  0.00     0.000 A 
ATOM      4  C4  BNZ d   1      -5.997   1.827  -6.000  0.00  0.00     0.000 A 
ATOM      5  C5  BNZ d   1      -5.996   0.461  -5.798  0.00  0.00     0.000 A 
ATOM      6  C6  BNZ d   1      -5.979  -0.044  -4.518  0.00  0.00     0.000 A 
ENDROOT
TORSDOF 0
ENDMDL
