MODEL 1
REMARK minimizedAffinity -3.00922251
REMARK minimizedRMSD -1
REMARK  2 active torsions:
REMARK  status: ('A' for Active; 'I' for Inactive)
REMARK    1  A    between atoms: C2'_3  and  C1'_4 
REMARK    2  A    between atoms: C1'_4  and  C1_5 
ROOT
ATOM      1  C1  I4B d   1       0.947   0.057  -0.238  0.00  0.00    -0.075 A 
ATOM      2  C2  I4B d   1       1.672   0.964  -0.970  0.00  0.00     0.003 A 
ATOM      3  C3  I4B d   1       2.642   0.517  -1.900  0.00  0.00     0.002 A 
ATOM      4  C4  I4B d   1       2.888  -0.834  -2.028  0.00  0.00    -0.004 A 
ATOM      5  C5  I4B d   1       2.137  -1.753  -1.301  0.00  0.00     0.002 A 
ATOM      6  C6  I4B d   1       1.151  -1.306  -0.410  0.00  0.00     0.003 A 
ENDROOT
BRANCH   1   7
ATOM      7  C1' I4B d   1      -0.046   0.565   0.759  0.00  0.00     0.060 C 
BRANCH   7   8
ATOM      8  C2' I4B d   1      -0.796  -0.627   1.319  0.00  0.00    -0.013 C 
ATOM      9  C4' I4B d   1       0.086  -1.451   2.220  0.00  0.00     0.013 C 
ATOM     10  C3' I4B d   1      -1.996  -0.113   2.058  0.00  0.00     0.013 C 
ENDBRANCH   7   8
ENDBRANCH   1   7
TORSDOF 2
ENDMDL
