MODEL 1
REMARK minimizedAffinity -3.5499711
REMARK minimizedRMSD -1
REMARK  2 active torsions:
REMARK  status: ('A' for Active; 'I' for Inactive)
REMARK    1  A    between atoms: C2'_3  and  C1'_4 
REMARK    2  A    between atoms: C1'_4  and  C1_5 
ROOT
ATOM      1  C1  I4B d   1       0.325   0.079  -0.621  0.00  0.00    -0.075 A 
ATOM      2  C2  I4B d   1       1.408   0.560  -1.313  0.00  0.00     0.003 A 
ATOM      3  C3  I4B d   1       2.396  -0.329  -1.799  0.00  0.00     0.002 A 
ATOM      4  C4  I4B d   1       2.288  -1.679  -1.530  0.00  0.00    -0.004 A 
ATOM      5  C5  I4B d   1       1.177  -2.168  -0.848  0.00  0.00     0.002 A 
ATOM      6  C6  I4B d   1       0.183  -1.285  -0.401  0.00  0.00     0.003 A 
ENDROOT
BRANCH   1   7
ATOM      7  C1' I4B d   1      -0.683   1.050  -0.093  0.00  0.00     0.060 C 
BRANCH   7   8
ATOM      8  C2' I4B d   1      -1.638   0.289   0.804  0.00  0.00    -0.013 C 
ATOM      9  C4' I4B d   1      -1.437   0.657   2.251  0.00  0.00     0.013 C 
ATOM     10  C3' I4B d   1      -3.037   0.596   0.357  0.00  0.00     0.013 C 
ENDBRANCH   7   8
ENDBRANCH   1   7
TORSDOF 2
ENDMDL
