MODEL 1
REMARK minimizedAffinity -3.63421655
REMARK minimizedRMSD -1
REMARK  2 active torsions:
REMARK  status: ('A' for Active; 'I' for Inactive)
REMARK    1  A    between atoms: C2'_3  and  C1'_4 
REMARK    2  A    between atoms: C1'_4  and  C1_5 
ROOT
ATOM      1  C1  I4B d   1      -0.910   0.594   0.742  0.00  0.00    -0.075 A 
ATOM      2  C2  I4B d   1      -1.785   0.946  -0.255  0.00  0.00     0.003 A 
ATOM      3  C3  I4B d   1      -3.174   1.018   0.007  0.00  0.00     0.002 A 
ATOM      4  C4  I4B d   1      -3.648   0.683   1.260  0.00  0.00    -0.004 A 
ATOM      5  C5  I4B d   1      -2.757   0.348   2.276  0.00  0.00     0.002 A 
ATOM      6  C6  I4B d   1      -1.379   0.315   2.020  0.00  0.00     0.003 A 
ENDROOT
BRANCH   1   7
ATOM      7  C1' I4B d   1       0.547   0.496   0.422  0.00  0.00     0.060 C 
BRANCH   7   8
ATOM      8  C2' I4B d   1       0.821   1.377  -0.780  0.00  0.00    -0.013 C 
ATOM      9  C4' I4B d   1       1.084   2.801  -0.364  0.00  0.00     0.013 C 
ATOM     10  C3' I4B d   1       1.994   0.804  -1.517  0.00  0.00     0.013 C 
ENDBRANCH   7   8
ENDBRANCH   1   7
TORSDOF 2
ENDMDL
