MODEL 1
REMARK minimizedAffinity 0.545667291
REMARK minimizedRMSD -1
REMARK  2 active torsions:
REMARK  status: ('A' for Active; 'I' for Inactive)
REMARK    1  A    between atoms: C2'_3  and  C1'_4 
REMARK    2  A    between atoms: C1'_4  and  C1_5 
ROOT
ATOM      1  C1  I4B d   1      -2.103   0.233   1.927  0.00  0.00    -0.075 A 
ATOM      2  C2  I4B d   1      -2.422   1.360   2.643  0.00  0.00     0.003 A 
ATOM      3  C3  I4B d   1      -3.769   1.783   2.744  0.00  0.00     0.002 A 
ATOM      4  C4  I4B d   1      -4.753   1.083   2.075  0.00  0.00    -0.004 A 
ATOM      5  C5  I4B d   1      -4.431  -0.072   1.368  0.00  0.00     0.002 A 
ATOM      6  C6  I4B d   1      -3.099  -0.507   1.304  0.00  0.00     0.003 A 
ENDROOT
BRANCH   1   7
ATOM      7  C1' I4B d   1      -0.666  -0.166   1.814  0.00  0.00     0.060 C 
BRANCH   7   8
ATOM      8  C2' I4B d   1      -0.222   0.084   0.387  0.00  0.00    -0.013 C 
ATOM      9  C4' I4B d   1       0.867   1.123   0.329  0.00  0.00     0.013 C 
ATOM     10  C3' I4B d   1       0.243  -1.220  -0.188  0.00  0.00     0.013 C 
ENDBRANCH   7   8
ENDBRANCH   1   7
TORSDOF 2
ENDMDL
