MODEL 1
REMARK minimizedAffinity -3.50582957
REMARK minimizedRMSD -1
REMARK  2 active torsions:
REMARK  status: ('A' for Active; 'I' for Inactive)
REMARK    1  A    between atoms: C2'_3  and  C1'_4 
REMARK    2  A    between atoms: C1'_4  and  C1_5 
ROOT
ATOM      1  C1  I4B d   1      -1.145   0.230   1.246  0.00  0.00    -0.075 A 
ATOM      2  C2  I4B d   1      -1.567   0.939   2.343  0.00  0.00     0.003 A 
ATOM      3  C3  I4B d   1      -2.929   0.911   2.729  0.00  0.00     0.002 A 
ATOM      4  C4  I4B d   1      -3.838   0.207   1.965  0.00  0.00    -0.004 A 
ATOM      5  C5  I4B d   1      -3.405  -0.530   0.867  0.00  0.00     0.002 A 
ATOM      6  C6  I4B d   1      -2.048  -0.529   0.512  0.00  0.00     0.003 A 
ENDROOT
BRANCH   1   7
ATOM      7  C1' I4B d   1       0.294   0.308   0.847  0.00  0.00     0.060 C 
BRANCH   7   8
ATOM      8  C2' I4B d   1       0.428   1.383  -0.212  0.00  0.00    -0.013 C 
ATOM      9  C4' I4B d   1       0.836   2.699   0.395  0.00  0.00     0.013 C 
ATOM     10  C3' I4B d   1       1.434   0.917  -1.221  0.00  0.00     0.013 C 
ENDBRANCH   7   8
ENDBRANCH   1   7
TORSDOF 2
ENDMDL
