MODEL 1
REMARK minimizedAffinity -1.84973717
REMARK minimizedRMSD -1
REMARK  2 active torsions:
REMARK  status: ('A' for Active; 'I' for Inactive)
REMARK    1  A    between atoms: C2'_3  and  C1'_4 
REMARK    2  A    between atoms: C1'_4  and  C1_5 
ROOT
ATOM      1  C1  I4B d   1      -0.490  -0.021   0.405  0.00  0.00    -0.075 A 
ATOM      2  C2  I4B d   1       0.123   1.080  -0.139  0.00  0.00     0.003 A 
ATOM      3  C3  I4B d   1       1.159   0.922  -1.091  0.00  0.00     0.002 A 
ATOM      4  C4  I4B d   1       1.582  -0.347  -1.430  0.00  0.00    -0.004 A 
ATOM      5  C5  I4B d   1       0.944  -1.462  -0.894  0.00  0.00     0.002 A 
ATOM      6  C6  I4B d   1      -0.107  -1.299   0.019  0.00  0.00     0.003 A 
ENDROOT
BRANCH   1   7
ATOM      7  C1' I4B d   1      -1.559   0.183   1.432  0.00  0.00     0.060 C 
BRANCH   7   8
ATOM      8  C2' I4B d   1      -2.840   0.542   0.707  0.00  0.00    -0.013 C 
ATOM      9  C4' I4B d   1      -3.713  -0.669   0.510  0.00  0.00     0.013 C 
ATOM     10  C3' I4B d   1      -3.547   1.594   1.509  0.00  0.00     0.013 C 
ENDBRANCH   7   8
ENDBRANCH   1   7
TORSDOF 2
ENDMDL
