MODEL 1
REMARK minimizedAffinity -3.44746542
REMARK minimizedRMSD -1
REMARK  2 active torsions:
REMARK  status: ('A' for Active; 'I' for Inactive)
REMARK    1  A    between atoms: C2'_3  and  C1'_4 
REMARK    2  A    between atoms: C1'_4  and  C1_5 
ROOT
ATOM      1  C1  I4B d   1      -1.156   0.249   1.035  0.00  0.00    -0.075 A 
ATOM      2  C2  I4B d   1      -1.227   0.379   2.400  0.00  0.00     0.003 A 
ATOM      3  C3  I4B d   1      -2.462   0.678   3.024  0.00  0.00     0.002 A 
ATOM      4  C4  I4B d   1      -3.583   0.888   2.247  0.00  0.00    -0.004 A 
ATOM      5  C5  I4B d   1      -3.514   0.734   0.866  0.00  0.00     0.002 A 
ATOM      6  C6  I4B d   1      -2.296   0.400   0.256  0.00  0.00     0.003 A 
ENDROOT
BRANCH   1   7
ATOM      7  C1' I4B d   1       0.171  -0.036   0.406  0.00  0.00     0.060 C 
BRANCH   7   8
ATOM      8  C2' I4B d   1       0.514   1.125  -0.505  0.00  0.00    -0.013 C 
ATOM      9  C4' I4B d   1       0.720   2.393   0.280  0.00  0.00     0.013 C 
ATOM     10  C3' I4B d   1       1.747   0.759  -1.277  0.00  0.00     0.013 C 
ENDBRANCH   7   8
ENDBRANCH   1   7
TORSDOF 2
ENDMDL
