MODEL 1
REMARK minimizedAffinity -4.29101467
REMARK minimizedRMSD -1
REMARK  2 active torsions:
REMARK  status: ('A' for Active; 'I' for Inactive)
REMARK    1  A    between atoms: C2'_3  and  C1'_4 
REMARK    2  A    between atoms: C1'_4  and  C1_5 
ROOT
ATOM      1  C1  I4B d   1      -0.012   0.410   0.480  0.00  0.00    -0.075 A 
ATOM      2  C2  I4B d   1       0.609  -0.380  -0.455  0.00  0.00     0.003 A 
ATOM      3  C3  I4B d   1       1.355   0.210  -1.504  0.00  0.00     0.002 A 
ATOM      4  C4  I4B d   1       1.411   1.585  -1.609  0.00  0.00    -0.004 A 
ATOM      5  C5  I4B d   1       0.800   2.384  -0.646  0.00  0.00     0.002 A 
ATOM      6  C6  I4B d   1       0.094   1.793   0.412  0.00  0.00     0.003 A 
ENDROOT
BRANCH   1   7
ATOM      7  C1' I4B d   1      -0.819  -0.245   1.556  0.00  0.00     0.060 C 
BRANCH   7   8
ATOM      8  C2' I4B d   1      -2.195   0.389   1.560  0.00  0.00    -0.013 C 
ATOM      9  C4' I4B d   1      -3.264  -0.626   1.254  0.00  0.00     0.013 C 
ATOM     10  C3' I4B d   1      -2.412   1.016   2.905  0.00  0.00     0.013 C 
ENDBRANCH   7   8
ENDBRANCH   1   7
TORSDOF 2
ENDMDL
