MODEL 1
REMARK minimizedAffinity -1.72263706
REMARK minimizedRMSD -1
REMARK  2 active torsions:
REMARK  status: ('A' for Active; 'I' for Inactive)
REMARK    1  A    between atoms: C2'_3  and  C1'_4 
REMARK    2  A    between atoms: C1'_4  and  C1_5 
ROOT
ATOM      1  C1  I4B d   1       1.029  -0.593  -0.707  0.00  0.00    -0.075 A 
ATOM      2  C2  I4B d   1       0.936  -1.947  -0.501  0.00  0.00     0.003 A 
ATOM      3  C3  I4B d   1       1.913  -2.818  -1.041  0.00  0.00     0.002 A 
ATOM      4  C4  I4B d   1       2.930  -2.302  -1.817  0.00  0.00    -0.004 A 
ATOM      5  C5  I4B d   1       3.035  -0.927  -2.005  0.00  0.00     0.002 A 
ATOM      6  C6  I4B d   1       2.086  -0.065  -1.437  0.00  0.00     0.003 A 
ENDROOT
BRANCH   1   7
ATOM      7  C1' I4B d   1      -0.038   0.296  -0.150  0.00  0.00     0.060 C 
BRANCH   7   8
ATOM      8  C2' I4B d   1       0.099   0.301   1.359  0.00  0.00    -0.013 C 
ATOM      9  C4' I4B d   1       0.965   1.442   1.824  0.00  0.00     0.013 C 
ATOM     10  C3' I4B d   1      -1.277   0.390   1.949  0.00  0.00     0.013 C 
ENDBRANCH   7   8
ENDBRANCH   1   7
TORSDOF 2
ENDMDL
