MODEL 1
REMARK minimizedAffinity -5.90993023
REMARK minimizedRMSD -1
REMARK  2 active torsions:
REMARK  status: ('A' for Active; 'I' for Inactive)
REMARK    1  A    between atoms: C2'_3  and  C1'_4 
REMARK    2  A    between atoms: C1'_4  and  C1_5 
ROOT
ATOM      1  C1  I4B d   1       0.020  -0.028   0.190  0.00  0.00    -0.075 A 
ATOM      2  C2  I4B d   1       0.885   0.972   0.557  0.00  0.00     0.003 A 
ATOM      3  C3  I4B d   1       1.733   1.570  -0.407  0.00  0.00     0.002 A 
ATOM      4  C4  I4B d   1       1.718   1.106  -1.707  0.00  0.00    -0.004 A 
ATOM      5  C5  I4B d   1       0.824   0.108  -2.082  0.00  0.00     0.002 A 
ATOM      6  C6  I4B d   1      -0.040  -0.455  -1.131  0.00  0.00     0.003 A 
ENDROOT
BRANCH   1   7
ATOM      7  C1' I4B d   1      -0.838  -0.660   1.240  0.00  0.00     0.060 C 
BRANCH   7   8
ATOM      8  C2' I4B d   1      -2.133   0.122   1.318  0.00  0.00    -0.013 C 
ATOM      9  C4' I4B d   1      -3.318  -0.751   1.002  0.00  0.00     0.013 C 
ATOM     10  C3' I4B d   1      -2.241   0.702   2.697  0.00  0.00     0.013 C 
ENDBRANCH   7   8
ENDBRANCH   1   7
TORSDOF 2
ENDMDL
