MODEL 1
REMARK minimizedAffinity -3.25147176
REMARK minimizedRMSD -1
REMARK  2 active torsions:
REMARK  status: ('A' for Active; 'I' for Inactive)
REMARK    1  A    between atoms: C2'_3  and  C1'_4 
REMARK    2  A    between atoms: C1'_4  and  C1_5 
ROOT
ATOM      1  C1  I4B d   1      -0.820   0.293   0.899  0.00  0.00    -0.075 A 
ATOM      2  C2  I4B d   1      -1.200  -0.417   2.011  0.00  0.00     0.003 A 
ATOM      3  C3  I4B d   1      -2.567  -0.508   2.366  0.00  0.00     0.002 A 
ATOM      4  C4  I4B d   1      -3.511   0.163   1.615  0.00  0.00    -0.004 A 
ATOM      5  C5  I4B d   1      -3.127   0.864   0.475  0.00  0.00     0.002 A 
ATOM      6  C6  I4B d   1      -1.774   0.919   0.107  0.00  0.00     0.003 A 
ENDROOT
BRANCH   1   7
ATOM      7  C1' I4B d   1       0.636   0.396   0.572  0.00  0.00     0.060 C 
BRANCH   7   8
ATOM      8  C2' I4B d   1       0.773   0.450  -0.936  0.00  0.00    -0.013 C 
ATOM      9  C4' I4B d   1       1.001   1.860  -1.413  0.00  0.00     0.013 C 
ATOM     10  C3' I4B d   1       1.909  -0.446  -1.331  0.00  0.00     0.013 C 
ENDBRANCH   7   8
ENDBRANCH   1   7
TORSDOF 2
ENDMDL
