MODEL 1
REMARK minimizedAffinity -2.78072691
REMARK minimizedRMSD -1
REMARK  2 active torsions:
REMARK  status: ('A' for Active; 'I' for Inactive)
REMARK    1  A    between atoms: C2'_3  and  C1'_4 
REMARK    2  A    between atoms: C1'_4  and  C1_5 
ROOT
ATOM      1  C1  I4B d   1      -0.710  -0.135   0.758  0.00  0.00    -0.075 A 
ATOM      2  C2  I4B d   1      -0.418  -1.273   0.048  0.00  0.00     0.003 A 
ATOM      3  C3  I4B d   1       0.530  -1.234  -1.003  0.00  0.00     0.002 A 
ATOM      4  C4  I4B d   1       1.121  -0.033  -1.341  0.00  0.00    -0.004 A 
ATOM      5  C5  I4B d   1       0.841   1.114  -0.606  0.00  0.00     0.002 A 
ATOM      6  C6  I4B d   1      -0.071   1.061   0.459  0.00  0.00     0.003 A 
ENDROOT
BRANCH   1   7
ATOM      7  C1' I4B d   1      -1.740  -0.205   1.840  0.00  0.00     0.060 C 
BRANCH   7   8
ATOM      8  C2' I4B d   1      -3.099   0.014   1.206  0.00  0.00    -0.013 C 
ATOM      9  C4' I4B d   1      -3.973  -1.203   1.355  0.00  0.00     0.013 C 
ATOM     10  C3' I4B d   1      -3.724   1.213   1.855  0.00  0.00     0.013 C 
ENDBRANCH   7   8
ENDBRANCH   1   7
TORSDOF 2
ENDMDL
