MODEL 1
REMARK minimizedAffinity -2.55642748
REMARK minimizedRMSD -1
REMARK  2 active torsions:
REMARK  status: ('A' for Active; 'I' for Inactive)
REMARK    1  A    between atoms: C2'_3  and  C1'_4 
REMARK    2  A    between atoms: C1'_4  and  C1_5 
ROOT
ATOM      1  C1  I4B d   1      -0.664  -0.041   1.059  0.00  0.00    -0.075 A 
ATOM      2  C2  I4B d   1      -0.172   1.154   0.596  0.00  0.00     0.003 A 
ATOM      3  C3  I4B d   1       0.977   1.180  -0.231  0.00  0.00     0.002 A 
ATOM      4  C4  I4B d   1       1.628  -0.001  -0.527  0.00  0.00    -0.004 A 
ATOM      5  C5  I4B d   1       1.114  -1.213  -0.075  0.00  0.00     0.002 A 
ATOM      6  C6  I4B d   1      -0.046  -1.235   0.712  0.00  0.00     0.003 A 
ENDROOT
BRANCH   1   7
ATOM      7  C1' I4B d   1      -1.860  -0.029   1.957  0.00  0.00     0.060 C 
BRANCH   7   8
ATOM      8  C2' I4B d   1      -3.058   0.400   1.134  0.00  0.00    -0.013 C 
ATOM      9  C4' I4B d   1      -3.847  -0.792   0.659  0.00  0.00     0.013 C 
ATOM     10  C3' I4B d   1      -3.901   1.306   1.980  0.00  0.00     0.013 C 
ENDBRANCH   7   8
ENDBRANCH   1   7
TORSDOF 2
ENDMDL
