MODEL 1
REMARK minimizedAffinity 1.9832238
REMARK minimizedRMSD -1
REMARK  1 active torsions:
REMARK  status: ('A' for Active; 'I' for Inactive)
REMARK    1  A    between atoms: C1_2  and  C2_3 
ROOT
ATOM      1  C2  UNL d   1      -3.861   1.538   3.540  0.00  0.00    -0.073 A 
ATOM      2  C3  UNL d   1      -3.825   0.141   3.613  0.00  0.00    -0.002 A 
ATOM      3  C4  UNL d   1      -2.832  -0.575   2.943  0.00  0.00     0.004 A 
ATOM      4  C5  UNL d   1      -1.861   0.098   2.202  0.00  0.00    -0.004 A 
ATOM      5  C6  UNL d   1      -1.872   1.494   2.127  0.00  0.00    -0.075 A 
ATOM      6  C7  UNL d   1      -0.837   2.233   1.331  0.00  0.00     0.076 C 
ATOM      7  C8  UNL d   1      -2.875   2.206   2.800  0.00  0.00     0.001 A 
ENDROOT
BRANCH   1   8
ATOM      8  C1  UNL d   1      -4.928   2.315   4.266  0.00  0.00     0.053 C 
ATOM      9  C   UNL d   1      -4.965   1.983   5.750  0.00  0.00     0.018 C 
ENDBRANCH   1   8
TORSDOF 1
ENDMDL
