MODEL 1
REMARK minimizedAffinity 1.50915182
REMARK minimizedRMSD -1
REMARK  1 active torsions:
REMARK  status: ('A' for Active; 'I' for Inactive)
REMARK    1  A    between atoms: C1_2  and  C2_3 
ROOT
ATOM      1  C2  UNL d   1      -2.231   1.628   2.232  0.00  0.00    -0.073 A 
ATOM      2  C3  UNL d   1      -2.314   0.244   2.048  0.00  0.00    -0.002 A 
ATOM      3  C4  UNL d   1      -1.240  -0.461   1.504  0.00  0.00     0.004 A 
ATOM      4  C5  UNL d   1      -0.071   0.210   1.144  0.00  0.00    -0.004 A 
ATOM      5  C6  UNL d   1       0.036   1.592   1.330  0.00  0.00    -0.075 A 
ATOM      6  C7  UNL d   1       1.285   2.328   0.946  0.00  0.00     0.076 C 
ATOM      7  C8  UNL d   1      -1.049   2.292   1.876  0.00  0.00     0.001 A 
ENDROOT
BRANCH   1   8
ATOM      8  C1  UNL d   1      -3.386   2.392   2.826  0.00  0.00     0.053 C 
ATOM      9  C   UNL d   1      -4.253   1.515   3.715  0.00  0.00     0.018 C 
ENDBRANCH   1   8
TORSDOF 1
ENDMDL
