MODEL 1
REMARK minimizedAffinity 7.65737057
REMARK minimizedRMSD -1
REMARK  1 active torsions:
REMARK  status: ('A' for Active; 'I' for Inactive)
REMARK    1  A    between atoms: C1_2  and  C2_3 
ROOT
ATOM      1  C2  UNL d   1      -2.518   1.856   2.597  0.00  0.00    -0.073 A 
ATOM      2  C3  UNL d   1      -2.872   0.502   2.578  0.00  0.00    -0.002 A 
ATOM      3  C4  UNL d   1      -2.062  -0.429   1.927  0.00  0.00     0.004 A 
ATOM      4  C5  UNL d   1      -0.888  -0.018   1.295  0.00  0.00    -0.004 A 
ATOM      5  C6  UNL d   1      -0.512   1.329   1.313  0.00  0.00    -0.075 A 
ATOM      6  C7  UNL d   1       0.746   1.787   0.636  0.00  0.00     0.076 C 
ATOM      7  C8  UNL d   1      -1.332   2.258   1.966  0.00  0.00     0.001 A 
ENDROOT
BRANCH   1   8
ATOM      8  C1  UNL d   1      -3.387   2.864   3.304  0.00  0.00     0.053 C 
ATOM      9  C   UNL d   1      -4.499   2.200   4.099  0.00  0.00     0.018 C 
ENDBRANCH   1   8
TORSDOF 1
ENDMDL
