MODEL 1
REMARK minimizedAffinity -5.19532633
REMARK minimizedRMSD -1
REMARK  1 active torsions:
REMARK  status: ('A' for Active; 'I' for Inactive)
REMARK    1  A    between atoms: C1_2  and  C2_3 
ROOT
ATOM      1  C2  UNL d   1      -0.120   1.894   1.286  0.00  0.00    -0.073 A 
ATOM      2  C3  UNL d   1       0.647   0.885   0.691  0.00  0.00    -0.002 A 
ATOM      3  C4  UNL d   1       0.259  -0.451   0.800  0.00  0.00     0.004 A 
ATOM      4  C5  UNL d   1      -0.901  -0.791   1.496  0.00  0.00    -0.004 A 
ATOM      5  C6  UNL d   1      -1.686   0.204   2.087  0.00  0.00    -0.075 A 
ATOM      6  C7  UNL d   1      -2.936  -0.146   2.841  0.00  0.00     0.076 C 
ATOM      7  C8  UNL d   1      -1.289   1.543   1.976  0.00  0.00     0.001 A 
ENDROOT
BRANCH   1   8
ATOM      8  C1  UNL d   1       0.292   3.339   1.166  0.00  0.00     0.053 C 
ATOM      9  C   UNL d   1       1.778   3.487   0.884  0.00  0.00     0.018 C 
ENDBRANCH   1   8
TORSDOF 1
ENDMDL
