MODEL 1
REMARK minimizedAffinity 6.07767725
REMARK minimizedRMSD -1
REMARK  1 active torsions:
REMARK  status: ('A' for Active; 'I' for Inactive)
REMARK    1  A    between atoms: C1_2  and  C2_3 
ROOT
ATOM      1  C2  UNL d   1      -4.888   1.525   4.407  0.00  0.00    -0.073 A 
ATOM      2  C3  UNL d   1      -4.871   0.154   4.125  0.00  0.00    -0.002 A 
ATOM      3  C4  UNL d   1      -3.933  -0.371   3.236  0.00  0.00     0.004 A 
ATOM      4  C5  UNL d   1      -2.999   0.466   2.625  0.00  0.00    -0.004 A 
ATOM      5  C6  UNL d   1      -2.992   1.837   2.903  0.00  0.00    -0.075 A 
ATOM      6  C7  UNL d   1      -1.996   2.751   2.253  0.00  0.00     0.076 C 
ATOM      7  C8  UNL d   1      -3.940   2.357   3.795  0.00  0.00     0.001 A 
ENDROOT
BRANCH   1   8
ATOM      8  C1  UNL d   1      -5.895   2.095   5.372  0.00  0.00     0.053 C 
ATOM      9  C   UNL d   1      -5.411   3.393   6.000  0.00  0.00     0.018 C 
ENDBRANCH   1   8
TORSDOF 1
ENDMDL
