MODEL 1
REMARK minimizedAffinity 2.58443189
REMARK minimizedRMSD -1
REMARK  1 active torsions:
REMARK  status: ('A' for Active; 'I' for Inactive)
REMARK    1  A    between atoms: C1_2  and  C2_3 
ROOT
ATOM      1  C2  UNL d   1      -0.044  -0.181   1.805  0.00  0.00    -0.073 A 
ATOM      2  C3  UNL d   1       0.449   0.358   0.611  0.00  0.00    -0.002 A 
ATOM      3  C4  UNL d   1      -0.005   1.597   0.157  0.00  0.00     0.004 A 
ATOM      4  C5  UNL d   1      -0.949   2.312   0.894  0.00  0.00    -0.004 A 
ATOM      5  C6  UNL d   1      -1.444   1.796   2.096  0.00  0.00    -0.075 A 
ATOM      6  C7  UNL d   1      -2.461   2.552   2.899  0.00  0.00     0.076 C 
ATOM      7  C8  UNL d   1      -0.986   0.550   2.544  0.00  0.00     0.001 A 
ENDROOT
BRANCH   1   8
ATOM      8  C1  UNL d   1       0.448  -1.515   2.302  0.00  0.00     0.053 C 
ATOM      9  C   UNL d   1       0.749  -1.493   3.792  0.00  0.00     0.018 C 
ENDBRANCH   1   8
TORSDOF 1
ENDMDL
