MODEL 1
REMARK minimizedAffinity 3.13376713
REMARK minimizedRMSD -1
REMARK  1 active torsions:
REMARK  status: ('A' for Active; 'I' for Inactive)
REMARK    1  A    between atoms: C1_2  and  C2_3 
ROOT
ATOM      1  C2  UNL d   1      -0.830   1.593   1.567  0.00  0.00    -0.073 A 
ATOM      2  C3  UNL d   1      -0.145   1.436   0.357  0.00  0.00    -0.002 A 
ATOM      3  C4  UNL d   1       0.606   0.285   0.116  0.00  0.00     0.004 A 
ATOM      4  C5  UNL d   1       0.675  -0.722   1.078  0.00  0.00    -0.004 A 
ATOM      5  C6  UNL d   1      -0.012  -0.590   2.289  0.00  0.00    -0.075 A 
ATOM      6  C7  UNL d   1       0.053  -1.664   3.335  0.00  0.00     0.076 C 
ATOM      7  C8  UNL d   1      -0.763   0.570   2.524  0.00  0.00     0.001 A 
ENDROOT
BRANCH   1   8
ATOM      8  C1  UNL d   1      -1.648   2.831   1.829  0.00  0.00     0.053 C 
ATOM      9  C   UNL d   1      -2.671   2.615   2.933  0.00  0.00     0.018 C 
ENDBRANCH   1   8
TORSDOF 1
ENDMDL
