MODEL 1
REMARK minimizedAffinity -2.31311584
REMARK minimizedRMSD -1
REMARK  1 active torsions:
REMARK  status: ('A' for Active; 'I' for Inactive)
REMARK    1  A    between atoms: C1_2  and  C2_3 
ROOT
ATOM      1  C2  UNL d   1       0.539   2.491   0.595  0.00  0.00    -0.073 A 
ATOM      2  C3  UNL d   1      -0.549   3.330   0.859  0.00  0.00    -0.002 A 
ATOM      3  C4  UNL d   1      -1.715   2.814   1.427  0.00  0.00     0.004 A 
ATOM      4  C5  UNL d   1      -1.802   1.458   1.742  0.00  0.00    -0.004 A 
ATOM      5  C6  UNL d   1      -0.721   0.606   1.496  0.00  0.00    -0.075 A 
ATOM      6  C7  UNL d   1      -0.799  -0.856   1.827  0.00  0.00     0.076 C 
ATOM      7  C8  UNL d   1       0.446   1.131   0.923  0.00  0.00     0.001 A 
ENDROOT
BRANCH   1   8
ATOM      8  C1  UNL d   1       1.802   3.045  -0.013  0.00  0.00     0.053 C 
ATOM      9  C   UNL d   1       2.302   4.272   0.732  0.00  0.00     0.018 C 
ENDBRANCH   1   8
TORSDOF 1
ENDMDL
