MODEL 1
REMARK minimizedAffinity -4.64149141
REMARK minimizedRMSD -1
REMARK  1 active torsions:
REMARK  status: ('A' for Active; 'I' for Inactive)
REMARK    1  A    between atoms: C1_2  and  C2_3 
ROOT
ATOM      1  C2  UNL d   1       1.145   0.811   0.620  0.00  0.00    -0.073 A 
ATOM      2  C3  UNL d   1       0.800  -0.536   0.781  0.00  0.00    -0.002 A 
ATOM      3  C4  UNL d   1      -0.386  -0.888   1.427  0.00  0.00     0.004 A 
ATOM      4  C5  UNL d   1      -1.241   0.102   1.911  0.00  0.00    -0.004 A 
ATOM      5  C6  UNL d   1      -0.920   1.453   1.750  0.00  0.00    -0.075 A 
ATOM      6  C7  UNL d   1      -1.829   2.529   2.268  0.00  0.00     0.076 C 
ATOM      7  C8  UNL d   1       0.274   1.798   1.103  0.00  0.00     0.001 A 
ENDROOT
BRANCH   1   8
ATOM      8  C1  UNL d   1       2.421   1.196  -0.082  0.00  0.00     0.053 C 
ATOM      9  C   UNL d   1       2.676   0.339  -1.312  0.00  0.00     0.018 C 
ENDBRANCH   1   8
TORSDOF 1
ENDMDL
