MODEL 1
REMARK minimizedAffinity 3.08770132
REMARK minimizedRMSD -1
REMARK  1 active torsions:
REMARK  status: ('A' for Active; 'I' for Inactive)
REMARK    1  A    between atoms: C1_2  and  C2_3 
ROOT
ATOM      1  C2  UNL d   1      -1.040   1.646   1.093  0.00  0.00    -0.073 A 
ATOM      2  C3  UNL d   1       0.063   1.876   0.263  0.00  0.00    -0.002 A 
ATOM      3  C4  UNL d   1       1.107   0.952   0.205  0.00  0.00     0.004 A 
ATOM      4  C5  UNL d   1       1.056  -0.214   0.970  0.00  0.00    -0.004 A 
ATOM      5  C6  UNL d   1      -0.043  -0.468   1.796  0.00  0.00    -0.075 A 
ATOM      6  C7  UNL d   1      -0.112  -1.715   2.627  0.00  0.00     0.076 C 
ATOM      7  C8  UNL d   1      -1.086   0.467   1.851  0.00  0.00     0.001 A 
ENDROOT
BRANCH   1   8
ATOM      8  C1  UNL d   1      -2.172   2.638   1.154  0.00  0.00     0.053 C 
ATOM      9  C   UNL d   1      -2.746   2.763   2.557  0.00  0.00     0.018 C 
ENDBRANCH   1   8
TORSDOF 1
ENDMDL
