MODEL 1
REMARK minimizedAffinity -0.714051485
REMARK minimizedRMSD -1
REMARK  1 active torsions:
REMARK  status: ('A' for Active; 'I' for Inactive)
REMARK    1  A    between atoms: C1_2  and  C2_3 
ROOT
ATOM      1  C2  UNL d   1      -2.563   1.126   2.411  0.00  0.00    -0.073 A 
ATOM      2  C3  UNL d   1      -1.933   2.376   2.401  0.00  0.00    -0.002 A 
ATOM      3  C4  UNL d   1      -0.697   2.537   1.773  0.00  0.00     0.004 A 
ATOM      4  C5  UNL d   1      -0.083   1.454   1.143  0.00  0.00    -0.004 A 
ATOM      5  C6  UNL d   1      -0.703   0.200   1.133  0.00  0.00    -0.075 A 
ATOM      6  C7  UNL d   1      -0.055  -0.975   0.462  0.00  0.00     0.076 C 
ATOM      7  C8  UNL d   1      -1.943   0.046   1.768  0.00  0.00     0.001 A 
ENDROOT
BRANCH   1   8
ATOM      8  C1  UNL d   1      -3.901   0.949   3.083  0.00  0.00     0.053 C 
ATOM      9  C   UNL d   1      -4.346   2.210   3.806  0.00  0.00     0.018 C 
ENDBRANCH   1   8
TORSDOF 1
ENDMDL
