MODEL 1
REMARK minimizedAffinity 6.45180082
REMARK minimizedRMSD -1
REMARK  1 active torsions:
REMARK  status: ('A' for Active; 'I' for Inactive)
REMARK    1  A    between atoms: C1_2  and  C2_3 
ROOT
ATOM      1  C2  UNL d   1      -2.963  -3.036  -2.845  0.00  0.00    -0.073 A 
ATOM      2  C3  UNL d   1      -3.862  -2.169  -2.213  0.00  0.00    -0.002 A 
ATOM      3  C4  UNL d   1      -4.483  -2.545  -1.022  0.00  0.00     0.004 A 
ATOM      4  C5  UNL d   1      -4.208  -3.786  -0.447  0.00  0.00    -0.004 A 
ATOM      5  C6  UNL d   1      -3.304  -4.661  -1.057  0.00  0.00    -0.075 A 
ATOM      6  C7  UNL d   1      -2.999  -6.000  -0.453  0.00  0.00     0.076 C 
ATOM      7  C8  UNL d   1      -2.686  -4.278  -2.255  0.00  0.00     0.001 A 
ENDROOT
BRANCH   1   8
ATOM      8  C1  UNL d   1      -2.284  -2.633  -4.129  0.00  0.00     0.053 C 
ATOM      9  C   UNL d   1      -0.910  -3.267  -4.271  0.00  0.00     0.018 C 
ENDBRANCH   1   8
TORSDOF 1
ENDMDL
