MODEL 1
REMARK minimizedAffinity -0.408748358
REMARK minimizedRMSD -1
REMARK  1 active torsions:
REMARK  status: ('A' for Active; 'I' for Inactive)
REMARK    1  A    between atoms: C1_2  and  C2_3 
ROOT
ATOM      1  C2  UNL d   1      -0.463   1.283   1.530  0.00  0.00    -0.073 A 
ATOM      2  C3  UNL d   1      -1.396   0.245   1.634  0.00  0.00    -0.002 A 
ATOM      3  C4  UNL d   1      -0.973  -1.057   1.903  0.00  0.00     0.004 A 
ATOM      4  C5  UNL d   1       0.383  -1.334   2.077  0.00  0.00    -0.004 A 
ATOM      5  C6  UNL d   1       1.329  -0.308   1.987  0.00  0.00    -0.075 A 
ATOM      6  C7  UNL d   1       2.791  -0.589   2.169  0.00  0.00     0.076 C 
ATOM      7  C8  UNL d   1       0.897   0.997   1.715  0.00  0.00     0.001 A 
ENDROOT
BRANCH   1   8
ATOM      8  C1  UNL d   1      -0.915   2.693   1.246  0.00  0.00     0.053 C 
ATOM      9  C   UNL d   1      -2.184   3.048   2.004  0.00  0.00     0.018 C 
ENDBRANCH   1   8
TORSDOF 1
ENDMDL
