MODEL 1
REMARK minimizedAffinity -5.20720243
REMARK minimizedRMSD -1
REMARK  0 active torsions:
REMARK  status: ('A' for Active; 'I' for Inactive)
ROOT
ATOM      1  C   UNL d   1       1.805  -0.981  -2.352  0.00  0.00     0.124 A 
ATOM      2  C1  UNL d   1       1.512   0.280  -1.852  0.00  0.00     0.062 A 
ATOM      3  C2  UNL d   1       0.702   0.417  -0.729  0.00  0.00     0.162 A 
ATOM      4  C3  UNL d   1       0.179  -0.711  -0.097  0.00  0.00    -0.034 A 
ATOM      5  C4  UNL d   1       0.477  -1.976  -0.606  0.00  0.00     0.162 A 
ATOM      6  C5  UNL d   1       1.288  -2.108  -1.729  0.00  0.00     0.062 A 
ATOM      7  F   UNL d   1       1.570  -3.327  -2.210  0.00  0.00    -0.097 F 
ATOM      8  F1  UNL d   1      -0.009  -3.082  -0.022  0.00  0.00    -0.096 F 
ATOM      9  I   UNL d   1      -1.033  -0.510   1.583  0.00  0.00    -0.060 I 
ATOM     10  F2  UNL d   1       0.436   1.648  -0.268  0.00  0.00    -0.096 F 
ATOM     11  F3  UNL d   1       2.011   1.370  -2.454  0.00  0.00    -0.097 F 
ATOM     12  F4  UNL d   1       2.585  -1.110  -3.434  0.00  0.00    -0.092 F 
ENDROOT
TORSDOF 0
ENDMDL
