MODEL 1
REMARK minimizedAffinity 2.28761053
REMARK minimizedRMSD -1
REMARK  0 active torsions:
REMARK  status: ('A' for Active; 'I' for Inactive)
ROOT
ATOM      1  C   UNL d   1       1.630  -0.159  -2.665  0.00  0.00     0.124 A 
ATOM      2  C1  UNL d   1       0.282  -0.428  -2.858  0.00  0.00     0.062 A 
ATOM      3  C2  UNL d   1      -0.626  -0.230  -1.822  0.00  0.00     0.162 A 
ATOM      4  C3  UNL d   1      -0.190   0.241  -0.584  0.00  0.00    -0.034 A 
ATOM      5  C4  UNL d   1       1.168   0.508  -0.397  0.00  0.00     0.162 A 
ATOM      6  C5  UNL d   1       2.071   0.309  -1.435  0.00  0.00     0.062 A 
ATOM      7  F   UNL d   1       3.373   0.569  -1.247  0.00  0.00    -0.097 F 
ATOM      8  F1  UNL d   1       1.621   0.962   0.781  0.00  0.00    -0.096 F 
ATOM      9  I   UNL d   1      -1.545   0.538   0.968  0.00  0.00    -0.060 I 
ATOM     10  F2  UNL d   1      -1.923  -0.498  -2.037  0.00  0.00    -0.096 F 
ATOM     11  F3  UNL d   1      -0.147  -0.880  -4.045  0.00  0.00    -0.097 F 
ATOM     12  F4  UNL d   1       2.502  -0.351  -3.663  0.00  0.00    -0.092 F 
ENDROOT
TORSDOF 0
ENDMDL
