MODEL 1
REMARK minimizedAffinity 13.2681847
REMARK minimizedRMSD -1
REMARK  0 active torsions:
REMARK  status: ('A' for Active; 'I' for Inactive)
ROOT
ATOM      1  C   UNL d   1       0.778  -1.386  -1.910  0.00  0.00     0.124 A 
ATOM      2  C1  UNL d   1       0.497  -1.288  -0.555  0.00  0.00     0.062 A 
ATOM      3  C2  UNL d   1       0.742  -0.100   0.128  0.00  0.00     0.162 A 
ATOM      4  C3  UNL d   1       1.272   1.001  -0.545  0.00  0.00    -0.034 A 
ATOM      5  C4  UNL d   1       1.554   0.895  -1.908  0.00  0.00     0.162 A 
ATOM      6  C5  UNL d   1       1.307  -0.295  -2.585  0.00  0.00     0.062 A 
ATOM      7  F   UNL d   1       1.580  -0.387  -3.895  0.00  0.00    -0.097 F 
ATOM      8  F1  UNL d   1       2.064   1.934  -2.585  0.00  0.00    -0.096 F 
ATOM      9  I   UNL d   1       1.641   2.779   0.472  0.00  0.00    -0.060 I 
ATOM     10  F2  UNL d   1       0.460  -0.034   1.437  0.00  0.00    -0.096 F 
ATOM     11  F3  UNL d   1      -0.013  -2.341   0.100  0.00  0.00    -0.097 F 
ATOM     12  F4  UNL d   1       0.542  -2.530  -2.564  0.00  0.00    -0.092 F 
ENDROOT
TORSDOF 0
ENDMDL
