MODEL 1
REMARK minimizedAffinity 1.91800225
REMARK minimizedRMSD -1
REMARK  0 active torsions:
REMARK  status: ('A' for Active; 'I' for Inactive)
ROOT
ATOM      1  C   UNL d   1       0.174  -1.715  -1.574  0.00  0.00     0.124 A 
ATOM      2  C1  UNL d   1       0.715  -0.680  -2.324  0.00  0.00     0.062 A 
ATOM      3  C2  UNL d   1       1.025   0.535  -1.720  0.00  0.00     0.162 A 
ATOM      4  C3  UNL d   1       0.796   0.721  -0.357  0.00  0.00    -0.034 A 
ATOM      5  C4  UNL d   1       0.251  -0.324   0.391  0.00  0.00     0.162 A 
ATOM      6  C5  UNL d   1      -0.057  -1.536  -0.217  0.00  0.00     0.062 A 
ATOM      7  F   UNL d   1      -0.580  -2.535   0.509  0.00  0.00    -0.097 F 
ATOM      8  F1  UNL d   1       0.018  -0.179   1.704  0.00  0.00    -0.096 F 
ATOM      9  I   UNL d   1       1.258   2.536   0.551  0.00  0.00    -0.060 I 
ATOM     10  F2  UNL d   1       1.546   1.518  -2.469  0.00  0.00    -0.096 F 
ATOM     11  F3  UNL d   1       0.938  -0.850  -3.635  0.00  0.00    -0.097 F 
ATOM     12  F4  UNL d   1      -0.124  -2.882  -2.158  0.00  0.00    -0.092 F 
ENDROOT
TORSDOF 0
ENDMDL
