MODEL 1
REMARK minimizedAffinity -3.73854876
REMARK minimizedRMSD -1
REMARK  0 active torsions:
REMARK  status: ('A' for Active; 'I' for Inactive)
ROOT
ATOM      1  C   UNL d   1       1.431   1.269  -0.983  0.00  0.00     0.124 A 
ATOM      2  C1  UNL d   1       0.878   0.253  -1.751  0.00  0.00     0.062 A 
ATOM      3  C2  UNL d   1      -0.142  -0.540  -1.232  0.00  0.00     0.162 A 
ATOM      4  C3  UNL d   1      -0.616  -0.319   0.061  0.00  0.00    -0.034 A 
ATOM      5  C4  UNL d   1      -0.055   0.704   0.827  0.00  0.00     0.162 A 
ATOM      6  C5  UNL d   1       0.964   1.493   0.304  0.00  0.00     0.062 A 
ATOM      7  F   UNL d   1       1.497   2.475   1.047  0.00  0.00    -0.097 F 
ATOM      8  F1  UNL d   1      -0.487   0.943   2.074  0.00  0.00    -0.096 F 
ATOM      9  I   UNL d   1      -2.141  -1.503   0.840  0.00  0.00    -0.060 I 
ATOM     10  F2  UNL d   1      -0.658  -1.514  -1.996  0.00  0.00    -0.096 F 
ATOM     11  F3  UNL d   1       1.327   0.034  -2.995  0.00  0.00    -0.097 F 
ATOM     12  F4  UNL d   1       2.412   2.030  -1.485  0.00  0.00    -0.092 F 
ENDROOT
TORSDOF 0
ENDMDL
