MODEL 1
REMARK minimizedAffinity -0.892979145
REMARK minimizedRMSD -1
REMARK  0 active torsions:
REMARK  status: ('A' for Active; 'I' for Inactive)
ROOT
ATOM      1  C   UNL d   1       1.710  -0.351  -2.093  0.00  0.00     0.124 A 
ATOM      2  C1  UNL d   1       1.676   0.839  -1.379  0.00  0.00     0.062 A 
ATOM      3  C2  UNL d   1       0.842   0.967  -0.272  0.00  0.00     0.162 A 
ATOM      4  C3  UNL d   1       0.037  -0.099   0.130  0.00  0.00    -0.034 A 
ATOM      5  C4  UNL d   1       0.076  -1.292  -0.593  0.00  0.00     0.162 A 
ATOM      6  C5  UNL d   1       0.911  -1.415  -1.699  0.00  0.00     0.062 A 
ATOM      7  F   UNL d   1       0.943  -2.566  -2.388  0.00  0.00    -0.097 F 
ATOM      8  F1  UNL d   1      -0.685  -2.337  -0.235  0.00  0.00    -0.096 F 
ATOM      9  I   UNL d   1      -1.211   0.089   1.785  0.00  0.00    -0.060 I 
ATOM     10  F2  UNL d   1       0.829   2.128   0.399  0.00  0.00    -0.096 F 
ATOM     11  F3  UNL d   1       2.446   1.868  -1.758  0.00  0.00    -0.097 F 
ATOM     12  F4  UNL d   1       2.513  -0.472  -3.158  0.00  0.00    -0.092 F 
ENDROOT
TORSDOF 0
ENDMDL
