MODEL 1
REMARK minimizedAffinity -0.545125782
REMARK minimizedRMSD -1
REMARK  0 active torsions:
REMARK  status: ('A' for Active; 'I' for Inactive)
ROOT
ATOM      1  C   UNL d   1       1.389  -0.470  -1.673  0.00  0.00     0.124 A 
ATOM      2  C1  UNL d   1       1.183   0.878  -1.417  0.00  0.00     0.062 A 
ATOM      3  C2  UNL d   1       0.409   1.274  -0.330  0.00  0.00     0.162 A 
ATOM      4  C3  UNL d   1      -0.165   0.320   0.510  0.00  0.00    -0.034 A 
ATOM      5  C4  UNL d   1       0.045  -1.035   0.245  0.00  0.00     0.162 A 
ATOM      6  C5  UNL d   1       0.820  -1.425  -0.842  0.00  0.00     0.062 A 
ATOM      7  F   UNL d   1       1.017  -2.729  -1.089  0.00  0.00    -0.097 F 
ATOM      8  F1  UNL d   1      -0.492  -1.979   1.032  0.00  0.00    -0.096 F 
ATOM      9  I   UNL d   1      -1.323   0.908   2.136  0.00  0.00    -0.060 I 
ATOM     10  F2  UNL d   1       0.228   2.584  -0.106  0.00  0.00    -0.096 F 
ATOM     11  F3  UNL d   1       1.731   1.803  -2.218  0.00  0.00    -0.097 F 
ATOM     12  F4  UNL d   1       2.133  -0.848  -2.720  0.00  0.00    -0.092 F 
ENDROOT
TORSDOF 0
ENDMDL
