MODEL 1
REMARK minimizedAffinity -0.48051095
REMARK minimizedRMSD -1
REMARK  0 active torsions:
REMARK  status: ('A' for Active; 'I' for Inactive)
ROOT
ATOM      1  C   UNL d   1       1.666  -0.044  -2.129  0.00  0.00     0.124 A 
ATOM      2  C1  UNL d   1       0.805  -1.100  -1.868  0.00  0.00     0.062 A 
ATOM      3  C2  UNL d   1      -0.042  -1.056  -0.764  0.00  0.00     0.162 A 
ATOM      4  C3  UNL d   1      -0.033   0.050   0.086  0.00  0.00    -0.034 A 
ATOM      5  C4  UNL d   1       0.837   1.108  -0.183  0.00  0.00     0.162 A 
ATOM      6  C5  UNL d   1       1.682   1.059  -1.287  0.00  0.00     0.062 A 
ATOM      7  F   UNL d   1       2.513   2.081  -1.539  0.00  0.00    -0.097 F 
ATOM      8  F1  UNL d   1       0.872   2.187   0.614  0.00  0.00    -0.096 F 
ATOM      9  I   UNL d   1      -1.298   0.120   1.737  0.00  0.00    -0.060 I 
ATOM     10  F2  UNL d   1      -0.864  -2.091  -0.535  0.00  0.00    -0.096 F 
ATOM     11  F3  UNL d   1       0.789  -2.168  -2.679  0.00  0.00    -0.097 F 
ATOM     12  F4  UNL d   1       2.481  -0.090  -3.191  0.00  0.00    -0.092 F 
ENDROOT
TORSDOF 0
ENDMDL
