MODEL 1
REMARK minimizedAffinity -0.260461569
REMARK minimizedRMSD -1
REMARK  0 active torsions:
REMARK  status: ('A' for Active; 'I' for Inactive)
ROOT
ATOM      1  C   UNL d   1       1.152  -0.544  -2.314  0.00  0.00     0.124 A 
ATOM      2  C1  UNL d   1       1.163   0.775  -1.883  0.00  0.00     0.062 A 
ATOM      3  C2  UNL d   1       0.511   1.133  -0.707  0.00  0.00     0.162 A 
ATOM      4  C3  UNL d   1      -0.157   0.169   0.049  0.00  0.00    -0.034 A 
ATOM      5  C4  UNL d   1      -0.164  -1.156  -0.391  0.00  0.00     0.162 A 
ATOM      6  C5  UNL d   1       0.489  -1.508  -1.568  0.00  0.00     0.062 A 
ATOM      7  F   UNL d   1       0.477  -2.783  -1.982  0.00  0.00    -0.097 F 
ATOM      8  F1  UNL d   1      -0.796  -2.107   0.311  0.00  0.00    -0.096 F 
ATOM      9  I   UNL d   1      -1.132   0.700   1.809  0.00  0.00    -0.060 I 
ATOM     10  F2  UNL d   1       0.538   2.416  -0.315  0.00  0.00    -0.096 F 
ATOM     11  F3  UNL d   1       1.802   1.709  -2.603  0.00  0.00    -0.097 F 
ATOM     12  F4  UNL d   1       1.779  -0.885  -3.447  0.00  0.00    -0.092 F 
ENDROOT
TORSDOF 0
ENDMDL
