MODEL 1
REMARK minimizedAffinity 0.228726447
REMARK minimizedRMSD -1
REMARK  0 active torsions:
REMARK  status: ('A' for Active; 'I' for Inactive)
ROOT
ATOM      1  C   UNL d   1       1.771   1.068  -1.030  0.00  0.00     0.124 A 
ATOM      2  C1  UNL d   1       1.352  -0.028  -1.771  0.00  0.00     0.062 A 
ATOM      3  C2  UNL d   1       0.255  -0.777  -1.354  0.00  0.00     0.162 A 
ATOM      4  C3  UNL d   1      -0.431  -0.432  -0.190  0.00  0.00    -0.034 A 
ATOM      5  C4  UNL d   1      -0.004   0.672   0.550  0.00  0.00     0.162 A 
ATOM      6  C5  UNL d   1       1.093   1.417   0.129  0.00  0.00     0.062 A 
ATOM      7  F   UNL d   1       1.496   2.476   0.847  0.00  0.00    -0.097 F 
ATOM      8  F1  UNL d   1      -0.641   1.032   1.674  0.00  0.00    -0.096 F 
ATOM      9  I   UNL d   1      -2.071  -1.549   0.437  0.00  0.00    -0.060 I 
ATOM     10  F2  UNL d   1      -0.127  -1.832  -2.090  0.00  0.00    -0.096 F 
ATOM     11  F3  UNL d   1       2.006  -0.368  -2.891  0.00  0.00    -0.097 F 
ATOM     12  F4  UNL d   1       2.827   1.786  -1.433  0.00  0.00    -0.092 F 
ENDROOT
TORSDOF 0
ENDMDL
