MODEL 1
REMARK minimizedAffinity 0.0545173213
REMARK minimizedRMSD -1
REMARK  0 active torsions:
REMARK  status: ('A' for Active; 'I' for Inactive)
ROOT
ATOM      1  C   UNL d   1       0.891  -0.972  -0.936  0.00  0.00     0.124 A 
ATOM      2  C1  UNL d   1       0.422  -1.856   0.027  0.00  0.00     0.062 A 
ATOM      3  C2  UNL d   1      -0.478  -1.423   0.995  0.00  0.00     0.162 A 
ATOM      4  C3  UNL d   1      -0.917  -0.099   1.006  0.00  0.00    -0.034 A 
ATOM      5  C4  UNL d   1      -0.441   0.784   0.036  0.00  0.00     0.162 A 
ATOM      6  C5  UNL d   1       0.459   0.346  -0.930  0.00  0.00     0.062 A 
ATOM      7  F   UNL d   1       0.910   1.202  -1.859  0.00  0.00    -0.097 F 
ATOM      8  F1  UNL d   1      -0.843   2.064   0.017  0.00  0.00    -0.096 F 
ATOM      9  I   UNL d   1      -2.264   0.552   2.454  0.00  0.00    -0.060 I 
ATOM     10  F2  UNL d   1      -0.914  -2.299   1.913  0.00  0.00    -0.096 F 
ATOM     11  F3  UNL d   1       0.839  -3.131   0.024  0.00  0.00    -0.097 F 
ATOM     12  F4  UNL d   1       1.758  -1.391  -1.866  0.00  0.00    -0.092 F 
ENDROOT
TORSDOF 0
ENDMDL
