MODEL 1
REMARK minimizedAffinity 4.89017868
REMARK minimizedRMSD -1
REMARK  0 active torsions:
REMARK  status: ('A' for Active; 'I' for Inactive)
ROOT
ATOM      1  C   UNL d   1       0.642  -2.286  -1.236  0.00  0.00     0.124 A 
ATOM      2  C1  UNL d   1       0.103  -2.213   0.041  0.00  0.00     0.062 A 
ATOM      3  C2  UNL d   1      -0.037  -0.981   0.673  0.00  0.00     0.162 A 
ATOM      4  C3  UNL d   1       0.362   0.190   0.028  0.00  0.00    -0.034 A 
ATOM      5  C4  UNL d   1       0.904   0.109  -1.256  0.00  0.00     0.162 A 
ATOM      6  C5  UNL d   1       1.042  -1.125  -1.883  0.00  0.00     0.062 A 
ATOM      7  F   UNL d   1       1.563  -1.193  -3.117  0.00  0.00    -0.097 F 
ATOM      8  F1  UNL d   1       1.298   1.215  -1.904  0.00  0.00    -0.096 F 
ATOM      9  I   UNL d   1       0.155   2.034   0.970  0.00  0.00    -0.060 I 
ATOM     10  F2  UNL d   1      -0.561  -0.941   1.907  0.00  0.00    -0.096 F 
ATOM     11  F3  UNL d   1      -0.283  -3.333   0.669  0.00  0.00    -0.097 F 
ATOM     12  F4  UNL d   1       0.776  -3.473  -1.841  0.00  0.00    -0.092 F 
ENDROOT
TORSDOF 0
ENDMDL
