MODEL 1
REMARK minimizedAffinity -5.03438854
REMARK minimizedRMSD -1
REMARK  0 active torsions:
REMARK  status: ('A' for Active; 'I' for Inactive)
ROOT
ATOM      1  C4' PXY d   1       0.681  -2.164  -0.724  0.00  0.00     0.077 C 
ATOM      2  C1' PXY d   1      -1.191   2.883   1.384  0.00  0.00     0.077 C 
ATOM      3  C1  PXY d   1      -0.693   1.558   0.842  0.00  0.00    -0.082 A 
ATOM      4  C2  PXY d   1      -0.719   1.333  -0.462  0.00  0.00     0.003 A 
ATOM      5  C3  PXY d   1      -0.302   0.128  -0.966  0.00  0.00     0.003 A 
ATOM      6  C4  PXY d   1       0.197  -0.837  -0.133  0.00  0.00    -0.082 A 
ATOM      7  C5  PXY d   1       0.237  -0.611   1.198  0.00  0.00     0.003 A 
ATOM      8  C6  PXY d   1      -0.230   0.603   1.693  0.00  0.00     0.003 A 
ENDROOT
TORSDOF 0
ENDMDL
