MODEL 1
REMARK minimizedAffinity -5.45207977
REMARK minimizedRMSD -1
REMARK  0 active torsions:
REMARK  status: ('A' for Active; 'I' for Inactive)
ROOT
ATOM      1  C4' PXY d   1       0.169  -0.429   2.986  0.00  0.00     0.077 C 
ATOM      2  C1' PXY d   1      -1.340   3.425  -1.049  0.00  0.00     0.077 C 
ATOM      3  C1  PXY d   1      -0.946   2.405   0.000  0.00  0.00    -0.082 A 
ATOM      4  C2  PXY d   1      -1.076   2.702   1.283  0.00  0.00     0.003 A 
ATOM      5  C3  PXY d   1      -0.695   1.803   2.246  0.00  0.00     0.003 A 
ATOM      6  C4  PXY d   1      -0.225   0.567   1.892  0.00  0.00    -0.082 A 
ATOM      7  C5  PXY d   1      -0.098   0.252   0.585  0.00  0.00     0.003 A 
ATOM      8  C6  PXY d   1      -0.452   1.194  -0.376  0.00  0.00     0.003 A 
ENDROOT
TORSDOF 0
ENDMDL
