MODEL 1
REMARK minimizedAffinity -6.01573467
REMARK minimizedRMSD -1
REMARK  0 active torsions:
REMARK  status: ('A' for Active; 'I' for Inactive)
ROOT
ATOM      1  C4' PXY d   1       0.311  -1.142  -1.060  0.00  0.00     0.077 C 
ATOM      2  C1' PXY d   1      -1.238   3.729   1.638  0.00  0.00     0.077 C 
ATOM      3  C1  PXY d   1      -0.824   2.449   0.940  0.00  0.00    -0.082 A 
ATOM      4  C2  PXY d   1      -0.981   2.337  -0.369  0.00  0.00     0.003 A 
ATOM      5  C3  PXY d   1      -0.641   1.175  -1.011  0.00  0.00     0.003 A 
ATOM      6  C4  PXY d   1      -0.085   0.135  -0.315  0.00  0.00    -0.082 A 
ATOM      7  C5  PXY d   1       0.089   0.246   1.019  0.00  0.00     0.003 A 
ATOM      8  C6  PXY d   1      -0.301   1.419   1.659  0.00  0.00     0.003 A 
ENDROOT
TORSDOF 0
ENDMDL
