MODEL 1
REMARK minimizedAffinity -3.99637103
REMARK minimizedRMSD -1
REMARK  0 active torsions:
REMARK  status: ('A' for Active; 'I' for Inactive)
ROOT
ATOM      1  C4' PXY d   1       1.078  -1.394  -0.785  0.00  0.00     0.077 C 
ATOM      2  C1' PXY d   1      -1.300   3.342   1.525  0.00  0.00     0.077 C 
ATOM      3  C1  PXY d   1      -0.683   2.101   0.909  0.00  0.00    -0.082 A 
ATOM      4  C2  PXY d   1      -0.148   1.179   1.692  0.00  0.00     0.003 A 
ATOM      5  C3  PXY d   1       0.442   0.066   1.149  0.00  0.00     0.003 A 
ATOM      6  C4  PXY d   1       0.436  -0.130  -0.206  0.00  0.00    -0.082 A 
ATOM      7  C5  PXY d   1      -0.118   0.801  -1.011  0.00  0.00     0.003 A 
ATOM      8  C6  PXY d   1      -0.675   1.944  -0.443  0.00  0.00     0.003 A 
ENDROOT
TORSDOF 0
ENDMDL
