MODEL 1
REMARK minimizedAffinity -4.35877943
REMARK minimizedRMSD -1
REMARK  0 active torsions:
REMARK  status: ('A' for Active; 'I' for Inactive)
ROOT
ATOM      1  C4' PXY d   1       0.742  -1.686  -0.444  0.00  0.00     0.077 C 
ATOM      2  C1' PXY d   1      -0.269   4.003  -0.268  0.00  0.00     0.077 C 
ATOM      3  C1  PXY d   1       0.000   2.511  -0.302  0.00  0.00    -0.082 A 
ATOM      4  C2  PXY d   1       0.206   1.910  -1.462  0.00  0.00     0.003 A 
ATOM      5  C3  PXY d   1       0.419   0.557  -1.514  0.00  0.00     0.003 A 
ATOM      6  C4  PXY d   1       0.476  -0.180  -0.361  0.00  0.00    -0.082 A 
ATOM      7  C5  PXY d   1       0.278   0.428   0.828  0.00  0.00     0.003 A 
ATOM      8  C6  PXY d   1       0.022   1.796   0.855  0.00  0.00     0.003 A 
ENDROOT
TORSDOF 0
ENDMDL
