MODEL 1
REMARK minimizedAffinity -1.03078926
REMARK minimizedRMSD -1
REMARK  0 active torsions:
REMARK  status: ('A' for Active; 'I' for Inactive)
ROOT
ATOM      1  C4' PXY d   1      -0.250  -3.162  -0.959  0.00  0.00     0.077 C 
ATOM      2  C1' PXY d   1       0.788   1.735   1.931  0.00  0.00     0.077 C 
ATOM      3  C1  PXY d   1       0.512   0.458   1.163  0.00  0.00    -0.082 A 
ATOM      4  C2  PXY d   1       0.292  -0.668   1.823  0.00  0.00     0.003 A 
ATOM      5  C3  PXY d   1       0.073  -1.839   1.144  0.00  0.00     0.003 A 
ATOM      6  C4  PXY d   1       0.024  -1.847  -0.224  0.00  0.00    -0.082 A 
ATOM      7  C5  PXY d   1       0.236  -0.701  -0.905  0.00  0.00     0.003 A 
ATOM      8  C6  PXY d   1       0.498   0.469  -0.197  0.00  0.00     0.003 A 
ENDROOT
TORSDOF 0
ENDMDL
