MODEL 1
REMARK minimizedAffinity -2.17244554
REMARK minimizedRMSD -1
REMARK  2 active torsions:
REMARK  status: ('A' for Active; 'I' for Inactive)
REMARK    1  A    between atoms: C1_2  and  C2_3 
REMARK    2  A    between atoms: C2_3  and  C3_4 
ROOT
ATOM      1  C3  UNL d   1       4.473  -2.619   5.082  0.00  0.00    -0.075 A 
ATOM      2  C4  UNL d   1       5.299  -1.954   6.000  0.00  0.00     0.002 A 
ATOM      3  C5  UNL d   1       6.000  -0.809   5.622  0.00  0.00     0.002 A 
ATOM      4  C6  UNL d   1       5.892  -0.320   4.322  0.00  0.00    -0.004 A 
ATOM      5  C7  UNL d   1       5.087  -0.981   3.397  0.00  0.00     0.002 A 
ATOM      6  C8  UNL d   1       4.382  -2.126   3.774  0.00  0.00     0.002 A 
ENDROOT
BRANCH   1   7
ATOM      7  C2  UNL d   1       3.689  -3.842   5.493  0.00  0.00     0.056 C 
BRANCH   7   8
ATOM      8  C1  UNL d   1       4.558  -4.999   6.000  0.00  0.00     0.007 C 
ATOM      9  C   UNL d   1       5.749  -5.295   5.098  0.00  0.00     0.009 C 
ENDBRANCH   7   8
ENDBRANCH   1   7
TORSDOF 2
ENDMDL
