MODEL 1
REMARK minimizedAffinity -2.3618412
REMARK minimizedRMSD -1
REMARK  2 active torsions:
REMARK  status: ('A' for Active; 'I' for Inactive)
REMARK    1  A    between atoms: C1_2  and  C2_3 
REMARK    2  A    between atoms: C2_3  and  C3_4 
ROOT
ATOM      1  C3  UNL d   1       4.935  -2.845   5.299  0.00  0.00    -0.075 A 
ATOM      2  C4  UNL d   1       3.865  -3.587   4.778  0.00  0.00     0.002 A 
ATOM      3  C5  UNL d   1       3.852  -4.978   4.880  0.00  0.00     0.002 A 
ATOM      4  C6  UNL d   1       4.910  -5.645   5.493  0.00  0.00    -0.004 A 
ATOM      5  C7  UNL d   1       5.986  -4.919   5.999  0.00  0.00     0.002 A 
ATOM      6  C8  UNL d   1       6.000  -3.526   5.903  0.00  0.00     0.002 A 
ENDROOT
BRANCH   1   7
ATOM      7  C2  UNL d   1       4.941  -1.337   5.219  0.00  0.00     0.056 C 
BRANCH   7   8
ATOM      8  C1  UNL d   1       4.172  -0.773   4.019  0.00  0.00     0.007 C 
ATOM      9  C   UNL d   1       5.060  -0.019   3.038  0.00  0.00     0.009 C 
ENDBRANCH   7   8
ENDBRANCH   1   7
TORSDOF 2
ENDMDL
