MODEL 1
REMARK minimizedAffinity 2.94975591
REMARK minimizedRMSD -1
REMARK  2 active torsions:
REMARK  status: ('A' for Active; 'I' for Inactive)
REMARK    1  A    between atoms: C1_2  and  C2_3 
REMARK    2  A    between atoms: C2_3  and  C3_4 
ROOT
ATOM      1  C3  UNL d   1      -0.516   0.746   1.575  0.00  0.00    -0.075 A 
ATOM      2  C4  UNL d   1      -0.159   2.095   1.713  0.00  0.00     0.002 A 
ATOM      3  C5  UNL d   1       0.524   2.755   0.692  0.00  0.00     0.002 A 
ATOM      4  C6  UNL d   1       0.869   2.074  -0.473  0.00  0.00    -0.004 A 
ATOM      5  C7  UNL d   1       0.535   0.729  -0.614  0.00  0.00     0.002 A 
ATOM      6  C8  UNL d   1      -0.153   0.067   0.404  0.00  0.00     0.002 A 
ENDROOT
BRANCH   1   7
ATOM      7  C2  UNL d   1      -1.281   0.034   2.665  0.00  0.00     0.056 C 
BRANCH   7   8
ATOM      8  C1  UNL d   1      -2.656   0.641   2.960  0.00  0.00     0.007 C 
ATOM      9  C   UNL d   1      -3.793  -0.366   2.855  0.00  0.00     0.009 C 
ENDBRANCH   7   8
ENDBRANCH   1   7
TORSDOF 2
ENDMDL
