MODEL 1
REMARK minimizedAffinity -1.82027662
REMARK minimizedRMSD -1
REMARK  2 active torsions:
REMARK  status: ('A' for Active; 'I' for Inactive)
REMARK    1  A    between atoms: C1_2  and  C2_3 
REMARK    2  A    between atoms: C2_3  and  C3_4 
ROOT
ATOM      1  C3  UNL d   1       5.820   1.831   4.694  0.00  0.00    -0.075 A 
ATOM      2  C4  UNL d   1       5.590   1.073   3.537  0.00  0.00     0.002 A 
ATOM      3  C5  UNL d   1       5.491  -0.317   3.608  0.00  0.00     0.002 A 
ATOM      4  C6  UNL d   1       5.631  -0.966   4.833  0.00  0.00    -0.004 A 
ATOM      5  C7  UNL d   1       5.876  -0.224   5.987  0.00  0.00     0.002 A 
ATOM      6  C8  UNL d   1       5.971   1.167   5.918  0.00  0.00     0.002 A 
ENDROOT
BRANCH   1   7
ATOM      7  C2  UNL d   1       5.899   3.338   4.627  0.00  0.00     0.056 C 
BRANCH   7   8
ATOM      8  C1  UNL d   1       5.544   4.040   5.942  0.00  0.00     0.007 C 
ATOM      9  C   UNL d   1       5.999   5.492   5.990  0.00  0.00     0.009 C 
ENDBRANCH   7   8
ENDBRANCH   1   7
TORSDOF 2
ENDMDL
