MODEL 1
REMARK minimizedAffinity 2.66579056
REMARK minimizedRMSD -1
REMARK  2 active torsions:
REMARK  status: ('A' for Active; 'I' for Inactive)
REMARK    1  A    between atoms: C1_2  and  C2_3 
REMARK    2  A    between atoms: C2_3  and  C3_4 
ROOT
ATOM      1  C3  UNL d   1       5.827  -1.231   5.284  0.00  0.00    -0.075 A 
ATOM      2  C4  UNL d   1       5.647  -0.038   5.998  0.00  0.00     0.002 A 
ATOM      3  C5  UNL d   1       5.575   1.184   5.329  0.00  0.00     0.002 A 
ATOM      4  C6  UNL d   1       5.694   1.230   3.941  0.00  0.00    -0.004 A 
ATOM      5  C7  UNL d   1       5.890   0.053   3.223  0.00  0.00     0.002 A 
ATOM      6  C8  UNL d   1       5.957  -1.172   3.890  0.00  0.00     0.002 A 
ENDROOT
BRANCH   1   7
ATOM      7  C2  UNL d   1       5.876  -2.560   6.000  0.00  0.00     0.056 C 
BRANCH   7   8
ATOM      8  C1  UNL d   1       6.000  -3.768   5.065  0.00  0.00     0.007 C 
ATOM      9  C   UNL d   1       5.293  -3.570   3.731  0.00  0.00     0.009 C 
ENDBRANCH   7   8
ENDBRANCH   1   7
TORSDOF 2
ENDMDL
