MODEL 1
REMARK minimizedAffinity 6.00888681
REMARK minimizedRMSD -1
REMARK  2 active torsions:
REMARK  status: ('A' for Active; 'I' for Inactive)
REMARK    1  A    between atoms: C1_2  and  C2_3 
REMARK    2  A    between atoms: C2_3  and  C3_4 
ROOT
ATOM      1  C3  UNL d   1       5.267   0.096   4.921  0.00  0.00    -0.075 A 
ATOM      2  C4  UNL d   1       4.842  -0.612   3.787  0.00  0.00     0.002 A 
ATOM      3  C5  UNL d   1       4.936  -2.003   3.744  0.00  0.00     0.002 A 
ATOM      4  C6  UNL d   1       5.464  -2.702   4.827  0.00  0.00    -0.004 A 
ATOM      5  C7  UNL d   1       5.904  -2.008   5.952  0.00  0.00     0.002 A 
ATOM      6  C8  UNL d   1       5.807  -0.616   5.999  0.00  0.00     0.002 A 
ENDROOT
BRANCH   1   7
ATOM      7  C2  UNL d   1       5.140   1.599   4.985  0.00  0.00     0.056 C 
BRANCH   7   8
ATOM      8  C1  UNL d   1       3.783   2.132   4.514  0.00  0.00     0.007 C 
ATOM      9  C   UNL d   1       3.893   3.128   3.368  0.00  0.00     0.009 C 
ENDBRANCH   7   8
ENDBRANCH   1   7
TORSDOF 2
ENDMDL
