MODEL 1
REMARK minimizedAffinity 7.53038406
REMARK minimizedRMSD -1
REMARK  2 active torsions:
REMARK  status: ('A' for Active; 'I' for Inactive)
REMARK    1  A    between atoms: C1_2  and  C2_3 
REMARK    2  A    between atoms: C2_3  and  C3_4 
ROOT
ATOM      1  C3  UNL d   1       1.201  -0.001  -0.583  0.00  0.00    -0.075 A 
ATOM      2  C4  UNL d   1       2.388  -0.743  -0.671  0.00  0.00     0.002 A 
ATOM      3  C5  UNL d   1       2.362  -2.134  -0.574  0.00  0.00     0.002 A 
ATOM      4  C6  UNL d   1       1.154  -2.800  -0.377  0.00  0.00    -0.004 A 
ATOM      5  C7  UNL d   1      -0.029  -2.071  -0.272  0.00  0.00     0.002 A 
ATOM      6  C8  UNL d   1      -0.007  -0.679  -0.374  0.00  0.00     0.002 A 
ENDROOT
BRANCH   1   7
ATOM      7  C2  UNL d   1       1.219   1.503  -0.718  0.00  0.00     0.056 C 
BRANCH   7   8
ATOM      8  C1  UNL d   1       0.513   2.240   0.426  0.00  0.00     0.007 C 
ATOM      9  C   UNL d   1       1.343   3.374   1.012  0.00  0.00     0.009 C 
ENDBRANCH   7   8
ENDBRANCH   1   7
TORSDOF 2
ENDMDL
