MODEL 1
REMARK minimizedAffinity -2.50056434
REMARK minimizedRMSD -1
REMARK  2 active torsions:
REMARK  status: ('A' for Active; 'I' for Inactive)
REMARK    1  A    between atoms: C1_2  and  C2_3 
REMARK    2  A    between atoms: C2_3  and  C3_4 
ROOT
ATOM      1  C3  UNL d   1       5.703   0.633   4.683  0.00  0.00    -0.075 A 
ATOM      2  C4  UNL d   1       5.998  -0.042   5.876  0.00  0.00     0.002 A 
ATOM      3  C5  UNL d   1       5.754  -1.411   5.994  0.00  0.00     0.002 A 
ATOM      4  C6  UNL d   1       5.202  -2.118   4.928  0.00  0.00    -0.004 A 
ATOM      5  C7  UNL d   1       4.888  -1.454   3.744  0.00  0.00     0.002 A 
ATOM      6  C8  UNL d   1       5.136  -0.086   3.621  0.00  0.00     0.002 A 
ENDROOT
BRANCH   1   7
ATOM      7  C2  UNL d   1       5.993   2.108   4.537  0.00  0.00     0.056 C 
BRANCH   7   8
ATOM      8  C1  UNL d   1       5.280   2.988   5.570  0.00  0.00     0.007 C 
ATOM      9  C   UNL d   1       5.998   4.305   5.834  0.00  0.00     0.009 C 
ENDBRANCH   7   8
ENDBRANCH   1   7
TORSDOF 2
ENDMDL
