MODEL 1
REMARK minimizedAffinity -0.761119604
REMARK minimizedRMSD -1
REMARK  2 active torsions:
REMARK  status: ('A' for Active; 'I' for Inactive)
REMARK    1  A    between atoms: C1_2  and  C2_3 
REMARK    2  A    between atoms: C2_3  and  C3_4 
ROOT
ATOM      1  C3  UNL d   1       5.492   1.122   4.987  0.00  0.00    -0.075 A 
ATOM      2  C4  UNL d   1       4.847   1.095   3.742  0.00  0.00     0.002 A 
ATOM      3  C5  UNL d   1       4.733   2.258   2.979  0.00  0.00     0.002 A 
ATOM      4  C6  UNL d   1       5.251   3.460   3.454  0.00  0.00    -0.004 A 
ATOM      5  C7  UNL d   1       5.879   3.502   4.697  0.00  0.00     0.002 A 
ATOM      6  C8  UNL d   1       5.999   2.339   5.461  0.00  0.00     0.002 A 
ENDROOT
BRANCH   1   7
ATOM      7  C2  UNL d   1       5.646  -0.139   5.805  0.00  0.00     0.056 C 
BRANCH   7   8
ATOM      8  C1  UNL d   1       5.275  -1.420   5.051  0.00  0.00     0.007 C 
ATOM      9  C   UNL d   1       5.997  -2.655   5.574  0.00  0.00     0.009 C 
ENDBRANCH   7   8
ENDBRANCH   1   7
TORSDOF 2
ENDMDL
