MODEL 1
REMARK minimizedAffinity 2.66498184
REMARK minimizedRMSD -1
REMARK  2 active torsions:
REMARK  status: ('A' for Active; 'I' for Inactive)
REMARK    1  A    between atoms: C1_2  and  C2_3 
REMARK    2  A    between atoms: C2_3  and  C3_4 
ROOT
ATOM      1  C3  UNL d   1       0.288   0.040  -0.514  0.00  0.00    -0.075 A 
ATOM      2  C4  UNL d   1      -0.529  -0.974   0.009  0.00  0.00     0.002 A 
ATOM      3  C5  UNL d   1      -0.225  -2.317  -0.220  0.00  0.00     0.002 A 
ATOM      4  C6  UNL d   1       0.889  -2.662  -0.982  0.00  0.00    -0.004 A 
ATOM      5  C7  UNL d   1       1.697  -1.663  -1.520  0.00  0.00     0.002 A 
ATOM      6  C8  UNL d   1       1.399  -0.319  -1.288  0.00  0.00     0.002 A 
ENDROOT
BRANCH   1   7
ATOM      7  C2  UNL d   1      -0.018   1.494  -0.245  0.00  0.00     0.056 C 
BRANCH   7   8
ATOM      8  C1  UNL d   1       1.123   2.255   0.438  0.00  0.00     0.007 C 
ATOM      9  C   UNL d   1       0.675   3.565   1.072  0.00  0.00     0.009 C 
ENDBRANCH   7   8
ENDBRANCH   1   7
TORSDOF 2
ENDMDL
