MODEL 1
REMARK minimizedAffinity -1.59387696
REMARK minimizedRMSD -1
REMARK  2 active torsions:
REMARK  status: ('A' for Active; 'I' for Inactive)
REMARK    1  A    between atoms: C1_2  and  C2_3 
REMARK    2  A    between atoms: C2_3  and  C3_4 
ROOT
ATOM      1  C3  UNL d   1       5.459   1.700   4.444  0.00  0.00    -0.075 A 
ATOM      2  C4  UNL d   1       5.007   0.817   3.453  0.00  0.00     0.002 A 
ATOM      3  C5  UNL d   1       4.925  -0.553   3.707  0.00  0.00     0.002 A 
ATOM      4  C6  UNL d   1       5.303  -1.057   4.950  0.00  0.00    -0.004 A 
ATOM      5  C7  UNL d   1       5.769  -0.191   5.937  0.00  0.00     0.002 A 
ATOM      6  C8  UNL d   1       5.848   1.180   5.686  0.00  0.00     0.002 A 
ENDROOT
BRANCH   1   7
ATOM      7  C2  UNL d   1       5.522   3.186   4.185  0.00  0.00     0.056 C 
BRANCH   7   8
ATOM      8  C1  UNL d   1       5.989   4.010   5.389  0.00  0.00     0.007 C 
ATOM      9  C   UNL d   1       5.999   5.509   5.124  0.00  0.00     0.009 C 
ENDBRANCH   7   8
ENDBRANCH   1   7
TORSDOF 2
ENDMDL
