MODEL 1
REMARK minimizedAffinity -3.3609724
REMARK minimizedRMSD -1
REMARK  2 active torsions:
REMARK  status: ('A' for Active; 'I' for Inactive)
REMARK    1  A    between atoms: C1_2  and  C2_3 
REMARK    2  A    between atoms: C2_3  and  C3_4 
ROOT
ATOM      1  C3  UNL d   1       5.959   2.876   4.808  0.00  0.00    -0.075 A 
ATOM      2  C4  UNL d   1       5.933   3.995   5.653  0.00  0.00     0.002 A 
ATOM      3  C5  UNL d   1       5.924   5.285   5.121  0.00  0.00     0.002 A 
ATOM      4  C6  UNL d   1       5.952   5.472   3.740  0.00  0.00    -0.004 A 
ATOM      5  C7  UNL d   1       5.996   4.368   2.892  0.00  0.00     0.002 A 
ATOM      6  C8  UNL d   1       6.000   3.076   3.422  0.00  0.00     0.002 A 
ENDROOT
BRANCH   1   7
ATOM      7  C2  UNL d   1       5.939   1.478   5.377  0.00  0.00     0.056 C 
BRANCH   7   8
ATOM      8  C1  UNL d   1       5.992   0.372   4.317  0.00  0.00     0.007 C 
ATOM      9  C   UNL d   1       5.810  -1.024   4.897  0.00  0.00     0.009 C 
ENDBRANCH   7   8
ENDBRANCH   1   7
TORSDOF 2
ENDMDL
