MODEL 1
REMARK minimizedAffinity -3.32151198
REMARK minimizedRMSD -1
REMARK  2 active torsions:
REMARK  status: ('A' for Active; 'I' for Inactive)
REMARK    1  A    between atoms: C1_2  and  C2_3 
REMARK    2  A    between atoms: C2_3  and  C3_4 
ROOT
ATOM      1  C3  UNL d   1       5.557   1.546   4.686  0.00  0.00    -0.075 A 
ATOM      2  C4  UNL d   1       5.438   0.778   3.519  0.00  0.00     0.002 A 
ATOM      3  C5  UNL d   1       5.299  -0.608   3.595  0.00  0.00     0.002 A 
ATOM      4  C6  UNL d   1       5.288  -1.243   4.835  0.00  0.00    -0.004 A 
ATOM      5  C7  UNL d   1       5.423  -0.492   6.000  0.00  0.00     0.002 A 
ATOM      6  C8  UNL d   1       5.557   0.896   5.927  0.00  0.00     0.002 A 
ENDROOT
BRANCH   1   7
ATOM      7  C2  UNL d   1       5.679   3.050   4.612  0.00  0.00     0.056 C 
BRANCH   7   8
ATOM      8  C1  UNL d   1       6.000   3.717   5.954  0.00  0.00     0.007 C 
ATOM      9  C   UNL d   1       5.717   5.213   5.963  0.00  0.00     0.009 C 
ENDBRANCH   7   8
ENDBRANCH   1   7
TORSDOF 2
ENDMDL
