MODEL 1
REMARK minimizedAffinity -5.42589712
REMARK minimizedRMSD -1
REMARK  0 active torsions:
REMARK  status: ('A' for Active; 'I' for Inactive)
ROOT
ATOM      1  C   UNL d   1       2.664  -0.170   3.219  0.00  0.00     0.077 C 
ATOM      2  C1  UNL d   1       1.253   0.230   2.908  0.00  0.00    -0.074 A 
ATOM      3  C2  UNL d   1       0.384   0.648   3.921  0.00  0.00    -0.005 A 
ATOM      4  C3  UNL d   1      -0.923   1.026   3.615  0.00  0.00     0.006 A 
ATOM      5  C4  UNL d   1      -1.374   0.989   2.295  0.00  0.00    -0.005 A 
ATOM      6  C5  UNL d   1      -0.520   0.575   1.268  0.00  0.00    -0.074 A 
ATOM      7  C6  UNL d   1      -0.986   0.539  -0.157  0.00  0.00     0.077 C 
ATOM      8  C7  UNL d   1       0.794   0.203   1.583  0.00  0.00    -0.001 A 
ENDROOT
TORSDOF 0
ENDMDL
