MODEL 1
REMARK minimizedAffinity -5.42740631
REMARK minimizedRMSD -1
REMARK  0 active torsions:
REMARK  status: ('A' for Active; 'I' for Inactive)
ROOT
ATOM      1  C   UNL d   1      -0.077  -0.529  -1.644  0.00  0.00     0.077 C 
ATOM      2  C1  UNL d   1       0.395  -0.403  -0.226  0.00  0.00    -0.074 A 
ATOM      3  C2  UNL d   1       1.589  -1.001   0.189  0.00  0.00    -0.005 A 
ATOM      4  C3  UNL d   1       2.020  -0.868   1.509  0.00  0.00     0.006 A 
ATOM      5  C4  UNL d   1       1.263  -0.137   2.425  0.00  0.00    -0.005 A 
ATOM      6  C5  UNL d   1       0.067   0.469   2.028  0.00  0.00    -0.074 A 
ATOM      7  C6  UNL d   1      -0.753   1.267   2.997  0.00  0.00     0.077 C 
ATOM      8  C7  UNL d   1      -0.356   0.336   0.698  0.00  0.00    -0.001 A 
ENDROOT
TORSDOF 0
ENDMDL
