MODEL 1
REMARK minimizedAffinity -4.14362717
REMARK minimizedRMSD -1
REMARK  0 active torsions:
REMARK  status: ('A' for Active; 'I' for Inactive)
ROOT
ATOM      1  C   UNL d   1       0.809  -1.387  -1.031  0.00  0.00     0.077 C 
ATOM      2  C1  UNL d   1       0.868  -0.651  -2.336  0.00  0.00    -0.074 A 
ATOM      3  C2  UNL d   1       1.979   0.128  -2.673  0.00  0.00    -0.005 A 
ATOM      4  C3  UNL d   1       2.023   0.799  -3.895  0.00  0.00     0.006 A 
ATOM      5  C4  UNL d   1       0.958   0.699  -4.790  0.00  0.00    -0.005 A 
ATOM      6  C5  UNL d   1      -0.162  -0.075  -4.471  0.00  0.00    -0.074 A 
ATOM      7  C6  UNL d   1      -1.311  -0.201  -5.426  0.00  0.00     0.077 C 
ATOM      8  C7  UNL d   1      -0.195  -0.753  -3.244  0.00  0.00    -0.001 A 
ENDROOT
TORSDOF 0
ENDMDL
