MODEL 1
REMARK minimizedAffinity -1.68813419
REMARK minimizedRMSD -1
REMARK  0 active torsions:
REMARK  status: ('A' for Active; 'I' for Inactive)
ROOT
ATOM      1  C   UNL d   1      -0.535   1.870   2.593  0.00  0.00     0.077 C 
ATOM      2  C1  UNL d   1      -0.750   0.955   1.424  0.00  0.00    -0.074 A 
ATOM      3  C2  UNL d   1      -1.945   0.242   1.280  0.00  0.00    -0.005 A 
ATOM      4  C3  UNL d   1      -2.134  -0.598   0.182  0.00  0.00     0.006 A 
ATOM      5  C4  UNL d   1      -1.133  -0.733  -0.780  0.00  0.00    -0.005 A 
ATOM      6  C5  UNL d   1       0.068  -0.027  -0.653  0.00  0.00    -0.074 A 
ATOM      7  C6  UNL d   1       1.150  -0.154  -1.684  0.00  0.00     0.077 C 
ATOM      8  C7  UNL d   1       0.248   0.820   0.449  0.00  0.00    -0.001 A 
ENDROOT
TORSDOF 0
ENDMDL
