MODEL 1
REMARK minimizedAffinity -4.89747286
REMARK minimizedRMSD -1
REMARK  0 active torsions:
REMARK  status: ('A' for Active; 'I' for Inactive)
ROOT
ATOM      1  C   UNL d   1      -1.060   1.471   3.614  0.00  0.00     0.077 C 
ATOM      2  C1  UNL d   1      -0.107   0.767   2.694  0.00  0.00    -0.074 A 
ATOM      3  C2  UNL d   1       1.078   0.205   3.179  0.00  0.00    -0.005 A 
ATOM      4  C3  UNL d   1       1.949  -0.455   2.313  0.00  0.00     0.006 A 
ATOM      5  C4  UNL d   1       1.645  -0.559   0.955  0.00  0.00    -0.005 A 
ATOM      6  C5  UNL d   1       0.464  -0.004   0.452  0.00  0.00    -0.074 A 
ATOM      7  C6  UNL d   1       0.117  -0.116  -1.003  0.00  0.00     0.077 C 
ATOM      8  C7  UNL d   1      -0.410   0.651   1.330  0.00  0.00    -0.001 A 
ENDROOT
TORSDOF 0
ENDMDL
