MODEL 1
REMARK minimizedAffinity -1.15995264
REMARK minimizedRMSD -1
REMARK  0 active torsions:
REMARK  status: ('A' for Active; 'I' for Inactive)
ROOT
ATOM      1  C   UNL d   1      -1.825   0.742   2.232  0.00  0.00     0.077 C 
ATOM      2  C1  UNL d   1      -0.690   0.505   1.281  0.00  0.00    -0.074 A 
ATOM      3  C2  UNL d   1       0.637   0.678   1.688  0.00  0.00    -0.005 A 
ATOM      4  C3  UNL d   1       1.682   0.444   0.795  0.00  0.00     0.006 A 
ATOM      5  C4  UNL d   1       1.412   0.035  -0.512  0.00  0.00    -0.005 A 
ATOM      6  C5  UNL d   1       0.092  -0.144  -0.936  0.00  0.00    -0.074 A 
ATOM      7  C6  UNL d   1      -0.216  -0.593  -2.334  0.00  0.00     0.077 C 
ATOM      8  C7  UNL d   1      -0.953   0.086  -0.031  0.00  0.00    -0.001 A 
ENDROOT
TORSDOF 0
ENDMDL
