MODEL 1
REMARK minimizedAffinity -2.47814608
REMARK minimizedRMSD -1
REMARK  0 active torsions:
REMARK  status: ('A' for Active; 'I' for Inactive)
ROOT
ATOM      1  C   UNL d   1       4.447   1.074  -3.552  0.00  0.00     0.077 C 
ATOM      2  C1  UNL d   1       3.288   0.127  -3.453  0.00  0.00    -0.074 A 
ATOM      3  C2  UNL d   1       3.421  -1.215  -3.826  0.00  0.00    -0.005 A 
ATOM      4  C3  UNL d   1       2.337  -2.086  -3.719  0.00  0.00     0.006 A 
ATOM      5  C4  UNL d   1       1.111  -1.625  -3.239  0.00  0.00    -0.005 A 
ATOM      6  C5  UNL d   1       0.958  -0.287  -2.861  0.00  0.00    -0.074 A 
ATOM      7  C6  UNL d   1      -0.350   0.222  -2.333  0.00  0.00     0.077 C 
ATOM      8  C7  UNL d   1       2.054   0.580  -2.964  0.00  0.00    -0.001 A 
ENDROOT
TORSDOF 0
ENDMDL
