MODEL 1
REMARK minimizedAffinity -4.95321321
REMARK minimizedRMSD -1
REMARK  0 active torsions:
REMARK  status: ('A' for Active; 'I' for Inactive)
ROOT
ATOM      1  C   UNL d   1      -2.972  -0.305   2.637  0.00  0.00     0.077 C 
ATOM      2  C1  UNL d   1      -1.536   0.116   2.546  0.00  0.00    -0.074 A 
ATOM      3  C2  UNL d   1      -0.697  -0.399   1.553  0.00  0.00    -0.005 A 
ATOM      4  C3  UNL d   1       0.635   0.009   1.475  0.00  0.00     0.006 A 
ATOM      5  C4  UNL d   1       1.140   0.935   2.389  0.00  0.00    -0.005 A 
ATOM      6  C5  UNL d   1       0.316   1.461   3.389  0.00  0.00    -0.074 A 
ATOM      7  C6  UNL d   1       0.841   2.464   4.373  0.00  0.00     0.077 C 
ATOM      8  C7  UNL d   1      -1.022   1.051   3.456  0.00  0.00    -0.001 A 
ENDROOT
TORSDOF 0
ENDMDL
