MODEL 1
REMARK minimizedAffinity -5.13425303
REMARK minimizedRMSD -1
REMARK  0 active torsions:
REMARK  status: ('A' for Active; 'I' for Inactive)
ROOT
ATOM      1  C   UNL d   1      -0.094   0.012  -1.402  0.00  0.00     0.077 C 
ATOM      2  C1  UNL d   1      -0.543  -0.047   0.028  0.00  0.00    -0.074 A 
ATOM      3  C2  UNL d   1       0.382  -0.187   1.067  0.00  0.00    -0.005 A 
ATOM      4  C3  UNL d   1      -0.050  -0.232   2.392  0.00  0.00     0.006 A 
ATOM      5  C4  UNL d   1      -1.409  -0.137   2.692  0.00  0.00    -0.005 A 
ATOM      6  C5  UNL d   1      -2.349   0.005   1.666  0.00  0.00    -0.074 A 
ATOM      7  C6  UNL d   1      -3.813   0.118   1.971  0.00  0.00     0.077 C 
ATOM      8  C7  UNL d   1      -1.907   0.055   0.337  0.00  0.00    -0.001 A 
ENDROOT
TORSDOF 0
ENDMDL
