MODEL 1
REMARK minimizedAffinity -1.86648226
REMARK minimizedRMSD -1
REMARK  0 active torsions:
REMARK  status: ('A' for Active; 'I' for Inactive)
ROOT
ATOM      1  C   UNL d   1       1.301   0.137  -1.457  0.00  0.00     0.077 C 
ATOM      2  C1  UNL d   1       0.029   0.001  -0.675  0.00  0.00    -0.074 A 
ATOM      3  C2  UNL d   1      -1.216   0.099  -1.305  0.00  0.00    -0.005 A 
ATOM      4  C3  UNL d   1      -2.391  -0.039  -0.566  0.00  0.00     0.006 A 
ATOM      5  C4  UNL d   1      -2.333  -0.276   0.808  0.00  0.00    -0.005 A 
ATOM      6  C5  UNL d   1      -1.097  -0.378   1.455  0.00  0.00    -0.074 A 
ATOM      7  C6  UNL d   1      -1.017  -0.643   2.929  0.00  0.00     0.077 C 
ATOM      8  C7  UNL d   1       0.079  -0.245   0.704  0.00  0.00    -0.001 A 
ENDROOT
TORSDOF 0
ENDMDL
