MODEL 1
REMARK minimizedAffinity -4.62130117
REMARK minimizedRMSD -1
REMARK  0 active torsions:
REMARK  status: ('A' for Active; 'I' for Inactive)
ROOT
ATOM      1  C   UNL d   1       0.762  -0.062   3.001  0.00  0.00     0.077 C 
ATOM      2  C1  UNL d   1      -0.089  -0.011   1.767  0.00  0.00    -0.074 A 
ATOM      3  C2  UNL d   1      -1.474  -0.187   1.841  0.00  0.00    -0.005 A 
ATOM      4  C3  UNL d   1      -2.254  -0.128   0.686  0.00  0.00     0.006 A 
ATOM      5  C4  UNL d   1      -1.657   0.107  -0.553  0.00  0.00    -0.005 A 
ATOM      6  C5  UNL d   1      -0.273   0.286  -0.647  0.00  0.00    -0.074 A 
ATOM      7  C6  UNL d   1       0.383   0.550  -1.970  0.00  0.00     0.077 C 
ATOM      8  C7  UNL d   1       0.502   0.233   0.519  0.00  0.00    -0.001 A 
ENDROOT
TORSDOF 0
ENDMDL
