MODEL 1
REMARK minimizedAffinity -0.735261023
REMARK minimizedRMSD -1
REMARK  0 active torsions:
REMARK  status: ('A' for Active; 'I' for Inactive)
ROOT
ATOM      1  C   UNL d   1       0.627  -0.563  -2.240  0.00  0.00     0.077 C 
ATOM      2  C1  UNL d   1      -0.377  -0.363  -1.144  0.00  0.00    -0.074 A 
ATOM      3  C2  UNL d   1      -1.686   0.038  -1.433  0.00  0.00    -0.005 A 
ATOM      4  C3  UNL d   1      -2.612   0.211  -0.404  0.00  0.00     0.006 A 
ATOM      5  C4  UNL d   1      -2.239  -0.015   0.922  0.00  0.00    -0.005 A 
ATOM      6  C5  UNL d   1      -0.935  -0.416   1.230  0.00  0.00    -0.074 A 
ATOM      7  C6  UNL d   1      -0.520  -0.672   2.648  0.00  0.00     0.077 C 
ATOM      8  C7  UNL d   1      -0.013  -0.595   0.189  0.00  0.00    -0.001 A 
ENDROOT
TORSDOF 0
ENDMDL
