MODEL 1
REMARK minimizedAffinity -1.51375365
REMARK minimizedRMSD -1
REMARK  0 active torsions:
REMARK  status: ('A' for Active; 'I' for Inactive)
ROOT
ATOM      1  C   UNL d   1      -0.747  -1.408   3.244  0.00  0.00     0.077 C 
ATOM      2  C1  UNL d   1      -0.305  -0.624   2.045  0.00  0.00    -0.074 A 
ATOM      3  C2  UNL d   1       0.993  -0.109   1.961  0.00  0.00    -0.005 A 
ATOM      4  C3  UNL d   1       1.392   0.610   0.835  0.00  0.00     0.006 A 
ATOM      5  C4  UNL d   1       0.500   0.821  -0.217  0.00  0.00    -0.005 A 
ATOM      6  C5  UNL d   1      -0.801   0.313  -0.151  0.00  0.00    -0.074 A 
ATOM      7  C6  UNL d   1      -1.769   0.523  -1.277  0.00  0.00     0.077 C 
ATOM      8  C7  UNL d   1      -1.193  -0.415   0.981  0.00  0.00    -0.001 A 
ENDROOT
TORSDOF 0
ENDMDL
