MODEL 1
REMARK minimizedAffinity 4.07038307
REMARK minimizedRMSD -1
REMARK  0 active torsions:
REMARK  status: ('A' for Active; 'I' for Inactive)
ROOT
ATOM      1  C   UNL d   1      -2.257  -0.031   1.841  0.00  0.00     0.077 C 
ATOM      2  C1  UNL d   1      -0.762   0.093   1.806  0.00  0.00    -0.074 A 
ATOM      3  C2  UNL d   1       0.043  -0.674   2.654  0.00  0.00    -0.005 A 
ATOM      4  C3  UNL d   1       1.432  -0.554   2.603  0.00  0.00     0.006 A 
ATOM      5  C4  UNL d   1       2.028   0.332   1.705  0.00  0.00    -0.005 A 
ATOM      6  C5  UNL d   1       1.239   1.107   0.848  0.00  0.00    -0.074 A 
ATOM      7  C6  UNL d   1       1.864   2.056  -0.129  0.00  0.00     0.077 C 
ATOM      8  C7  UNL d   1      -0.155   0.976   0.901  0.00  0.00    -0.001 A 
ENDROOT
TORSDOF 0
ENDMDL
