MODEL 1
REMARK minimizedAffinity 3.8877852
REMARK minimizedRMSD -1
REMARK  0 active torsions:
REMARK  status: ('A' for Active; 'I' for Inactive)
ROOT
ATOM      1  C   UNL d   1       0.204   2.592   2.264  0.00  0.00     0.077 C 
ATOM      2  C1  UNL d   1       0.342   1.100   2.335  0.00  0.00    -0.074 A 
ATOM      3  C2  UNL d   1      -0.773   0.267   2.202  0.00  0.00    -0.005 A 
ATOM      4  C3  UNL d   1      -0.628  -1.118   2.261  0.00  0.00     0.006 A 
ATOM      5  C4  UNL d   1       0.633  -1.685   2.454  0.00  0.00    -0.005 A 
ATOM      6  C5  UNL d   1       1.760  -0.868   2.589  0.00  0.00    -0.074 A 
ATOM      7  C6  UNL d   1       3.124  -1.461   2.787  0.00  0.00     0.077 C 
ATOM      8  C7  UNL d   1       1.607   0.523   2.521  0.00  0.00    -0.001 A 
ENDROOT
TORSDOF 0
ENDMDL
