MODEL 1
REMARK minimizedAffinity -5.06622505
REMARK minimizedRMSD -1
REMARK  0 active torsions:
REMARK  status: ('A' for Active; 'I' for Inactive)
ROOT
ATOM      1  C   UNL d   1      -3.738  -0.289   1.943  0.00  0.00     0.077 C 
ATOM      2  C1  UNL d   1      -2.250  -0.121   1.856  0.00  0.00    -0.074 A 
ATOM      3  C2  UNL d   1      -1.456  -0.140   3.007  0.00  0.00    -0.005 A 
ATOM      4  C3  UNL d   1      -0.073   0.008   2.910  0.00  0.00     0.006 A 
ATOM      5  C4  UNL d   1       0.530   0.176   1.663  0.00  0.00    -0.005 A 
ATOM      6  C5  UNL d   1      -0.248   0.196   0.500  0.00  0.00    -0.074 A 
ATOM      7  C6  UNL d   1       0.385   0.366  -0.849  0.00  0.00     0.077 C 
ATOM      8  C7  UNL d   1      -1.636   0.040   0.606  0.00  0.00    -0.001 A 
ENDROOT
TORSDOF 0
ENDMDL
