MODEL 1
REMARK minimizedAffinity -5.17830372
REMARK minimizedRMSD -1
REMARK  0 active torsions:
REMARK  status: ('A' for Active; 'I' for Inactive)
ROOT
ATOM      1  C   UNL d   1       4.596   0.447  -3.961  0.00  0.00     0.077 C 
ATOM      2  C1  UNL d   1       3.257  -0.176  -3.699  0.00  0.00    -0.074 A 
ATOM      3  C2  UNL d   1       2.985  -1.489  -4.096  0.00  0.00    -0.005 A 
ATOM      4  C3  UNL d   1       1.738  -2.058  -3.837  0.00  0.00     0.006 A 
ATOM      5  C4  UNL d   1       0.753  -1.321  -3.179  0.00  0.00    -0.005 A 
ATOM      6  C5  UNL d   1       1.007  -0.007  -2.773  0.00  0.00    -0.074 A 
ATOM      7  C6  UNL d   1      -0.038   0.795  -2.056  0.00  0.00     0.077 C 
ATOM      8  C7  UNL d   1       2.264   0.555  -3.031  0.00  0.00    -0.001 A 
ENDROOT
TORSDOF 0
ENDMDL
