MODEL 1
REMARK minimizedAffinity 0.742348135
REMARK minimizedRMSD -1
REMARK  0 active torsions:
REMARK  status: ('A' for Active; 'I' for Inactive)
ROOT
ATOM      1  C   UNL d   1      -2.273  -0.001   2.315  0.00  0.00     0.077 C 
ATOM      2  C1  UNL d   1      -0.780  -0.141   2.367  0.00  0.00    -0.074 A 
ATOM      3  C2  UNL d   1      -0.179  -1.150   3.126  0.00  0.00    -0.005 A 
ATOM      4  C3  UNL d   1       1.209  -1.274   3.158  0.00  0.00     0.006 A 
ATOM      5  C4  UNL d   1       2.010  -0.392   2.432  0.00  0.00    -0.005 A 
ATOM      6  C5  UNL d   1       1.427   0.623   1.667  0.00  0.00    -0.074 A 
ATOM      7  C6  UNL d   1       2.273   1.574   0.873  0.00  0.00     0.077 C 
ATOM      8  C7  UNL d   1       0.031   0.737   1.635  0.00  0.00    -0.001 A 
ENDROOT
TORSDOF 0
ENDMDL
