MODEL 1
REMARK minimizedAffinity 2.28613544
REMARK minimizedRMSD -1
REMARK  0 active torsions:
REMARK  status: ('A' for Active; 'I' for Inactive)
ROOT
ATOM      1  C   UNL d   1      -2.785   0.819   1.886  0.00  0.00     0.077 C 
ATOM      2  C1  UNL d   1      -1.387   0.313   2.082  0.00  0.00    -0.074 A 
ATOM      3  C2  UNL d   1      -0.441   1.066   2.785  0.00  0.00    -0.005 A 
ATOM      4  C3  UNL d   1       0.852   0.578   2.969  0.00  0.00     0.006 A 
ATOM      5  C4  UNL d   1       1.213  -0.667   2.451  0.00  0.00    -0.005 A 
ATOM      6  C5  UNL d   1       0.282  -1.435   1.746  0.00  0.00    -0.074 A 
ATOM      7  C6  UNL d   1       0.650  -2.779   1.191  0.00  0.00     0.077 C 
ATOM      8  C7  UNL d   1      -1.018  -0.940   1.572  0.00  0.00    -0.001 A 
ENDROOT
TORSDOF 0
ENDMDL
