MODEL 1
REMARK minimizedAffinity 0.312671542
REMARK minimizedRMSD -1
REMARK  0 active torsions:
REMARK  status: ('A' for Active; 'I' for Inactive)
ROOT
ATOM      1  C   UNL d   1       1.153   3.708  -3.098  0.00  0.00     0.077 C 
ATOM      2  C1  UNL d   1       1.917   2.913  -4.115  0.00  0.00    -0.074 A 
ATOM      3  C2  UNL d   1       3.147   3.365  -4.604  0.00  0.00    -0.005 A 
ATOM      4  C3  UNL d   1       3.851   2.611  -5.542  0.00  0.00     0.006 A 
ATOM      5  C4  UNL d   1       3.334   1.398  -6.000  0.00  0.00    -0.005 A 
ATOM      6  C5  UNL d   1       2.106   0.930  -5.521  0.00  0.00    -0.074 A 
ATOM      7  C6  UNL d   1       1.540  -0.376  -5.996  0.00  0.00     0.077 C 
ATOM      8  C7  UNL d   1       1.408   1.690  -4.573  0.00  0.00    -0.001 A 
ENDROOT
TORSDOF 0
ENDMDL
