MODEL 1
REMARK minimizedAffinity 1.10011613
REMARK minimizedRMSD -1
REMARK  0 active torsions:
REMARK  status: ('A' for Active; 'I' for Inactive)
ROOT
ATOM      1  C   UNL d   1       0.655  -2.220   2.739  0.00  0.00     0.077 C 
ATOM      2  C1  UNL d   1       0.558  -0.734   2.560  0.00  0.00    -0.074 A 
ATOM      3  C2  UNL d   1      -0.641  -0.058   2.805  0.00  0.00    -0.005 A 
ATOM      4  C3  UNL d   1      -0.714   1.326   2.643  0.00  0.00     0.006 A 
ATOM      5  C4  UNL d   1       0.410   2.046   2.235  0.00  0.00    -0.005 A 
ATOM      6  C5  UNL d   1       1.618   1.386   1.986  0.00  0.00    -0.074 A 
ATOM      7  C6  UNL d   1       2.838   2.146   1.557  0.00  0.00     0.077 C 
ATOM      8  C7  UNL d   1       1.685  -0.003   2.158  0.00  0.00    -0.001 A 
ENDROOT
TORSDOF 0
ENDMDL
