MODEL 1
REMARK minimizedAffinity 4.62249565
REMARK minimizedRMSD -1
REMARK  0 active torsions:
REMARK  status: ('A' for Active; 'I' for Inactive)
ROOT
ATOM      1  C   UNL d   1      -0.741  -3.353  -0.416  0.00  0.00     0.077 C 
ATOM      2  C1  UNL d   1      -0.514  -1.974  -0.959  0.00  0.00    -0.074 A 
ATOM      3  C2  UNL d   1      -0.806  -0.842  -0.190  0.00  0.00    -0.005 A 
ATOM      4  C3  UNL d   1      -0.581   0.435  -0.705  0.00  0.00     0.006 A 
ATOM      5  C4  UNL d   1      -0.063   0.592  -1.992  0.00  0.00    -0.005 A 
ATOM      6  C5  UNL d   1       0.235  -0.527  -2.774  0.00  0.00    -0.074 A 
ATOM      7  C6  UNL d   1       0.801  -0.376  -4.155  0.00  0.00     0.077 C 
ATOM      8  C7  UNL d   1       0.013  -1.807  -2.247  0.00  0.00    -0.001 A 
ENDROOT
TORSDOF 0
ENDMDL
