MODEL 1
REMARK minimizedAffinity 15.6390867
REMARK minimizedRMSD -1
REMARK  0 active torsions:
REMARK  status: ('A' for Active; 'I' for Inactive)
ROOT
ATOM      1  C   UNL d   1      -1.067  -4.646   2.790  0.00  0.00     0.077 C 
ATOM      2  C1  UNL d   1      -0.535  -3.634   3.760  0.00  0.00    -0.074 A 
ATOM      3  C2  UNL d   1      -0.173  -4.004   5.059  0.00  0.00    -0.005 A 
ATOM      4  C3  UNL d   1       0.330  -3.054   5.947  0.00  0.00     0.006 A 
ATOM      5  C4  UNL d   1       0.476  -1.725   5.546  0.00  0.00    -0.005 A 
ATOM      6  C5  UNL d   1       0.120  -1.336   4.251  0.00  0.00    -0.074 A 
ATOM      7  C6  UNL d   1       0.280   0.085   3.800  0.00  0.00     0.077 C 
ATOM      8  C7  UNL d   1      -0.378  -2.299   3.362  0.00  0.00    -0.001 A 
ENDROOT
TORSDOF 0
ENDMDL
