MODEL 1
REMARK minimizedAffinity 11.1114101
REMARK minimizedRMSD -1
REMARK  0 active torsions:
REMARK  status: ('A' for Active; 'I' for Inactive)
ROOT
ATOM      1  C   UNL d   1       2.123   2.990   3.241  0.00  0.00     0.077 C 
ATOM      2  C1  UNL d   1       2.300   2.122   2.031  0.00  0.00    -0.074 A 
ATOM      3  C2  UNL d   1       1.741   0.841   1.977  0.00  0.00    -0.005 A 
ATOM      4  C3  UNL d   1       1.906   0.049   0.841  0.00  0.00     0.006 A 
ATOM      5  C4  UNL d   1       2.630   0.529  -0.251  0.00  0.00    -0.005 A 
ATOM      6  C5  UNL d   1       3.196   1.808  -0.216  0.00  0.00    -0.074 A 
ATOM      7  C6  UNL d   1       3.969   2.343  -1.384  0.00  0.00     0.077 C 
ATOM      8  C7  UNL d   1       3.020   2.600   0.927  0.00  0.00    -0.001 A 
ENDROOT
TORSDOF 0
ENDMDL
