MODEL 1
REMARK minimizedAffinity 7.62723112
REMARK minimizedRMSD -1
REMARK  0 active torsions:
REMARK  status: ('A' for Active; 'I' for Inactive)
ROOT
ATOM      1  C   UNL d   1       2.694  -0.956  -1.507  0.00  0.00     0.077 C 
ATOM      2  C1  UNL d   1       2.708   0.325  -0.728  0.00  0.00    -0.074 A 
ATOM      3  C2  UNL d   1       3.394   1.448  -1.202  0.00  0.00    -0.005 A 
ATOM      4  C3  UNL d   1       3.391   2.635  -0.471  0.00  0.00     0.006 A 
ATOM      5  C4  UNL d   1       2.703   2.712   0.741  0.00  0.00    -0.005 A 
ATOM      6  C5  UNL d   1       2.011   1.601   1.231  0.00  0.00    -0.074 A 
ATOM      7  C6  UNL d   1       1.258   1.669   2.526  0.00  0.00     0.077 C 
ATOM      8  C7  UNL d   1       2.013   0.413   0.487  0.00  0.00    -0.001 A 
ENDROOT
TORSDOF 0
ENDMDL
