MODEL 1
REMARK minimizedAffinity 6.25470829
REMARK minimizedRMSD -1
REMARK  0 active torsions:
REMARK  status: ('A' for Active; 'I' for Inactive)
ROOT
ATOM      1  C   UNL d   1       3.263   1.170   1.195  0.00  0.00     0.077 C 
ATOM      2  C1  UNL d   1       2.686  -0.139   0.743  0.00  0.00    -0.074 A 
ATOM      3  C2  UNL d   1       2.377  -1.144   1.664  0.00  0.00    -0.005 A 
ATOM      4  C3  UNL d   1       1.833  -2.353   1.230  0.00  0.00     0.006 A 
ATOM      5  C4  UNL d   1       1.593  -2.568  -0.128  0.00  0.00    -0.005 A 
ATOM      6  C5  UNL d   1       1.895  -1.574  -1.064  0.00  0.00    -0.074 A 
ATOM      7  C6  UNL d   1       1.634  -1.785  -2.525  0.00  0.00     0.077 C 
ATOM      8  C7  UNL d   1       2.435  -0.359  -0.619  0.00  0.00    -0.001 A 
ENDROOT
TORSDOF 0
ENDMDL
