MODEL 1
REMARK minimizedAffinity -1.67444742
REMARK minimizedRMSD -1
REMARK  0 active torsions:
REMARK  status: ('A' for Active; 'I' for Inactive)
ROOT
ATOM      1  C   UNL d   1       1.724  -1.533  -0.791  0.00  0.00     0.077 C 
ATOM      2  C1  UNL d   1       2.880  -0.644  -0.442  0.00  0.00    -0.074 A 
ATOM      3  C2  UNL d   1       3.719  -0.945   0.636  0.00  0.00    -0.005 A 
ATOM      4  C3  UNL d   1       4.796  -0.113   0.943  0.00  0.00     0.006 A 
ATOM      5  C4  UNL d   1       5.045   1.026   0.176  0.00  0.00    -0.005 A 
ATOM      6  C5  UNL d   1       4.217   1.343  -0.906  0.00  0.00    -0.074 A 
ATOM      7  C6  UNL d   1       4.476   2.558  -1.746  0.00  0.00     0.077 C 
ATOM      8  C7  UNL d   1       3.141   0.498  -1.212  0.00  0.00    -0.001 A 
ENDROOT
TORSDOF 0
ENDMDL
