MODEL 1
REMARK minimizedAffinity 1.86449301
REMARK minimizedRMSD -1
REMARK  0 active torsions:
REMARK  status: ('A' for Active; 'I' for Inactive)
ROOT
ATOM      1  C   UNL d   1       4.434  -1.000  -2.855  0.00  0.00     0.077 C 
ATOM      2  C1  UNL d   1       3.539  -0.793  -1.670  0.00  0.00    -0.074 A 
ATOM      3  C2  UNL d   1       3.447   0.457  -1.048  0.00  0.00    -0.005 A 
ATOM      4  C3  UNL d   1       2.603   0.637   0.047  0.00  0.00     0.006 A 
ATOM      5  C4  UNL d   1       1.844  -0.428   0.532  0.00  0.00    -0.005 A 
ATOM      6  C5  UNL d   1       1.921  -1.685  -0.077  0.00  0.00    -0.074 A 
ATOM      7  C6  UNL d   1       1.104  -2.838   0.425  0.00  0.00     0.077 C 
ATOM      8  C7  UNL d   1       2.766  -1.856  -1.182  0.00  0.00    -0.001 A 
ENDROOT
TORSDOF 0
ENDMDL
