MODEL 1
REMARK minimizedAffinity 9.63958073
REMARK minimizedRMSD -1
REMARK  0 active torsions:
REMARK  status: ('A' for Active; 'I' for Inactive)
ROOT
ATOM      1  C   UNL d   1       1.302  -0.362  -0.219  0.00  0.00     0.077 C 
ATOM      2  C1  UNL d   1       2.692   0.198  -0.287  0.00  0.00    -0.074 A 
ATOM      3  C2  UNL d   1       3.029   1.172  -1.233  0.00  0.00    -0.005 A 
ATOM      4  C3  UNL d   1       4.323   1.690  -1.279  0.00  0.00     0.006 A 
ATOM      5  C4  UNL d   1       5.292   1.240  -0.381  0.00  0.00    -0.005 A 
ATOM      6  C5  UNL d   1       4.973   0.268   0.572  0.00  0.00    -0.074 A 
ATOM      7  C6  UNL d   1       6.000  -0.219   1.551  0.00  0.00     0.077 C 
ATOM      8  C7  UNL d   1       3.669  -0.243   0.617  0.00  0.00    -0.001 A 
ENDROOT
TORSDOF 0
ENDMDL
