MODEL 1
REMARK minimizedAffinity 8.87648773
REMARK minimizedRMSD -1
REMARK  2 active torsions:
REMARK  status: ('A' for Active; 'I' for Inactive)
REMARK    1  A    between atoms: C1_2  and  C2_3 
REMARK    2  A    between atoms: C2_3  and  C3_4 
ROOT
ATOM      1  C3  UNL d   1      -0.096   3.785  -0.418  0.00  0.00    -0.075 A 
ATOM      2  C4  UNL d   1       0.714   4.913  -0.223  0.00  0.00     0.002 A 
ATOM      3  C5  UNL d   1       0.637   6.000  -1.094  0.00  0.00     0.002 A 
ATOM      4  C6  UNL d   1      -0.242   5.968  -2.175  0.00  0.00    -0.004 A 
ATOM      5  C7  UNL d   1      -1.039   4.846  -2.388  0.00  0.00     0.002 A 
ATOM      6  C8  UNL d   1      -0.967   3.759  -1.515  0.00  0.00     0.002 A 
ENDROOT
BRANCH   1   7
ATOM      7  C2  UNL d   1      -0.038   2.618   0.539  0.00  0.00     0.056 C 
BRANCH   7   8
ATOM      8  C1  UNL d   1       0.489   2.979   1.932  0.00  0.00     0.007 C 
ATOM      9  C   UNL d   1      -0.201   2.212   3.052  0.00  0.00     0.009 C 
ENDBRANCH   7   8
ENDBRANCH   1   7
TORSDOF 2
ENDMDL
