MODEL 1
REMARK minimizedAffinity 6.57010937
REMARK minimizedRMSD -1
REMARK  2 active torsions:
REMARK  status: ('A' for Active; 'I' for Inactive)
REMARK    1  A    between atoms: C1_2  and  C2_3 
REMARK    2  A    between atoms: C2_3  and  C3_4 
ROOT
ATOM      1  C3  UNL d   1       0.191   3.143  -0.028  0.00  0.00    -0.075 A 
ATOM      2  C4  UNL d   1       1.333   3.868   0.339  0.00  0.00     0.002 A 
ATOM      3  C5  UNL d   1       1.828   3.800   1.642  0.00  0.00     0.002 A 
ATOM      4  C6  UNL d   1       1.182   3.016   2.595  0.00  0.00    -0.004 A 
ATOM      5  C7  UNL d   1       0.036   2.305   2.247  0.00  0.00     0.002 A 
ATOM      6  C8  UNL d   1      -0.458   2.367   0.943  0.00  0.00     0.002 A 
ENDROOT
BRANCH   1   7
ATOM      7  C2  UNL d   1      -0.333   3.188  -1.443  0.00  0.00     0.056 C 
BRANCH   7   8
ATOM      8  C1  UNL d   1      -1.396   4.266  -1.681  0.00  0.00     0.007 C 
ATOM      9  C   UNL d   1      -2.699   3.711  -2.239  0.00  0.00     0.009 C 
ENDBRANCH   7   8
ENDBRANCH   1   7
TORSDOF 2
ENDMDL
