MODEL 1
REMARK minimizedAffinity 1.2657069
REMARK minimizedRMSD -1
REMARK  2 active torsions:
REMARK  status: ('A' for Active; 'I' for Inactive)
REMARK    1  A    between atoms: C1_2  and  C2_3 
REMARK    2  A    between atoms: C2_3  and  C3_4 
ROOT
ATOM      1  C3  UNL d   1       0.120   3.299   1.717  0.00  0.00    -0.075 A 
ATOM      2  C4  UNL d   1      -0.952   4.173   1.488  0.00  0.00     0.002 A 
ATOM      3  C5  UNL d   1      -0.807   5.261   0.627  0.00  0.00     0.002 A 
ATOM      4  C6  UNL d   1       0.411   5.496  -0.006  0.00  0.00    -0.004 A 
ATOM      5  C7  UNL d   1       1.488   4.643   0.228  0.00  0.00     0.002 A 
ATOM      6  C8  UNL d   1       1.345   3.551   1.084  0.00  0.00     0.002 A 
ENDROOT
BRANCH   1   7
ATOM      7  C2  UNL d   1      -0.039   2.102   2.624  0.00  0.00     0.056 C 
BRANCH   7   8
ATOM      8  C1  UNL d   1       0.960   0.973   2.348  0.00  0.00     0.007 C 
ATOM      9  C   UNL d   1       0.894  -0.151   3.373  0.00  0.00     0.009 C 
ENDBRANCH   7   8
ENDBRANCH   1   7
TORSDOF 2
ENDMDL
