MODEL 1
REMARK minimizedAffinity 2.02751541
REMARK minimizedRMSD -1
REMARK  2 active torsions:
REMARK  status: ('A' for Active; 'I' for Inactive)
REMARK    1  A    between atoms: C1_2  and  C2_3 
REMARK    2  A    between atoms: C2_3  and  C3_4 
ROOT
ATOM      1  C3  UNL d   1      -3.924   3.003  -3.004  0.00  0.00    -0.075 A 
ATOM      2  C4  UNL d   1      -3.932   2.379  -4.260  0.00  0.00     0.002 A 
ATOM      3  C5  UNL d   1      -4.968   1.514  -4.614  0.00  0.00     0.002 A 
ATOM      4  C6  UNL d   1      -6.000   1.253  -3.715  0.00  0.00    -0.004 A 
ATOM      5  C7  UNL d   1      -5.993   1.855  -2.458  0.00  0.00     0.002 A 
ATOM      6  C8  UNL d   1      -4.960   2.725  -2.103  0.00  0.00     0.002 A 
ENDROOT
BRANCH   1   7
ATOM      7  C2  UNL d   1      -2.821   3.964  -2.626  0.00  0.00     0.056 C 
BRANCH   7   8
ATOM      8  C1  UNL d   1      -1.893   3.446  -1.522  0.00  0.00     0.007 C 
ATOM      9  C   UNL d   1      -0.540   4.143  -1.499  0.00  0.00     0.009 C 
ENDBRANCH   7   8
ENDBRANCH   1   7
TORSDOF 2
ENDMDL
