MODEL 1
REMARK minimizedAffinity 6.40901995
REMARK minimizedRMSD -1
REMARK  2 active torsions:
REMARK  status: ('A' for Active; 'I' for Inactive)
REMARK    1  A    between atoms: C1_2  and  C2_3 
REMARK    2  A    between atoms: C2_3  and  C3_4 
ROOT
ATOM      1  C3  UNL d   1      -5.278   3.291  -3.040  0.00  0.00    -0.075 A 
ATOM      2  C4  UNL d   1      -5.999   3.837  -4.112  0.00  0.00     0.002 A 
ATOM      3  C5  UNL d   1      -5.334   4.471  -5.162  0.00  0.00     0.002 A 
ATOM      4  C6  UNL d   1      -3.945   4.575  -5.149  0.00  0.00    -0.004 A 
ATOM      5  C7  UNL d   1      -3.220   4.051  -4.081  0.00  0.00     0.002 A 
ATOM      6  C8  UNL d   1      -3.883   3.412  -3.031  0.00  0.00     0.002 A 
ENDROOT
BRANCH   1   7
ATOM      7  C2  UNL d   1      -5.990   2.578  -1.915  0.00  0.00     0.056 C 
BRANCH   7   8
ATOM      8  C1  UNL d   1      -5.998   1.051  -2.050  0.00  0.00     0.007 C 
ATOM      9  C   UNL d   1      -5.131   0.352  -1.012  0.00  0.00     0.009 C 
ENDBRANCH   7   8
ENDBRANCH   1   7
TORSDOF 2
ENDMDL
