MODEL 1
REMARK minimizedAffinity 4.30589199
REMARK minimizedRMSD -1
REMARK  2 active torsions:
REMARK  status: ('A' for Active; 'I' for Inactive)
REMARK    1  A    between atoms: C1_2  and  C2_3 
REMARK    2  A    between atoms: C2_3  and  C3_4 
ROOT
ATOM      1  C3  UNL d   1      -1.899   3.706  -1.631  0.00  0.00    -0.075 A 
ATOM      2  C4  UNL d   1      -1.177   4.897  -1.791  0.00  0.00     0.002 A 
ATOM      3  C5  UNL d   1       0.082   5.047  -1.209  0.00  0.00     0.002 A 
ATOM      4  C6  UNL d   1       0.629   4.014  -0.452  0.00  0.00    -0.004 A 
ATOM      5  C7  UNL d   1      -0.086   2.832  -0.272  0.00  0.00     0.002 A 
ATOM      6  C8  UNL d   1      -1.344   2.678  -0.858  0.00  0.00     0.002 A 
ENDROOT
BRANCH   1   7
ATOM      7  C2  UNL d   1      -3.249   3.526  -2.284  0.00  0.00     0.056 C 
BRANCH   7   8
ATOM      8  C1  UNL d   1      -4.131   2.470  -1.611  0.00  0.00     0.007 C 
ATOM      9  C   UNL d   1      -5.439   2.221  -2.350  0.00  0.00     0.009 C 
ENDBRANCH   7   8
ENDBRANCH   1   7
TORSDOF 2
ENDMDL
