MODEL 1
REMARK minimizedAffinity 6.7052207
REMARK minimizedRMSD -1
REMARK  2 active torsions:
REMARK  status: ('A' for Active; 'I' for Inactive)
REMARK    1  A    between atoms: C1_2  and  C2_3 
REMARK    2  A    between atoms: C2_3  and  C3_4 
ROOT
ATOM      1  C3  UNL d   1       0.270   2.401   0.859  0.00  0.00    -0.075 A 
ATOM      2  C4  UNL d   1       1.343   2.202   1.739  0.00  0.00     0.002 A 
ATOM      3  C5  UNL d   1       1.139   2.210   3.119  0.00  0.00     0.002 A 
ATOM      4  C6  UNL d   1      -0.136   2.427   3.636  0.00  0.00    -0.004 A 
ATOM      5  C7  UNL d   1      -1.207   2.643   2.772  0.00  0.00     0.002 A 
ATOM      6  C8  UNL d   1      -1.006   2.631   1.390  0.00  0.00     0.002 A 
ENDROOT
BRANCH   1   7
ATOM      7  C2  UNL d   1       0.479   2.364  -0.636  0.00  0.00     0.056 C 
BRANCH   7   8
ATOM      8  C1  UNL d   1      -0.042   1.090  -1.307  0.00  0.00     0.007 C 
ATOM      9  C   UNL d   1       1.070   0.169  -1.793  0.00  0.00     0.009 C 
ENDBRANCH   7   8
ENDBRANCH   1   7
TORSDOF 2
ENDMDL
