MODEL 1
REMARK minimizedAffinity -1.2952832
REMARK minimizedRMSD -1
REMARK  2 active torsions:
REMARK  status: ('A' for Active; 'I' for Inactive)
REMARK    1  A    between atoms: C1_2  and  C2_3 
REMARK    2  A    between atoms: C2_3  and  C3_4 
ROOT
ATOM      1  C3  UNL d   1       0.010   3.521   0.921  0.00  0.00    -0.075 A 
ATOM      2  C4  UNL d   1       0.422   3.806  -0.389  0.00  0.00     0.002 A 
ATOM      3  C5  UNL d   1       0.128   5.039  -0.972  0.00  0.00     0.002 A 
ATOM      4  C6  UNL d   1      -0.589   5.996  -0.258  0.00  0.00    -0.004 A 
ATOM      5  C7  UNL d   1      -1.018   5.718   1.038  0.00  0.00     0.002 A 
ATOM      6  C8  UNL d   1      -0.721   4.486   1.625  0.00  0.00     0.002 A 
ENDROOT
BRANCH   1   7
ATOM      7  C2  UNL d   1       0.351   2.199   1.568  0.00  0.00     0.056 C 
BRANCH   7   8
ATOM      8  C1  UNL d   1      -0.092   2.088   3.030  0.00  0.00     0.007 C 
ATOM      9  C   UNL d   1       0.180   0.719   3.638  0.00  0.00     0.009 C 
ENDBRANCH   7   8
ENDBRANCH   1   7
TORSDOF 2
ENDMDL
