MODEL 1
REMARK minimizedAffinity 3.64750457
REMARK minimizedRMSD -1
REMARK  0 active torsions:
REMARK  status: ('A' for Active; 'I' for Inactive)
ROOT
ATOM      1  C4' PXY d   1      -0.851   2.725  -5.770  0.00  0.00     0.077 C 
ATOM      2  C1' PXY d   1      -5.864   5.594  -5.991  0.00  0.00     0.077 C 
ATOM      3  C1  PXY d   1      -4.543   4.852  -5.939  0.00  0.00    -0.082 A 
ATOM      4  C2  PXY d   1      -4.538   3.532  -5.842  0.00  0.00     0.003 A 
ATOM      5  C3  PXY d   1      -3.353   2.847  -5.762  0.00  0.00     0.003 A 
ATOM      6  C4  PXY d   1      -2.160   3.516  -5.835  0.00  0.00    -0.082 A 
ATOM      7  C5  PXY d   1      -2.157   4.861  -5.945  0.00  0.00     0.003 A 
ATOM      8  C6  PXY d   1      -3.371   5.541  -5.983  0.00  0.00     0.003 A 
ENDROOT
TORSDOF 0
ENDMDL
