MODEL 1
REMARK minimizedAffinity -4.70861387
REMARK minimizedRMSD -1
REMARK  0 active torsions:
REMARK  status: ('A' for Active; 'I' for Inactive)
ROOT
ATOM      1  C4' PXY d   1       1.274   0.664   0.571  0.00  0.00     0.077 C 
ATOM      2  C1' PXY d   1      -4.471   1.276   0.377  0.00  0.00     0.077 C 
ATOM      3  C1  PXY d   1      -2.966   1.104   0.434  0.00  0.00    -0.082 A 
ATOM      4  C2  PXY d   1      -2.182   2.167   0.349  0.00  0.00     0.003 A 
ATOM      5  C3  PXY d   1      -0.818   2.027   0.367  0.00  0.00     0.003 A 
ATOM      6  C4  PXY d   1      -0.251   0.791   0.527  0.00  0.00    -0.082 A 
ATOM      7  C5  PXY d   1      -1.044  -0.298   0.626  0.00  0.00     0.003 A 
ATOM      8  C6  PXY d   1      -2.425  -0.138   0.564  0.00  0.00     0.003 A 
ENDROOT
TORSDOF 0
ENDMDL
