MODEL 1
REMARK minimizedAffinity 2.09322596
REMARK minimizedRMSD -1
REMARK  0 active torsions:
REMARK  status: ('A' for Active; 'I' for Inactive)
ROOT
ATOM      1  C4' PXY d   1       0.000   3.383  -5.967  0.00  0.00     0.077 C 
ATOM      2  C1' PXY d   1       5.771   3.052  -5.998  0.00  0.00     0.077 C 
ATOM      3  C1  PXY d   1       4.257   3.127  -5.995  0.00  0.00    -0.082 A 
ATOM      4  C2  PXY d   1       3.661   4.308  -5.986  0.00  0.00     0.003 A 
ATOM      5  C3  PXY d   1       2.293   4.394  -5.951  0.00  0.00     0.003 A 
ATOM      6  C4  PXY d   1       1.527   3.259  -5.980  0.00  0.00    -0.082 A 
ATOM      7  C5  PXY d   1       2.127   2.051  -6.000  0.00  0.00     0.003 A 
ATOM      8  C6  PXY d   1       3.518   1.984  -5.993  0.00  0.00     0.003 A 
ENDROOT
TORSDOF 0
ENDMDL
