MODEL 1
REMARK minimizedAffinity -2.27673364
REMARK minimizedRMSD -1
REMARK  0 active torsions:
REMARK  status: ('A' for Active; 'I' for Inactive)
ROOT
ATOM      1  C4' PXY d   1      -5.706   6.000  -5.965  0.00  0.00     0.077 C 
ATOM      2  C1' PXY d   1      -0.970   2.686  -6.000  0.00  0.00     0.077 C 
ATOM      3  C1  PXY d   1      -2.219   3.545  -5.996  0.00  0.00    -0.082 A 
ATOM      4  C2  PXY d   1      -2.106   4.863  -5.999  0.00  0.00     0.003 A 
ATOM      5  C3  PXY d   1      -3.225   5.656  -5.964  0.00  0.00     0.003 A 
ATOM      6  C4  PXY d   1      -4.473   5.093  -5.978  0.00  0.00    -0.082 A 
ATOM      7  C5  PXY d   1      -4.597   3.749  -5.986  0.00  0.00     0.003 A 
ATOM      8  C6  PXY d   1      -3.448   2.962  -5.980  0.00  0.00     0.003 A 
ENDROOT
TORSDOF 0
ENDMDL
