MODEL 1
REMARK minimizedAffinity 7.24640322
REMARK minimizedRMSD -1
REMARK  0 active torsions:
REMARK  status: ('A' for Active; 'I' for Inactive)
ROOT
ATOM      1  C4' PXY d   1      -0.353   3.586   1.194  0.00  0.00     0.077 C 
ATOM      2  C1' PXY d   1      -1.218  -2.105   0.664  0.00  0.00     0.077 C 
ATOM      3  C1  PXY d   1      -0.979  -0.615   0.805  0.00  0.00    -0.082 A 
ATOM      4  C2  PXY d   1      -1.980   0.179   1.149  0.00  0.00     0.003 A 
ATOM      5  C3  PXY d   1      -1.788   1.533   1.250  0.00  0.00     0.003 A 
ATOM      6  C4  PXY d   1      -0.547   2.074   1.049  0.00  0.00    -0.082 A 
ATOM      7  C5  PXY d   1       0.482   1.270   0.709  0.00  0.00     0.003 A 
ATOM      8  C6  PXY d   1       0.258  -0.097   0.571  0.00  0.00     0.003 A 
ENDROOT
TORSDOF 0
ENDMDL
