MODEL 1
REMARK minimizedAffinity 6.62949133
REMARK minimizedRMSD -1
REMARK  0 active torsions:
REMARK  status: ('A' for Active; 'I' for Inactive)
ROOT
ATOM      1  C4' PXY d   1       3.960   2.995   2.444  0.00  0.00     0.077 C 
ATOM      2  C1' PXY d   1      -1.634   3.407   3.842  0.00  0.00     0.077 C 
ATOM      3  C1  PXY d   1      -0.170   3.288   3.468  0.00  0.00    -0.082 A 
ATOM      4  C2  PXY d   1       0.754   3.775   4.280  0.00  0.00     0.003 A 
ATOM      5  C3  PXY d   1       2.081   3.705   3.942  0.00  0.00     0.003 A 
ATOM      6  C4  PXY d   1       2.470   3.083   2.786  0.00  0.00    -0.082 A 
ATOM      7  C5  PXY d   1       1.534   2.574   1.957  0.00  0.00     0.003 A 
ATOM      8  C6  PXY d   1       0.189   2.692   2.298  0.00  0.00     0.003 A 
ENDROOT
TORSDOF 0
ENDMDL
