MODEL 1
REMARK minimizedAffinity 4.66721439
REMARK minimizedRMSD -1
REMARK  0 active torsions:
REMARK  status: ('A' for Active; 'I' for Inactive)
ROOT
ATOM      1  C4' PXY d   1       1.126   0.369  -5.999  0.00  0.00     0.077 C 
ATOM      2  C1' PXY d   1       4.838   2.690  -2.225  0.00  0.00     0.077 C 
ATOM      3  C1  PXY d   1       3.868   2.070  -3.210  0.00  0.00    -0.082 A 
ATOM      4  C2  PXY d   1       3.516   2.743  -4.293  0.00  0.00     0.003 A 
ATOM      5  C3  PXY d   1       2.615   2.210  -5.179  0.00  0.00     0.003 A 
ATOM      6  C4  PXY d   1       2.110   0.953  -4.981  0.00  0.00    -0.082 A 
ATOM      7  C5  PXY d   1       2.473   0.255  -3.884  0.00  0.00     0.003 A 
ATOM      8  C6  PXY d   1       3.357   0.831  -2.976  0.00  0.00     0.003 A 
ENDROOT
TORSDOF 0
ENDMDL
