MODEL 1
REMARK minimizedAffinity 7.00917721
REMARK minimizedRMSD -1
REMARK  0 active torsions:
REMARK  status: ('A' for Active; 'I' for Inactive)
ROOT
ATOM      1  C4' PXY d   1      -0.194   2.757  -1.524  0.00  0.00     0.077 C 
ATOM      2  C1' PXY d   1      -1.570   2.894   4.089  0.00  0.00     0.077 C 
ATOM      3  C1  PXY d   1      -1.211   2.845   2.617  0.00  0.00    -0.082 A 
ATOM      4  C2  PXY d   1      -0.443   3.790   2.099  0.00  0.00     0.003 A 
ATOM      5  C3  PXY d   1      -0.135   3.778   0.763  0.00  0.00     0.003 A 
ATOM      6  C4  PXY d   1      -0.574   2.760  -0.041  0.00  0.00    -0.082 A 
ATOM      7  C5  PXY d   1      -1.349   1.787   0.482  0.00  0.00     0.003 A 
ATOM      8  C6  PXY d   1      -1.684   1.839   1.832  0.00  0.00     0.003 A 
ENDROOT
TORSDOF 0
ENDMDL
