MODEL 1
REMARK minimizedAffinity 5.19320631
REMARK minimizedRMSD -1
REMARK  0 active torsions:
REMARK  status: ('A' for Active; 'I' for Inactive)
ROOT
ATOM      1  C4' PXY d   1       3.360   2.960   2.296  0.00  0.00     0.077 C 
ATOM      2  C1' PXY d   1      -1.945   1.414   0.598  0.00  0.00     0.077 C 
ATOM      3  C1  PXY d   1      -0.558   1.831   1.046  0.00  0.00    -0.082 A 
ATOM      4  C2  PXY d   1       0.500   1.179   0.592  0.00  0.00     0.003 A 
ATOM      5  C3  PXY d   1       1.759   1.523   1.011  0.00  0.00     0.003 A 
ATOM      6  C4  PXY d   1       1.942   2.579   1.864  0.00  0.00    -0.082 A 
ATOM      7  C5  PXY d   1       0.868   3.256   2.323  0.00  0.00     0.003 A 
ATOM      8  C6  PXY d   1      -0.405   2.865   1.917  0.00  0.00     0.003 A 
ENDROOT
TORSDOF 0
ENDMDL
