MODEL 1
REMARK minimizedAffinity 0.0341308378
REMARK minimizedRMSD -1
REMARK  0 active torsions:
REMARK  status: ('A' for Active; 'I' for Inactive)
ROOT
ATOM      1  C4' PXY d   1      -0.581   3.017  -5.862  0.00  0.00     0.077 C 
ATOM      2  C1' PXY d   1      -5.532   5.998  -6.000  0.00  0.00     0.077 C 
ATOM      3  C1  PXY d   1      -4.240   5.206  -5.959  0.00  0.00    -0.082 A 
ATOM      4  C2  PXY d   1      -3.083   5.845  -5.897  0.00  0.00     0.003 A 
ATOM      5  C3  PXY d   1      -1.904   5.145  -5.891  0.00  0.00     0.003 A 
ATOM      6  C4  PXY d   1      -1.911   3.776  -5.895  0.00  0.00    -0.082 A 
ATOM      7  C5  PXY d   1      -3.087   3.116  -5.948  0.00  0.00     0.003 A 
ATOM      8  C6  PXY d   1      -4.272   3.846  -5.994  0.00  0.00     0.003 A 
ENDROOT
TORSDOF 0
ENDMDL
