MODEL 1
REMARK minimizedAffinity -0.952755988
REMARK minimizedRMSD -1
REMARK  0 active torsions:
REMARK  status: ('A' for Active; 'I' for Inactive)
ROOT
ATOM      1  C4' PXY d   1      -1.740   1.528   0.377  0.00  0.00     0.077 C 
ATOM      2  C1' PXY d   1       3.595   3.010   2.038  0.00  0.00     0.077 C 
ATOM      3  C1  PXY d   1       2.200   2.617   1.591  0.00  0.00    -0.082 A 
ATOM      4  C2  PXY d   1       1.150   3.231   2.110  0.00  0.00     0.003 A 
ATOM      5  C3  PXY d   1      -0.120   2.866   1.741  0.00  0.00     0.003 A 
ATOM      6  C4  PXY d   1      -0.314   1.899   0.792  0.00  0.00    -0.082 A 
ATOM      7  C5  PXY d   1       0.754   1.275   0.250  0.00  0.00     0.003 A 
ATOM      8  C6  PXY d   1       2.032   1.631   0.668  0.00  0.00     0.003 A 
ENDROOT
TORSDOF 0
ENDMDL
