MODEL 1
REMARK minimizedAffinity 3.53092384
REMARK minimizedRMSD -1
REMARK  0 active torsions:
REMARK  status: ('A' for Active; 'I' for Inactive)
ROOT
ATOM      1  C4' PXY d   1      -2.180  -4.103  -1.540  0.00  0.00     0.077 C 
ATOM      2  C1' PXY d   1       1.681  -0.110   0.063  0.00  0.00     0.077 C 
ATOM      3  C1  PXY d   1       0.672  -1.155  -0.370  0.00  0.00    -0.082 A 
ATOM      4  C2  PXY d   1      -0.355  -1.438   0.415  0.00  0.00     0.003 A 
ATOM      5  C3  PXY d   1      -1.260  -2.403   0.054  0.00  0.00     0.003 A 
ATOM      6  C4  PXY d   1      -1.141  -3.048  -1.148  0.00  0.00    -0.082 A 
ATOM      7  C5  PXY d   1      -0.102  -2.758  -1.959  0.00  0.00     0.003 A 
ATOM      8  C6  PXY d   1       0.828  -1.805  -1.556  0.00  0.00     0.003 A 
ENDROOT
TORSDOF 0
ENDMDL
