MODEL 1
REMARK minimizedAffinity 1.97429335
REMARK minimizedRMSD -1
REMARK  0 active torsions:
REMARK  status: ('A' for Active; 'I' for Inactive)
ROOT
ATOM      1  C4' PXY d   1       2.943   3.027   2.145  0.00  0.00     0.077 C 
ATOM      2  C1' PXY d   1      -2.082   0.714   0.468  0.00  0.00     0.077 C 
ATOM      3  C1  PXY d   1      -0.758   1.309   0.906  0.00  0.00    -0.082 A 
ATOM      4  C2  PXY d   1      -0.748   2.394   1.664  0.00  0.00     0.003 A 
ATOM      5  C3  PXY d   1       0.441   2.963   2.042  0.00  0.00     0.003 A 
ATOM      6  C4  PXY d   1       1.630   2.387   1.686  0.00  0.00    -0.082 A 
ATOM      7  C5  PXY d   1       1.628   1.274   0.922  0.00  0.00     0.003 A 
ATOM      8  C6  PXY d   1       0.411   0.735   0.514  0.00  0.00     0.003 A 
ENDROOT
TORSDOF 0
ENDMDL
