MODEL 1
REMARK minimizedAffinity -3.51368618
REMARK minimizedRMSD -1
REMARK  0 active torsions:
REMARK  status: ('A' for Active; 'I' for Inactive)
ROOT
ATOM      1  C4' PXY d   1      -5.443   6.000  -4.880  0.00  0.00     0.077 C 
ATOM      2  C1' PXY d   1      -1.065   2.395  -6.000  0.00  0.00     0.077 C 
ATOM      3  C1  PXY d   1      -2.205   3.346  -5.697  0.00  0.00    -0.082 A 
ATOM      4  C2  PXY d   1      -3.449   2.981  -5.960  0.00  0.00     0.003 A 
ATOM      5  C3  PXY d   1      -4.490   3.841  -5.723  0.00  0.00     0.003 A 
ATOM      6  C4  PXY d   1      -4.260   5.068  -5.160  0.00  0.00    -0.082 A 
ATOM      7  C5  PXY d   1      -2.995   5.444  -4.879  0.00  0.00     0.003 A 
ATOM      8  C6  PXY d   1      -1.949   4.573  -5.166  0.00  0.00     0.003 A 
ENDROOT
TORSDOF 0
ENDMDL
