MODEL 1
REMARK minimizedAffinity -1.42221737
REMARK minimizedRMSD -1
REMARK  0 active torsions:
REMARK  status: ('A' for Active; 'I' for Inactive)
ROOT
ATOM      1  C4' PXY d   1      -3.557   1.368   1.020  0.00  0.00     0.077 C 
ATOM      2  C1' PXY d   1       2.182   0.917   0.503  0.00  0.00     0.077 C 
ATOM      3  C1  PXY d   1       0.679   1.047   0.645  0.00  0.00    -0.082 A 
ATOM      4  C2  PXY d   1      -0.076  -0.040   0.629  0.00  0.00     0.003 A 
ATOM      5  C3  PXY d   1      -1.440   0.061   0.724  0.00  0.00     0.003 A 
ATOM      6  C4  PXY d   1      -2.034   1.284   0.890  0.00  0.00    -0.082 A 
ATOM      7  C5  PXY d   1      -1.270   2.396   0.918  0.00  0.00     0.003 A 
ATOM      8  C6  PXY d   1       0.109   2.275   0.779  0.00  0.00     0.003 A 
ENDROOT
TORSDOF 0
ENDMDL
