MODEL 1
REMARK minimizedAffinity 3.73428607
REMARK minimizedRMSD -1
REMARK  0 active torsions:
REMARK  status: ('A' for Active; 'I' for Inactive)
ROOT
ATOM      1  C4' PXY d   1      -2.132  -3.426  -1.887  0.00  0.00     0.077 C 
ATOM      2  C1' PXY d   1       1.782   0.191   0.350  0.00  0.00     0.077 C 
ATOM      3  C1  PXY d   1       0.760  -0.755  -0.248  0.00  0.00    -0.082 A 
ATOM      4  C2  PXY d   1      -0.345  -1.034   0.423  0.00  0.00     0.003 A 
ATOM      5  C3  PXY d   1      -1.265  -1.913  -0.089  0.00  0.00     0.003 A 
ATOM      6  C4  PXY d   1      -1.077  -2.470  -1.326  0.00  0.00    -0.082 A 
ATOM      7  C5  PXY d   1       0.043  -2.181  -2.022  0.00  0.00     0.003 A 
ATOM      8  C6  PXY d   1       0.984  -1.319  -1.466  0.00  0.00     0.003 A 
ENDROOT
TORSDOF 0
ENDMDL
