MODEL 1
REMARK minimizedAffinity 0.201353401
REMARK minimizedRMSD -1
REMARK  0 active torsions:
REMARK  status: ('A' for Active; 'I' for Inactive)
ROOT
ATOM      1  C4' PXY d   1      -1.119   2.699  -5.976  0.00  0.00     0.077 C 
ATOM      2  C1' PXY d   1      -5.866   5.998  -6.000  0.00  0.00     0.077 C 
ATOM      3  C1  PXY d   1      -4.628   5.123  -5.988  0.00  0.00    -0.082 A 
ATOM      4  C2  PXY d   1      -3.430   5.685  -5.976  0.00  0.00     0.003 A 
ATOM      5  C3  PXY d   1      -2.300   4.908  -5.998  0.00  0.00     0.003 A 
ATOM      6  C4  PXY d   1      -2.397   3.543  -5.978  0.00  0.00    -0.082 A 
ATOM      7  C5  PXY d   1      -3.615   2.962  -5.980  0.00  0.00     0.003 A 
ATOM      8  C6  PXY d   1      -4.750   3.768  -6.000  0.00  0.00     0.003 A 
ENDROOT
TORSDOF 0
ENDMDL
