MODEL 1
REMARK minimizedAffinity 1.47070229
REMARK minimizedRMSD -1
REMARK  0 active torsions:
REMARK  status: ('A' for Active; 'I' for Inactive)
ROOT
ATOM      1  C4' PXY d   1      -4.201   0.762   1.455  0.00  0.00     0.077 C 
ATOM      2  C1' PXY d   1       1.498   1.066   0.537  0.00  0.00     0.077 C 
ATOM      3  C1  PXY d   1       0.003   0.975   0.771  0.00  0.00    -0.082 A 
ATOM      4  C2  PXY d   1      -0.683   2.071   1.051  0.00  0.00     0.003 A 
ATOM      5  C3  PXY d   1      -2.030   2.003   1.297  0.00  0.00     0.003 A 
ATOM      6  C4  PXY d   1      -2.692   0.808   1.202  0.00  0.00    -0.082 A 
ATOM      7  C5  PXY d   1      -2.001  -0.314   0.906  0.00  0.00     0.003 A 
ATOM      8  C6  PXY d   1      -0.627  -0.229   0.701  0.00  0.00     0.003 A 
ENDROOT
TORSDOF 0
ENDMDL
