MODEL 1
REMARK minimizedAffinity 0.927208006
REMARK minimizedRMSD -1
REMARK  0 active torsions:
REMARK  status: ('A' for Active; 'I' for Inactive)
ROOT
ATOM      1  C4' PXY d   1      -4.873   5.980  -5.979  0.00  0.00     0.077 C 
ATOM      2  C1' PXY d   1      -0.426   2.287  -5.996  0.00  0.00     0.077 C 
ATOM      3  C1  PXY d   1      -1.584   3.265  -5.987  0.00  0.00    -0.082 A 
ATOM      4  C2  PXY d   1      -2.826   2.808  -5.976  0.00  0.00     0.003 A 
ATOM      5  C3  PXY d   1      -3.885   3.678  -5.999  0.00  0.00     0.003 A 
ATOM      6  C4  PXY d   1      -3.672   5.030  -5.980  0.00  0.00    -0.082 A 
ATOM      7  C5  PXY d   1      -2.408   5.504  -5.980  0.00  0.00     0.003 A 
ATOM      8  C6  PXY d   1      -1.346   4.605  -5.998  0.00  0.00     0.003 A 
ENDROOT
TORSDOF 0
ENDMDL
