MODEL 1
REMARK minimizedAffinity 3.40506768
REMARK minimizedRMSD -1
REMARK  0 active torsions:
REMARK  status: ('A' for Active; 'I' for Inactive)
ROOT
ATOM      1  C4' PXY d   1       1.974   2.834   2.252  0.00  0.00     0.077 C 
ATOM      2  C1' PXY d   1      -3.235   1.109   0.434  0.00  0.00     0.077 C 
ATOM      3  C1  PXY d   1      -1.873   1.573   0.911  0.00  0.00    -0.082 A 
ATOM      4  C2  PXY d   1      -0.803   0.841   0.648  0.00  0.00     0.003 A 
ATOM      5  C3  PXY d   1       0.432   1.230   1.100  0.00  0.00     0.003 A 
ATOM      6  C4  PXY d   1       0.581   2.408   1.782  0.00  0.00    -0.082 A 
ATOM      7  C5  PXY d   1      -0.505   3.166   2.045  0.00  0.00     0.003 A 
ATOM      8  C6  PXY d   1      -1.755   2.733   1.613  0.00  0.00     0.003 A 
ENDROOT
TORSDOF 0
ENDMDL
