MODEL 1
REMARK minimizedAffinity 0.617677808
REMARK minimizedRMSD -1
REMARK  1 active torsions:
REMARK  status: ('A' for Active; 'I' for Inactive)
REMARK    1  A    between atoms: N_2  and  C1_3 
ROOT
ATOM      1  C1  UNL d   1      -1.621   2.523  -4.269  0.00  0.00     0.143 A 
ATOM      2  C2  UNL d   1      -2.047   1.303  -3.733  0.00  0.00    -0.057 A 
ATOM      3  C3  UNL d   1      -3.283   1.186  -3.086  0.00  0.00     0.033 A 
ATOM      4  C4  UNL d   1      -4.105   2.298  -2.937  0.00  0.00    -0.042 A 
ATOM      5  C5  UNL d   1      -3.691   3.526  -3.439  0.00  0.00     0.033 A 
ATOM      6  C6  UNL d   1      -2.458   3.635  -4.090  0.00  0.00    -0.057 A 
ENDROOT
BRANCH   1   7
ATOM      7  N   UNL d   1      -0.361   2.726  -4.836  0.00  0.00    -0.732 N 
ATOM      8  C   UNL d   1      -0.201   3.585  -5.990  0.00  0.00     0.284 C 
ATOM      9  H3  UNL d   1       0.369   2.832  -4.135  0.00  0.00     0.395 HD
ENDBRANCH   1   7
TORSDOF 1
ENDMDL
