MODEL 1
REMARK minimizedAffinity 7.25267553
REMARK minimizedRMSD -1
REMARK  1 active torsions:
REMARK  status: ('A' for Active; 'I' for Inactive)
REMARK    1  A    between atoms: N_2  and  C1_3 
ROOT
ATOM      1  C1  UNL d   1      -1.524   3.361  -4.443  0.00  0.00     0.143 A 
ATOM      2  C2  UNL d   1      -0.790   2.170  -4.478  0.00  0.00    -0.057 A 
ATOM      3  C3  UNL d   1       0.382   2.062  -5.235  0.00  0.00     0.033 A 
ATOM      4  C4  UNL d   1       0.826   3.137  -5.998  0.00  0.00    -0.042 A 
ATOM      5  C5  UNL d   1       0.099   4.322  -5.999  0.00  0.00     0.033 A 
ATOM      6  C6  UNL d   1      -1.067   4.426  -5.235  0.00  0.00    -0.057 A 
ENDROOT
BRANCH   1   7
ATOM      7  N   UNL d   1      -2.750   3.500  -3.788  0.00  0.00    -0.732 N 
ATOM      8  C   UNL d   1      -3.418   2.348  -3.222  0.00  0.00     0.284 C 
ATOM      9  H3  UNL d   1      -2.785   4.331  -3.202  0.00  0.00     0.395 HD
ENDBRANCH   1   7
TORSDOF 1
ENDMDL
