MODEL 1
REMARK minimizedAffinity 12.006217
REMARK minimizedRMSD -1
REMARK  1 active torsions:
REMARK  status: ('A' for Active; 'I' for Inactive)
REMARK    1  A    between atoms: N_2  and  C1_3 
ROOT
ATOM      1  C1  UNL d   1       3.582  -4.047   0.055  0.00  0.00     0.143 A 
ATOM      2  C2  UNL d   1       3.334  -3.651   1.373  0.00  0.00    -0.057 A 
ATOM      3  C3  UNL d   1       2.211  -2.880   1.701  0.00  0.00     0.033 A 
ATOM      4  C4  UNL d   1       1.330  -2.467   0.707  0.00  0.00    -0.042 A 
ATOM      5  C5  UNL d   1       1.570  -2.828  -0.614  0.00  0.00     0.033 A 
ATOM      6  C6  UNL d   1       2.689  -3.603  -0.934  0.00  0.00    -0.057 A 
ENDROOT
BRANCH   1   7
ATOM      7  N   UNL d   1       4.732  -4.730  -0.349  0.00  0.00    -0.732 N 
ATOM      8  C   UNL d   1       5.997  -4.498   0.314  0.00  0.00     0.284 C 
ATOM      9  H3  UNL d   1       4.548  -5.707  -0.564  0.00  0.00     0.395 HD
ENDBRANCH   1   7
TORSDOF 1
ENDMDL
