MODEL 1
REMARK minimizedAffinity 9.10644531
REMARK minimizedRMSD -1
REMARK  1 active torsions:
REMARK  status: ('A' for Active; 'I' for Inactive)
REMARK    1  A    between atoms: N_2  and  C1_3 
ROOT
ATOM      1  C1  UNL d   1       3.173  -3.746   0.384  0.00  0.00     0.143 A 
ATOM      2  C2  UNL d   1       3.902  -4.889   0.728  0.00  0.00    -0.057 A 
ATOM      3  C3  UNL d   1       5.302  -4.882   0.739  0.00  0.00     0.033 A 
ATOM      4  C4  UNL d   1       6.000  -3.735   0.376  0.00  0.00    -0.042 A 
ATOM      5  C5  UNL d   1       5.296  -2.594   0.006  0.00  0.00     0.033 A 
ATOM      6  C6  UNL d   1       3.898  -2.606   0.004  0.00  0.00    -0.057 A 
ENDROOT
BRANCH   1   7
ATOM      7  N   UNL d   1       1.781  -3.718   0.260  0.00  0.00    -0.732 N 
ATOM      8  C   UNL d   1       1.055  -2.472   0.378  0.00  0.00     0.284 C 
ATOM      9  H3  UNL d   1       1.446  -4.326  -0.483  0.00  0.00     0.395 HD
ENDBRANCH   1   7
TORSDOF 1
ENDMDL
