MODEL 1
REMARK minimizedAffinity 4.87590408
REMARK minimizedRMSD -1
REMARK  1 active torsions:
REMARK  status: ('A' for Active; 'I' for Inactive)
REMARK    1  A    between atoms: N_2  and  C1_3 
ROOT
ATOM      1  C1  UNL d   1      -1.143   3.555  -4.383  0.00  0.00     0.143 A 
ATOM      2  C2  UNL d   1      -0.404   2.371  -4.282  0.00  0.00    -0.057 A 
ATOM      3  C3  UNL d   1       0.782   2.191  -5.003  0.00  0.00     0.033 A 
ATOM      4  C4  UNL d   1       1.237   3.184  -5.864  0.00  0.00    -0.042 A 
ATOM      5  C5  UNL d   1       0.506   4.359  -6.000  0.00  0.00     0.033 A 
ATOM      6  C6  UNL d   1      -0.674   4.535  -5.272  0.00  0.00    -0.057 A 
ENDROOT
BRANCH   1   7
ATOM      7  N   UNL d   1      -2.381   3.754  -3.768  0.00  0.00    -0.732 N 
ATOM      8  C   UNL d   1      -3.078   2.652  -3.140  0.00  0.00     0.284 C 
ATOM      9  H3  UNL d   1      -2.417   4.623  -3.240  0.00  0.00     0.395 HD
ENDBRANCH   1   7
TORSDOF 1
ENDMDL
