MODEL 1
REMARK minimizedAffinity 6.14772129
REMARK minimizedRMSD -1
REMARK  1 active torsions:
REMARK  status: ('A' for Active; 'I' for Inactive)
REMARK    1  A    between atoms: N_2  and  C1_3 
ROOT
ATOM      1  C1  UNL d   1      -2.050   3.417  -3.542  0.00  0.00     0.143 A 
ATOM      2  C2  UNL d   1      -1.844   3.611  -2.172  0.00  0.00    -0.057 A 
ATOM      3  C3  UNL d   1      -2.652   2.979  -1.219  0.00  0.00     0.033 A 
ATOM      4  C4  UNL d   1      -3.704   2.163  -1.622  0.00  0.00    -0.042 A 
ATOM      5  C5  UNL d   1      -3.943   1.976  -2.979  0.00  0.00     0.033 A 
ATOM      6  C6  UNL d   1      -3.128   2.604  -3.925  0.00  0.00    -0.057 A 
ENDROOT
BRANCH   1   7
ATOM      7  N   UNL d   1      -1.343   4.094  -4.538  0.00  0.00    -0.732 N 
ATOM      8  C   UNL d   1      -0.434   3.382  -5.410  0.00  0.00     0.284 C 
ATOM      9  H3  UNL d   1      -1.911   4.793  -5.012  0.00  0.00     0.395 HD
ENDBRANCH   1   7
TORSDOF 1
ENDMDL
