MODEL 1
REMARK minimizedAffinity 1.646837
REMARK minimizedRMSD -1
REMARK  1 active torsions:
REMARK  status: ('A' for Active; 'I' for Inactive)
REMARK    1  A    between atoms: N_2  and  C1_3 
ROOT
ATOM      1  C1  UNL d   1      -1.414   2.686  -4.518  0.00  0.00     0.143 A 
ATOM      2  C2  UNL d   1      -1.149   1.364  -4.145  0.00  0.00    -0.057 A 
ATOM      3  C3  UNL d   1       0.057   0.741  -4.490  0.00  0.00     0.033 A 
ATOM      4  C4  UNL d   1       1.009   1.421  -5.242  0.00  0.00    -0.042 A 
ATOM      5  C5  UNL d   1       0.756   2.728  -5.645  0.00  0.00     0.033 A 
ATOM      6  C6  UNL d   1      -0.447   3.347  -5.292  0.00  0.00    -0.057 A 
ENDROOT
BRANCH   1   7
ATOM      7  N   UNL d   1      -2.633   3.329  -4.291  0.00  0.00    -0.732 N 
ATOM      8  C   UNL d   1      -3.635   2.728  -3.437  0.00  0.00     0.284 C 
ATOM      9  H3  UNL d   1      -2.526   4.333  -4.162  0.00  0.00     0.395 HD
ENDBRANCH   1   7
TORSDOF 1
ENDMDL
