MODEL 1
REMARK minimizedAffinity -2.79487133
REMARK minimizedRMSD -1
REMARK  1 active torsions:
REMARK  status: ('A' for Active; 'I' for Inactive)
REMARK    1  A    between atoms: N_2  and  C1_3 
ROOT
ATOM      1  C1  UNL d   1       0.834  -1.823   0.815  0.00  0.00     0.143 A 
ATOM      2  C2  UNL d   1       1.296  -0.538   1.118  0.00  0.00    -0.057 A 
ATOM      3  C3  UNL d   1       0.485   0.387   1.786  0.00  0.00     0.033 A 
ATOM      4  C4  UNL d   1      -0.819   0.051   2.137  0.00  0.00    -0.042 A 
ATOM      5  C5  UNL d   1      -1.308  -1.212   1.823  0.00  0.00     0.033 A 
ATOM      6  C6  UNL d   1      -0.490  -2.133   1.162  0.00  0.00    -0.057 A 
ENDROOT
BRANCH   1   7
ATOM      7  N   UNL d   1       1.558  -2.754   0.065  0.00  0.00    -0.732 N 
ATOM      8  C   UNL d   1       2.626  -3.519   0.673  0.00  0.00     0.284 C 
ATOM      9  H3  UNL d   1       0.965  -3.293  -0.562  0.00  0.00     0.395 HD
ENDBRANCH   1   7
TORSDOF 1
ENDMDL
