MODEL 1
REMARK minimizedAffinity 10.7572041
REMARK minimizedRMSD -1
REMARK  1 active torsions:
REMARK  status: ('A' for Active; 'I' for Inactive)
REMARK    1  A    between atoms: C1_2  and  C2_3 
ROOT
ATOM      1  C2  UNL d   1       0.713   0.342   3.310  0.00  0.00    -0.073 A 
ATOM      2  C3  UNL d   1       0.031   0.885   2.215  0.00  0.00    -0.002 A 
ATOM      3  C4  UNL d   1      -0.675   2.081   2.348  0.00  0.00     0.004 A 
ATOM      4  C5  UNL d   1      -0.701   2.749   3.572  0.00  0.00    -0.004 A 
ATOM      5  C6  UNL d   1      -0.016   2.228   4.675  0.00  0.00    -0.075 A 
ATOM      6  C7  UNL d   1      -0.035   2.933   5.999  0.00  0.00     0.076 C 
ATOM      7  C8  UNL d   1       0.689   1.025   4.534  0.00  0.00     0.001 A 
ENDROOT
BRANCH   1   8
ATOM      8  C1  UNL d   1       1.482  -0.947   3.170  0.00  0.00     0.053 C 
ATOM      9  C   UNL d   1       1.436  -1.780   4.441  0.00  0.00     0.018 C 
ENDBRANCH   1   8
TORSDOF 1
ENDMDL
