MODEL 1
REMARK minimizedAffinity 1.35832882
REMARK minimizedRMSD -1
REMARK  1 active torsions:
REMARK  status: ('A' for Active; 'I' for Inactive)
REMARK    1  A    between atoms: C1_2  and  C2_3 
ROOT
ATOM      1  C2  UNL d   1       3.708  -0.108  -5.234  0.00  0.00    -0.073 A 
ATOM      2  C3  UNL d   1       4.216  -1.307  -5.748  0.00  0.00    -0.002 A 
ATOM      3  C4  UNL d   1       3.364  -2.383  -6.000  0.00  0.00     0.004 A 
ATOM      4  C5  UNL d   1       1.997  -2.270  -5.749  0.00  0.00    -0.004 A 
ATOM      5  C6  UNL d   1       1.468  -1.076  -5.247  0.00  0.00    -0.075 A 
ATOM      6  C7  UNL d   1       0.000  -0.938  -4.969  0.00  0.00     0.076 C 
ATOM      7  C8  UNL d   1       2.331  -0.001  -4.994  0.00  0.00     0.001 A 
ENDROOT
BRANCH   1   8
ATOM      8  C1  UNL d   1       4.623   1.059  -4.967  0.00  0.00     0.053 C 
ATOM      9  C   UNL d   1       5.769   1.125  -5.964  0.00  0.00     0.018 C 
ENDBRANCH   1   8
TORSDOF 1
ENDMDL
