MODEL 1
REMARK minimizedAffinity 14.0297146
REMARK minimizedRMSD -1
REMARK  1 active torsions:
REMARK  status: ('A' for Active; 'I' for Inactive)
REMARK    1  A    between atoms: C1_2  and  C2_3 
ROOT
ATOM      1  C2  UNL d   1       2.508  -0.819   4.375  0.00  0.00    -0.073 A 
ATOM      2  C3  UNL d   1       3.111  -1.710   5.270  0.00  0.00    -0.002 A 
ATOM      3  C4  UNL d   1       4.341  -1.400   5.851  0.00  0.00     0.004 A 
ATOM      4  C5  UNL d   1       4.977  -0.195   5.550  0.00  0.00    -0.004 A 
ATOM      5  C6  UNL d   1       4.384   0.713   4.667  0.00  0.00    -0.075 A 
ATOM      6  C7  UNL d   1       5.056   2.012   4.330  0.00  0.00     0.076 C 
ATOM      7  C8  UNL d   1       3.150   0.393   4.085  0.00  0.00     0.001 A 
ENDROOT
BRANCH   1   8
ATOM      8  C1  UNL d   1       1.176  -1.146   3.750  0.00  0.00     0.053 C 
ATOM      9  C   UNL d   1       0.584   0.045   3.014  0.00  0.00     0.018 C 
ENDBRANCH   1   8
TORSDOF 1
ENDMDL
