MODEL 1
REMARK minimizedAffinity 6.42333269
REMARK minimizedRMSD -1
REMARK  1 active torsions:
REMARK  status: ('A' for Active; 'I' for Inactive)
REMARK    1  A    between atoms: C1_2  and  C2_3 
ROOT
ATOM      1  C2  UNL d   1      -1.241  -3.962  -3.730  0.00  0.00    -0.073 A 
ATOM      2  C3  UNL d   1      -1.327  -4.061  -2.337  0.00  0.00    -0.002 A 
ATOM      3  C4  UNL d   1      -0.949  -2.987  -1.530  0.00  0.00     0.004 A 
ATOM      4  C5  UNL d   1      -0.489  -1.803  -2.106  0.00  0.00    -0.004 A 
ATOM      5  C6  UNL d   1      -0.408  -1.681  -3.497  0.00  0.00    -0.075 A 
ATOM      6  C7  UNL d   1       0.086  -0.415  -4.133  0.00  0.00     0.076 C 
ATOM      7  C8  UNL d   1      -0.787  -2.764  -4.301  0.00  0.00     0.001 A 
ENDROOT
BRANCH   1   8
ATOM      8  C1  UNL d   1      -1.654  -5.116  -4.606  0.00  0.00     0.053 C 
ATOM      9  C   UNL d   1      -2.056  -4.659  -6.000  0.00  0.00     0.018 C 
ENDBRANCH   1   8
TORSDOF 1
ENDMDL
