MODEL 1
REMARK minimizedAffinity 6.83198023
REMARK minimizedRMSD -1
REMARK  1 active torsions:
REMARK  status: ('A' for Active; 'I' for Inactive)
REMARK    1  A    between atoms: C1_2  and  C2_3 
ROOT
ATOM      1  C2  UNL d   1       0.002  -1.120   2.281  0.00  0.00    -0.073 A 
ATOM      2  C3  UNL d   1       0.332   0.184   2.669  0.00  0.00    -0.002 A 
ATOM      3  C4  UNL d   1       1.161   0.403   3.770  0.00  0.00     0.004 A 
ATOM      4  C5  UNL d   1       1.673  -0.676   4.489  0.00  0.00    -0.004 A 
ATOM      5  C6  UNL d   1       1.365  -1.987   4.110  0.00  0.00    -0.075 A 
ATOM      6  C7  UNL d   1       1.906  -3.159   4.875  0.00  0.00     0.076 C 
ATOM      7  C8  UNL d   1       0.529  -2.199   3.005  0.00  0.00     0.001 A 
ENDROOT
BRANCH   1   8
ATOM      8  C1  UNL d   1      -0.887  -1.362   1.089  0.00  0.00     0.053 C 
ATOM      9  C   UNL d   1      -0.103  -1.855  -0.116  0.00  0.00     0.018 C 
ENDBRANCH   1   8
TORSDOF 1
ENDMDL
