MODEL 1
REMARK minimizedAffinity 7.88340187
REMARK minimizedRMSD -1
REMARK  1 active torsions:
REMARK  status: ('A' for Active; 'I' for Inactive)
REMARK    1  A    between atoms: C1_2  and  C2_3 
ROOT
ATOM      1  C2  UNL d   1      -1.705  -3.680  -3.437  0.00  0.00    -0.073 A 
ATOM      2  C3  UNL d   1      -1.989  -3.671  -2.067  0.00  0.00    -0.002 A 
ATOM      3  C4  UNL d   1      -1.551  -2.616  -1.264  0.00  0.00     0.004 A 
ATOM      4  C5  UNL d   1      -0.833  -1.559  -1.823  0.00  0.00    -0.004 A 
ATOM      5  C6  UNL d   1      -0.550  -1.545  -3.193  0.00  0.00    -0.075 A 
ATOM      6  C7  UNL d   1       0.223  -0.417  -3.809  0.00  0.00     0.076 C 
ATOM      7  C8  UNL d   1      -0.990  -2.609  -3.992  0.00  0.00     0.001 A 
ENDROOT
BRANCH   1   8
ATOM      8  C1  UNL d   1      -2.181  -4.813  -4.309  0.00  0.00     0.053 C 
ATOM      9  C   UNL d   1      -1.925  -4.544  -5.784  0.00  0.00     0.018 C 
ENDBRANCH   1   8
TORSDOF 1
ENDMDL
