MODEL 1
REMARK minimizedAffinity 8.97156906
REMARK minimizedRMSD -1
REMARK  1 active torsions:
REMARK  status: ('A' for Active; 'I' for Inactive)
REMARK    1  A    between atoms: C1_2  and  C2_3 
ROOT
ATOM      1  C2  UNL d   1      -2.746  -0.553   0.984  0.00  0.00    -0.073 A 
ATOM      2  C3  UNL d   1      -2.780   0.618   1.749  0.00  0.00    -0.002 A 
ATOM      3  C4  UNL d   1      -3.497   1.730   1.304  0.00  0.00     0.004 A 
ATOM      4  C5  UNL d   1      -4.191   1.680   0.095  0.00  0.00    -0.004 A 
ATOM      5  C6  UNL d   1      -4.178   0.515  -0.678  0.00  0.00    -0.075 A 
ATOM      6  C7  UNL d   1      -4.917   0.446  -1.982  0.00  0.00     0.076 C 
ATOM      7  C8  UNL d   1      -3.454  -0.597  -0.226  0.00  0.00     0.001 A 
ENDROOT
BRANCH   1   8
ATOM      8  C1  UNL d   1      -1.979  -1.758   1.463  0.00  0.00     0.053 C 
ATOM      9  C   UNL d   1      -0.479  -1.509   1.481  0.00  0.00     0.018 C 
ENDBRANCH   1   8
TORSDOF 1
ENDMDL
