MODEL 1
REMARK minimizedAffinity 4.88683701
REMARK minimizedRMSD -1
REMARK  1 active torsions:
REMARK  status: ('A' for Active; 'I' for Inactive)
REMARK    1  A    between atoms: C1_2  and  C2_3 
ROOT
ATOM      1  C2  UNL d   1      -0.747   0.340   2.295  0.00  0.00    -0.073 A 
ATOM      2  C3  UNL d   1      -0.604  -0.817   1.521  0.00  0.00    -0.002 A 
ATOM      3  C4  UNL d   1       0.393  -1.747   1.820  0.00  0.00     0.004 A 
ATOM      4  C5  UNL d   1       1.251  -1.533   2.899  0.00  0.00    -0.004 A 
ATOM      5  C6  UNL d   1       1.117  -0.389   3.692  0.00  0.00    -0.075 A 
ATOM      6  C7  UNL d   1       2.033  -0.144   4.854  0.00  0.00     0.076 C 
ATOM      7  C8  UNL d   1       0.115   0.541   3.383  0.00  0.00     0.001 A 
ENDROOT
BRANCH   1   8
ATOM      8  C1  UNL d   1      -1.825   1.344   1.980  0.00  0.00     0.053 C 
ATOM      9  C   UNL d   1      -3.044   0.691   1.348  0.00  0.00     0.018 C 
ENDBRANCH   1   8
TORSDOF 1
ENDMDL
