MODEL 1
REMARK minimizedAffinity 7.18362284
REMARK minimizedRMSD -1
REMARK  1 active torsions:
REMARK  status: ('A' for Active; 'I' for Inactive)
REMARK    1  A    between atoms: C1_2  and  C2_3 
ROOT
ATOM      1  C2  UNL d   1       4.242  -3.016   5.202  0.00  0.00    -0.073 A 
ATOM      2  C3  UNL d   1       3.065  -3.695   4.866  0.00  0.00    -0.002 A 
ATOM      3  C4  UNL d   1       2.070  -3.056   4.126  0.00  0.00     0.004 A 
ATOM      4  C5  UNL d   1       2.243  -1.737   3.708  0.00  0.00    -0.004 A 
ATOM      5  C6  UNL d   1       3.417  -1.045   4.023  0.00  0.00    -0.075 A 
ATOM      6  C7  UNL d   1       3.618   0.375   3.583  0.00  0.00     0.076 C 
ATOM      7  C8  UNL d   1       4.411  -1.692   4.770  0.00  0.00     0.001 A 
ENDROOT
BRANCH   1   8
ATOM      8  C1  UNL d   1       5.323  -3.703   5.996  0.00  0.00     0.053 C 
ATOM      9  C   UNL d   1       5.997  -4.810   5.201  0.00  0.00     0.018 C 
ENDBRANCH   1   8
TORSDOF 1
ENDMDL
