MODEL 1
REMARK minimizedAffinity -5.30490685
REMARK minimizedRMSD -1
REMARK  2 active torsions:
REMARK  status: ('A' for Active; 'I' for Inactive)
REMARK    1  A    between atoms: C1_2  and  C2_3 
REMARK    2  A    between atoms: C2_3  and  C3_4 
ROOT
ATOM      1  C3  UNL d   1       0.069   0.282  -0.046  0.00  0.00    -0.075 A 
ATOM      2  C4  UNL d   1       1.037   0.061  -1.036  0.00  0.00     0.002 A 
ATOM      3  C5  UNL d   1       1.875  -1.053  -0.971  0.00  0.00     0.002 A 
ATOM      4  C6  UNL d   1       1.763  -1.952   0.087  0.00  0.00    -0.004 A 
ATOM      5  C7  UNL d   1       0.815  -1.734   1.085  0.00  0.00     0.002 A 
ATOM      6  C8  UNL d   1      -0.027  -0.623   1.020  0.00  0.00     0.002 A 
ENDROOT
BRANCH   1   7
ATOM      7  C2  UNL d   1      -0.861   1.469  -0.126  0.00  0.00     0.056 C 
BRANCH   7   8
ATOM      8  C1  UNL d   1      -1.331   1.799  -1.547  0.00  0.00     0.007 C 
ATOM      9  C   UNL d   1      -2.003   0.624  -2.245  0.00  0.00     0.009 C 
ENDBRANCH   7   8
ENDBRANCH   1   7
TORSDOF 2
ENDMDL
