MODEL 1
REMARK minimizedAffinity -4.60205412
REMARK minimizedRMSD -1
REMARK  2 active torsions:
REMARK  status: ('A' for Active; 'I' for Inactive)
REMARK    1  A    between atoms: C1_2  and  C2_3 
REMARK    2  A    between atoms: C2_3  and  C3_4 
ROOT
ATOM      1  C3  UNL d   1       0.286   0.300   0.123  0.00  0.00    -0.075 A 
ATOM      2  C4  UNL d   1       1.563   0.134  -0.431  0.00  0.00     0.002 A 
ATOM      3  C5  UNL d   1       2.240  -1.079  -0.298  0.00  0.00     0.002 A 
ATOM      4  C6  UNL d   1       1.654  -2.135   0.397  0.00  0.00    -0.004 A 
ATOM      5  C7  UNL d   1       0.393  -1.975   0.966  0.00  0.00     0.002 A 
ATOM      6  C8  UNL d   1      -0.289  -0.764   0.831  0.00  0.00     0.002 A 
ENDROOT
BRANCH   1   7
ATOM      7  C2  UNL d   1      -0.464   1.601  -0.042  0.00  0.00     0.056 C 
BRANCH   7   8
ATOM      8  C1  UNL d   1      -1.408   1.627  -1.249  0.00  0.00     0.007 C 
ATOM      9  C   UNL d   1      -1.568   3.014  -1.856  0.00  0.00     0.009 C 
ENDBRANCH   7   8
ENDBRANCH   1   7
TORSDOF 2
ENDMDL
