MODEL 1
REMARK minimizedAffinity -2.02370191
REMARK minimizedRMSD -1
REMARK  2 active torsions:
REMARK  status: ('A' for Active; 'I' for Inactive)
REMARK    1  A    between atoms: C1_2  and  C2_3 
REMARK    2  A    between atoms: C2_3  and  C3_4 
ROOT
ATOM      1  C3  UNL d   1      -0.150   0.757  -0.213  0.00  0.00    -0.075 A 
ATOM      2  C4  UNL d   1       1.095   0.130  -0.370  0.00  0.00     0.002 A 
ATOM      3  C5  UNL d   1       1.483  -0.899   0.489  0.00  0.00     0.002 A 
ATOM      4  C6  UNL d   1       0.637  -1.307   1.518  0.00  0.00    -0.004 A 
ATOM      5  C7  UNL d   1      -0.595  -0.680   1.693  0.00  0.00     0.002 A 
ATOM      6  C8  UNL d   1      -0.987   0.346   0.833  0.00  0.00     0.002 A 
ENDROOT
BRANCH   1   7
ATOM      7  C2  UNL d   1      -0.588   1.851  -1.157  0.00  0.00     0.056 C 
BRANCH   7   8
ATOM      8  C1  UNL d   1      -1.706   1.434  -2.120  0.00  0.00     0.007 C 
ATOM      9  C   UNL d   1      -1.632   2.140  -3.467  0.00  0.00     0.009 C 
ENDBRANCH   7   8
ENDBRANCH   1   7
TORSDOF 2
ENDMDL
