MODEL 1
REMARK minimizedAffinity -5.74870443
REMARK minimizedRMSD -1
REMARK  2 active torsions:
REMARK  status: ('A' for Active; 'I' for Inactive)
REMARK    1  A    between atoms: C1_2  and  C2_3 
REMARK    2  A    between atoms: C2_3  and  C3_4 
ROOT
ATOM      1  C3  UNL d   1      -0.715   0.202  -0.662  0.00  0.00    -0.075 A 
ATOM      2  C4  UNL d   1      -1.306  -0.414  -1.775  0.00  0.00     0.002 A 
ATOM      3  C5  UNL d   1      -1.824   0.355  -2.818  0.00  0.00     0.002 A 
ATOM      4  C6  UNL d   1      -1.766   1.746  -2.758  0.00  0.00    -0.004 A 
ATOM      5  C7  UNL d   1      -1.195   2.368  -1.650  0.00  0.00     0.002 A 
ATOM      6  C8  UNL d   1      -0.672   1.601  -0.607  0.00  0.00     0.002 A 
ENDROOT
BRANCH   1   7
ATOM      7  C2  UNL d   1      -0.126  -0.625   0.456  0.00  0.00     0.056 C 
BRANCH   7   8
ATOM      8  C1  UNL d   1       1.385  -0.848   0.338  0.00  0.00     0.007 C 
ATOM      9  C   UNL d   1       1.749  -2.045  -0.529  0.00  0.00     0.009 C 
ENDBRANCH   7   8
ENDBRANCH   1   7
TORSDOF 2
ENDMDL
