MODEL 1
REMARK minimizedAffinity -3.84679008
REMARK minimizedRMSD -1
REMARK  2 active torsions:
REMARK  status: ('A' for Active; 'I' for Inactive)
REMARK    1  A    between atoms: C1_2  and  C2_3 
REMARK    2  A    between atoms: C2_3  and  C3_4 
ROOT
ATOM      1  C3  UNL d   1      -0.290   0.211  -0.236  0.00  0.00    -0.075 A 
ATOM      2  C4  UNL d   1       1.106   0.125  -0.328  0.00  0.00     0.002 A 
ATOM      3  C5  UNL d   1       1.788  -0.960   0.223  0.00  0.00     0.002 A 
ATOM      4  C6  UNL d   1       1.084  -1.967   0.880  0.00  0.00    -0.004 A 
ATOM      5  C7  UNL d   1      -0.302  -1.884   0.992  0.00  0.00     0.002 A 
ATOM      6  C8  UNL d   1      -0.987  -0.802   0.438  0.00  0.00     0.002 A 
ENDROOT
BRANCH   1   7
ATOM      7  C2  UNL d   1      -1.036   1.368  -0.856  0.00  0.00     0.056 C 
BRANCH   7   8
ATOM      8  C1  UNL d   1      -2.138   0.948  -1.834  0.00  0.00     0.007 C 
ATOM      9  C   UNL d   1      -2.170   1.792  -3.101  0.00  0.00     0.009 C 
ENDBRANCH   7   8
ENDBRANCH   1   7
TORSDOF 2
ENDMDL
