MODEL 1
REMARK minimizedAffinity -4.48577595
REMARK minimizedRMSD -1
REMARK  2 active torsions:
REMARK  status: ('A' for Active; 'I' for Inactive)
REMARK    1  A    between atoms: C1_2  and  C2_3 
REMARK    2  A    between atoms: C2_3  and  C3_4 
ROOT
ATOM      1  C3  UNL d   1      -0.784   1.165  -0.287  0.00  0.00    -0.075 A 
ATOM      2  C4  UNL d   1       0.137   0.223  -0.768  0.00  0.00     0.002 A 
ATOM      3  C5  UNL d   1       0.278  -1.015  -0.140  0.00  0.00     0.002 A 
ATOM      4  C6  UNL d   1      -0.491  -1.323   0.980  0.00  0.00    -0.004 A 
ATOM      5  C7  UNL d   1      -1.397  -0.388   1.477  0.00  0.00     0.002 A 
ATOM      6  C8  UNL d   1      -1.543   0.850   0.848  0.00  0.00     0.002 A 
ENDROOT
BRANCH   1   7
ATOM      7  C2  UNL d   1      -0.962   2.495  -0.979  0.00  0.00     0.056 C 
BRANCH   7   8
ATOM      8  C1  UNL d   1      -1.666   2.402  -2.337  0.00  0.00     0.007 C 
ATOM      9  C   UNL d   1      -2.924   1.544  -2.304  0.00  0.00     0.009 C 
ENDBRANCH   7   8
ENDBRANCH   1   7
TORSDOF 2
ENDMDL
