MODEL 1
REMARK minimizedAffinity -3.19685507
REMARK minimizedRMSD -1
REMARK  2 active torsions:
REMARK  status: ('A' for Active; 'I' for Inactive)
REMARK    1  A    between atoms: C1_2  and  C2_3 
REMARK    2  A    between atoms: C2_3  and  C3_4 
ROOT
ATOM      1  C3  UNL d   1       0.171   0.217  -0.335  0.00  0.00    -0.075 A 
ATOM      2  C4  UNL d   1      -0.449  -1.040  -0.325  0.00  0.00     0.002 A 
ATOM      3  C5  UNL d   1       0.279  -2.187  -0.006  0.00  0.00     0.002 A 
ATOM      4  C6  UNL d   1       1.636  -2.092   0.295  0.00  0.00    -0.004 A 
ATOM      5  C7  UNL d   1       2.266  -0.850   0.272  0.00  0.00     0.002 A 
ATOM      6  C8  UNL d   1       1.539   0.299  -0.042  0.00  0.00     0.002 A 
ENDROOT
BRANCH   1   7
ATOM      7  C2  UNL d   1      -0.618   1.465  -0.650  0.00  0.00     0.056 C 
BRANCH   7   8
ATOM      8  C1  UNL d   1      -1.234   1.476  -2.053  0.00  0.00     0.007 C 
ATOM      9  C   UNL d   1      -2.739   1.709  -2.046  0.00  0.00     0.009 C 
ENDBRANCH   7   8
ENDBRANCH   1   7
TORSDOF 2
ENDMDL
