MODEL 1
REMARK minimizedAffinity -2.65178514
REMARK minimizedRMSD -1
REMARK  2 active torsions:
REMARK  status: ('A' for Active; 'I' for Inactive)
REMARK    1  A    between atoms: C1_2  and  C2_3 
REMARK    2  A    between atoms: C2_3  and  C3_4 
ROOT
ATOM      1  C3  UNL d   1       0.418  -1.421   0.597  0.00  0.00    -0.075 A 
ATOM      2  C4  UNL d   1       1.715  -1.751   1.016  0.00  0.00     0.002 A 
ATOM      3  C5  UNL d   1       2.786  -0.900   0.741  0.00  0.00     0.002 A 
ATOM      4  C6  UNL d   1       2.576   0.284   0.036  0.00  0.00    -0.004 A 
ATOM      5  C7  UNL d   1       1.295   0.613  -0.399  0.00  0.00     0.002 A 
ATOM      6  C8  UNL d   1       0.221  -0.234  -0.121  0.00  0.00     0.002 A 
ENDROOT
BRANCH   1   7
ATOM      7  C2  UNL d   1      -0.750  -2.323   0.917  0.00  0.00     0.056 C 
BRANCH   7   8
ATOM      8  C1  UNL d   1      -1.638  -1.813   2.058  0.00  0.00     0.007 C 
ATOM      9  C   UNL d   1      -1.739  -0.294   2.106  0.00  0.00     0.009 C 
ENDBRANCH   7   8
ENDBRANCH   1   7
TORSDOF 2
ENDMDL
