MODEL 1
REMARK minimizedAffinity -5.48461533
REMARK minimizedRMSD -1
REMARK  2 active torsions:
REMARK  status: ('A' for Active; 'I' for Inactive)
REMARK    1  A    between atoms: C1_2  and  C2_3 
REMARK    2  A    between atoms: C2_3  and  C3_4 
ROOT
ATOM      1  C3  UNL d   1      -0.003   0.227  -0.176  0.00  0.00    -0.075 A 
ATOM      2  C4  UNL d   1       1.355  -0.102  -0.296  0.00  0.00     0.002 A 
ATOM      3  C5  UNL d   1       1.876  -1.214   0.367  0.00  0.00     0.002 A 
ATOM      4  C6  UNL d   1       1.050  -2.004   1.163  0.00  0.00    -0.004 A 
ATOM      5  C7  UNL d   1      -0.297  -1.677   1.302  0.00  0.00     0.002 A 
ATOM      6  C8  UNL d   1      -0.822  -0.568   0.637  0.00  0.00     0.002 A 
ENDROOT
BRANCH   1   7
ATOM      7  C2  UNL d   1      -0.579   1.412  -0.914  0.00  0.00     0.056 C 
BRANCH   7   8
ATOM      8  C1  UNL d   1      -1.822   1.083  -1.748  0.00  0.00     0.007 C 
ATOM      9  C   UNL d   1      -1.773   1.667  -3.154  0.00  0.00     0.009 C 
ENDBRANCH   7   8
ENDBRANCH   1   7
TORSDOF 2
ENDMDL
