MODEL 1
REMARK minimizedAffinity -4.69778061
REMARK minimizedRMSD -1
REMARK  2 active torsions:
REMARK  status: ('A' for Active; 'I' for Inactive)
REMARK    1  A    between atoms: C1_2  and  C2_3 
REMARK    2  A    between atoms: C2_3  and  C3_4 
ROOT
ATOM      1  C3  UNL d   1       0.831  -0.486   0.025  0.00  0.00    -0.075 A 
ATOM      2  C4  UNL d   1      -0.237  -1.058   0.731  0.00  0.00     0.002 A 
ATOM      3  C5  UNL d   1      -0.072  -2.268   1.406  0.00  0.00     0.002 A 
ATOM      4  C6  UNL d   1       1.156  -2.924   1.376  0.00  0.00    -0.004 A 
ATOM      5  C7  UNL d   1       2.219  -2.373   0.664  0.00  0.00     0.002 A 
ATOM      6  C8  UNL d   1       2.059  -1.160  -0.008  0.00  0.00     0.002 A 
ENDROOT
BRANCH   1   7
ATOM      7  C2  UNL d   1       0.668   0.838  -0.683  0.00  0.00     0.056 C 
BRANCH   7   8
ATOM      8  C1  UNL d   1      -0.718   1.470  -0.512  0.00  0.00     0.007 C 
ATOM      9  C   UNL d   1      -1.310   1.981  -1.819  0.00  0.00     0.009 C 
ENDBRANCH   7   8
ENDBRANCH   1   7
TORSDOF 2
ENDMDL
