MODEL 1
REMARK minimizedAffinity -4.16622066
REMARK minimizedRMSD -1
REMARK  2 active torsions:
REMARK  status: ('A' for Active; 'I' for Inactive)
REMARK    1  A    between atoms: C1_2  and  C2_3 
REMARK    2  A    between atoms: C2_3  and  C3_4 
ROOT
ATOM      1  C3  UNL d   1      -0.070  -0.105   0.178  0.00  0.00    -0.075 A 
ATOM      2  C4  UNL d   1       1.095   0.055  -0.586  0.00  0.00     0.002 A 
ATOM      3  C5  UNL d   1       2.182  -0.800  -0.408  0.00  0.00     0.002 A 
ATOM      4  C6  UNL d   1       2.124  -1.818   0.541  0.00  0.00    -0.004 A 
ATOM      5  C7  UNL d   1       0.978  -1.976   1.318  0.00  0.00     0.002 A 
ATOM      6  C8  UNL d   1      -0.114  -1.125   1.138  0.00  0.00     0.002 A 
ENDROOT
BRANCH   1   7
ATOM      7  C2  UNL d   1      -1.262   0.799  -0.031  0.00  0.00     0.056 C 
BRANCH   7   8
ATOM      8  C1  UNL d   1      -1.260   1.532  -1.376  0.00  0.00     0.007 C 
ATOM      9  C   UNL d   1      -2.462   1.193  -2.246  0.00  0.00     0.009 C 
ENDBRANCH   7   8
ENDBRANCH   1   7
TORSDOF 2
ENDMDL
