MODEL 1
REMARK minimizedAffinity -5.55133772
REMARK minimizedRMSD -1
REMARK  2 active torsions:
REMARK  status: ('A' for Active; 'I' for Inactive)
REMARK    1  A    between atoms: C1_2  and  C2_3 
REMARK    2  A    between atoms: C2_3  and  C3_4 
ROOT
ATOM      1  C3  UNL d   1       0.030   0.212  -0.168  0.00  0.00    -0.075 A 
ATOM      2  C4  UNL d   1       1.415   0.329  -0.354  0.00  0.00     0.002 A 
ATOM      3  C5  UNL d   1       2.267  -0.724  -0.019  0.00  0.00     0.002 A 
ATOM      4  C6  UNL d   1       1.747  -1.901   0.515  0.00  0.00    -0.004 A 
ATOM      5  C7  UNL d   1       0.374  -2.022   0.719  0.00  0.00     0.002 A 
ATOM      6  C8  UNL d   1      -0.481  -0.972   0.381  0.00  0.00     0.002 A 
ENDROOT
BRANCH   1   7
ATOM      7  C2  UNL d   1      -0.899   1.337  -0.556  0.00  0.00     0.056 C 
BRANCH   7   8
ATOM      8  C1  UNL d   1      -1.316   1.322  -2.030  0.00  0.00     0.007 C 
ATOM      9  C   UNL d   1      -2.758   0.880  -2.242  0.00  0.00     0.009 C 
ENDBRANCH   7   8
ENDBRANCH   1   7
TORSDOF 2
ENDMDL
