MODEL 1
REMARK minimizedAffinity -6.12351894
REMARK minimizedRMSD -1
REMARK  2 active torsions:
REMARK  status: ('A' for Active; 'I' for Inactive)
REMARK    1  A    between atoms: C1_2  and  C2_3 
REMARK    2  A    between atoms: C2_3  and  C3_4 
ROOT
ATOM      1  C3  UNL d   1       0.029  -0.051  -0.314  0.00  0.00    -0.075 A 
ATOM      2  C4  UNL d   1       1.401  -0.116  -0.597  0.00  0.00     0.002 A 
ATOM      3  C5  UNL d   1       2.149  -1.232  -0.222  0.00  0.00     0.002 A 
ATOM      4  C6  UNL d   1       1.539  -2.290   0.449  0.00  0.00    -0.004 A 
ATOM      5  C7  UNL d   1       0.181  -2.229   0.750  0.00  0.00     0.002 A 
ATOM      6  C8  UNL d   1      -0.572  -1.115   0.371  0.00  0.00     0.002 A 
ENDROOT
BRANCH   1   7
ATOM      7  C2  UNL d   1      -0.792   1.141  -0.744  0.00  0.00     0.056 C 
BRANCH   7   8
ATOM      8  C1  UNL d   1      -2.012   0.783  -1.599  0.00  0.00     0.007 C 
ATOM      9  C   UNL d   1      -1.854   1.173  -3.063  0.00  0.00     0.009 C 
ENDBRANCH   7   8
ENDBRANCH   1   7
TORSDOF 2
ENDMDL
