MODEL 1
REMARK minimizedAffinity -5.24297237
REMARK minimizedRMSD -1
REMARK  2 active torsions:
REMARK  status: ('A' for Active; 'I' for Inactive)
REMARK    1  A    between atoms: C1_2  and  C2_3 
REMARK    2  A    between atoms: C2_3  and  C3_4 
ROOT
ATOM      1  C3  UNL d   1      -0.074  -0.168   0.335  0.00  0.00    -0.075 A 
ATOM      2  C4  UNL d   1       1.192  -0.449  -0.199  0.00  0.00     0.002 A 
ATOM      3  C5  UNL d   1       1.834  -1.652   0.097  0.00  0.00     0.002 A 
ATOM      4  C6  UNL d   1       1.226  -2.582   0.936  0.00  0.00    -0.004 A 
ATOM      5  C7  UNL d   1      -0.025  -2.306   1.486  0.00  0.00     0.002 A 
ATOM      6  C8  UNL d   1      -0.671  -1.105   1.188  0.00  0.00     0.002 A 
ENDROOT
BRANCH   1   7
ATOM      7  C2  UNL d   1      -0.787   1.119  -0.004  0.00  0.00     0.056 C 
BRANCH   7   8
ATOM      8  C1  UNL d   1      -0.797   1.451  -1.500  0.00  0.00     0.007 C 
ATOM      9  C   UNL d   1      -2.127   1.138  -2.175  0.00  0.00     0.009 C 
ENDBRANCH   7   8
ENDBRANCH   1   7
TORSDOF 2
ENDMDL
