MODEL 1
REMARK minimizedAffinity -5.70718145
REMARK minimizedRMSD -1
REMARK  2 active torsions:
REMARK  status: ('A' for Active; 'I' for Inactive)
REMARK    1  A    between atoms: C1_2  and  C2_3 
REMARK    2  A    between atoms: C2_3  and  C3_4 
ROOT
ATOM      1  C3  UNL d   1      -0.121   0.186  -0.156  0.00  0.00    -0.075 A 
ATOM      2  C4  UNL d   1       1.237   0.023  -0.468  0.00  0.00     0.002 A 
ATOM      3  C5  UNL d   1       1.924  -1.121  -0.062  0.00  0.00     0.002 A 
ATOM      4  C6  UNL d   1       1.267  -2.110   0.668  0.00  0.00    -0.004 A 
ATOM      5  C7  UNL d   1      -0.077  -1.950   0.998  0.00  0.00     0.002 A 
ATOM      6  C8  UNL d   1      -0.768  -0.808   0.589  0.00  0.00     0.002 A 
ENDROOT
BRANCH   1   7
ATOM      7  C2  UNL d   1      -0.878   1.409  -0.618  0.00  0.00     0.056 C 
BRANCH   7   8
ATOM      8  C1  UNL d   1      -2.077   1.096  -1.518  0.00  0.00     0.007 C 
ATOM      9  C   UNL d   1      -1.836   1.442  -2.982  0.00  0.00     0.009 C 
ENDBRANCH   7   8
ENDBRANCH   1   7
TORSDOF 2
ENDMDL
