MODEL 1
REMARK minimizedAffinity -5.13029623
REMARK minimizedRMSD -1
REMARK  2 active torsions:
REMARK  status: ('A' for Active; 'I' for Inactive)
REMARK    1  A    between atoms: C1_2  and  C2_3 
REMARK    2  A    between atoms: C2_3  and  C3_4 
ROOT
ATOM      1  C3  UNL d   1       0.060   0.288  -0.288  0.00  0.00    -0.075 A 
ATOM      2  C4  UNL d   1      -0.470  -0.829   0.375  0.00  0.00     0.002 A 
ATOM      3  C5  UNL d   1       0.374  -1.766   0.971  0.00  0.00     0.002 A 
ATOM      4  C6  UNL d   1       1.756  -1.605   0.903  0.00  0.00    -0.004 A 
ATOM      5  C7  UNL d   1       2.295  -0.509   0.233  0.00  0.00     0.002 A 
ATOM      6  C8  UNL d   1       1.452   0.433  -0.361  0.00  0.00     0.002 A 
ENDROOT
BRANCH   1   7
ATOM      7  C2  UNL d   1      -0.849   1.321  -0.910  0.00  0.00     0.056 C 
BRANCH   7   8
ATOM      8  C1  UNL d   1      -2.110   0.736  -1.552  0.00  0.00     0.007 C 
ATOM      9  C   UNL d   1      -2.411   1.321  -2.926  0.00  0.00     0.009 C 
ENDBRANCH   7   8
ENDBRANCH   1   7
TORSDOF 2
ENDMDL
