MODEL 1
REMARK minimizedAffinity 0.721656561
REMARK minimizedRMSD -1
REMARK  0 active torsions:
REMARK  status: ('A' for Active; 'I' for Inactive)
ROOT
ATOM      1  C   UNL d   1       5.830   2.781  -2.956  0.00  0.00     0.077 C 
ATOM      2  C1  UNL d   1       5.065   2.070  -1.880  0.00  0.00    -0.074 A 
ATOM      3  C2  UNL d   1       5.497   2.103  -0.550  0.00  0.00    -0.005 A 
ATOM      4  C3  UNL d   1       4.771   1.445   0.442  0.00  0.00     0.006 A 
ATOM      5  C4  UNL d   1       3.607   0.748   0.115  0.00  0.00    -0.005 A 
ATOM      6  C5  UNL d   1       3.159   0.704  -1.209  0.00  0.00    -0.074 A 
ATOM      7  C6  UNL d   1       1.905  -0.033  -1.576  0.00  0.00     0.077 C 
ATOM      8  C7  UNL d   1       3.891   1.374  -2.199  0.00  0.00    -0.001 A 
ENDROOT
TORSDOF 0
ENDMDL
