MODEL 1
REMARK minimizedAffinity 6.00612926
REMARK minimizedRMSD -1
REMARK  0 active torsions:
REMARK  status: ('A' for Active; 'I' for Inactive)
ROOT
ATOM      1  C   UNL d   1       5.999   3.046  -3.065  0.00  0.00     0.077 C 
ATOM      2  C1  UNL d   1       5.330   2.240  -1.992  0.00  0.00    -0.074 A 
ATOM      3  C2  UNL d   1       5.867   2.172  -0.703  0.00  0.00    -0.005 A 
ATOM      4  C3  UNL d   1       5.228   1.426   0.287  0.00  0.00     0.006 A 
ATOM      5  C4  UNL d   1       4.047   0.741  -0.001  0.00  0.00    -0.005 A 
ATOM      6  C5  UNL d   1       3.494   0.798  -1.284  0.00  0.00    -0.074 A 
ATOM      7  C6  UNL d   1       2.220   0.076  -1.608  0.00  0.00     0.077 C 
ATOM      8  C7  UNL d   1       4.138   1.556  -2.272  0.00  0.00    -0.001 A 
ENDROOT
TORSDOF 0
ENDMDL
