MODEL 1
REMARK minimizedAffinity 0.768876076
REMARK minimizedRMSD -1
REMARK  0 active torsions:
REMARK  status: ('A' for Active; 'I' for Inactive)
ROOT
ATOM      1  C   UNL d   1       1.923  -0.151  -1.383  0.00  0.00     0.077 C 
ATOM      2  C1  UNL d   1       3.147   0.670  -1.104  0.00  0.00    -0.074 A 
ATOM      3  C2  UNL d   1       3.666   0.770   0.191  0.00  0.00    -0.005 A 
ATOM      4  C3  UNL d   1       4.811   1.529   0.433  0.00  0.00     0.006 A 
ATOM      5  C4  UNL d   1       5.447   2.195  -0.615  0.00  0.00    -0.005 A 
ATOM      6  C5  UNL d   1       4.944   2.105  -1.917  0.00  0.00    -0.074 A 
ATOM      7  C6  UNL d   1       5.621   2.806  -3.056  0.00  0.00     0.077 C 
ATOM      8  C7  UNL d   1       3.797   1.335  -2.153  0.00  0.00    -0.001 A 
ENDROOT
TORSDOF 0
ENDMDL
