MODEL 1
REMARK minimizedAffinity 11.4039516
REMARK minimizedRMSD -1
REMARK  0 active torsions:
REMARK  status: ('A' for Active; 'I' for Inactive)
ROOT
ATOM      1  C   UNL d   1      -0.966   2.523  -0.632  0.00  0.00     0.077 C 
ATOM      2  C1  UNL d   1      -0.625   3.401   0.535  0.00  0.00    -0.074 A 
ATOM      3  C2  UNL d   1      -0.643   4.795   0.416  0.00  0.00    -0.005 A 
ATOM      4  C3  UNL d   1      -0.333   5.599   1.513  0.00  0.00     0.006 A 
ATOM      5  C4  UNL d   1      -0.001   5.018   2.738  0.00  0.00    -0.005 A 
ATOM      6  C5  UNL d   1       0.022   3.627   2.876  0.00  0.00    -0.074 A 
ATOM      7  C6  UNL d   1       0.366   2.987   4.188  0.00  0.00     0.077 C 
ATOM      8  C7  UNL d   1      -0.298   2.826   1.771  0.00  0.00    -0.001 A 
ENDROOT
TORSDOF 0
ENDMDL
