MODEL 1
REMARK minimizedAffinity 8.13370323
REMARK minimizedRMSD -1
REMARK  0 active torsions:
REMARK  status: ('A' for Active; 'I' for Inactive)
ROOT
ATOM      1  C   UNL d   1       5.861   2.363  -3.307  0.00  0.00     0.077 C 
ATOM      2  C1  UNL d   1       5.134   1.889  -2.084  0.00  0.00    -0.074 A 
ATOM      3  C2  UNL d   1       5.613   2.185  -0.803  0.00  0.00    -0.005 A 
ATOM      4  C3  UNL d   1       4.921   1.746   0.325  0.00  0.00     0.006 A 
ATOM      5  C4  UNL d   1       3.745   1.008   0.186  0.00  0.00    -0.005 A 
ATOM      6  C5  UNL d   1       3.250   0.704  -1.087  0.00  0.00    -0.074 A 
ATOM      7  C6  UNL d   1       1.982  -0.079  -1.254  0.00  0.00     0.077 C 
ATOM      8  C7  UNL d   1       3.947   1.155  -2.216  0.00  0.00    -0.001 A 
ENDROOT
TORSDOF 0
ENDMDL
