MODEL 1
REMARK minimizedAffinity -2.07053947
REMARK minimizedRMSD -1
REMARK  0 active torsions:
REMARK  status: ('A' for Active; 'I' for Inactive)
ROOT
ATOM      1  C   UNL d   1      -4.157   3.257  -6.000  0.00  0.00     0.077 C 
ATOM      2  C1  UNL d   1      -4.378   1.994  -5.222  0.00  0.00    -0.074 A 
ATOM      3  C2  UNL d   1      -5.625   1.360  -5.220  0.00  0.00    -0.005 A 
ATOM      4  C3  UNL d   1      -5.812   0.180  -4.500  0.00  0.00     0.006 A 
ATOM      5  C4  UNL d   1      -4.758  -0.376  -3.775  0.00  0.00    -0.005 A 
ATOM      6  C5  UNL d   1      -3.504   0.244  -3.766  0.00  0.00    -0.074 A 
ATOM      7  C6  UNL d   1      -2.357  -0.346  -3.000  0.00  0.00     0.077 C 
ATOM      8  C7  UNL d   1      -3.321   1.425  -4.498  0.00  0.00    -0.001 A 
ENDROOT
TORSDOF 0
ENDMDL
