MODEL 1
REMARK minimizedAffinity 2.76544666
REMARK minimizedRMSD -1
REMARK  0 active torsions:
REMARK  status: ('A' for Active; 'I' for Inactive)
ROOT
ATOM      1  C   UNL d   1       2.253   0.765  -0.324  0.00  0.00     0.077 C 
ATOM      2  C1  UNL d   1       0.975   1.534  -0.169  0.00  0.00    -0.074 A 
ATOM      3  C2  UNL d   1      -0.096   1.332  -1.045  0.00  0.00    -0.005 A 
ATOM      4  C3  UNL d   1      -1.282   2.047  -0.883  0.00  0.00     0.006 A 
ATOM      5  C4  UNL d   1      -1.410   2.970   0.156  0.00  0.00    -0.005 A 
ATOM      6  C5  UNL d   1      -0.350   3.185   1.043  0.00  0.00    -0.074 A 
ATOM      7  C6  UNL d   1      -0.474   4.166   2.170  0.00  0.00     0.077 C 
ATOM      8  C7  UNL d   1       0.836   2.457   0.877  0.00  0.00    -0.001 A 
ENDROOT
TORSDOF 0
ENDMDL
