MODEL 1
REMARK minimizedAffinity 7.37044668
REMARK minimizedRMSD -1
REMARK  0 active torsions:
REMARK  status: ('A' for Active; 'I' for Inactive)
ROOT
ATOM      1  C   UNL d   1       2.044  -0.012  -1.500  0.00  0.00     0.077 C 
ATOM      2  C1  UNL d   1       3.354   0.694  -1.317  0.00  0.00    -0.074 A 
ATOM      3  C2  UNL d   1       3.916   0.849  -0.046  0.00  0.00    -0.005 A 
ATOM      4  C3  UNL d   1       5.140   1.500   0.108  0.00  0.00     0.006 A 
ATOM      5  C4  UNL d   1       5.813   2.002  -1.007  0.00  0.00    -0.005 A 
ATOM      6  C5  UNL d   1       5.267   1.857  -2.286  0.00  0.00    -0.074 A 
ATOM      7  C6  UNL d   1       5.982   2.382  -3.495  0.00  0.00     0.077 C 
ATOM      8  C7  UNL d   1       4.040   1.195  -2.433  0.00  0.00    -0.001 A 
ENDROOT
TORSDOF 0
ENDMDL
