MODEL 1
REMARK minimizedAffinity 14.8635683
REMARK minimizedRMSD -1
REMARK  0 active torsions:
REMARK  status: ('A' for Active; 'I' for Inactive)
ROOT
ATOM      1  C   UNL d   1       3.000  -0.058   1.807  0.00  0.00     0.077 C 
ATOM      2  C1  UNL d   1       3.328  -0.103   3.270  0.00  0.00    -0.074 A 
ATOM      3  C2  UNL d   1       2.509   0.531   4.210  0.00  0.00    -0.005 A 
ATOM      4  C3  UNL d   1       2.821   0.472   5.568  0.00  0.00     0.006 A 
ATOM      5  C4  UNL d   1       3.954  -0.220   5.999  0.00  0.00    -0.005 A 
ATOM      6  C5  UNL d   1       4.784  -0.860   5.073  0.00  0.00    -0.074 A 
ATOM      7  C6  UNL d   1       6.000  -1.616   5.521  0.00  0.00     0.077 C 
ATOM      8  C7  UNL d   1       4.460  -0.803   3.711  0.00  0.00    -0.001 A 
ENDROOT
TORSDOF 0
ENDMDL
