MODEL 1
REMARK minimizedAffinity 16.6900043
REMARK minimizedRMSD -1
REMARK  0 active torsions:
REMARK  status: ('A' for Active; 'I' for Inactive)
ROOT
ATOM      1  C   UNL d   1      -5.524   2.413  -5.937  0.00  0.00     0.077 C 
ATOM      2  C1  UNL d   1      -5.477   1.082  -5.247  0.00  0.00    -0.074 A 
ATOM      3  C2  UNL d   1      -5.999   0.921  -3.960  0.00  0.00    -0.005 A 
ATOM      4  C3  UNL d   1      -5.956  -0.325  -3.335  0.00  0.00     0.006 A 
ATOM      5  C4  UNL d   1      -5.393  -1.421  -3.990  0.00  0.00    -0.005 A 
ATOM      6  C5  UNL d   1      -4.867  -1.279  -5.278  0.00  0.00    -0.074 A 
ATOM      7  C6  UNL d   1      -4.267  -2.449  -6.000  0.00  0.00     0.077 C 
ATOM      8  C7  UNL d   1      -4.920  -0.025  -5.902  0.00  0.00    -0.001 A 
ENDROOT
TORSDOF 0
ENDMDL
