MODEL 1
REMARK minimizedAffinity -1.32019961
REMARK minimizedRMSD -1
REMARK  0 active torsions:
REMARK  status: ('A' for Active; 'I' for Inactive)
ROOT
ATOM      1  N1  IND d   1      -3.271  -0.363  -1.919  0.00  0.00    -0.196 N 
ATOM      2  C2  IND d   1      -3.215  -1.451  -2.745  0.00  0.00     0.054 A 
ATOM      3  C3  IND d   1      -2.075  -2.145  -2.533  0.00  0.00    -0.031 A 
ATOM      4  C4  IND d   1      -0.206  -1.734  -0.810  0.00  0.00     0.051 A 
ATOM      5  C5  IND d   1       0.205  -0.843   0.141  0.00  0.00    -0.031 A 
ATOM      6  C6  IND d   1      -0.537   0.275   0.462  0.00  0.00     0.015 A 
ATOM      7  C7  IND d   1      -1.730   0.538  -0.151  0.00  0.00    -0.016 A 
ATOM      8  C8  IND d   1      -2.147  -0.361  -1.121  0.00  0.00    -0.047 A 
ATOM      9  C9  IND d   1      -1.378  -1.475  -1.481  0.00  0.00    -0.096 A 
ATOM     10  HN1 IND d   1      -3.901   0.221  -1.900  0.00  0.00     0.298 HD
ENDROOT
TORSDOF 0
ENDMDL
