MODEL 1
REMARK minimizedAffinity -5.00418139
REMARK minimizedRMSD -1
REMARK  0 active torsions:
REMARK  status: ('A' for Active; 'I' for Inactive)
ROOT
ATOM      1  N1  IND d   1       2.819  -0.284  -0.186  0.00  0.00    -0.196 N 
ATOM      2  C2  IND d   1       3.746   0.467   0.480  0.00  0.00     0.054 A 
ATOM      3  C3  IND d   1       3.136   1.339   1.313  0.00  0.00    -0.031 A 
ATOM      4  C4  IND d   1       0.629   1.634   1.819  0.00  0.00     0.051 A 
ATOM      5  C5  IND d   1      -0.607   1.201   1.430  0.00  0.00    -0.031 A 
ATOM      6  C6  IND d   1      -0.768   0.228   0.464  0.00  0.00     0.015 A 
ATOM      7  C7  IND d   1       0.307  -0.357  -0.143  0.00  0.00    -0.016 A 
ATOM      8  C8  IND d   1       1.564   0.086   0.245  0.00  0.00    -0.047 A 
ATOM      9  C9  IND d   1       1.732   1.102   1.194  0.00  0.00    -0.096 A 
ATOM     10  HN1 IND d   1       2.990  -0.886  -0.776  0.00  0.00     0.298 HD
ENDROOT
TORSDOF 0
ENDMDL
