MODEL 1
REMARK minimizedAffinity -2.46683931
REMARK minimizedRMSD -1
REMARK  0 active torsions:
REMARK  status: ('A' for Active; 'I' for Inactive)
ROOT
ATOM      1  N1  IND d   1      -1.630  -0.235  -2.077  0.00  0.00    -0.196 N 
ATOM      2  C2  IND d   1      -1.633  -1.596  -1.950  0.00  0.00     0.054 A 
ATOM      3  C3  IND d   1      -1.058  -1.960  -0.782  0.00  0.00    -0.031 A 
ATOM      4  C4  IND d   1      -0.136  -0.487   1.117  0.00  0.00     0.051 A 
ATOM      5  C5  IND d   1       0.119   0.816   1.443  0.00  0.00    -0.031 A 
ATOM      6  C6  IND d   1      -0.206   1.856   0.597  0.00  0.00     0.015 A 
ATOM      7  C7  IND d   1      -0.810   1.632  -0.608  0.00  0.00    -0.016 A 
ATOM      8  C8  IND d   1      -1.063   0.310  -0.945  0.00  0.00    -0.047 A 
ATOM      9  C9  IND d   1      -0.698  -0.753  -0.109  0.00  0.00    -0.096 A 
ATOM     10  HN1 IND d   1      -1.932   0.207  -2.750  0.00  0.00     0.298 HD
ENDROOT
TORSDOF 0
ENDMDL
