MODEL 1
REMARK minimizedAffinity -3.45846272
REMARK minimizedRMSD -1
REMARK  0 active torsions:
REMARK  status: ('A' for Active; 'I' for Inactive)
ROOT
ATOM      1  N1  IND d   1       0.744   0.115  -0.435  0.00  0.00    -0.196 N 
ATOM      2  C2  IND d   1       0.405   0.031   0.887  0.00  0.00     0.054 A 
ATOM      3  C3  IND d   1      -0.722  -0.699   1.038  0.00  0.00    -0.031 A 
ATOM      4  C4  IND d   1      -2.120  -1.935  -0.736  0.00  0.00     0.051 A 
ATOM      5  C5  IND d   1      -2.226  -2.122  -2.085  0.00  0.00    -0.031 A 
ATOM      6  C6  IND d   1      -1.328  -1.564  -2.972  0.00  0.00     0.015 A 
ATOM      7  C7  IND d   1      -0.279  -0.804  -2.538  0.00  0.00    -0.016 A 
ATOM      8  C8  IND d   1      -0.172  -0.606  -1.169  0.00  0.00    -0.047 A 
ATOM      9  C9  IND d   1      -1.105  -1.135  -0.268  0.00  0.00    -0.096 A 
ATOM     10  HN1 IND d   1       1.416   0.546  -0.754  0.00  0.00     0.298 HD
ENDROOT
TORSDOF 0
ENDMDL
