MODEL 1
REMARK minimizedAffinity 2.20602846
REMARK minimizedRMSD -1
REMARK  0 active torsions:
REMARK  status: ('A' for Active; 'I' for Inactive)
ROOT
ATOM      1  N1  IND d   1       0.565   0.697   1.567  0.00  0.00    -0.196 N 
ATOM      2  C2  IND d   1      -0.683   1.209   1.789  0.00  0.00     0.054 A 
ATOM      3  C3  IND d   1      -1.388   1.248   0.636  0.00  0.00    -0.031 A 
ATOM      4  C4  IND d   1      -0.727   0.429  -1.713  0.00  0.00     0.051 A 
ATOM      5  C5  IND d   1       0.326  -0.081  -2.420  0.00  0.00    -0.031 A 
ATOM      6  C6  IND d   1       1.536  -0.365  -1.821  0.00  0.00     0.015 A 
ATOM      7  C7  IND d   1       1.735  -0.161  -0.485  0.00  0.00    -0.016 A 
ATOM      8  C8  IND d   1       0.670   0.363   0.234  0.00  0.00    -0.047 A 
ATOM      9  C9  IND d   1      -0.546   0.694  -0.376  0.00  0.00    -0.096 A 
ATOM     10  HN1 IND d   1       1.180   0.600   2.159  0.00  0.00     0.298 HD
ENDROOT
TORSDOF 0
ENDMDL
