MODEL 1
REMARK minimizedAffinity 0.085332185
REMARK minimizedRMSD -1
REMARK  0 active torsions:
REMARK  status: ('A' for Active; 'I' for Inactive)
ROOT
ATOM      1  N1  IND d   1      -2.700  -0.691  -2.421  0.00  0.00    -0.196 N 
ATOM      2  C2  IND d   1      -2.606  -1.921  -3.011  0.00  0.00     0.054 A 
ATOM      3  C3  IND d   1      -1.586  -2.625  -2.472  0.00  0.00    -0.031 A 
ATOM      4  C4  IND d   1      -0.005  -1.995  -0.541  0.00  0.00     0.051 A 
ATOM      5  C5  IND d   1       0.321  -0.961   0.290  0.00  0.00    -0.031 A 
ATOM      6  C6  IND d   1      -0.358   0.240   0.262  0.00  0.00     0.015 A 
ATOM      7  C7  IND d   1      -1.402   0.447  -0.596  0.00  0.00    -0.016 A 
ATOM      8  C8  IND d   1      -1.731  -0.598  -1.446  0.00  0.00    -0.047 A 
ATOM      9  C9  IND d   1      -1.017  -1.804  -1.451  0.00  0.00    -0.096 A 
ATOM     10  HN1 IND d   1      -3.268  -0.079  -2.625  0.00  0.00     0.298 HD
ENDROOT
TORSDOF 0
ENDMDL
