MODEL 1
REMARK minimizedAffinity -0.709354877
REMARK minimizedRMSD -1
REMARK  0 active torsions:
REMARK  status: ('A' for Active; 'I' for Inactive)
ROOT
ATOM      1  N1  IND d   1       0.104  -0.427  -0.619  0.00  0.00    -0.196 N 
ATOM      2  C2  IND d   1      -1.251  -0.298  -0.751  0.00  0.00     0.054 A 
ATOM      3  C3  IND d   1      -1.726   0.601   0.140  0.00  0.00    -0.031 A 
ATOM      4  C4  IND d   1      -0.448   2.054   1.838  0.00  0.00     0.051 A 
ATOM      5  C5  IND d   1       0.801   2.263   2.352  0.00  0.00    -0.031 A 
ATOM      6  C6  IND d   1       1.904   1.574   1.891  0.00  0.00     0.015 A 
ATOM      7  C7  IND d   1       1.800   0.655   0.886  0.00  0.00    -0.016 A 
ATOM      8  C8  IND d   1       0.533   0.435   0.366  0.00  0.00    -0.047 A 
ATOM      9  C9  IND d   1      -0.597   1.100   0.860  0.00  0.00    -0.096 A 
ATOM     10  HN1 IND d   1       0.604  -0.957  -1.076  0.00  0.00     0.298 HD
ENDROOT
TORSDOF 0
ENDMDL
