MODEL 1
REMARK minimizedAffinity -1.15084553
REMARK minimizedRMSD -1
REMARK  0 active torsions:
REMARK  status: ('A' for Active; 'I' for Inactive)
ROOT
ATOM      1  N1  IND d   1       0.866  -1.051  -0.645  0.00  0.00    -0.196 N 
ATOM      2  C2  IND d   1      -0.171  -1.722  -1.233  0.00  0.00     0.054 A 
ATOM      3  C3  IND d   1      -1.351  -1.296  -0.730  0.00  0.00    -0.031 A 
ATOM      4  C4  IND d   1      -1.823   0.562   0.987  0.00  0.00     0.051 A 
ATOM      5  C5  IND d   1      -1.194   1.434   1.831  0.00  0.00    -0.031 A 
ATOM      6  C6  IND d   1       0.182   1.525   1.892  0.00  0.00     0.015 A 
ATOM      7  C7  IND d   1       0.983   0.753   1.100  0.00  0.00    -0.016 A 
ATOM      8  C8  IND d   1       0.348  -0.138   0.246  0.00  0.00    -0.047 A 
ATOM      9  C9  IND d   1      -1.047  -0.265   0.211  0.00  0.00    -0.096 A 
ATOM     10  HN1 IND d   1       1.701  -1.179  -0.806  0.00  0.00     0.298 HD
ENDROOT
TORSDOF 0
ENDMDL
