MODEL 1
REMARK minimizedAffinity -0.275534868
REMARK minimizedRMSD -1
REMARK  0 active torsions:
REMARK  status: ('A' for Active; 'I' for Inactive)
ROOT
ATOM      1  N1  IND d   1       0.293   0.083  -1.092  0.00  0.00    -0.196 N 
ATOM      2  C2  IND d   1       0.316  -0.235   0.238  0.00  0.00     0.054 A 
ATOM      3  C3  IND d   1      -0.740  -1.019   0.552  0.00  0.00    -0.031 A 
ATOM      4  C4  IND d   1      -2.571  -1.985  -0.978  0.00  0.00     0.051 A 
ATOM      5  C5  IND d   1      -3.033  -1.945  -2.263  0.00  0.00    -0.031 A 
ATOM      6  C6  IND d   1      -2.396  -1.213  -3.244  0.00  0.00     0.015 A 
ATOM      7  C7  IND d   1      -1.260  -0.501  -2.978  0.00  0.00    -0.016 A 
ATOM      8  C8  IND d   1      -0.792  -0.535  -1.672  0.00  0.00    -0.047 A 
ATOM      9  C9  IND d   1      -1.459  -1.241  -0.662  0.00  0.00    -0.096 A 
ATOM     10  HN1 IND d   1       0.862   0.585  -1.497  0.00  0.00     0.298 HD
ENDROOT
TORSDOF 0
ENDMDL
