MODEL 1
REMARK minimizedAffinity -1.03519785
REMARK minimizedRMSD -1
REMARK  0 active torsions:
REMARK  status: ('A' for Active; 'I' for Inactive)
ROOT
ATOM      1  N1  IND d   1       0.614  -1.145  -0.865  0.00  0.00    -0.196 N 
ATOM      2  C2  IND d   1      -0.689  -1.501  -1.071  0.00  0.00     0.054 A 
ATOM      3  C3  IND d   1      -1.503  -0.811  -0.241  0.00  0.00    -0.031 A 
ATOM      4  C4  IND d   1      -0.920   1.025   1.467  0.00  0.00     0.051 A 
ATOM      5  C5  IND d   1       0.143   1.667   2.037  0.00  0.00    -0.031 A 
ATOM      6  C6  IND d   1       1.444   1.401   1.660  0.00  0.00     0.015 A 
ATOM      7  C7  IND d   1       1.730   0.487   0.686  0.00  0.00    -0.016 A 
ATOM      8  C8  IND d   1       0.654  -0.172   0.109  0.00  0.00    -0.047 A 
ATOM      9  C9  IND d   1      -0.665   0.063   0.518  0.00  0.00    -0.096 A 
ATOM     10  HN1 IND d   1       1.295  -1.474  -1.274  0.00  0.00     0.298 HD
ENDROOT
TORSDOF 0
ENDMDL
