MODEL 1
REMARK minimizedAffinity -3.09921741
REMARK minimizedRMSD -1
REMARK  0 active torsions:
REMARK  status: ('A' for Active; 'I' for Inactive)
ROOT
ATOM      1  N1  IND d   1      -1.579  -0.638   0.596  0.00  0.00    -0.196 N 
ATOM      2  C2  IND d   1      -0.221  -0.502   0.515  0.00  0.00     0.054 A 
ATOM      3  C3  IND d   1       0.224  -0.936  -0.686  0.00  0.00    -0.031 A 
ATOM      4  C4  IND d   1      -1.110  -1.812  -2.706  0.00  0.00     0.051 A 
ATOM      5  C5  IND d   1      -2.375  -2.152  -3.096  0.00  0.00    -0.031 A 
ATOM      6  C6  IND d   1      -3.461  -1.999  -2.259  0.00  0.00     0.015 A 
ATOM      7  C7  IND d   1      -3.324  -1.488  -1.000  0.00  0.00    -0.016 A 
ATOM      8  C8  IND d   1      -2.040  -1.148  -0.598  0.00  0.00    -0.047 A 
ATOM      9  C9  IND d   1      -0.928  -1.341  -1.427  0.00  0.00    -0.096 A 
ATOM     10  HN1 IND d   1      -2.063  -0.439   1.278  0.00  0.00     0.298 HD
ENDROOT
TORSDOF 0
ENDMDL
