MODEL 1
REMARK minimizedAffinity 0.387600273
REMARK minimizedRMSD -1
REMARK  0 active torsions:
REMARK  status: ('A' for Active; 'I' for Inactive)
ROOT
ATOM      1  N1  IND d   1       3.988  -0.426  -5.977  0.00  0.00    -0.196 N 
ATOM      2  C2  IND d   1       5.086  -0.091  -5.235  0.00  0.00     0.054 A 
ATOM      3  C3  IND d   1       4.710   0.464  -4.062  0.00  0.00    -0.031 A 
ATOM      4  C4  IND d   1       2.347   0.827  -3.107  0.00  0.00     0.051 A 
ATOM      5  C5  IND d   1       1.024   0.714  -3.433  0.00  0.00    -0.031 A 
ATOM      6  C6  IND d   1       0.614   0.203  -4.647  0.00  0.00     0.015 A 
ATOM      7  C7  IND d   1       1.514  -0.227  -5.580  0.00  0.00    -0.016 A 
ATOM      8  C8  IND d   1       2.858  -0.108  -5.255  0.00  0.00    -0.047 A 
ATOM      9  C9  IND d   1       3.282   0.450  -4.042  0.00  0.00    -0.096 A 
ATOM     10  HN1 IND d   1       4.000  -0.776  -6.762  0.00  0.00     0.298 HD
ENDROOT
TORSDOF 0
ENDMDL
