MODEL 1
REMARK minimizedAffinity -4.21262932
REMARK minimizedRMSD -1
REMARK  0 active torsions:
REMARK  status: ('A' for Active; 'I' for Inactive)
ROOT
ATOM      1  N1  IND d   1       2.576  -0.690  -0.504  0.00  0.00    -0.196 N 
ATOM      2  C2  IND d   1       1.639  -1.505  -1.076  0.00  0.00     0.054 A 
ATOM      3  C3  IND d   1       0.414  -1.241  -0.570  0.00  0.00    -0.031 A 
ATOM      4  C4  IND d   1      -0.301   0.555   1.130  0.00  0.00     0.051 A 
ATOM      5  C5  IND d   1       0.206   1.515   1.960  0.00  0.00    -0.031 A 
ATOM      6  C6  IND d   1       1.555   1.797   2.010  0.00  0.00     0.015 A 
ATOM      7  C7  IND d   1       2.451   1.134   1.220  0.00  0.00    -0.016 A 
ATOM      8  C8  IND d   1       1.941   0.153   0.381  0.00  0.00    -0.047 A 
ATOM      9  C9  IND d   1       0.578  -0.167   0.357  0.00  0.00    -0.096 A 
ATOM     10  HN1 IND d   1       3.420  -0.702  -0.669  0.00  0.00     0.298 HD
ENDROOT
TORSDOF 0
ENDMDL
