MODEL 1
REMARK minimizedAffinity 0.404665411
REMARK minimizedRMSD -1
REMARK  0 active torsions:
REMARK  status: ('A' for Active; 'I' for Inactive)
ROOT
ATOM      1  N1  IND d   1       0.787  -0.234  -0.224  0.00  0.00    -0.196 N 
ATOM      2  C2  IND d   1      -0.007   0.178   0.810  0.00  0.00     0.054 A 
ATOM      3  C3  IND d   1      -1.271  -0.274   0.641  0.00  0.00    -0.031 A 
ATOM      4  C4  IND d   1      -2.234  -1.788  -1.204  0.00  0.00     0.051 A 
ATOM      5  C5  IND d   1      -1.902  -2.390  -2.386  0.00  0.00    -0.031 A 
ATOM      6  C6  IND d   1      -0.631  -2.305  -2.916  0.00  0.00     0.015 A 
ATOM      7  C7  IND d   1       0.363  -1.620  -2.276  0.00  0.00    -0.016 A 
ATOM      8  C8  IND d   1       0.029  -1.002  -1.080  0.00  0.00    -0.047 A 
ATOM      9  C9  IND d   1      -1.271  -1.049  -0.558  0.00  0.00    -0.096 A 
ATOM     10  HN1 IND d   1       1.620  -0.044  -0.323  0.00  0.00     0.298 HD
ENDROOT
TORSDOF 0
ENDMDL
