MODEL 1
REMARK minimizedAffinity -4.72454357
REMARK minimizedRMSD -1
REMARK  0 active torsions:
REMARK  status: ('A' for Active; 'I' for Inactive)
ROOT
ATOM      1  N1  IND d   1      -2.151  -0.372  -2.865  0.00  0.00    -0.196 N 
ATOM      2  C2  IND d   1      -2.149  -1.731  -3.016  0.00  0.00     0.054 A 
ATOM      3  C3  IND d   1      -1.631  -2.325  -1.918  0.00  0.00    -0.031 A 
ATOM      4  C4  IND d   1      -0.821  -1.269   0.286  0.00  0.00     0.051 A 
ATOM      5  C5  IND d   1      -0.594  -0.060   0.881  0.00  0.00    -0.031 A 
ATOM      6  C6  IND d   1      -0.883   1.131   0.247  0.00  0.00     0.015 A 
ATOM      7  C7  IND d   1      -1.423   1.157  -1.008  0.00  0.00    -0.016 A 
ATOM      8  C8  IND d   1      -1.648  -0.069  -1.619  0.00  0.00    -0.047 A 
ATOM      9  C9  IND d   1      -1.317  -1.280  -0.997  0.00  0.00    -0.096 A 
ATOM     10  HN1 IND d   1      -2.421   0.197  -3.450  0.00  0.00     0.298 HD
ENDROOT
TORSDOF 0
ENDMDL
