MODEL 1
REMARK minimizedAffinity 0.961687863
REMARK minimizedRMSD -1
REMARK  0 active torsions:
REMARK  status: ('A' for Active; 'I' for Inactive)
ROOT
ATOM      1  N1  IND d   1       0.324  -1.222  -0.225  0.00  0.00    -0.196 N 
ATOM      2  C2  IND d   1      -0.385  -0.849   0.882  0.00  0.00     0.054 A 
ATOM      3  C3  IND d   1      -1.710  -0.843   0.612  0.00  0.00    -0.031 A 
ATOM      4  C4  IND d   1      -2.942  -1.508  -1.549  0.00  0.00     0.051 A 
ATOM      5  C5  IND d   1      -2.719  -1.881  -2.844  0.00  0.00    -0.031 A 
ATOM      6  C6  IND d   1      -1.444  -2.060  -3.342  0.00  0.00     0.015 A 
ATOM      7  C7  IND d   1      -0.341  -1.882  -2.557  0.00  0.00    -0.016 A 
ATOM      8  C8  IND d   1      -0.563  -1.496  -1.242  0.00  0.00    -0.047 A 
ATOM      9  C9  IND d   1      -1.853  -1.272  -0.743  0.00  0.00    -0.096 A 
ATOM     10  HN1 IND d   1       1.181  -1.275  -0.278  0.00  0.00     0.298 HD
ENDROOT
TORSDOF 0
ENDMDL
