MODEL 1
REMARK minimizedAffinity 4.60814476
REMARK minimizedRMSD -1
REMARK  0 active torsions:
REMARK  status: ('A' for Active; 'I' for Inactive)
ROOT
ATOM      1  N1  IND d   1      -2.923  -1.707  -2.722  0.00  0.00    -0.196 N 
ATOM      2  C2  IND d   1      -3.581  -1.989  -1.558  0.00  0.00     0.054 A 
ATOM      3  C3  IND d   1      -2.707  -2.053  -0.528  0.00  0.00    -0.031 A 
ATOM      4  C4  IND d   1      -0.169  -1.625  -0.508  0.00  0.00     0.051 A 
ATOM      5  C5  IND d   1       0.888  -1.371  -1.337  0.00  0.00    -0.031 A 
ATOM      6  C6  IND d   1       0.724  -1.210  -2.698  0.00  0.00     0.015 A 
ATOM      7  C7  IND d   1      -0.510  -1.286  -3.281  0.00  0.00    -0.016 A 
ATOM      8  C8  IND d   1      -1.583  -1.551  -2.443  0.00  0.00    -0.047 A 
ATOM      9  C9  IND d   1      -1.418  -1.757  -1.067  0.00  0.00    -0.096 A 
ATOM     10  HN1 IND d   1      -3.286  -1.638  -3.499  0.00  0.00     0.298 HD
ENDROOT
TORSDOF 0
ENDMDL
