MODEL 1
REMARK minimizedAffinity 11.2832375
REMARK minimizedRMSD -1
REMARK  1 active torsions:
REMARK  status: ('A' for Active; 'I' for Inactive)
REMARK    1  A    between atoms: C3_4  and  O_7 
ROOT
ATOM      1  C   UNL d   1      -4.126  -2.626  -6.000  0.00  0.00    -0.033 A 
ATOM      2  C1  UNL d   1      -4.695  -3.863  -5.693  0.00  0.00     0.039 A 
ATOM      3  C2  UNL d   1      -4.146  -4.655  -4.683  0.00  0.00    -0.080 A 
ATOM      4  C3  UNL d   1      -3.030  -4.198  -3.987  0.00  0.00     0.150 A 
ATOM      5  C4  UNL d   1      -2.460  -2.965  -4.285  0.00  0.00    -0.007 A 
ATOM      6  C5  UNL d   1      -3.009  -2.176  -5.295  0.00  0.00     0.039 A 
ENDROOT
BRANCH   4   7
ATOM      7  O   UNL d   1      -2.456  -4.938  -2.996  0.00  0.00    -0.526 OA
ATOM      8  H5  UNL d   1      -2.938  -5.778  -2.921  0.00  0.00     0.418 HD
ENDBRANCH   4   7
TORSDOF 1
ENDMDL
