MODEL 1
REMARK minimizedAffinity 0.691971481
REMARK minimizedRMSD -1
REMARK  1 active torsions:
REMARK  status: ('A' for Active; 'I' for Inactive)
REMARK    1  A    between atoms: C3_4  and  O_7 
ROOT
ATOM      1  C   UNL d   1      -2.647  -4.127  -5.133  0.00  0.00    -0.033 A 
ATOM      2  C1  UNL d   1      -2.516  -3.000  -4.319  0.00  0.00     0.039 A 
ATOM      3  C2  UNL d   1      -3.490  -2.000  -4.346  0.00  0.00    -0.080 A 
ATOM      4  C3  UNL d   1      -4.589  -2.139  -5.189  0.00  0.00     0.150 A 
ATOM      5  C4  UNL d   1      -4.728  -3.261  -6.000  0.00  0.00    -0.007 A 
ATOM      6  C5  UNL d   1      -3.754  -4.258  -5.972  0.00  0.00     0.039 A 
ENDROOT
BRANCH   4   7
ATOM      7  O   UNL d   1      -5.563  -1.187  -5.253  0.00  0.00    -0.526 OA
ATOM      8  H5  UNL d   1      -5.319  -0.457  -4.660  0.00  0.00     0.418 HD
ENDBRANCH   4   7
TORSDOF 1
ENDMDL
