MODEL 1
REMARK minimizedAffinity 14.8669004
REMARK minimizedRMSD -1
REMARK  1 active torsions:
REMARK  status: ('A' for Active; 'I' for Inactive)
REMARK    1  A    between atoms: C3_4  and  O_7 
ROOT
ATOM      1  C   UNL d   1       3.386   1.525   0.986  0.00  0.00    -0.033 A 
ATOM      2  C1  UNL d   1       3.637   1.909  -0.333  0.00  0.00     0.039 A 
ATOM      3  C2  UNL d   1       2.894   2.936  -0.917  0.00  0.00    -0.080 A 
ATOM      4  C3  UNL d   1       1.904   3.572  -0.172  0.00  0.00     0.150 A 
ATOM      5  C4  UNL d   1       1.651   3.197   1.143  0.00  0.00    -0.007 A 
ATOM      6  C5  UNL d   1       2.394   2.170   1.724  0.00  0.00     0.039 A 
ENDROOT
BRANCH   4   7
ATOM      7  O   UNL d   1       1.149   4.576  -0.701  0.00  0.00    -0.526 OA
ATOM      8  H5  UNL d   1       1.415   4.707  -1.626  0.00  0.00     0.418 HD
ENDBRANCH   4   7
TORSDOF 1
ENDMDL
