MODEL 1
REMARK minimizedAffinity 7.05916929
REMARK minimizedRMSD -1
REMARK  1 active torsions:
REMARK  status: ('A' for Active; 'I' for Inactive)
REMARK    1  A    between atoms: C3_4  and  O_7 
ROOT
ATOM      1  C   UNL d   1      -1.374   3.191  -4.103  0.00  0.00    -0.033 A 
ATOM      2  C1  UNL d   1      -1.954   2.871  -5.332  0.00  0.00     0.039 A 
ATOM      3  C2  UNL d   1      -2.766   3.800  -5.986  0.00  0.00    -0.080 A 
ATOM      4  C3  UNL d   1      -2.990   5.043  -5.401  0.00  0.00     0.150 A 
ATOM      5  C4  UNL d   1      -2.412   5.370  -4.179  0.00  0.00    -0.007 A 
ATOM      6  C5  UNL d   1      -1.602   4.441  -3.527  0.00  0.00     0.039 A 
ENDROOT
BRANCH   4   7
ATOM      7  O   UNL d   1      -3.779   5.980  -5.999  0.00  0.00    -0.526 OA
ATOM      8  H5  UNL d   1      -4.133   5.604  -6.822  0.00  0.00     0.418 HD
ENDBRANCH   4   7
TORSDOF 1
ENDMDL
