MODEL 1
REMARK minimizedAffinity 5.67187262
REMARK minimizedRMSD -1
REMARK  1 active torsions:
REMARK  status: ('A' for Active; 'I' for Inactive)
REMARK    1  A    between atoms: C3_4  and  O_7 
ROOT
ATOM      1  C   UNL d   1       0.903  -2.371  -3.276  0.00  0.00    -0.033 A 
ATOM      2  C1  UNL d   1       0.996  -3.733  -2.983  0.00  0.00     0.039 A 
ATOM      3  C2  UNL d   1       1.696  -4.159  -1.852  0.00  0.00    -0.080 A 
ATOM      4  C3  UNL d   1       2.297  -3.215  -1.024  0.00  0.00     0.150 A 
ATOM      5  C4  UNL d   1       2.205  -1.856  -1.309  0.00  0.00    -0.007 A 
ATOM      6  C5  UNL d   1       1.507  -1.433  -2.439  0.00  0.00     0.039 A 
ENDROOT
BRANCH   4   7
ATOM      7  O   UNL d   1       2.995  -3.583   0.088  0.00  0.00    -0.526 OA
ATOM      8  H5  UNL d   1       2.998  -4.553   0.142  0.00  0.00     0.418 HD
ENDBRANCH   4   7
TORSDOF 1
ENDMDL
