MODEL 1
REMARK minimizedAffinity 1.7846452
REMARK minimizedRMSD -1
REMARK  1 active torsions:
REMARK  status: ('A' for Active; 'I' for Inactive)
REMARK    1  A    between atoms: C3_4  and  O_7 
ROOT
ATOM      1  C   UNL d   1      -3.043  -4.487  -5.844  0.00  0.00    -0.033 A 
ATOM      2  C1  UNL d   1      -4.380  -4.858  -6.000  0.00  0.00     0.039 A 
ATOM      3  C2  UNL d   1      -5.382  -3.885  -5.988  0.00  0.00    -0.080 A 
ATOM      4  C3  UNL d   1      -5.034  -2.548  -5.820  0.00  0.00     0.150 A 
ATOM      5  C4  UNL d   1      -3.704  -2.171  -5.669  0.00  0.00    -0.007 A 
ATOM      6  C5  UNL d   1      -2.705  -3.144  -5.680  0.00  0.00     0.039 A 
ENDROOT
BRANCH   4   7
ATOM      7  O   UNL d   1      -5.977  -1.564  -5.797  0.00  0.00    -0.526 OA
ATOM      8  H5  UNL d   1      -6.853  -1.975  -5.885  0.00  0.00     0.418 HD
ENDBRANCH   4   7
TORSDOF 1
ENDMDL
