MODEL 1
REMARK minimizedAffinity 13.2322989
REMARK minimizedRMSD -1
REMARK  1 active torsions:
REMARK  status: ('A' for Active; 'I' for Inactive)
REMARK    1  A    between atoms: C3_4  and  O_7 
ROOT
ATOM      1  C   UNL d   1      -1.528   0.113   2.084  0.00  0.00    -0.033 A 
ATOM      2  C1  UNL d   1      -2.650  -0.506   2.639  0.00  0.00     0.039 A 
ATOM      3  C2  UNL d   1      -3.689   0.267   3.161  0.00  0.00    -0.080 A 
ATOM      4  C3  UNL d   1      -3.594   1.655   3.122  0.00  0.00     0.150 A 
ATOM      5  C4  UNL d   1      -2.481   2.279   2.568  0.00  0.00    -0.007 A 
ATOM      6  C5  UNL d   1      -1.444   1.505   2.048  0.00  0.00     0.039 A 
ENDROOT
BRANCH   4   7
ATOM      7  O   UNL d   1      -4.581   2.451   3.624  0.00  0.00    -0.526 OA
ATOM      8  H5  UNL d   1      -5.273   1.883   4.000  0.00  0.00     0.418 HD
ENDBRANCH   4   7
TORSDOF 1
ENDMDL
