MODEL 1
REMARK minimizedAffinity 5.01758099
REMARK minimizedRMSD -1
REMARK  1 active torsions:
REMARK  status: ('A' for Active; 'I' for Inactive)
REMARK    1  A    between atoms: C3_4  and  O_7 
ROOT
ATOM      1  C   UNL d   1      -2.988   4.176  -5.343  0.00  0.00    -0.033 A 
ATOM      2  C1  UNL d   1      -2.595   3.008  -6.000  0.00  0.00     0.039 A 
ATOM      3  C2  UNL d   1      -1.409   2.367  -5.636  0.00  0.00    -0.080 A 
ATOM      4  C3  UNL d   1      -0.628   2.902  -4.616  0.00  0.00     0.150 A 
ATOM      5  C4  UNL d   1      -1.016   4.063  -3.955  0.00  0.00    -0.007 A 
ATOM      6  C5  UNL d   1      -2.200   4.702  -4.320  0.00  0.00     0.039 A 
ENDROOT
BRANCH   4   7
ATOM      7  O   UNL d   1       0.540   2.315  -4.229  0.00  0.00    -0.526 OA
ATOM      8  H5  UNL d   1       0.695   1.538  -4.793  0.00  0.00     0.418 HD
ENDBRANCH   4   7
TORSDOF 1
ENDMDL
