MODEL 1
REMARK minimizedAffinity 11.0078106
REMARK minimizedRMSD -1
REMARK  1 active torsions:
REMARK  status: ('A' for Active; 'I' for Inactive)
REMARK    1  A    between atoms: C3_4  and  O_7 
ROOT
ATOM      1  C   UNL d   1       1.903   4.001  -1.797  0.00  0.00    -0.033 A 
ATOM      2  C1  UNL d   1       1.782   3.317  -0.586  0.00  0.00     0.039 A 
ATOM      3  C2  UNL d   1       1.288   3.975   0.543  0.00  0.00    -0.080 A 
ATOM      4  C3  UNL d   1       0.919   5.314   0.447  0.00  0.00     0.150 A 
ATOM      5  C4  UNL d   1       1.033   6.000  -0.757  0.00  0.00    -0.007 A 
ATOM      6  C5  UNL d   1       1.527   5.342  -1.883  0.00  0.00     0.039 A 
ENDROOT
BRANCH   4   7
ATOM      7  O   UNL d   1       0.436   5.999   1.522  0.00  0.00    -0.526 OA
ATOM      8  H5  UNL d   1       0.440   5.405   2.292  0.00  0.00     0.418 HD
ENDBRANCH   4   7
TORSDOF 1
ENDMDL
