MODEL 1
REMARK minimizedAffinity 7.64358425
REMARK minimizedRMSD -1
REMARK  1 active torsions:
REMARK  status: ('A' for Active; 'I' for Inactive)
REMARK    1  A    between atoms: C3_4  and  O_7 
ROOT
ATOM      1  C   UNL d   1       2.379  -5.999  -1.387  0.00  0.00    -0.033 A 
ATOM      2  C1  UNL d   1       3.282  -6.000  -0.322  0.00  0.00     0.039 A 
ATOM      3  C2  UNL d   1       2.850  -5.664   0.963  0.00  0.00    -0.080 A 
ATOM      4  C3  UNL d   1       1.514  -5.331   1.169  0.00  0.00     0.150 A 
ATOM      5  C4  UNL d   1       0.608  -5.332   0.114  0.00  0.00    -0.007 A 
ATOM      6  C5  UNL d   1       1.041  -5.667  -1.168  0.00  0.00     0.039 A 
ENDROOT
BRANCH   4   7
ATOM      7  O   UNL d   1       1.047  -4.992   2.404  0.00  0.00    -0.526 OA
ATOM      8  H5  UNL d   1       1.791  -5.006   3.029  0.00  0.00     0.418 HD
ENDBRANCH   4   7
TORSDOF 1
ENDMDL
