MODEL 1
REMARK minimizedAffinity 3.48187089
REMARK minimizedRMSD -1
REMARK  1 active torsions:
REMARK  status: ('A' for Active; 'I' for Inactive)
REMARK    1  A    between atoms: C3_4  and  O_7 
ROOT
ATOM      1  C   UNL d   1       4.711   2.366   0.765  0.00  0.00    -0.033 A 
ATOM      2  C1  UNL d   1       3.527   2.361   1.506  0.00  0.00     0.039 A 
ATOM      3  C2  UNL d   1       2.404   3.043   1.034  0.00  0.00    -0.080 A 
ATOM      4  C3  UNL d   1       2.476   3.723  -0.178  0.00  0.00     0.150 A 
ATOM      5  C4  UNL d   1       3.651   3.729  -0.923  0.00  0.00    -0.007 A 
ATOM      6  C5  UNL d   1       4.772   3.049  -0.450  0.00  0.00     0.039 A 
ENDROOT
BRANCH   4   7
ATOM      7  O   UNL d   1       1.407   4.407  -0.677  0.00  0.00    -0.526 OA
ATOM      8  H5  UNL d   1       0.675   4.339  -0.042  0.00  0.00     0.418 HD
ENDBRANCH   4   7
TORSDOF 1
ENDMDL
