MODEL 1
REMARK minimizedAffinity 1.84492743
REMARK minimizedRMSD -1
REMARK  1 active torsions:
REMARK  status: ('A' for Active; 'I' for Inactive)
REMARK    1  A    between atoms: C3_4  and  O_7 
ROOT
ATOM      1  C   UNL d   1       2.692  -2.599  -0.705  0.00  0.00    -0.033 A 
ATOM      2  C1  UNL d   1       3.372  -3.819  -0.718  0.00  0.00     0.039 A 
ATOM      3  C2  UNL d   1       3.020  -4.807  -1.639  0.00  0.00    -0.080 A 
ATOM      4  C3  UNL d   1       1.989  -4.563  -2.543  0.00  0.00     0.150 A 
ATOM      5  C4  UNL d   1       1.310  -3.349  -2.538  0.00  0.00    -0.007 A 
ATOM      6  C5  UNL d   1       1.663  -2.364  -1.616  0.00  0.00     0.039 A 
ENDROOT
BRANCH   4   7
ATOM      7  O   UNL d   1       1.607  -5.498  -3.458  0.00  0.00    -0.526 OA
ATOM      8  H5  UNL d   1       2.144  -6.297  -3.324  0.00  0.00     0.418 HD
ENDBRANCH   4   7
TORSDOF 1
ENDMDL
