MODEL 1
REMARK minimizedAffinity -1.67006397
REMARK minimizedRMSD -1
REMARK  1 active torsions:
REMARK  status: ('A' for Active; 'I' for Inactive)
REMARK    1  A    between atoms: C3_4  and  O_7 
ROOT
ATOM      1  C   UNL d   1      -3.087  -4.971  -5.982  0.00  0.00    -0.033 A 
ATOM      2  C1  UNL d   1      -2.627  -3.652  -5.962  0.00  0.00     0.039 A 
ATOM      3  C2  UNL d   1      -3.537  -2.593  -5.963  0.00  0.00    -0.080 A 
ATOM      4  C3  UNL d   1      -4.902  -2.865  -5.983  0.00  0.00     0.150 A 
ATOM      5  C4  UNL d   1      -5.368  -4.176  -5.999  0.00  0.00    -0.007 A 
ATOM      6  C5  UNL d   1      -4.458  -5.232  -5.999  0.00  0.00     0.039 A 
ENDROOT
BRANCH   4   7
ATOM      7  O   UNL d   1      -5.828  -1.865  -5.989  0.00  0.00    -0.526 OA
ATOM      8  H5  UNL d   1      -5.361  -1.013  -6.006  0.00  0.00     0.418 HD
ENDBRANCH   4   7
TORSDOF 1
ENDMDL
