MODEL 1
REMARK minimizedAffinity 8.12626648
REMARK minimizedRMSD -1
REMARK  1 active torsions:
REMARK  status: ('A' for Active; 'I' for Inactive)
REMARK    1  A    between atoms: C3_4  and  O_7 
ROOT
ATOM      1  C   UNL d   1       4.293   2.025  -1.865  0.00  0.00    -0.033 A 
ATOM      2  C1  UNL d   1       5.270   1.911  -0.874  0.00  0.00     0.039 A 
ATOM      3  C2  UNL d   1       4.921   2.049   0.471  0.00  0.00    -0.080 A 
ATOM      4  C3  UNL d   1       3.595   2.299   0.811  0.00  0.00     0.150 A 
ATOM      5  C4  UNL d   1       2.616   2.410  -0.171  0.00  0.00    -0.007 A 
ATOM      6  C5  UNL d   1       2.965   2.273  -1.513  0.00  0.00     0.039 A 
ENDROOT
BRANCH   4   7
ATOM      7  O   UNL d   1       3.208   2.446   2.110  0.00  0.00    -0.526 OA
ATOM      8  H5  UNL d   1       3.995   2.373   2.676  0.00  0.00     0.418 HD
ENDBRANCH   4   7
TORSDOF 1
ENDMDL
