MODEL 1
REMARK minimizedAffinity 14.2329855
REMARK minimizedRMSD -1
REMARK  1 active torsions:
REMARK  status: ('A' for Active; 'I' for Inactive)
REMARK    1  A    between atoms: C3_4  and  O_7 
ROOT
ATOM      1  C   UNL d   1      -3.002   0.152   2.993  0.00  0.00    -0.033 A 
ATOM      2  C1  UNL d   1      -3.338   0.295   1.646  0.00  0.00     0.039 A 
ATOM      3  C2  UNL d   1      -4.347  -0.493   1.088  0.00  0.00    -0.080 A 
ATOM      4  C3  UNL d   1      -5.011  -1.419   1.888  0.00  0.00     0.150 A 
ATOM      5  C4  UNL d   1      -4.683  -1.565   3.232  0.00  0.00    -0.007 A 
ATOM      6  C5  UNL d   1      -3.675  -0.777   3.787  0.00  0.00     0.039 A 
ENDROOT
BRANCH   4   7
ATOM      7  O   UNL d   1      -5.999  -2.214   1.388  0.00  0.00    -0.526 OA
ATOM      8  H5  UNL d   1      -6.097  -2.023   0.440  0.00  0.00     0.418 HD
ENDBRANCH   4   7
TORSDOF 1
ENDMDL
