MODEL 1
REMARK minimizedAffinity 3.06881237
REMARK minimizedRMSD -1
REMARK  0 active torsions:
REMARK  status: ('A' for Active; 'I' for Inactive)
ROOT
ATOM      1  N1  IND d   1      -0.637  -2.882   1.264  0.00  0.00    -0.196 N 
ATOM      2  C2  IND d   1      -1.170  -2.291   2.376  0.00  0.00     0.054 A 
ATOM      3  C3  IND d   1      -1.412  -0.982   2.142  0.00  0.00    -0.031 A 
ATOM      4  C4  IND d   1      -1.103   0.377  -0.023  0.00  0.00     0.051 A 
ATOM      5  C5  IND d   1      -0.611   0.281  -1.294  0.00  0.00    -0.031 A 
ATOM      6  C6  IND d   1      -0.095  -0.900  -1.789  0.00  0.00     0.015 A 
ATOM      7  C7  IND d   1      -0.061  -2.036  -1.030  0.00  0.00    -0.016 A 
ATOM      8  C8  IND d   1      -0.553  -1.940   0.264  0.00  0.00    -0.047 A 
ATOM      9  C9  IND d   1      -1.039  -0.734   0.785  0.00  0.00    -0.096 A 
ATOM     10  HN1 IND d   1      -0.394  -3.705   1.201  0.00  0.00     0.298 HD
ENDROOT
TORSDOF 0
ENDMDL
