MODEL 1
REMARK minimizedAffinity 7.03526068
REMARK minimizedRMSD -1
REMARK  0 active torsions:
REMARK  status: ('A' for Active; 'I' for Inactive)
ROOT
ATOM      1  N1  IND d   1      -0.504   0.802  -1.967  0.00  0.00    -0.196 N 
ATOM      2  C2  IND d   1       0.826   0.651  -1.691  0.00  0.00     0.054 A 
ATOM      3  C3  IND d   1       1.264   1.668  -0.915  0.00  0.00    -0.031 A 
ATOM      4  C4  IND d   1      -0.053   3.632   0.103  0.00  0.00     0.051 A 
ATOM      5  C5  IND d   1      -1.290   4.215   0.104  0.00  0.00    -0.031 A 
ATOM      6  C6  IND d   1      -2.350   3.677  -0.597  0.00  0.00     0.015 A 
ATOM      7  C7  IND d   1      -2.215   2.525  -1.319  0.00  0.00    -0.016 A 
ATOM      8  C8  IND d   1      -0.959   1.935  -1.328  0.00  0.00    -0.047 A 
ATOM      9  C9  IND d   1       0.131   2.499  -0.654  0.00  0.00    -0.096 A 
ATOM     10  HN1 IND d   1      -0.977   0.277  -2.456  0.00  0.00     0.298 HD
ENDROOT
TORSDOF 0
ENDMDL
