MODEL 1
REMARK minimizedAffinity 0.951577067
REMARK minimizedRMSD -1
REMARK  0 active torsions:
REMARK  status: ('A' for Active; 'I' for Inactive)
ROOT
ATOM      1  N1  IND d   1      -0.800  -2.472  -1.547  0.00  0.00    -0.196 N 
ATOM      2  C2  IND d   1       0.061  -3.310  -2.198  0.00  0.00     0.054 A 
ATOM      3  C3  IND d   1       0.812  -3.998  -1.307  0.00  0.00    -0.031 A 
ATOM      4  C4  IND d   1       0.723  -3.978   1.265  0.00  0.00     0.051 A 
ATOM      5  C5  IND d   1       0.123  -3.345   2.318  0.00  0.00    -0.031 A 
ATOM      6  C6  IND d   1      -0.837  -2.371   2.132  0.00  0.00     0.015 A 
ATOM      7  C7  IND d   1      -1.242  -2.000   0.881  0.00  0.00    -0.016 A 
ATOM      8  C8  IND d   1      -0.630  -2.635  -0.190  0.00  0.00    -0.047 A 
ATOM      9  C9  IND d   1       0.375  -3.594  -0.008  0.00  0.00    -0.096 A 
ATOM     10  HN1 IND d   1      -1.354  -1.932  -1.922  0.00  0.00     0.298 HD
ENDROOT
TORSDOF 0
ENDMDL
