MODEL 1
REMARK minimizedAffinity 0.0607410222
REMARK minimizedRMSD -1
REMARK  0 active torsions:
REMARK  status: ('A' for Active; 'I' for Inactive)
ROOT
ATOM      1  N1  IND d   1      -0.536  -0.986  -0.540  0.00  0.00    -0.196 N 
ATOM      2  C2  IND d   1      -0.803  -1.923   0.419  0.00  0.00     0.054 A 
ATOM      3  C3  IND d   1      -0.499  -3.160  -0.035  0.00  0.00    -0.031 A 
ATOM      4  C4  IND d   1       0.542  -3.869  -2.280  0.00  0.00     0.051 A 
ATOM      5  C5  IND d   1       0.928  -3.372  -3.493  0.00  0.00    -0.031 A 
ATOM      6  C6  IND d   1       0.846  -2.026  -3.789  0.00  0.00     0.015 A 
ATOM      7  C7  IND d   1       0.384  -1.123  -2.875  0.00  0.00    -0.016 A 
ATOM      8  C8  IND d   1      -0.015  -1.625  -1.644  0.00  0.00    -0.047 A 
ATOM      9  C9  IND d   1       0.026  -2.995  -1.353  0.00  0.00    -0.096 A 
ATOM     10  HN1 IND d   1      -0.672  -0.141  -0.467  0.00  0.00     0.298 HD
ENDROOT
TORSDOF 0
ENDMDL
