MODEL 1
REMARK minimizedAffinity 5.49849892
REMARK minimizedRMSD -1
REMARK  0 active torsions:
REMARK  status: ('A' for Active; 'I' for Inactive)
ROOT
ATOM      1  N1  IND d   1       0.782   0.334  -3.452  0.00  0.00    -0.196 N 
ATOM      2  C2  IND d   1       1.259   1.146  -2.461  0.00  0.00     0.054 A 
ATOM      3  C3  IND d   1       1.164   0.529  -1.261  0.00  0.00    -0.031 A 
ATOM      4  C4  IND d   1       0.353  -1.850  -0.705  0.00  0.00     0.051 A 
ATOM      5  C5  IND d   1      -0.214  -2.956  -1.275  0.00  0.00    -0.031 A 
ATOM      6  C6  IND d   1      -0.481  -3.024  -2.627  0.00  0.00     0.015 A 
ATOM      7  C7  IND d   1      -0.179  -1.988  -3.466  0.00  0.00    -0.016 A 
ATOM      8  C8  IND d   1       0.390  -0.861  -2.890  0.00  0.00    -0.047 A 
ATOM      9  C9  IND d   1       0.624  -0.770  -1.511  0.00  0.00    -0.096 A 
ATOM     10  HN1 IND d   1       0.734   0.536  -4.286  0.00  0.00     0.298 HD
ENDROOT
TORSDOF 0
ENDMDL
