MODEL 1
REMARK minimizedAffinity 6.68628359
REMARK minimizedRMSD -1
REMARK  0 active torsions:
REMARK  status: ('A' for Active; 'I' for Inactive)
ROOT
ATOM      1  N1  IND d   1      -0.074  -3.053  -0.244  0.00  0.00    -0.196 N 
ATOM      2  C2  IND d   1      -0.814  -3.122   0.903  0.00  0.00     0.054 A 
ATOM      3  C3  IND d   1      -1.321  -1.906   1.210  0.00  0.00    -0.031 A 
ATOM      4  C4  IND d   1      -1.147   0.312  -0.086  0.00  0.00     0.051 A 
ATOM      5  C5  IND d   1      -0.545   0.880  -1.173  0.00  0.00    -0.031 A 
ATOM      6  C6  IND d   1       0.259   0.151  -2.025  0.00  0.00     0.015 A 
ATOM      7  C7  IND d   1       0.483  -1.182  -1.827  0.00  0.00    -0.016 A 
ATOM      8  C8  IND d   1      -0.121  -1.761  -0.720  0.00  0.00    -0.047 A 
ATOM      9  C9  IND d   1      -0.904  -1.017   0.172  0.00  0.00    -0.096 A 
ATOM     10  HN1 IND d   1       0.350  -3.707  -0.608  0.00  0.00     0.298 HD
ENDROOT
TORSDOF 0
ENDMDL
