MODEL 1
REMARK minimizedAffinity 9.36630344
REMARK minimizedRMSD -1
REMARK  0 active torsions:
REMARK  status: ('A' for Active; 'I' for Inactive)
ROOT
ATOM      1  N1  IND d   1      -3.426   1.722  -0.812  0.00  0.00    -0.196 N 
ATOM      2  C2  IND d   1      -2.527   1.047  -0.034  0.00  0.00     0.054 A 
ATOM      3  C3  IND d   1      -1.823   1.913   0.730  0.00  0.00    -0.031 A 
ATOM      4  C4  IND d   1      -2.051   4.469   0.939  0.00  0.00     0.051 A 
ATOM      5  C5  IND d   1      -2.710   5.539   0.402  0.00  0.00    -0.031 A 
ATOM      6  C6  IND d   1      -3.663   5.388  -0.585  0.00  0.00     0.015 A 
ATOM      7  C7  IND d   1      -4.001   4.155  -1.066  0.00  0.00    -0.016 A 
ATOM      8  C8  IND d   1      -3.329   3.067  -0.528  0.00  0.00    -0.047 A 
ATOM      9  C9  IND d   1      -2.331   3.217   0.443  0.00  0.00    -0.096 A 
ATOM     10  HN1 IND d   1      -3.961   1.367  -1.383  0.00  0.00     0.298 HD
ENDROOT
TORSDOF 0
ENDMDL
