MODEL 1
REMARK minimizedAffinity 10.6504536
REMARK minimizedRMSD -1
REMARK  0 active torsions:
REMARK  status: ('A' for Active; 'I' for Inactive)
ROOT
ATOM      1  N1  IND d   1       1.451  -0.257  -2.943  0.00  0.00    -0.196 N 
ATOM      2  C2  IND d   1       1.591   0.676  -1.954  0.00  0.00     0.054 A 
ATOM      3  C3  IND d   1       1.000   0.248  -0.816  0.00  0.00    -0.031 A 
ATOM      4  C4  IND d   1      -0.167  -1.993  -0.324  0.00  0.00     0.051 A 
ATOM      5  C5  IND d   1      -0.574  -3.151  -0.925  0.00  0.00    -0.031 A 
ATOM      6  C6  IND d   1      -0.319  -3.409  -2.256  0.00  0.00     0.015 A 
ATOM      7  C7  IND d   1       0.365  -2.521  -3.036  0.00  0.00    -0.016 A 
ATOM      8  C8  IND d   1       0.774  -1.341  -2.431  0.00  0.00    -0.047 A 
ATOM      9  C9  IND d   1       0.481  -1.054  -1.091  0.00  0.00    -0.096 A 
ATOM     10  HN1 IND d   1       1.738  -0.179  -3.750  0.00  0.00     0.298 HD
ENDROOT
TORSDOF 0
ENDMDL
