MODEL 1
REMARK minimizedAffinity 3.73726106
REMARK minimizedRMSD -1
REMARK  0 active torsions:
REMARK  status: ('A' for Active; 'I' for Inactive)
ROOT
ATOM      1  N1  IND d   1       1.133  -0.352  -2.785  0.00  0.00    -0.196 N 
ATOM      2  C2  IND d   1       1.248   0.627  -1.837  0.00  0.00     0.054 A 
ATOM      3  C3  IND d   1       0.816   0.174  -0.639  0.00  0.00    -0.031 A 
ATOM      4  C4  IND d   1      -0.025  -2.169   0.018  0.00  0.00     0.051 A 
ATOM      5  C5  IND d   1      -0.343  -3.388  -0.513  0.00  0.00    -0.031 A 
ATOM      6  C6  IND d   1      -0.178  -3.663  -1.855  0.00  0.00     0.015 A 
ATOM      7  C7  IND d   1       0.322  -2.730  -2.718  0.00  0.00    -0.016 A 
ATOM      8  C8  IND d   1       0.639  -1.489  -2.184  0.00  0.00    -0.047 A 
ATOM      9  C9  IND d   1       0.434  -1.190  -0.830  0.00  0.00    -0.096 A 
ATOM     10  HN1 IND d   1       1.335  -0.271  -3.617  0.00  0.00     0.298 HD
ENDROOT
TORSDOF 0
ENDMDL
