MODEL 1
REMARK minimizedAffinity 8.87712574
REMARK minimizedRMSD -1
REMARK  0 active torsions:
REMARK  status: ('A' for Active; 'I' for Inactive)
ROOT
ATOM      1  N1  IND d   1       1.610  -1.509  -3.621  0.00  0.00    -0.196 N 
ATOM      2  C2  IND d   1       0.731  -2.245  -2.876  0.00  0.00     0.054 A 
ATOM      3  C3  IND d   1       0.707  -1.798  -1.600  0.00  0.00    -0.031 A 
ATOM      4  C4  IND d   1       1.952   0.191  -0.540  0.00  0.00     0.051 A 
ATOM      5  C5  IND d   1       2.896   1.140  -0.814  0.00  0.00    -0.031 A 
ATOM      6  C6  IND d   1       3.469   1.260  -2.064  0.00  0.00     0.015 A 
ATOM      7  C7  IND d   1       3.109   0.437  -3.094  0.00  0.00    -0.016 A 
ATOM      8  C8  IND d   1       2.157  -0.533  -2.817  0.00  0.00    -0.047 A 
ATOM      9  C9  IND d   1       1.603  -0.686  -1.540  0.00  0.00    -0.096 A 
ATOM     10  HN1 IND d   1       1.791  -1.636  -4.452  0.00  0.00     0.298 HD
ENDROOT
TORSDOF 0
ENDMDL
