MODEL 1
REMARK minimizedAffinity 8.43439484
REMARK minimizedRMSD -1
REMARK  0 active torsions:
REMARK  status: ('A' for Active; 'I' for Inactive)
ROOT
ATOM      1  N1  IND d   1       0.677  -0.007  -2.685  0.00  0.00    -0.196 N 
ATOM      2  C2  IND d   1       0.958  -1.125  -3.420  0.00  0.00     0.054 A 
ATOM      3  C3  IND d   1       2.126  -1.673  -3.015  0.00  0.00    -0.031 A 
ATOM      4  C4  IND d   1       3.688  -0.961  -1.097  0.00  0.00     0.051 A 
ATOM      5  C5  IND d   1       3.871   0.022  -0.165  0.00  0.00    -0.031 A 
ATOM      6  C6  IND d   1       2.979   1.065  -0.020  0.00  0.00     0.015 A 
ATOM      7  C7  IND d   1       1.860   1.158  -0.799  0.00  0.00    -0.016 A 
ATOM      8  C8  IND d   1       1.675   0.166  -1.751  0.00  0.00    -0.047 A 
ATOM      9  C9  IND d   1       2.599  -0.872  -1.931  0.00  0.00    -0.096 A 
ATOM     10  HN1 IND d   1      -0.007   0.503  -2.789  0.00  0.00     0.298 HD
ENDROOT
TORSDOF 0
ENDMDL
