MODEL 1
REMARK minimizedAffinity 2.12080503
REMARK minimizedRMSD -1
REMARK  0 active torsions:
REMARK  status: ('A' for Active; 'I' for Inactive)
ROOT
ATOM      1  N1  IND d   1      -2.816  -1.010  -0.774  0.00  0.00    -0.196 N 
ATOM      2  C2  IND d   1      -2.403   0.205  -0.302  0.00  0.00     0.054 A 
ATOM      3  C3  IND d   1      -1.478   0.042   0.670  0.00  0.00    -0.031 A 
ATOM      4  C4  IND d   1      -0.421  -2.125   1.575  0.00  0.00     0.051 A 
ATOM      5  C5  IND d   1      -0.505  -3.485   1.480  0.00  0.00    -0.031 A 
ATOM      6  C6  IND d   1      -1.379  -4.103   0.610  0.00  0.00     0.015 A 
ATOM      7  C7  IND d   1      -2.198  -3.379  -0.211  0.00  0.00    -0.016 A 
ATOM      8  C8  IND d   1      -2.121  -1.997  -0.112  0.00  0.00    -0.047 A 
ATOM      9  C9  IND d   1      -1.266  -1.365   0.800  0.00  0.00    -0.096 A 
ATOM     10  HN1 IND d   1      -3.411  -1.136  -1.382  0.00  0.00     0.298 HD
ENDROOT
TORSDOF 0
ENDMDL
