MODEL 1
REMARK minimizedAffinity 11.5470943
REMARK minimizedRMSD -1
REMARK  0 active torsions:
REMARK  status: ('A' for Active; 'I' for Inactive)
ROOT
ATOM      1  N1  IND d   1       1.501   0.195  -3.300  0.00  0.00    -0.196 N 
ATOM      2  C2  IND d   1       1.790   0.892  -2.160  0.00  0.00     0.054 A 
ATOM      3  C3  IND d   1       1.294   0.251  -1.078  0.00  0.00    -0.031 A 
ATOM      4  C4  IND d   1       0.063  -2.006  -0.936  0.00  0.00     0.051 A 
ATOM      5  C5  IND d   1      -0.464  -2.996  -1.717  0.00  0.00    -0.031 A 
ATOM      6  C6  IND d   1      -0.359  -2.974  -3.092  0.00  0.00     0.015 A 
ATOM      7  C7  IND d   1       0.291  -1.962  -3.741  0.00  0.00    -0.016 A 
ATOM      8  C8  IND d   1       0.821  -0.952  -2.952  0.00  0.00    -0.047 A 
ATOM      9  C9  IND d   1       0.680  -0.947  -1.559  0.00  0.00    -0.096 A 
ATOM     10  HN1 IND d   1       1.709   0.433  -4.100  0.00  0.00     0.298 HD
ENDROOT
TORSDOF 0
ENDMDL
