MODEL 1
REMARK minimizedAffinity 18.6826458
REMARK minimizedRMSD -1
REMARK  0 active torsions:
REMARK  status: ('A' for Active; 'I' for Inactive)
ROOT
ATOM      1  N1  IND d   1       4.169  -0.328   0.744  0.00  0.00    -0.196 N 
ATOM      2  C2  IND d   1       4.186  -1.683   0.926  0.00  0.00     0.054 A 
ATOM      3  C3  IND d   1       3.202  -2.266   0.205  0.00  0.00    -0.031 A 
ATOM      4  C4  IND d   1       1.514  -1.201  -1.420  0.00  0.00     0.051 A 
ATOM      5  C5  IND d   1       1.085   0.009  -1.888  0.00  0.00    -0.031 A 
ATOM      6  C6  IND d   1       1.675   1.193  -1.495  0.00  0.00     0.015 A 
ATOM      7  C7  IND d   1       2.729   1.210  -0.626  0.00  0.00    -0.016 A 
ATOM      8  C8  IND d   1       3.163  -0.017  -0.144  0.00  0.00    -0.047 A 
ATOM      9  C9  IND d   1       2.540  -1.219  -0.506  0.00  0.00    -0.096 A 
ATOM     10  HN1 IND d   1       4.697   0.235   1.122  0.00  0.00     0.298 HD
ENDROOT
TORSDOF 0
ENDMDL
