MODEL 1
REMARK minimizedAffinity 2.09896898
REMARK minimizedRMSD -1
REMARK  0 active torsions:
REMARK  status: ('A' for Active; 'I' for Inactive)
ROOT
ATOM      1  N1  IND d   1      -2.468   2.757  -1.528  0.00  0.00    -0.196 N 
ATOM      2  C2  IND d   1      -1.599   2.113  -0.692  0.00  0.00     0.054 A 
ATOM      3  C3  IND d   1      -1.428   2.823   0.446  0.00  0.00    -0.031 A 
ATOM      4  C4  IND d   1      -2.552   5.016   1.190  0.00  0.00     0.051 A 
ATOM      5  C5  IND d   1      -3.392   6.000   0.748  0.00  0.00    -0.031 A 
ATOM      6  C6  IND d   1      -3.981   5.950  -0.499  0.00  0.00     0.015 A 
ATOM      7  C7  IND d   1      -3.760   4.905  -1.350  0.00  0.00    -0.016 A 
ATOM      8  C8  IND d   1      -2.902   3.908  -0.908  0.00  0.00    -0.047 A 
ATOM      9  C9  IND d   1      -2.268   3.974   0.340  0.00  0.00    -0.096 A 
ATOM     10  HN1 IND d   1      -2.704   2.488  -2.310  0.00  0.00     0.298 HD
ENDROOT
TORSDOF 0
ENDMDL
