MODEL 1
REMARK minimizedAffinity 7.10595703
REMARK minimizedRMSD -1
REMARK  1 active torsions:
REMARK  status: ('A' for Active; 'I' for Inactive)
REMARK    1  A    between atoms: C1_2  and  C2_3 
ROOT
ATOM      1  C2  UNL d   1       0.415   0.638  -2.206  0.00  0.00    -0.081 A 
ATOM      2  C3  UNL d   1      -0.828   0.969  -1.654  0.00  0.00     0.006 A 
ATOM      3  C4  UNL d   1      -0.946   1.248  -0.290  0.00  0.00     0.002 A 
ATOM      4  C5  UNL d   1       0.177   1.208   0.542  0.00  0.00    -0.080 A 
ATOM      5  C6  UNL d   1       0.070   1.535   2.002  0.00  0.00     0.076 C 
ATOM      6  C7  UNL d   1       1.417   0.860  -0.006  0.00  0.00     0.002 A 
ATOM      7  C8  UNL d   1       1.535   0.581  -1.369  0.00  0.00     0.006 A 
ENDROOT
BRANCH   1   8
ATOM      8  C1  UNL d   1       0.558   0.400  -3.687  0.00  0.00     0.054 C 
ATOM      9  C   UNL d   1       0.092  -0.998  -4.071  0.00  0.00     0.018 C 
ENDBRANCH   1   8
TORSDOF 1
ENDMDL
