MODEL 1
REMARK minimizedAffinity 4.51240683
REMARK minimizedRMSD -1
REMARK  1 active torsions:
REMARK  status: ('A' for Active; 'I' for Inactive)
REMARK    1  A    between atoms: C1_2  and  C2_3 
ROOT
ATOM      1  C2  UNL d   1      -3.799   3.465  -5.348  0.00  0.00    -0.081 A 
ATOM      2  C3  UNL d   1      -3.415   2.937  -4.109  0.00  0.00     0.006 A 
ATOM      3  C4  UNL d   1      -4.133   1.884  -3.536  0.00  0.00     0.002 A 
ATOM      4  C5  UNL d   1      -5.239   1.337  -4.194  0.00  0.00    -0.080 A 
ATOM      5  C6  UNL d   1      -5.999   0.187  -3.603  0.00  0.00     0.076 C 
ATOM      6  C7  UNL d   1      -5.633   1.876  -5.423  0.00  0.00     0.002 A 
ATOM      7  C8  UNL d   1      -4.917   2.929  -5.997  0.00  0.00     0.006 A 
ENDROOT
BRANCH   1   8
ATOM      8  C1  UNL d   1      -2.989   4.556  -6.000  0.00  0.00     0.054 C 
ATOM      9  C   UNL d   1      -1.794   4.946  -5.142  0.00  0.00     0.018 C 
ENDBRANCH   1   8
TORSDOF 1
ENDMDL
