MODEL 1
REMARK minimizedAffinity 9.45793533
REMARK minimizedRMSD -1
REMARK  1 active torsions:
REMARK  status: ('A' for Active; 'I' for Inactive)
REMARK    1  A    between atoms: C1_2  and  C2_3 
ROOT
ATOM      1  C2  UNL d   1       0.464   0.525  -1.890  0.00  0.00    -0.081 A 
ATOM      2  C3  UNL d   1       0.184   1.896  -1.831  0.00  0.00     0.006 A 
ATOM      3  C4  UNL d   1      -0.019   2.524  -0.600  0.00  0.00     0.002 A 
ATOM      4  C5  UNL d   1       0.062   1.796   0.591  0.00  0.00    -0.080 A 
ATOM      5  C6  UNL d   1      -0.124   2.465   1.920  0.00  0.00     0.076 C 
ATOM      6  C7  UNL d   1       0.324   0.423   0.531  0.00  0.00     0.002 A 
ATOM      7  C8  UNL d   1       0.526  -0.207  -0.699  0.00  0.00     0.006 A 
ENDROOT
BRANCH   1   8
ATOM      8  C1  UNL d   1       0.747  -0.143  -3.211  0.00  0.00     0.054 C 
ATOM      9  C   UNL d   1       1.182   0.869  -4.261  0.00  0.00     0.018 C 
ENDBRANCH   1   8
TORSDOF 1
ENDMDL
