MODEL 1
REMARK minimizedAffinity 9.49462509
REMARK minimizedRMSD -1
REMARK  1 active torsions:
REMARK  status: ('A' for Active; 'I' for Inactive)
REMARK    1  A    between atoms: C1_2  and  C2_3 
ROOT
ATOM      1  C2  UNL d   1       0.233   1.471  -1.328  0.00  0.00    -0.081 A 
ATOM      2  C3  UNL d   1       0.096   2.579  -0.482  0.00  0.00     0.006 A 
ATOM      3  C4  UNL d   1       0.095   2.414   0.905  0.00  0.00     0.002 A 
ATOM      4  C5  UNL d   1       0.239   1.142   1.469  0.00  0.00    -0.080 A 
ATOM      5  C6  UNL d   1       0.271   0.956   2.957  0.00  0.00     0.076 C 
ATOM      6  C7  UNL d   1       0.359   0.034   0.624  0.00  0.00     0.002 A 
ATOM      7  C8  UNL d   1       0.359   0.197  -0.763  0.00  0.00     0.006 A 
ENDROOT
BRANCH   1   8
ATOM      8  C1  UNL d   1       0.299   1.652  -2.823  0.00  0.00     0.054 C 
ATOM      9  C   UNL d   1       1.215   0.620  -3.466  0.00  0.00     0.018 C 
ENDBRANCH   1   8
TORSDOF 1
ENDMDL
