MODEL 1
REMARK minimizedAffinity 6.51785755
REMARK minimizedRMSD -1
REMARK  1 active torsions:
REMARK  status: ('A' for Active; 'I' for Inactive)
REMARK    1  A    between atoms: C1_2  and  C2_3 
ROOT
ATOM      1  C2  UNL d   1      -4.596   3.870  -5.226  0.00  0.00    -0.081 A 
ATOM      2  C3  UNL d   1      -4.128   3.283  -4.045  0.00  0.00     0.006 A 
ATOM      3  C4  UNL d   1      -4.589   2.025  -3.648  0.00  0.00     0.002 A 
ATOM      4  C5  UNL d   1      -5.518   1.330  -4.430  0.00  0.00    -0.080 A 
ATOM      5  C6  UNL d   1      -5.997  -0.034  -4.032  0.00  0.00     0.076 C 
ATOM      6  C7  UNL d   1      -5.999   1.925  -5.602  0.00  0.00     0.002 A 
ATOM      7  C8  UNL d   1      -5.540   3.183  -5.998  0.00  0.00     0.006 A 
ENDROOT
BRANCH   1   8
ATOM      8  C1  UNL d   1      -4.054   5.198  -5.690  0.00  0.00     0.054 C 
ATOM      9  C   UNL d   1      -2.609   5.388  -5.251  0.00  0.00     0.018 C 
ENDBRANCH   1   8
TORSDOF 1
ENDMDL
