MODEL 1
REMARK minimizedAffinity 7.85687351
REMARK minimizedRMSD -1
REMARK  1 active torsions:
REMARK  status: ('A' for Active; 'I' for Inactive)
REMARK    1  A    between atoms: C1_2  and  C2_3 
ROOT
ATOM      1  C2  UNL d   1      -4.956   0.790  -4.364  0.00  0.00    -0.081 A 
ATOM      2  C3  UNL d   1      -4.307   1.892  -3.793  0.00  0.00     0.006 A 
ATOM      3  C4  UNL d   1      -4.507   3.175  -4.307  0.00  0.00     0.002 A 
ATOM      4  C5  UNL d   1      -5.362   3.379  -5.395  0.00  0.00    -0.080 A 
ATOM      5  C6  UNL d   1      -5.608   4.756  -5.937  0.00  0.00     0.076 C 
ATOM      6  C7  UNL d   1      -5.996   2.276  -5.976  0.00  0.00     0.002 A 
ATOM      7  C8  UNL d   1      -5.797   0.992  -5.463  0.00  0.00     0.006 A 
ENDROOT
BRANCH   1   8
ATOM      8  C1  UNL d   1      -4.794  -0.586  -3.771  0.00  0.00     0.054 C 
ATOM      9  C   UNL d   1      -5.886  -0.883  -2.754  0.00  0.00     0.018 C 
ENDBRANCH   1   8
TORSDOF 1
ENDMDL
