MODEL 1
REMARK minimizedAffinity 4.22091246
REMARK minimizedRMSD -1
REMARK  1 active torsions:
REMARK  status: ('A' for Active; 'I' for Inactive)
REMARK    1  A    between atoms: C1_2  and  C2_3 
ROOT
ATOM      1  C2  UNL d   1       0.345   1.325   0.262  0.00  0.00    -0.081 A 
ATOM      2  C3  UNL d   1       1.152   0.842  -0.775  0.00  0.00     0.006 A 
ATOM      3  C4  UNL d   1       1.085  -0.500  -1.158  0.00  0.00     0.002 A 
ATOM      4  C5  UNL d   1       0.205  -1.378  -0.517  0.00  0.00    -0.080 A 
ATOM      5  C6  UNL d   1       0.102  -2.813  -0.938  0.00  0.00     0.076 C 
ATOM      6  C7  UNL d   1      -0.588  -0.899   0.531  0.00  0.00     0.002 A 
ATOM      7  C8  UNL d   1      -0.521   0.442   0.915  0.00  0.00     0.006 A 
ENDROOT
BRANCH   1   8
ATOM      8  C1  UNL d   1       0.368   2.786   0.634  0.00  0.00     0.054 C 
ATOM      9  C   UNL d   1       0.311   2.973   2.143  0.00  0.00     0.018 C 
ENDBRANCH   1   8
TORSDOF 1
ENDMDL
