MODEL 1
REMARK minimizedAffinity 10.5153608
REMARK minimizedRMSD -1
REMARK  1 active torsions:
REMARK  status: ('A' for Active; 'I' for Inactive)
REMARK    1  A    between atoms: C1_2  and  C2_3 
ROOT
ATOM      1  C2  UNL d   1       0.188   2.240   1.042  0.00  0.00    -0.081 A 
ATOM      2  C3  UNL d   1       0.619   1.177   1.845  0.00  0.00     0.006 A 
ATOM      3  C4  UNL d   1       0.522  -0.140   1.387  0.00  0.00     0.002 A 
ATOM      4  C5  UNL d   1       0.001  -0.414   0.118  0.00  0.00    -0.080 A 
ATOM      5  C6  UNL d   1      -0.080  -1.820  -0.396  0.00  0.00     0.076 C 
ATOM      6  C7  UNL d   1      -0.446   0.647  -0.677  0.00  0.00     0.002 A 
ATOM      7  C8  UNL d   1      -0.350   1.963  -0.220  0.00  0.00     0.006 A 
ENDROOT
BRANCH   1   8
ATOM      8  C1  UNL d   1       0.350   3.665   1.506  0.00  0.00     0.054 C 
ATOM      9  C   UNL d   1       1.058   3.732   2.852  0.00  0.00     0.018 C 
ENDBRANCH   1   8
TORSDOF 1
ENDMDL
