MODEL 1
REMARK minimizedAffinity 4.84134388
REMARK minimizedRMSD -1
REMARK  1 active torsions:
REMARK  status: ('A' for Active; 'I' for Inactive)
REMARK    1  A    between atoms: C1_2  and  C2_3 
ROOT
ATOM      1  C2  UNL d   1       0.042   1.846   0.726  0.00  0.00    -0.081 A 
ATOM      2  C3  UNL d   1       1.029   0.857   0.646  0.00  0.00     0.006 A 
ATOM      3  C4  UNL d   1       1.369   0.293  -0.586  0.00  0.00     0.002 A 
ATOM      4  C5  UNL d   1       0.733   0.715  -1.759  0.00  0.00    -0.080 A 
ATOM      5  C6  UNL d   1       1.110   0.139  -3.092  0.00  0.00     0.076 C 
ATOM      6  C7  UNL d   1      -0.266   1.690  -1.677  0.00  0.00     0.002 A 
ATOM      7  C8  UNL d   1      -0.606   2.254  -0.446  0.00  0.00     0.006 A 
ENDROOT
BRANCH   1   8
ATOM      8  C1  UNL d   1      -0.281   2.502   2.044  0.00  0.00     0.054 C 
ATOM      9  C   UNL d   1       0.807   3.483   2.455  0.00  0.00     0.018 C 
ENDBRANCH   1   8
TORSDOF 1
ENDMDL
