MODEL 1
REMARK minimizedAffinity 1.81745374
REMARK minimizedRMSD -1
REMARK  1 active torsions:
REMARK  status: ('A' for Active; 'I' for Inactive)
REMARK    1  A    between atoms: C1_2  and  C2_3 
ROOT
ATOM      1  C2  UNL d   1      -4.335   2.843  -5.515  0.00  0.00    -0.081 A 
ATOM      2  C3  UNL d   1      -3.926   1.519  -5.310  0.00  0.00     0.006 A 
ATOM      3  C4  UNL d   1      -2.654   1.242  -4.804  0.00  0.00     0.002 A 
ATOM      4  C5  UNL d   1      -1.774   2.281  -4.486  0.00  0.00    -0.080 A 
ATOM      5  C6  UNL d   1      -0.417   1.998  -3.913  0.00  0.00     0.076 C 
ATOM      6  C7  UNL d   1      -2.176   3.603  -4.707  0.00  0.00     0.002 A 
ATOM      7  C8  UNL d   1      -3.447   3.882  -5.214  0.00  0.00     0.006 A 
ENDROOT
BRANCH   1   8
ATOM      8  C1  UNL d   1      -5.729   3.148  -6.000  0.00  0.00     0.054 C 
ATOM      9  C   UNL d   1      -6.000   4.646  -5.999  0.00  0.00     0.018 C 
ENDBRANCH   1   8
TORSDOF 1
ENDMDL
