MODEL 1
REMARK minimizedAffinity 4.66783476
REMARK minimizedRMSD -1
REMARK  1 active torsions:
REMARK  status: ('A' for Active; 'I' for Inactive)
REMARK    1  A    between atoms: C1_2  and  C2_3 
ROOT
ATOM      1  C2  UNL d   1       0.284   3.040   1.133  0.00  0.00    -0.081 A 
ATOM      2  C3  UNL d   1       0.179   2.024   2.091  0.00  0.00     0.006 A 
ATOM      3  C4  UNL d   1      -0.097   0.711   1.702  0.00  0.00     0.002 A 
ATOM      4  C5  UNL d   1      -0.265   0.391   0.350  0.00  0.00    -0.080 A 
ATOM      5  C6  UNL d   1      -0.531  -1.020  -0.083  0.00  0.00     0.076 C 
ATOM      6  C7  UNL d   1      -0.177   1.410  -0.605  0.00  0.00     0.002 A 
ATOM      7  C8  UNL d   1       0.098   2.723  -0.217  0.00  0.00     0.006 A 
ENDROOT
BRANCH   1   8
ATOM      8  C1  UNL d   1       0.646   4.445   1.543  0.00  0.00     0.054 C 
ATOM      9  C   UNL d   1       1.245   5.224   0.381  0.00  0.00     0.018 C 
ENDBRANCH   1   8
TORSDOF 1
ENDMDL
