MODEL 1
REMARK minimizedAffinity 9.06158257
REMARK minimizedRMSD -1
REMARK  1 active torsions:
REMARK  status: ('A' for Active; 'I' for Inactive)
REMARK    1  A    between atoms: C1_2  and  C2_3 
ROOT
ATOM      1  C2  UNL d   1      -5.054   2.805  -5.313  0.00  0.00    -0.081 A 
ATOM      2  C3  UNL d   1      -5.691   1.761  -5.996  0.00  0.00     0.006 A 
ATOM      3  C4  UNL d   1      -5.981   0.561  -5.344  0.00  0.00     0.002 A 
ATOM      4  C5  UNL d   1      -5.647   0.386  -3.997  0.00  0.00    -0.080 A 
ATOM      5  C6  UNL d   1      -5.980  -0.887  -3.277  0.00  0.00     0.076 C 
ATOM      6  C7  UNL d   1      -4.996   1.422  -3.319  0.00  0.00     0.002 A 
ATOM      7  C8  UNL d   1      -4.705   2.622  -3.970  0.00  0.00     0.006 A 
ENDROOT
BRANCH   1   8
ATOM      8  C1  UNL d   1      -4.798   4.124  -5.995  0.00  0.00     0.054 C 
ATOM      9  C   UNL d   1      -6.000   5.050  -5.877  0.00  0.00     0.018 C 
ENDBRANCH   1   8
TORSDOF 1
ENDMDL
