MODEL 1
REMARK minimizedAffinity -3.43327904
REMARK minimizedRMSD -1
REMARK  1 active torsions:
REMARK  status: ('A' for Active; 'I' for Inactive)
REMARK    1  A    between atoms: C1_2  and  C2_3 
ROOT
ATOM      1  C2  UNL d   1      -0.898  -0.385  -1.825  0.00  0.00    -0.081 A 
ATOM      2  C3  UNL d   1      -0.678   0.581  -0.835  0.00  0.00     0.006 A 
ATOM      3  C4  UNL d   1       0.322   0.398   0.123  0.00  0.00     0.002 A 
ATOM      4  C5  UNL d   1       1.123  -0.749   0.103  0.00  0.00    -0.080 A 
ATOM      5  C6  UNL d   1       2.220  -0.943   1.107  0.00  0.00     0.076 C 
ATOM      6  C7  UNL d   1       0.892  -1.722  -0.876  0.00  0.00     0.002 A 
ATOM      7  C8  UNL d   1      -0.108  -1.540  -1.833  0.00  0.00     0.006 A 
ENDROOT
BRANCH   1   8
ATOM      8  C1  UNL d   1      -1.933  -0.160  -2.898  0.00  0.00     0.054 C 
ATOM      9  C   UNL d   1      -1.583  -0.918  -4.171  0.00  0.00     0.018 C 
ENDBRANCH   1   8
TORSDOF 1
ENDMDL
