MODEL 1
REMARK minimizedAffinity 1.02445138
REMARK minimizedRMSD -1
REMARK  1 active torsions:
REMARK  status: ('A' for Active; 'I' for Inactive)
REMARK    1  A    between atoms: C1_2  and  C2_3 
ROOT
ATOM      1  C2  UNL d   1      -3.349   0.182   0.133  0.00  0.00    -0.081 A 
ATOM      2  C3  UNL d   1      -4.174   0.154  -0.999  0.00  0.00     0.006 A 
ATOM      3  C4  UNL d   1      -3.628  -0.060  -2.267  0.00  0.00     0.002 A 
ATOM      4  C5  UNL d   1      -2.252  -0.256  -2.424  0.00  0.00    -0.080 A 
ATOM      5  C6  UNL d   1      -1.658  -0.516  -3.776  0.00  0.00     0.076 C 
ATOM      6  C7  UNL d   1      -1.426  -0.210  -1.296  0.00  0.00     0.002 A 
ATOM      7  C8  UNL d   1      -1.971   0.004  -0.028  0.00  0.00     0.006 A 
ENDROOT
BRANCH   1   8
ATOM      8  C1  UNL d   1      -3.942   0.347   1.509  0.00  0.00     0.054 C 
ATOM      9  C   UNL d   1      -3.740   1.762   2.032  0.00  0.00     0.018 C 
ENDBRANCH   1   8
TORSDOF 1
ENDMDL
