MODEL 1
REMARK minimizedAffinity -1.0414046
REMARK minimizedRMSD -1
REMARK  1 active torsions:
REMARK  status: ('A' for Active; 'I' for Inactive)
REMARK    1  A    between atoms: C1_2  and  C2_3 
ROOT
ATOM      1  C2  UNL d   1       0.507  -1.645  -1.433  0.00  0.00    -0.081 A 
ATOM      2  C3  UNL d   1       0.007  -0.680  -0.549  0.00  0.00     0.006 A 
ATOM      3  C4  UNL d   1       0.847  -0.075   0.388  0.00  0.00     0.002 A 
ATOM      4  C5  UNL d   1       2.202  -0.418   0.452  0.00  0.00    -0.080 A 
ATOM      5  C6  UNL d   1       3.122   0.246   1.433  0.00  0.00     0.076 C 
ATOM      6  C7  UNL d   1       2.698  -1.394  -0.419  0.00  0.00     0.002 A 
ATOM      7  C8  UNL d   1       1.858  -2.000  -1.356  0.00  0.00     0.006 A 
ENDROOT
BRANCH   1   8
ATOM      8  C1  UNL d   1      -0.383  -2.252  -2.488  0.00  0.00     0.054 C 
ATOM      9  C   UNL d   1      -0.837  -1.207  -3.497  0.00  0.00     0.018 C 
ENDBRANCH   1   8
TORSDOF 1
ENDMDL
