MODEL 1
REMARK minimizedAffinity -6.45481396
REMARK minimizedRMSD -1
REMARK  2 active torsions:
REMARK  status: ('A' for Active; 'I' for Inactive)
REMARK    1  A    between atoms: C1_2  and  C2_3 
REMARK    2  A    between atoms: C2_3  and  C3_4 
ROOT
ATOM      1  C3  UNL d   1       0.686  -0.414   0.574  0.00  0.00    -0.075 A 
ATOM      2  C4  UNL d   1       0.283  -1.535   1.314  0.00  0.00     0.002 A 
ATOM      3  C5  UNL d   1       1.221  -2.306   2.000  0.00  0.00     0.002 A 
ATOM      4  C6  UNL d   1       2.573  -1.973   1.948  0.00  0.00    -0.004 A 
ATOM      5  C7  UNL d   1       2.987  -0.872   1.202  0.00  0.00     0.002 A 
ATOM      6  C8  UNL d   1       2.050  -0.096   0.518  0.00  0.00     0.002 A 
ENDROOT
BRANCH   1   7
ATOM      7  C2  UNL d   1      -0.328   0.442  -0.147  0.00  0.00     0.056 C 
BRANCH   7   8
ATOM      8  C1  UNL d   1      -1.743  -0.145  -0.160  0.00  0.00     0.007 C 
ATOM      9  C   UNL d   1      -2.461   0.048  -1.488  0.00  0.00     0.009 C 
ENDBRANCH   7   8
ENDBRANCH   1   7
TORSDOF 2
ENDMDL
