MODEL 1
REMARK minimizedAffinity -3.35530782
REMARK minimizedRMSD -1
REMARK  2 active torsions:
REMARK  status: ('A' for Active; 'I' for Inactive)
REMARK    1  A    between atoms: C1_2  and  C2_3 
REMARK    2  A    between atoms: C2_3  and  C3_4 
ROOT
ATOM      1  C3  UNL d   1      -1.589   0.243  -1.299  0.00  0.00    -0.075 A 
ATOM      2  C4  UNL d   1      -1.532  -0.935  -2.057  0.00  0.00     0.002 A 
ATOM      3  C5  UNL d   1      -1.947  -0.941  -3.390  0.00  0.00     0.002 A 
ATOM      4  C6  UNL d   1      -2.432   0.225  -3.976  0.00  0.00    -0.004 A 
ATOM      5  C7  UNL d   1      -2.509   1.398  -3.228  0.00  0.00     0.002 A 
ATOM      6  C8  UNL d   1      -2.090   1.408  -1.896  0.00  0.00     0.002 A 
ENDROOT
BRANCH   1   7
ATOM      7  C2  UNL d   1      -1.114   0.263   0.134  0.00  0.00     0.056 C 
BRANCH   7   8
ATOM      8  C1  UNL d   1       0.377  -0.048   0.302  0.00  0.00     0.007 C 
ATOM      9  C   UNL d   1       1.271   1.167   0.093  0.00  0.00     0.009 C 
ENDBRANCH   7   8
ENDBRANCH   1   7
TORSDOF 2
ENDMDL
