MODEL 1
REMARK minimizedAffinity -2.55354571
REMARK minimizedRMSD -1
REMARK  1 active torsions:
REMARK  status: ('A' for Active; 'I' for Inactive)
REMARK    1  A    between atoms: C3_4  and  O_7 
ROOT
ATOM      1  C   UNL d   1       1.061   1.504   0.337  0.00  0.00    -0.033 A 
ATOM      2  C1  UNL d   1      -0.116   1.072   0.952  0.00  0.00     0.039 A 
ATOM      3  C2  UNL d   1      -1.077   0.378   0.214  0.00  0.00    -0.080 A 
ATOM      4  C3  UNL d   1      -0.849   0.121  -1.135  0.00  0.00     0.150 A 
ATOM      5  C4  UNL d   1       0.323   0.544  -1.753  0.00  0.00    -0.007 A 
ATOM      6  C5  UNL d   1       1.281   1.238  -1.015  0.00  0.00     0.039 A 
ENDROOT
BRANCH   4   7
ATOM      7  O   UNL d   1      -1.760  -0.549  -1.896  0.00  0.00    -0.526 OA
ATOM      8  H5  UNL d   1      -2.532  -0.754  -1.343  0.00  0.00     0.418 HD
ENDBRANCH   4   7
TORSDOF 1
ENDMDL
