MODEL 1
REMARK minimizedAffinity -4.51343822
REMARK minimizedRMSD -1
REMARK  1 active torsions:
REMARK  status: ('A' for Active; 'I' for Inactive)
REMARK    1  A    between atoms: C3_4  and  O_7 
ROOT
ATOM      1  C   UNL d   1       2.932  -1.778   1.680  0.00  0.00    -0.033 A 
ATOM      2  C1  UNL d   1       3.182  -0.886   0.636  0.00  0.00     0.039 A 
ATOM      3  C2  UNL d   1       2.119  -0.289  -0.045  0.00  0.00    -0.080 A 
ATOM      4  C3  UNL d   1       0.813  -0.591   0.329  0.00  0.00     0.150 A 
ATOM      5  C4  UNL d   1       0.556  -1.476   1.371  0.00  0.00    -0.007 A 
ATOM      6  C5  UNL d   1       1.619  -2.072   2.049  0.00  0.00     0.039 A 
ENDROOT
BRANCH   4   7
ATOM      7  O   UNL d   1      -0.257  -0.037  -0.309  0.00  0.00    -0.526 OA
ATOM      8  H5  UNL d   1       0.072   0.531  -1.025  0.00  0.00     0.418 HD
ENDBRANCH   4   7
TORSDOF 1
ENDMDL
