MODEL 1
REMARK minimizedAffinity -2.93785429
REMARK minimizedRMSD -1
REMARK  1 active torsions:
REMARK  status: ('A' for Active; 'I' for Inactive)
REMARK    1  A    between atoms: C3_4  and  O_7 
ROOT
ATOM      1  C   UNL d   1      -0.421  -1.267   1.124  0.00  0.00    -0.033 A 
ATOM      2  C1  UNL d   1       0.733  -1.500   1.875  0.00  0.00     0.039 A 
ATOM      3  C2  UNL d   1       1.769  -0.564   1.875  0.00  0.00    -0.080 A 
ATOM      4  C3  UNL d   1       1.639   0.599   1.122  0.00  0.00     0.150 A 
ATOM      5  C4  UNL d   1       0.490   0.840   0.375  0.00  0.00    -0.007 A 
ATOM      6  C5  UNL d   1      -0.543  -0.096   0.375  0.00  0.00     0.039 A 
ENDROOT
BRANCH   4   7
ATOM      7  O   UNL d   1       2.625   1.540   1.087  0.00  0.00    -0.526 OA
ATOM      8  H5  UNL d   1       3.369   1.226   1.627  0.00  0.00     0.418 HD
ENDBRANCH   4   7
TORSDOF 1
ENDMDL
