MODEL 1
REMARK minimizedAffinity -2.69774985
REMARK minimizedRMSD -1
REMARK  1 active torsions:
REMARK  status: ('A' for Active; 'I' for Inactive)
REMARK    1  A    between atoms: C3_4  and  O_7 
ROOT
ATOM      1  C   UNL d   1      -3.894   0.090  -3.188  0.00  0.00    -0.033 A 
ATOM      2  C1  UNL d   1      -3.635  -1.105  -2.514  0.00  0.00     0.039 A 
ATOM      3  C2  UNL d   1      -2.676  -1.142  -1.500  0.00  0.00    -0.080 A 
ATOM      4  C3  UNL d   1      -1.986   0.021  -1.169  0.00  0.00     0.150 A 
ATOM      5  C4  UNL d   1      -2.242   1.215  -1.833  0.00  0.00    -0.007 A 
ATOM      6  C5  UNL d   1      -3.199   1.251  -2.847  0.00  0.00     0.039 A 
ENDROOT
BRANCH   4   7
ATOM      7  O   UNL d   1      -1.038   0.032  -0.189  0.00  0.00    -0.526 OA
ATOM      8  H5  UNL d   1      -0.948  -0.869   0.162  0.00  0.00     0.418 HD
ENDBRANCH   4   7
TORSDOF 1
ENDMDL
