MODEL 1
REMARK minimizedAffinity 13.973527
REMARK minimizedRMSD -1
REMARK  0 active torsions:
REMARK  status: ('A' for Active; 'I' for Inactive)
ROOT
ATOM      1  C   UNL d   1      -2.280  -0.679   3.040  0.00  0.00     0.124 A 
ATOM      2  C1  UNL d   1      -1.041  -1.030   3.560  0.00  0.00     0.062 A 
ATOM      3  C2  UNL d   1       0.124  -0.711   2.868  0.00  0.00     0.162 A 
ATOM      4  C3  UNL d   1       0.057  -0.037   1.649  0.00  0.00    -0.034 A 
ATOM      5  C4  UNL d   1      -1.192   0.311   1.132  0.00  0.00     0.162 A 
ATOM      6  C5  UNL d   1      -2.354  -0.009   1.827  0.00  0.00     0.062 A 
ATOM      7  F   UNL d   1      -3.550   0.330   1.323  0.00  0.00    -0.097 F 
ATOM      8  F1  UNL d   1      -1.293   0.960  -0.038  0.00  0.00    -0.096 F 
ATOM      9  I   UNL d   1       1.796   0.441   0.611  0.00  0.00    -0.060 I 
ATOM     10  F2  UNL d   1       1.307  -1.062   3.394  0.00  0.00    -0.096 F 
ATOM     11  F3  UNL d   1      -0.967  -1.678   4.731  0.00  0.00    -0.097 F 
ATOM     12  F4  UNL d   1      -3.399  -0.988   3.707  0.00  0.00    -0.092 F 
ENDROOT
TORSDOF 0
ENDMDL
