MODEL 1
REMARK minimizedAffinity 4.0051322
REMARK minimizedRMSD -1
REMARK  0 active torsions:
REMARK  status: ('A' for Active; 'I' for Inactive)
ROOT
ATOM      1  C   UNL d   1      -0.210  -0.131   0.143  0.00  0.00     0.124 A 
ATOM      2  C1  UNL d   1      -1.451   0.070   0.731  0.00  0.00     0.062 A 
ATOM      3  C2  UNL d   1      -1.661  -0.282   2.062  0.00  0.00     0.162 A 
ATOM      4  C3  UNL d   1      -0.626  -0.837   2.814  0.00  0.00    -0.034 A 
ATOM      5  C4  UNL d   1       0.619  -1.037   2.215  0.00  0.00     0.162 A 
ATOM      6  C5  UNL d   1       0.824  -0.684   0.885  0.00  0.00     0.062 A 
ATOM      7  F   UNL d   1       2.023  -0.879   0.319  0.00  0.00    -0.097 F 
ATOM      8  F1  UNL d   1       1.636  -1.569   2.909  0.00  0.00    -0.096 F 
ATOM      9  I   UNL d   1      -0.934  -1.364   4.804  0.00  0.00    -0.060 I 
ATOM     10  F2  UNL d   1      -2.870  -0.076   2.604  0.00  0.00    -0.096 F 
ATOM     11  F3  UNL d   1      -2.452   0.603   0.016  0.00  0.00    -0.097 F 
ATOM     12  F4  UNL d   1      -0.012   0.207  -1.138  0.00  0.00    -0.092 F 
ENDROOT
TORSDOF 0
ENDMDL
