MODEL 1
REMARK minimizedAffinity 10.8658915
REMARK minimizedRMSD -1
REMARK  0 active torsions:
REMARK  status: ('A' for Active; 'I' for Inactive)
ROOT
ATOM      1  C   UNL d   1       4.591   4.151   3.192  0.00  0.00     0.124 A 
ATOM      2  C1  UNL d   1       3.781   3.109   2.761  0.00  0.00     0.062 A 
ATOM      3  C2  UNL d   1       3.567   2.907   1.400  0.00  0.00     0.162 A 
ATOM      4  C3  UNL d   1       4.165   3.747   0.461  0.00  0.00    -0.034 A 
ATOM      5  C4  UNL d   1       4.976   4.794   0.903  0.00  0.00     0.162 A 
ATOM      6  C5  UNL d   1       5.187   4.992   2.263  0.00  0.00     0.062 A 
ATOM      7  F   UNL d   1       5.969   6.000   2.678  0.00  0.00    -0.097 F 
ATOM      8  F1  UNL d   1       5.566   5.621   0.026  0.00  0.00    -0.096 F 
ATOM      9  I   UNL d   1       3.847   3.447  -1.574  0.00  0.00    -0.060 I 
ATOM     10  F2  UNL d   1       2.781   1.892   1.012  0.00  0.00    -0.096 F 
ATOM     11  F3  UNL d   1       3.203   2.296   3.656  0.00  0.00    -0.097 F 
ATOM     12  F4  UNL d   1       4.794   4.345   4.502  0.00  0.00    -0.092 F 
ENDROOT
TORSDOF 0
ENDMDL
