MODEL 1
REMARK minimizedAffinity 3.95459247
REMARK minimizedRMSD -1
REMARK  0 active torsions:
REMARK  status: ('A' for Active; 'I' for Inactive)
ROOT
ATOM      1  C   UNL d   1      -1.908   0.063   0.350  0.00  0.00     0.124 A 
ATOM      2  C1  UNL d   1      -2.765  -0.098   1.430  0.00  0.00     0.062 A 
ATOM      3  C2  UNL d   1      -2.283  -0.595   2.638  0.00  0.00     0.162 A 
ATOM      4  C3  UNL d   1      -0.937  -0.933   2.773  0.00  0.00    -0.034 A 
ATOM      5  C4  UNL d   1      -0.081  -0.769   1.682  0.00  0.00     0.162 A 
ATOM      6  C5  UNL d   1      -0.567  -0.272   0.477  0.00  0.00     0.062 A 
ATOM      7  F   UNL d   1       0.262  -0.117  -0.565  0.00  0.00    -0.097 F 
ATOM      8  F1  UNL d   1       1.219  -1.084   1.778  0.00  0.00    -0.096 F 
ATOM      9  I   UNL d   1      -0.213  -1.675   4.577  0.00  0.00    -0.060 I 
ATOM     10  F2  UNL d   1      -3.134  -0.740   3.665  0.00  0.00    -0.096 F 
ATOM     11  F3  UNL d   1      -4.061   0.224   1.310  0.00  0.00    -0.097 F 
ATOM     12  F4  UNL d   1      -2.374   0.540  -0.811  0.00  0.00    -0.092 F 
ENDROOT
TORSDOF 0
ENDMDL
