MODEL 1
REMARK minimizedAffinity 8.30662155
REMARK minimizedRMSD -1
REMARK  0 active torsions:
REMARK  status: ('A' for Active; 'I' for Inactive)
ROOT
ATOM      1  C   UNL d   1      -1.456   0.447   0.898  0.00  0.00     0.124 A 
ATOM      2  C1  UNL d   1      -0.202  -0.098   1.137  0.00  0.00     0.062 A 
ATOM      3  C2  UNL d   1       0.071  -0.719   2.352  0.00  0.00     0.162 A 
ATOM      4  C3  UNL d   1      -0.912  -0.800   3.338  0.00  0.00    -0.034 A 
ATOM      5  C4  UNL d   1      -2.171  -0.248   3.091  0.00  0.00     0.162 A 
ATOM      6  C5  UNL d   1      -2.439   0.371   1.874  0.00  0.00     0.062 A 
ATOM      7  F   UNL d   1      -3.651   0.897   1.645  0.00  0.00    -0.097 F 
ATOM      8  F1  UNL d   1      -3.139  -0.308   4.016  0.00  0.00    -0.096 F 
ATOM      9  I   UNL d   1      -0.508  -1.728   5.157  0.00  0.00    -0.060 I 
ATOM     10  F2  UNL d   1       1.292  -1.237   2.556  0.00  0.00    -0.096 F 
ATOM     11  F3  UNL d   1       0.750  -0.026   0.195  0.00  0.00    -0.097 F 
ATOM     12  F4  UNL d   1      -1.715   1.045  -0.272  0.00  0.00    -0.092 F 
ENDROOT
TORSDOF 0
ENDMDL
