MODEL 1
REMARK minimizedAffinity 6.20281649
REMARK minimizedRMSD -1
REMARK  0 active torsions:
REMARK  status: ('A' for Active; 'I' for Inactive)
ROOT
ATOM      1  C   UNL d   1      -1.950  -2.097   4.114  0.00  0.00     0.124 A 
ATOM      2  C1  UNL d   1      -0.634  -1.662   4.039  0.00  0.00     0.062 A 
ATOM      3  C2  UNL d   1      -0.261  -0.722   3.082  0.00  0.00     0.162 A 
ATOM      4  C3  UNL d   1      -1.207  -0.209   2.193  0.00  0.00    -0.034 A 
ATOM      5  C4  UNL d   1      -2.528  -0.653   2.275  0.00  0.00     0.162 A 
ATOM      6  C5  UNL d   1      -2.895  -1.593   3.232  0.00  0.00     0.062 A 
ATOM      7  F   UNL d   1      -4.167  -2.013   3.303  0.00  0.00    -0.097 F 
ATOM      8  F1  UNL d   1      -3.462  -0.182   1.436  0.00  0.00    -0.096 F 
ATOM      9  I   UNL d   1      -0.654   1.197   0.762  0.00  0.00    -0.060 I 
ATOM     10  F2  UNL d   1       1.017  -0.319   3.033  0.00  0.00    -0.096 F 
ATOM     11  F3  UNL d   1       0.282  -2.148   4.889  0.00  0.00    -0.097 F 
ATOM     12  F4  UNL d   1      -2.305  -3.003   5.034  0.00  0.00    -0.092 F 
ENDROOT
TORSDOF 0
ENDMDL
