MODEL 1
REMARK minimizedAffinity 13.340107
REMARK minimizedRMSD -1
REMARK  3 active torsions:
REMARK  status: ('A' for Active; 'I' for Inactive)
REMARK    1  A    between atoms: C3'_2  and  C2'_3 
REMARK    2  A    between atoms: C2'_3  and  C1'_4 
REMARK    3  A    between atoms: C1'_4  and  C1_5 
ROOT
ATOM      1  C1  N4B d   1      -4.598   3.043   1.533  0.00  0.00    -0.075 A 
ATOM      2  C2  N4B d   1      -3.613   2.047   1.356  0.00  0.00     0.002 A 
ATOM      3  C3  N4B d   1      -3.747   1.119   0.353  0.00  0.00     0.002 A 
ATOM      4  C4  N4B d   1      -4.862   1.155  -0.471  0.00  0.00    -0.004 A 
ATOM      5  C5  N4B d   1      -5.796   2.136  -0.310  0.00  0.00     0.002 A 
ATOM      6  C6  N4B d   1      -5.673   3.078   0.692  0.00  0.00     0.002 A 
ENDROOT
BRANCH   1   7
ATOM      7  C1' N4B d   1      -4.538   4.027   2.669  0.00  0.00     0.057 C 
BRANCH   7   8
ATOM      8  C2' N4B d   1      -5.942   4.552   2.951  0.00  0.00     0.009 C 
BRANCH   8   9
ATOM      9  C3' N4B d   1      -5.915   5.925   3.602  0.00  0.00     0.004 C 
ATOM     10  C4' N4B d   1      -5.999   5.860   5.098  0.00  0.00     0.003 C 
ENDBRANCH   8   9
ENDBRANCH   7   8
ENDBRANCH   1   7
TORSDOF 3
ENDMDL
