MODEL 1
REMARK minimizedAffinity 11.2566824
REMARK minimizedRMSD -1
REMARK  3 active torsions:
REMARK  status: ('A' for Active; 'I' for Inactive)
REMARK    1  A    between atoms: C3'_2  and  C2'_3 
REMARK    2  A    between atoms: C2'_3  and  C1'_4 
REMARK    3  A    between atoms: C1'_4  and  C1_5 
ROOT
ATOM      1  C1  N4B d   1       3.442   0.851  -0.720  0.00  0.00    -0.075 A 
ATOM      2  C2  N4B d   1       4.029   1.353   0.463  0.00  0.00     0.002 A 
ATOM      3  C3  N4B d   1       5.184   2.093   0.395  0.00  0.00     0.002 A 
ATOM      4  C4  N4B d   1       5.778   2.327  -0.836  0.00  0.00    -0.004 A 
ATOM      5  C5  N4B d   1       5.190   1.861  -1.976  0.00  0.00     0.002 A 
ATOM      6  C6  N4B d   1       4.027   1.119  -1.923  0.00  0.00     0.002 A 
ENDROOT
BRANCH   1   7
ATOM      7  C1' N4B d   1       2.227  -0.035  -0.689  0.00  0.00     0.057 C 
BRANCH   7   8
ATOM      8  C2' N4B d   1       2.589  -1.357  -0.018  0.00  0.00     0.009 C 
BRANCH   8   9
ATOM      9  C3' N4B d   1       2.225  -2.551  -0.884  0.00  0.00     0.004 C 
ATOM     10  C4' N4B d   1       2.369  -2.271  -2.351  0.00  0.00     0.003 C 
ENDBRANCH   8   9
ENDBRANCH   7   8
ENDBRANCH   1   7
TORSDOF 3
ENDMDL
