MODEL 1
REMARK minimizedAffinity 8.55540371
REMARK minimizedRMSD -1
REMARK  3 active torsions:
REMARK  status: ('A' for Active; 'I' for Inactive)
REMARK    1  A    between atoms: C3'_2  and  C2'_3 
REMARK    2  A    between atoms: C2'_3  and  C1'_4 
REMARK    3  A    between atoms: C1'_4  and  C1_5 
ROOT
ATOM      1  C1  N4B d   1       3.295   2.172   1.463  0.00  0.00    -0.075 A 
ATOM      2  C2  N4B d   1       3.234   2.875   0.240  0.00  0.00     0.002 A 
ATOM      3  C3  N4B d   1       2.959   2.201  -0.925  0.00  0.00     0.002 A 
ATOM      4  C4  N4B d   1       2.762   0.829  -0.894  0.00  0.00    -0.004 A 
ATOM      5  C5  N4B d   1       2.798   0.162   0.295  0.00  0.00     0.002 A 
ATOM      6  C6  N4B d   1       3.069   0.826   1.474  0.00  0.00     0.002 A 
ENDROOT
BRANCH   1   7
ATOM      7  C1' N4B d   1       3.676   2.851   2.750  0.00  0.00     0.057 C 
BRANCH   7   8
ATOM      8  C2' N4B d   1       2.725   4.017   3.003  0.00  0.00     0.009 C 
BRANCH   8   9
ATOM      9  C3' N4B d   1       2.477   4.238   4.485  0.00  0.00     0.004 C 
ATOM     10  C4' N4B d   1       1.769   5.528   4.770  0.00  0.00     0.003 C 
ENDBRANCH   8   9
ENDBRANCH   7   8
ENDBRANCH   1   7
TORSDOF 3
ENDMDL
