MODEL 1
REMARK minimizedAffinity -3.10623002
REMARK minimizedRMSD -1
REMARK  0 active torsions:
REMARK  status: ('A' for Active; 'I' for Inactive)
ROOT
ATOM      1  C   UNL d   1       2.728  -5.998  -1.339  0.00  0.00    -0.002 A 
ATOM      2  C1  UNL d   1       1.410  -5.999  -1.772  0.00  0.00     0.010 A 
ATOM      3  C2  UNL d   1       1.111  -5.999  -3.136  0.00  0.00     0.041 A 
ATOM      4  C3  UNL d   1       2.169  -5.999  -4.066  0.00  0.00    -0.075 A 
ATOM      5  S   UNL d   1       2.042  -6.000  -5.785  0.00  0.00     0.015 SA
ATOM      6  C4  UNL d   1       3.735  -6.000  -5.985  0.00  0.00     0.022 A 
ATOM      7  C5  UNL d   1       4.396  -5.999  -4.780  0.00  0.00     0.026 A 
ATOM      8  C6  UNL d   1       3.505  -5.999  -3.654  0.00  0.00    -0.082 A 
ATOM      9  C7  UNL d   1       3.775  -5.999  -2.264  0.00  0.00     0.045 A 
ENDROOT
TORSDOF 0
ENDMDL
