MODEL 1
REMARK minimizedAffinity 12.2059822
REMARK minimizedRMSD -1
REMARK  0 active torsions:
REMARK  status: ('A' for Active; 'I' for Inactive)
ROOT
ATOM      1  C   UNL d   1      -4.460  -3.514  -1.859  0.00  0.00    -0.002 A 
ATOM      2  C1  UNL d   1      -5.738  -3.006  -1.675  0.00  0.00     0.010 A 
ATOM      3  C2  UNL d   1      -5.999  -1.650  -1.883  0.00  0.00     0.041 A 
ATOM      4  C3  UNL d   1      -4.945  -0.806  -2.284  0.00  0.00    -0.075 A 
ATOM      5  S   UNL d   1      -5.031   0.887  -2.598  0.00  0.00     0.015 SA
ATOM      6  C4  UNL d   1      -3.373   0.975  -2.984  0.00  0.00     0.022 A 
ATOM      7  C5  UNL d   1      -2.754  -0.248  -2.880  0.00  0.00     0.026 A 
ATOM      8  C6  UNL d   1      -3.650  -1.295  -2.476  0.00  0.00    -0.082 A 
ATOM      9  C7  UNL d   1      -3.416  -2.674  -2.256  0.00  0.00     0.045 A 
ENDROOT
TORSDOF 0
ENDMDL
