MODEL 1
REMARK minimizedAffinity 14.3775978
REMARK minimizedRMSD -1
REMARK  0 active torsions:
REMARK  status: ('A' for Active; 'I' for Inactive)
ROOT
ATOM      1  C   UNL d   1       1.113  -1.879   2.113  0.00  0.00    -0.002 A 
ATOM      2  C1  UNL d   1       1.887  -0.782   2.463  0.00  0.00     0.010 A 
ATOM      3  C2  UNL d   1       2.983  -0.928   3.315  0.00  0.00     0.041 A 
ATOM      4  C3  UNL d   1       3.292  -2.209   3.814  0.00  0.00    -0.075 A 
ATOM      5  S   UNL d   1       4.588  -2.628   4.871  0.00  0.00     0.015 SA
ATOM      6  C4  UNL d   1       4.145  -4.274   4.883  0.00  0.00     0.022 A 
ATOM      7  C5  UNL d   1       3.038  -4.515   4.105  0.00  0.00     0.026 A 
ATOM      8  C6  UNL d   1       2.528  -3.330   3.475  0.00  0.00    -0.082 A 
ATOM      9  C7  UNL d   1       1.423  -3.148   2.610  0.00  0.00     0.045 A 
ENDROOT
TORSDOF 0
ENDMDL
