MODEL 1
REMARK minimizedAffinity 13.6831274
REMARK minimizedRMSD -1
REMARK  0 active torsions:
REMARK  status: ('A' for Active; 'I' for Inactive)
ROOT
ATOM      1  C   UNL d   1       1.018  -1.873   2.363  0.00  0.00    -0.002 A 
ATOM      2  C1  UNL d   1       2.062  -1.070   1.926  0.00  0.00     0.010 A 
ATOM      3  C2  UNL d   1       3.341  -1.212   2.467  0.00  0.00     0.041 A 
ATOM      4  C3  UNL d   1       3.556  -2.186   3.462  0.00  0.00    -0.075 A 
ATOM      5  S   UNL d   1       5.039  -2.539   4.268  0.00  0.00     0.015 SA
ATOM      6  C4  UNL d   1       4.322  -3.766   5.209  0.00  0.00     0.022 A 
ATOM      7  C5  UNL d   1       2.985  -3.915   4.929  0.00  0.00     0.026 A 
ATOM      8  C6  UNL d   1       2.521  -3.007   3.917  0.00  0.00    -0.082 A 
ATOM      9  C7  UNL d   1       1.235  -2.838   3.350  0.00  0.00     0.045 A 
ENDROOT
TORSDOF 0
ENDMDL
