MODEL 1
REMARK minimizedAffinity 16.3269997
REMARK minimizedRMSD -1
REMARK  0 active torsions:
REMARK  status: ('A' for Active; 'I' for Inactive)
ROOT
ATOM      1  C   UNL d   1       1.665   1.397   1.397  0.00  0.00    -0.002 A 
ATOM      2  C1  UNL d   1       2.982   1.350   0.963  0.00  0.00     0.010 A 
ATOM      3  C2  UNL d   1       3.470   2.303   0.067  0.00  0.00     0.041 A 
ATOM      4  C3  UNL d   1       2.603   3.316  -0.388  0.00  0.00    -0.075 A 
ATOM      5  S   UNL d   1       2.981   4.591  -1.487  0.00  0.00     0.015 SA
ATOM      6  C4  UNL d   1       1.403   5.229  -1.404  0.00  0.00     0.022 A 
ATOM      7  C5  UNL d   1       0.595   4.500  -0.565  0.00  0.00     0.026 A 
ATOM      8  C6  UNL d   1       1.273   3.386   0.035  0.00  0.00    -0.082 A 
ATOM      9  C7  UNL d   1       0.809   2.404   0.943  0.00  0.00     0.045 A 
ENDROOT
TORSDOF 0
ENDMDL
