MODEL 1
REMARK minimizedAffinity 12.5887566
REMARK minimizedRMSD -1
REMARK  0 active torsions:
REMARK  status: ('A' for Active; 'I' for Inactive)
ROOT
ATOM      1  C   UNL d   1      -5.192   3.757   1.127  0.00  0.00    -0.002 A 
ATOM      2  C1  UNL d   1      -5.999   3.859   0.003  0.00  0.00     0.010 A 
ATOM      3  C2  UNL d   1      -5.628   3.247  -1.196  0.00  0.00     0.041 A 
ATOM      4  C3  UNL d   1      -4.421   2.522  -1.245  0.00  0.00    -0.075 A 
ATOM      5  S   UNL d   1      -3.764   1.689  -2.604  0.00  0.00     0.015 SA
ATOM      6  C4  UNL d   1      -2.397   1.177  -1.724  0.00  0.00     0.022 A 
ATOM      7  C5  UNL d   1      -2.425   1.623  -0.424  0.00  0.00     0.026 A 
ATOM      8  C6  UNL d   1      -3.592   2.405  -0.126  0.00  0.00    -0.082 A 
ATOM      9  C7  UNL d   1      -3.996   3.037   1.074  0.00  0.00     0.045 A 
ENDROOT
TORSDOF 0
ENDMDL
