MODEL 1
REMARK minimizedAffinity 13.7380028
REMARK minimizedRMSD -1
REMARK  0 active torsions:
REMARK  status: ('A' for Active; 'I' for Inactive)
ROOT
ATOM      1  C   UNL d   1       1.498  -1.683   2.035  0.00  0.00    -0.002 A 
ATOM      2  C1  UNL d   1       2.415  -1.126   2.915  0.00  0.00     0.010 A 
ATOM      3  C2  UNL d   1       3.159  -1.938   3.772  0.00  0.00     0.041 A 
ATOM      4  C3  UNL d   1       2.967  -3.333   3.729  0.00  0.00    -0.075 A 
ATOM      5  S   UNL d   1       3.767  -4.524   4.684  0.00  0.00     0.015 SA
ATOM      6  C4  UNL d   1       2.912  -5.800   3.946  0.00  0.00     0.022 A 
ATOM      7  C5  UNL d   1       2.032  -5.346   2.992  0.00  0.00     0.026 A 
ATOM      8  C6  UNL d   1       2.050  -3.917   2.850  0.00  0.00    -0.082 A 
ATOM      9  C7  UNL d   1       1.309  -3.067   1.994  0.00  0.00     0.045 A 
ENDROOT
TORSDOF 0
ENDMDL
