MODEL 1
REMARK minimizedAffinity 6.60161495
REMARK minimizedRMSD -1
REMARK  0 active torsions:
REMARK  status: ('A' for Active; 'I' for Inactive)
ROOT
ATOM      1  C   UNL d   1       5.917  -5.409  -2.626  0.00  0.00    -0.002 A 
ATOM      2  C1  UNL d   1       4.837  -5.487  -1.758  0.00  0.00     0.010 A 
ATOM      3  C2  UNL d   1       3.543  -5.669  -2.249  0.00  0.00     0.041 A 
ATOM      4  C3  UNL d   1       3.350  -5.773  -3.641  0.00  0.00    -0.075 A 
ATOM      5  S   UNL d   1       1.855  -5.999  -4.469  0.00  0.00     0.015 SA
ATOM      6  C4  UNL d   1       2.615  -5.997  -5.995  0.00  0.00     0.022 A 
ATOM      7  C5  UNL d   1       3.976  -5.829  -5.893  0.00  0.00     0.026 A 
ATOM      8  C6  UNL d   1       4.422  -5.698  -4.535  0.00  0.00    -0.082 A 
ATOM      9  C7  UNL d   1       5.722  -5.513  -4.006  0.00  0.00     0.045 A 
ENDROOT
TORSDOF 0
ENDMDL
