MODEL 1
REMARK minimizedAffinity -4.05389786
REMARK minimizedRMSD -1
REMARK  1 active torsions:
REMARK  status: ('A' for Active; 'I' for Inactive)
REMARK    1  A    between atoms: C1_2  and  C2_3 
ROOT
ATOM      1  C2  UNL d   1       0.706  -1.311   1.449  0.00  0.00    -0.073 A 
ATOM      2  C3  UNL d   1       1.745  -1.774   0.633  0.00  0.00    -0.002 A 
ATOM      3  C4  UNL d   1       1.709  -1.557  -0.745  0.00  0.00     0.004 A 
ATOM      4  C5  UNL d   1       0.640  -0.871  -1.320  0.00  0.00    -0.004 A 
ATOM      5  C6  UNL d   1      -0.402  -0.390  -0.520  0.00  0.00    -0.075 A 
ATOM      6  C7  UNL d   1      -1.561   0.349  -1.124  0.00  0.00     0.076 C 
ATOM      7  C8  UNL d   1      -0.360  -0.614   0.863  0.00  0.00     0.001 A 
ENDROOT
BRANCH   1   8
ATOM      8  C1  UNL d   1       0.743  -1.537   2.938  0.00  0.00     0.053 C 
ATOM      9  C   UNL d   1       2.162  -1.501   3.485  0.00  0.00     0.018 C 
ENDBRANCH   1   8
TORSDOF 1
ENDMDL
