MODEL 1
REMARK minimizedAffinity -5.78189611
REMARK minimizedRMSD -1
REMARK  1 active torsions:
REMARK  status: ('A' for Active; 'I' for Inactive)
REMARK    1  A    between atoms: C1_2  and  C2_3 
ROOT
ATOM      1  C2  UNL d   1       1.701  -1.124   1.680  0.00  0.00    -0.073 A 
ATOM      2  C3  UNL d   1       2.565  -1.971   0.977  0.00  0.00    -0.002 A 
ATOM      3  C4  UNL d   1       2.556  -1.985  -0.419  0.00  0.00     0.004 A 
ATOM      4  C5  UNL d   1       1.690  -1.150  -1.124  0.00  0.00    -0.004 A 
ATOM      5  C6  UNL d   1       0.827  -0.289  -0.439  0.00  0.00    -0.075 A 
ATOM      6  C7  UNL d   1      -0.112   0.615  -1.183  0.00  0.00     0.076 C 
ATOM      7  C8  UNL d   1       0.840  -0.282   0.962  0.00  0.00     0.001 A 
ENDROOT
BRANCH   1   8
ATOM      8  C1  UNL d   1       1.711  -1.100   3.187  0.00  0.00     0.053 C 
ATOM      9  C   UNL d   1       2.890  -1.870   3.761  0.00  0.00     0.018 C 
ENDBRANCH   1   8
TORSDOF 1
ENDMDL
