MODEL 1
REMARK minimizedAffinity -1.73562241
REMARK minimizedRMSD -1
REMARK  1 active torsions:
REMARK  status: ('A' for Active; 'I' for Inactive)
REMARK    1  A    between atoms: C1_2  and  C2_3 
ROOT
ATOM      1  C2  UNL d   1      -0.734   1.500  -1.981  0.00  0.00    -0.073 A 
ATOM      2  C3  UNL d   1       0.257   2.358  -2.472  0.00  0.00    -0.002 A 
ATOM      3  C4  UNL d   1      -0.077   3.638  -2.918  0.00  0.00     0.004 A 
ATOM      4  C5  UNL d   1      -1.401   4.074  -2.872  0.00  0.00    -0.004 A 
ATOM      5  C6  UNL d   1      -2.403   3.235  -2.374  0.00  0.00    -0.075 A 
ATOM      6  C7  UNL d   1      -3.832   3.689  -2.320  0.00  0.00     0.076 C 
ATOM      7  C8  UNL d   1      -2.061   1.951  -1.930  0.00  0.00     0.001 A 
ENDROOT
BRANCH   1   8
ATOM      8  C1  UNL d   1      -0.377   0.120  -1.492  0.00  0.00     0.053 C 
ATOM      9  C   UNL d   1       0.220   0.147  -0.094  0.00  0.00     0.018 C 
ENDBRANCH   1   8
TORSDOF 1
ENDMDL
