MODEL 1
REMARK minimizedAffinity -5.12187004
REMARK minimizedRMSD -1
REMARK  1 active torsions:
REMARK  status: ('A' for Active; 'I' for Inactive)
REMARK    1  A    between atoms: C1_2  and  C2_3 
ROOT
ATOM      1  C2  UNL d   1      -0.371   0.175  -0.417  0.00  0.00    -0.073 A 
ATOM      2  C3  UNL d   1      -1.233   0.394   0.664  0.00  0.00    -0.002 A 
ATOM      3  C4  UNL d   1      -0.981  -0.205   1.898  0.00  0.00     0.004 A 
ATOM      4  C5  UNL d   1       0.136  -1.022   2.067  0.00  0.00    -0.004 A 
ATOM      5  C6  UNL d   1       1.015  -1.245   1.002  0.00  0.00    -0.075 A 
ATOM      6  C7  UNL d   1       2.220  -2.123   1.167  0.00  0.00     0.076 C 
ATOM      7  C8  UNL d   1       0.754  -0.642  -0.235  0.00  0.00     0.001 A 
ENDROOT
BRANCH   1   8
ATOM      8  C1  UNL d   1      -0.636   0.824  -1.751  0.00  0.00     0.053 C 
ATOM      9  C   UNL d   1      -0.736   2.337  -1.638  0.00  0.00     0.018 C 
ENDBRANCH   1   8
TORSDOF 1
ENDMDL
