MODEL 1
REMARK minimizedAffinity -3.12099504
REMARK minimizedRMSD -1
REMARK  2 active torsions:
REMARK  status: ('A' for Active; 'I' for Inactive)
REMARK    1  A    between atoms: C2'_3  and  C1'_4 
REMARK    2  A    between atoms: C1'_4  and  C1_5 
ROOT
ATOM      1  C1  I4B d   1       0.504   0.175  -0.411  0.00  0.00    -0.075 A 
ATOM      2  C2  I4B d   1       0.047  -0.497   0.695  0.00  0.00     0.003 A 
ATOM      3  C3  I4B d   1      -0.601   0.206   1.739  0.00  0.00     0.002 A 
ATOM      4  C4  I4B d   1      -0.724   1.578   1.660  0.00  0.00    -0.004 A 
ATOM      5  C5  I4B d   1      -0.280   2.255   0.528  0.00  0.00     0.002 A 
ATOM      6  C6  I4B d   1       0.327   1.548  -0.520  0.00  0.00     0.003 A 
ENDROOT
BRANCH   1   7
ATOM      7  C1' I4B d   1       1.213  -0.594  -1.480  0.00  0.00     0.060 C 
BRANCH   7   8
ATOM      8  C2' I4B d   1       0.494  -1.916  -1.660  0.00  0.00    -0.013 C 
ATOM      9  C4' I4B d   1       0.083  -2.123  -3.094  0.00  0.00     0.013 C 
ATOM     10  C3' I4B d   1       1.410  -3.009  -1.195  0.00  0.00     0.013 C 
ENDBRANCH   7   8
ENDBRANCH   1   7
TORSDOF 2
ENDMDL
