MODEL 1
REMARK minimizedAffinity 0.0416793711
REMARK minimizedRMSD -1
REMARK  2 active torsions:
REMARK  status: ('A' for Active; 'I' for Inactive)
REMARK    1  A    between atoms: C2'_3  and  C1'_4 
REMARK    2  A    between atoms: C1'_4  and  C1_5 
ROOT
ATOM      1  C1  I4B d   1       0.465  -0.396  -0.789  0.00  0.00    -0.075 A 
ATOM      2  C2  I4B d   1      -0.356  -0.368   0.311  0.00  0.00     0.003 A 
ATOM      3  C3  I4B d   1      -0.990   0.839   0.696  0.00  0.00     0.002 A 
ATOM      4  C4  I4B d   1      -0.737   1.995  -0.013  0.00  0.00    -0.004 A 
ATOM      5  C5  I4B d   1       0.077   1.960  -1.141  0.00  0.00     0.002 A 
ATOM      6  C6  I4B d   1       0.672   0.754  -1.540  0.00  0.00     0.003 A 
ENDROOT
BRANCH   1   7
ATOM      7  C1' I4B d   1       1.144  -1.679  -1.149  0.00  0.00     0.060 C 
BRANCH   7   8
ATOM      8  C2' I4B d   1       0.223  -2.454  -2.069  0.00  0.00    -0.013 C 
ATOM      9  C4' I4B d   1       0.018  -1.727  -3.373  0.00  0.00     0.013 C 
ATOM     10  C3' I4B d   1       0.824  -3.809  -2.293  0.00  0.00     0.013 C 
ENDBRANCH   7   8
ENDBRANCH   1   7
TORSDOF 2
ENDMDL
