MODEL 1
REMARK minimizedAffinity 5.6973362
REMARK minimizedRMSD -1
REMARK  2 active torsions:
REMARK  status: ('A' for Active; 'I' for Inactive)
REMARK    1  A    between atoms: C2'_3  and  C1'_4 
REMARK    2  A    between atoms: C1'_4  and  C1_5 
ROOT
ATOM      1  C1  I4B d   1       0.308   0.116  -0.181  0.00  0.00    -0.075 A 
ATOM      2  C2  I4B d   1      -0.789   0.940  -0.127  0.00  0.00     0.003 A 
ATOM      3  C3  I4B d   1      -0.837   2.115  -0.915  0.00  0.00     0.002 A 
ATOM      4  C4  I4B d   1       0.247   2.453  -1.699  0.00  0.00    -0.004 A 
ATOM      5  C5  I4B d   1       1.349   1.605  -1.770  0.00  0.00     0.002 A 
ATOM      6  C6  I4B d   1       1.375   0.423  -1.016  0.00  0.00     0.003 A 
ENDROOT
BRANCH   1   7
ATOM      7  C1' I4B d   1       0.340  -1.100   0.690  0.00  0.00     0.060 C 
BRANCH   7   8
ATOM      8  C2' I4B d   1       1.130  -0.761   1.937  0.00  0.00    -0.013 C 
ATOM      9  C4' I4B d   1       0.621   0.502   2.579  0.00  0.00     0.013 C 
ATOM     10  C3' I4B d   1       1.032  -1.925   2.878  0.00  0.00     0.013 C 
ENDBRANCH   7   8
ENDBRANCH   1   7
TORSDOF 2
ENDMDL
