MODEL 1
REMARK minimizedAffinity -1.61440456
REMARK minimizedRMSD -1
REMARK  2 active torsions:
REMARK  status: ('A' for Active; 'I' for Inactive)
REMARK    1  A    between atoms: C2'_3  and  C1'_4 
REMARK    2  A    between atoms: C1'_4  and  C1_5 
ROOT
ATOM      1  C1  I4B d   1       0.409  -0.614  -0.838  0.00  0.00    -0.075 A 
ATOM      2  C2  I4B d   1       0.549   0.584  -1.493  0.00  0.00     0.003 A 
ATOM      3  C3  I4B d   1      -0.036   1.759  -0.963  0.00  0.00     0.002 A 
ATOM      4  C4  I4B d   1      -0.791   1.682   0.190  0.00  0.00    -0.004 A 
ATOM      5  C5  I4B d   1      -0.913   0.471   0.865  0.00  0.00     0.002 A 
ATOM      6  C6  I4B d   1      -0.300  -0.682   0.354  0.00  0.00     0.003 A 
ENDROOT
BRANCH   1   7
ATOM      7  C1' I4B d   1       1.012  -1.841  -1.444  0.00  0.00     0.060 C 
BRANCH   7   8
ATOM      8  C2' I4B d   1      -0.104  -2.648  -2.074  0.00  0.00    -0.013 C 
ATOM      9  C4' I4B d   1      -0.312  -2.259  -3.514  0.00  0.00     0.013 C 
ATOM     10  C3' I4B d   1       0.248  -4.101  -1.951  0.00  0.00     0.013 C 
ENDBRANCH   7   8
ENDBRANCH   1   7
TORSDOF 2
ENDMDL
