MODEL 1
REMARK minimizedAffinity -2.64620471
REMARK minimizedRMSD -1
REMARK  2 active torsions:
REMARK  status: ('A' for Active; 'I' for Inactive)
REMARK    1  A    between atoms: C2'_3  and  C1'_4 
REMARK    2  A    between atoms: C1'_4  and  C1_5 
ROOT
ATOM      1  C1  I4B d   1       0.029  -0.153  -0.270  0.00  0.00    -0.075 A 
ATOM      2  C2  I4B d   1      -0.086  -0.877   0.890  0.00  0.00     0.003 A 
ATOM      3  C3  I4B d   1      -0.835  -0.366   1.978  0.00  0.00     0.002 A 
ATOM      4  C4  I4B d   1      -1.407   0.886   1.881  0.00  0.00    -0.004 A 
ATOM      5  C5  I4B d   1      -1.309   1.608   0.695  0.00  0.00     0.002 A 
ATOM      6  C6  I4B d   1      -0.597   1.081  -0.392  0.00  0.00     0.003 A 
ENDROOT
BRANCH   1   7
ATOM      7  C1' I4B d   1       0.856  -0.707  -1.387  0.00  0.00     0.060 C 
BRANCH   7   8
ATOM      8  C2' I4B d   1       0.212  -1.999  -1.847  0.00  0.00    -0.013 C 
ATOM      9  C4' I4B d   1      -0.096  -1.960  -3.321  0.00  0.00     0.013 C 
ATOM     10  C3' I4B d   1       1.147  -3.125  -1.519  0.00  0.00     0.013 C 
ENDBRANCH   7   8
ENDBRANCH   1   7
TORSDOF 2
ENDMDL
