MODEL 1
REMARK minimizedAffinity -4.15180159
REMARK minimizedRMSD -1
REMARK  2 active torsions:
REMARK  status: ('A' for Active; 'I' for Inactive)
REMARK    1  A    between atoms: C2'_3  and  C1'_4 
REMARK    2  A    between atoms: C1'_4  and  C1_5 
ROOT
ATOM      1  C1  I4B d   1      -0.043  -0.199  -0.032  0.00  0.00    -0.075 A 
ATOM      2  C2  I4B d   1      -0.645  -1.085   0.826  0.00  0.00     0.003 A 
ATOM      3  C3  I4B d   1      -1.338  -0.614   1.968  0.00  0.00     0.002 A 
ATOM      4  C4  I4B d   1      -1.361   0.739   2.238  0.00  0.00    -0.004 A 
ATOM      5  C5  I4B d   1      -0.770   1.638   1.355  0.00  0.00     0.002 A 
ATOM      6  C6  I4B d   1      -0.117   1.168   0.206  0.00  0.00     0.003 A 
ENDROOT
BRANCH   1   7
ATOM      7  C1' I4B d   1       0.708  -0.733  -1.210  0.00  0.00     0.060 C 
BRANCH   7   8
ATOM      8  C2' I4B d   1       0.312  -2.183  -1.398  0.00  0.00    -0.013 C 
ATOM      9  C4' I4B d   1      -0.554  -2.358  -2.618  0.00  0.00     0.013 C 
ATOM     10  C3' I4B d   1       1.567  -2.996  -1.503  0.00  0.00     0.013 C 
ENDBRANCH   7   8
ENDBRANCH   1   7
TORSDOF 2
ENDMDL
