MODEL 1
REMARK minimizedAffinity -2.12551594
REMARK minimizedRMSD -1
REMARK  2 active torsions:
REMARK  status: ('A' for Active; 'I' for Inactive)
REMARK    1  A    between atoms: C2'_3  and  C1'_4 
REMARK    2  A    between atoms: C1'_4  and  C1_5 
ROOT
ATOM      1  C1  I4B d   1       0.634  -1.331  -0.604  0.00  0.00    -0.075 A 
ATOM      2  C2  I4B d   1       1.125  -2.609  -0.506  0.00  0.00     0.003 A 
ATOM      3  C3  I4B d   1       0.993  -3.508  -1.592  0.00  0.00     0.002 A 
ATOM      4  C4  I4B d   1       0.323  -3.106  -2.730  0.00  0.00    -0.004 A 
ATOM      5  C5  I4B d   1      -0.155  -1.803  -2.835  0.00  0.00     0.002 A 
ATOM      6  C6  I4B d   1       0.013  -0.906  -1.770  0.00  0.00     0.003 A 
ENDROOT
BRANCH   1   7
ATOM      7  C1' I4B d   1       0.762  -0.419   0.575  0.00  0.00     0.060 C 
BRANCH   7   8
ATOM      8  C2' I4B d   1      -0.614  -0.251   1.186  0.00  0.00    -0.013 C 
ATOM      9  C4' I4B d   1      -0.893  -1.325   2.205  0.00  0.00     0.013 C 
ATOM     10  C3' I4B d   1      -0.682   1.113   1.805  0.00  0.00     0.013 C 
ENDBRANCH   7   8
ENDBRANCH   1   7
TORSDOF 2
ENDMDL
