MODEL 1
REMARK minimizedAffinity -4.22576046
REMARK minimizedRMSD -1
REMARK  2 active torsions:
REMARK  status: ('A' for Active; 'I' for Inactive)
REMARK    1  A    between atoms: C2'_3  and  C1'_4 
REMARK    2  A    between atoms: C1'_4  and  C1_5 
ROOT
ATOM      1  C1  I4B d   1       0.463  -0.619   0.062  0.00  0.00    -0.075 A 
ATOM      2  C2  I4B d   1       0.186   0.634  -0.427  0.00  0.00     0.003 A 
ATOM      3  C3  I4B d   1      -0.520   1.569   0.368  0.00  0.00     0.002 A 
ATOM      4  C4  I4B d   1      -0.971   1.196   1.617  0.00  0.00    -0.004 A 
ATOM      5  C5  I4B d   1      -0.669  -0.066   2.121  0.00  0.00     0.002 A 
ATOM      6  C6  I4B d   1       0.063  -0.975   1.343  0.00  0.00     0.003 A 
ENDROOT
BRANCH   1   7
ATOM      7  C1' I4B d   1       1.182  -1.593  -0.816  0.00  0.00     0.060 C 
BRANCH   7   8
ATOM      8  C2' I4B d   1       0.144  -2.357  -1.613  0.00  0.00    -0.013 C 
ATOM      9  C4' I4B d   1      -0.156  -1.670  -2.919  0.00  0.00     0.013 C 
ATOM     10  C3' I4B d   1       0.663  -3.746  -1.838  0.00  0.00     0.013 C 
ENDBRANCH   7   8
ENDBRANCH   1   7
TORSDOF 2
ENDMDL
