MODEL 1
REMARK minimizedAffinity -1.00652003
REMARK minimizedRMSD -1
REMARK  2 active torsions:
REMARK  status: ('A' for Active; 'I' for Inactive)
REMARK    1  A    between atoms: C2'_3  and  C1'_4 
REMARK    2  A    between atoms: C1'_4  and  C1_5 
ROOT
ATOM      1  C1  I4B d   1       0.288  -0.575  -0.005  0.00  0.00    -0.075 A 
ATOM      2  C2  I4B d   1       0.015   0.710  -0.404  0.00  0.00     0.003 A 
ATOM      3  C3  I4B d   1      -0.626   1.610   0.481  0.00  0.00     0.002 A 
ATOM      4  C4  I4B d   1      -1.019   1.172   1.729  0.00  0.00    -0.004 A 
ATOM      5  C5  I4B d   1      -0.720  -0.124   2.141  0.00  0.00     0.002 A 
ATOM      6  C6  I4B d   1      -0.051  -0.999   1.273  0.00  0.00     0.003 A 
ENDROOT
BRANCH   1   7
ATOM      7  C1' I4B d   1       0.937  -1.509  -0.976  0.00  0.00     0.060 C 
BRANCH   7   8
ATOM      8  C2' I4B d   1      -0.159  -2.196  -1.766  0.00  0.00    -0.013 C 
ATOM      9  C4' I4B d   1      -0.312  -1.584  -3.133  0.00  0.00     0.013 C 
ATOM     10  C3' I4B d   1       0.183  -3.653  -1.860  0.00  0.00     0.013 C 
ENDBRANCH   7   8
ENDBRANCH   1   7
TORSDOF 2
ENDMDL
