MODEL 1
REMARK minimizedAffinity 9.92986584
REMARK minimizedRMSD -1
REMARK  1 active torsions:
REMARK  status: ('A' for Active; 'I' for Inactive)
REMARK    1  A    between atoms: C1_2  and  C2_3 
ROOT
ATOM      1  C2  UNL d   1      -4.818   3.799   1.477  0.00  0.00    -0.076 A 
ATOM      2  C3  UNL d   1      -5.969   3.419   0.765  0.00  0.00     0.004 A 
ATOM      3  C4  UNL d   1      -6.000   2.233   0.033  0.00  0.00    -0.003 A 
ATOM      4  C5  UNL d   1      -4.881   1.407   0.003  0.00  0.00     0.000 A 
ATOM      5  C6  UNL d   1      -3.737   1.761   0.718  0.00  0.00     0.000 A 
ATOM      6  C7  UNL d   1      -3.695   2.945   1.474  0.00  0.00    -0.073 A 
ATOM      7  C8  UNL d   1      -2.433   3.280   2.221  0.00  0.00     0.078 C 
ENDROOT
BRANCH   1   8
ATOM      8  C1  UNL d   1      -4.834   5.110   2.231  0.00  0.00     0.053 C 
ATOM      9  C   UNL d   1      -5.999   6.000   1.828  0.00  0.00     0.018 C 
ENDBRANCH   1   8
TORSDOF 1
ENDMDL
