MODEL 1
REMARK minimizedAffinity 6.72183037
REMARK minimizedRMSD -1
REMARK  1 active torsions:
REMARK  status: ('A' for Active; 'I' for Inactive)
REMARK    1  A    between atoms: C1_2  and  C2_3 
ROOT
ATOM      1  C2  UNL d   1      -1.073   3.361  -0.480  0.00  0.00    -0.076 A 
ATOM      2  C3  UNL d   1      -1.145   4.632  -1.076  0.00  0.00     0.004 A 
ATOM      3  C4  UNL d   1       0.009   5.372  -1.330  0.00  0.00    -0.003 A 
ATOM      4  C5  UNL d   1       1.254   4.852  -0.993  0.00  0.00     0.000 A 
ATOM      5  C6  UNL d   1       1.345   3.585  -0.417  0.00  0.00     0.000 A 
ATOM      6  C7  UNL d   1       0.193   2.819  -0.169  0.00  0.00    -0.073 A 
ATOM      7  C8  UNL d   1       0.350   1.462   0.459  0.00  0.00     0.078 C 
ENDROOT
BRANCH   1   8
ATOM      8  C1  UNL d   1      -2.359   2.616  -0.204  0.00  0.00     0.053 C 
ATOM      9  C   UNL d   1      -3.100   3.162   1.007  0.00  0.00     0.018 C 
ENDBRANCH   1   8
TORSDOF 1
ENDMDL
