MODEL 1
REMARK minimizedAffinity 5.23203325
REMARK minimizedRMSD -1
REMARK  1 active torsions:
REMARK  status: ('A' for Active; 'I' for Inactive)
REMARK    1  A    between atoms: C1_2  and  C2_3 
ROOT
ATOM      1  C2  UNL d   1      -0.594   2.959  -3.133  0.00  0.00    -0.076 A 
ATOM      2  C3  UNL d   1      -1.507   3.809  -3.781  0.00  0.00     0.004 A 
ATOM      3  C4  UNL d   1      -2.069   3.456  -5.007  0.00  0.00    -0.003 A 
ATOM      4  C5  UNL d   1      -1.729   2.247  -5.604  0.00  0.00     0.000 A 
ATOM      5  C6  UNL d   1      -0.838   1.384  -4.966  0.00  0.00     0.000 A 
ATOM      6  C7  UNL d   1      -0.275   1.717  -3.723  0.00  0.00    -0.073 A 
ATOM      7  C8  UNL d   1       0.685   0.751  -3.083  0.00  0.00     0.078 C 
ENDROOT
BRANCH   1   8
ATOM      8  C1  UNL d   1       0.005   3.407  -1.819  0.00  0.00     0.053 C 
ATOM      9  C   UNL d   1       0.653   4.779  -1.911  0.00  0.00     0.018 C 
ENDBRANCH   1   8
TORSDOF 1
ENDMDL
