MODEL 1
REMARK minimizedAffinity 11.9917288
REMARK minimizedRMSD -1
REMARK  1 active torsions:
REMARK  status: ('A' for Active; 'I' for Inactive)
REMARK    1  A    between atoms: C1_2  and  C2_3 
ROOT
ATOM      1  C2  UNL d   1       1.300   4.897  -0.731  0.00  0.00    -0.076 A 
ATOM      2  C3  UNL d   1       1.928   3.879   0.008  0.00  0.00     0.004 A 
ATOM      3  C4  UNL d   1       1.185   2.853   0.590  0.00  0.00    -0.003 A 
ATOM      4  C5  UNL d   1      -0.197   2.827   0.440  0.00  0.00     0.000 A 
ATOM      5  C6  UNL d   1      -0.834   3.819  -0.305  0.00  0.00     0.000 A 
ATOM      6  C7  UNL d   1      -0.099   4.852  -0.911  0.00  0.00    -0.073 A 
ATOM      7  C8  UNL d   1      -0.838   5.898  -1.698  0.00  0.00     0.078 C 
ENDROOT
BRANCH   1   8
ATOM      8  C1  UNL d   1       2.154   5.999  -1.315  0.00  0.00     0.053 C 
ATOM      9  C   UNL d   1       2.170   5.980  -2.836  0.00  0.00     0.018 C 
ENDBRANCH   1   8
TORSDOF 1
ENDMDL
