MODEL 1
REMARK minimizedAffinity 12.7845306
REMARK minimizedRMSD -1
REMARK  1 active torsions:
REMARK  status: ('A' for Active; 'I' for Inactive)
REMARK    1  A    between atoms: C1_2  and  C2_3 
ROOT
ATOM      1  C2  UNL d   1      -3.156   3.155   1.113  0.00  0.00    -0.076 A 
ATOM      2  C3  UNL d   1      -3.127   4.336   1.874  0.00  0.00     0.004 A 
ATOM      3  C4  UNL d   1      -4.289   5.069   2.107  0.00  0.00    -0.003 A 
ATOM      4  C5  UNL d   1      -5.501   4.631   1.583  0.00  0.00     0.000 A 
ATOM      5  C6  UNL d   1      -5.552   3.452   0.840  0.00  0.00     0.000 A 
ATOM      6  C7  UNL d   1      -4.391   2.693   0.610  0.00  0.00    -0.073 A 
ATOM      7  C8  UNL d   1      -4.503   1.432  -0.203  0.00  0.00     0.078 C 
ENDROOT
BRANCH   1   8
ATOM      8  C1  UNL d   1      -1.859   2.417   0.870  0.00  0.00     0.053 C 
ATOM      9  C   UNL d   1      -0.837   3.263   0.126  0.00  0.00     0.018 C 
ENDBRANCH   1   8
TORSDOF 1
ENDMDL
