MODEL 1
REMARK minimizedAffinity 10.809988
REMARK minimizedRMSD -1
REMARK  1 active torsions:
REMARK  status: ('A' for Active; 'I' for Inactive)
REMARK    1  A    between atoms: C1_2  and  C2_3 
ROOT
ATOM      1  C2  UNL d   1       0.720   1.128  -0.292  0.00  0.00    -0.076 A 
ATOM      2  C3  UNL d   1       0.499   1.077  -1.679  0.00  0.00     0.004 A 
ATOM      3  C4  UNL d   1       0.826  -0.060  -2.416  0.00  0.00    -0.003 A 
ATOM      4  C5  UNL d   1       1.377  -1.165  -1.777  0.00  0.00     0.000 A 
ATOM      5  C6  UNL d   1       1.587  -1.138  -0.399  0.00  0.00     0.000 A 
ATOM      6  C7  UNL d   1       1.248  -0.006   0.361  0.00  0.00    -0.073 A 
ATOM      7  C8  UNL d   1       1.501  -0.030   1.844  0.00  0.00     0.078 C 
ENDROOT
BRANCH   1   8
ATOM      8  C1  UNL d   1       0.371   2.399   0.451  0.00  0.00     0.053 C 
ATOM      9  C   UNL d   1      -0.868   3.079  -0.108  0.00  0.00     0.018 C 
ENDBRANCH   1   8
TORSDOF 1
ENDMDL
