MODEL 1
REMARK minimizedAffinity 9.22110271
REMARK minimizedRMSD -1
REMARK  1 active torsions:
REMARK  status: ('A' for Active; 'I' for Inactive)
REMARK    1  A    between atoms: C1_2  and  C2_3 
ROOT
ATOM      1  C2  UNL d   1      -1.139   3.878  -1.103  0.00  0.00    -0.076 A 
ATOM      2  C3  UNL d   1      -1.227   5.209  -1.548  0.00  0.00     0.004 A 
ATOM      3  C4  UNL d   1      -0.086   5.999  -1.674  0.00  0.00    -0.003 A 
ATOM      4  C5  UNL d   1       1.161   5.472  -1.357  0.00  0.00     0.000 A 
ATOM      5  C6  UNL d   1       1.269   4.149  -0.931  0.00  0.00     0.000 A 
ATOM      6  C7  UNL d   1       0.130   3.333  -0.814  0.00  0.00    -0.073 A 
ATOM      7  C8  UNL d   1       0.303   1.915  -0.344  0.00  0.00     0.078 C 
ENDROOT
BRANCH   1   8
ATOM      8  C1  UNL d   1      -2.414   3.077  -0.959  0.00  0.00     0.053 C 
ATOM      9  C   UNL d   1      -2.969   3.114   0.456  0.00  0.00     0.018 C 
ENDBRANCH   1   8
TORSDOF 1
ENDMDL
