MODEL 1
REMARK minimizedAffinity -5.19412088
REMARK minimizedRMSD -1
REMARK  1 active torsions:
REMARK  status: ('A' for Active; 'I' for Inactive)
REMARK    1  A    between atoms: C1_2  and  C2_3 
ROOT
ATOM      1  C2  UNL d   1      -0.034  -0.051  -0.143  0.00  0.00    -0.077 A 
ATOM      2  C3  UNL d   1       1.212  -0.215   0.479  0.00  0.00     0.002 A 
ATOM      3  C4  UNL d   1       1.294  -0.383   1.862  0.00  0.00     0.002 A 
ATOM      4  C5  UNL d   1       0.135  -0.393   2.635  0.00  0.00    -0.004 A 
ATOM      5  C6  UNL d   1      -1.109  -0.228   2.026  0.00  0.00     0.002 A 
ATOM      6  C7  UNL d   1      -1.193  -0.059   0.644  0.00  0.00     0.002 A 
ENDROOT
BRANCH   1   7
ATOM      7  C1  UNL d   1      -0.129   0.081  -1.641  0.00  0.00     0.055 C 
ATOM      8  C   UNL d   1      -0.445   1.512  -2.051  0.00  0.00     0.019 C 
ENDBRANCH   1   7
TORSDOF 1
ENDMDL
