MODEL 1
REMARK minimizedAffinity -3.36890745
REMARK minimizedRMSD -1
REMARK  1 active torsions:
REMARK  status: ('A' for Active; 'I' for Inactive)
REMARK    1  A    between atoms: C1_2  and  C2_3 
ROOT
ATOM      1  C2  UNL d   1      -0.333  -0.539   0.475  0.00  0.00    -0.077 A 
ATOM      2  C3  UNL d   1       1.065  -0.591   0.575  0.00  0.00     0.002 A 
ATOM      3  C4  UNL d   1       1.672  -1.102   1.723  0.00  0.00     0.002 A 
ATOM      4  C5  UNL d   1       0.890  -1.568   2.778  0.00  0.00    -0.004 A 
ATOM      5  C6  UNL d   1      -0.500  -1.518   2.689  0.00  0.00     0.002 A 
ATOM      6  C7  UNL d   1      -1.109  -1.007   1.543  0.00  0.00     0.002 A 
ENDROOT
BRANCH   1   7
ATOM      7  C1  UNL d   1      -0.990  -0.033  -0.783  0.00  0.00     0.055 C 
ATOM      8  C   UNL d   1      -0.260   1.181  -1.339  0.00  0.00     0.019 C 
ENDBRANCH   1   7
TORSDOF 1
ENDMDL
