MODEL 1
REMARK minimizedAffinity 2.61144137
REMARK minimizedRMSD -1
REMARK  3 active torsions:
REMARK  status: ('A' for Active; 'I' for Inactive)
REMARK    1  A    between atoms: C3'_2  and  C2'_3 
REMARK    2  A    between atoms: C2'_3  and  C1'_4 
REMARK    3  A    between atoms: C1'_4  and  C1_5 
ROOT
ATOM      1  C1  N4B d   1      -0.680   1.015   0.103  0.00  0.00    -0.075 A 
ATOM      2  C2  N4B d   1       0.483   0.310  -0.275  0.00  0.00     0.002 A 
ATOM      3  C3  N4B d   1       1.690   0.962  -0.345  0.00  0.00     0.002 A 
ATOM      4  C4  N4B d   1       1.753   2.318  -0.061  0.00  0.00    -0.004 A 
ATOM      5  C5  N4B d   1       0.629   2.987   0.328  0.00  0.00     0.002 A 
ATOM      6  C6  N4B d   1      -0.589   2.343   0.406  0.00  0.00     0.002 A 
ENDROOT
BRANCH   1   7
ATOM      7  C1' N4B d   1      -2.036   0.364   0.110  0.00  0.00     0.057 C 
BRANCH   7   8
ATOM      8  C2' N4B d   1      -2.897   0.988  -0.985  0.00  0.00     0.009 C 
BRANCH   8   9
ATOM      9  C3' N4B d   1      -3.436  -0.057  -1.947  0.00  0.00     0.004 C 
ATOM     10  C4' N4B d   1      -2.978   0.163  -3.358  0.00  0.00     0.003 C 
ENDBRANCH   8   9
ENDBRANCH   7   8
ENDBRANCH   1   7
TORSDOF 3
ENDMDL
