MODEL 1
REMARK minimizedAffinity -0.140370339
REMARK minimizedRMSD -1
REMARK  3 active torsions:
REMARK  status: ('A' for Active; 'I' for Inactive)
REMARK    1  A    between atoms: C3'_2  and  C2'_3 
REMARK    2  A    between atoms: C2'_3  and  C1'_4 
REMARK    3  A    between atoms: C1'_4  and  C1_5 
ROOT
ATOM      1  C1  N4B d   1      -0.242   0.098   0.072  0.00  0.00    -0.075 A 
ATOM      2  C2  N4B d   1       0.370   1.069  -0.751  0.00  0.00     0.002 A 
ATOM      3  C3  N4B d   1       1.567   1.630  -0.379  0.00  0.00     0.002 A 
ATOM      4  C4  N4B d   1       2.159   1.251   0.817  0.00  0.00    -0.004 A 
ATOM      5  C5  N4B d   1       1.575   0.294   1.594  0.00  0.00     0.002 A 
ATOM      6  C6  N4B d   1       0.374  -0.281   1.230  0.00  0.00     0.002 A 
ENDROOT
BRANCH   1   7
ATOM      7  C1' N4B d   1      -1.592  -0.481  -0.251  0.00  0.00     0.057 C 
BRANCH   7   8
ATOM      8  C2' N4B d   1      -2.250   0.360  -1.341  0.00  0.00     0.009 C 
BRANCH   8   9
ATOM      9  C3' N4B d   1      -2.401  -0.413  -2.640  0.00  0.00     0.004 C 
ATOM     10  C4' N4B d   1      -2.127   0.428  -3.851  0.00  0.00     0.003 C 
ENDBRANCH   8   9
ENDBRANCH   7   8
ENDBRANCH   1   7
TORSDOF 3
ENDMDL
