MODEL 1
REMARK minimizedAffinity -4.86275291
REMARK minimizedRMSD -1
REMARK  3 active torsions:
REMARK  status: ('A' for Active; 'I' for Inactive)
REMARK    1  A    between atoms: C3'_2  and  C2'_3 
REMARK    2  A    between atoms: C2'_3  and  C1'_4 
REMARK    3  A    between atoms: C1'_4  and  C1_5 
ROOT
ATOM      1  C1  N4B d   1       1.276  -0.109   0.503  0.00  0.00    -0.075 A 
ATOM      2  C2  N4B d   1       2.617   0.181   0.837  0.00  0.00     0.002 A 
ATOM      3  C3  N4B d   1       3.318  -0.665   1.660  0.00  0.00     0.002 A 
ATOM      4  C4  N4B d   1       2.696  -1.793   2.174  0.00  0.00    -0.004 A 
ATOM      5  C5  N4B d   1       1.409  -2.080   1.826  0.00  0.00     0.002 A 
ATOM      6  C6  N4B d   1       0.693  -1.241   0.996  0.00  0.00     0.002 A 
ENDROOT
BRANCH   1   7
ATOM      7  C1' N4B d   1       0.442   0.831  -0.324  0.00  0.00     0.057 C 
BRANCH   7   8
ATOM      8  C2' N4B d   1      -1.030   0.460  -0.172  0.00  0.00     0.009 C 
BRANCH   8   9
ATOM      9  C3' N4B d   1      -1.760   0.470  -1.504  0.00  0.00     0.004 C 
ATOM     10  C4' N4B d   1      -3.216   0.799  -1.367  0.00  0.00     0.003 C 
ENDBRANCH   8   9
ENDBRANCH   7   8
ENDBRANCH   1   7
TORSDOF 3
ENDMDL
