MODEL 1
REMARK minimizedAffinity -4.66805363
REMARK minimizedRMSD -1
REMARK  3 active torsions:
REMARK  status: ('A' for Active; 'I' for Inactive)
REMARK    1  A    between atoms: C3'_2  and  C2'_3 
REMARK    2  A    between atoms: C2'_3  and  C1'_4 
REMARK    3  A    between atoms: C1'_4  and  C1_5 
ROOT
ATOM      1  C1  N4B d   1       1.254   0.578  -0.624  0.00  0.00    -0.075 A 
ATOM      2  C2  N4B d   1       1.564   1.081   0.659  0.00  0.00     0.002 A 
ATOM      3  C3  N4B d   1       2.531   0.471   1.420  0.00  0.00     0.002 A 
ATOM      4  C4  N4B d   1       3.186  -0.649   0.930  0.00  0.00    -0.004 A 
ATOM      5  C5  N4B d   1       2.899  -1.113  -0.321  0.00  0.00     0.002 A 
ATOM      6  C6  N4B d   1       1.932  -0.508  -1.098  0.00  0.00     0.002 A 
ENDROOT
BRANCH   1   7
ATOM      7  C1' N4B d   1       0.145   1.158  -1.458  0.00  0.00     0.057 C 
BRANCH   7   8
ATOM      8  C2' N4B d   1      -1.190   0.599  -0.975  0.00  0.00     0.009 C 
BRANCH   8   9
ATOM      9  C3' N4B d   1      -1.707  -0.501  -1.885  0.00  0.00     0.004 C 
ATOM     10  C4' N4B d   1      -2.580   0.020  -2.988  0.00  0.00     0.003 C 
ENDBRANCH   8   9
ENDBRANCH   7   8
ENDBRANCH   1   7
TORSDOF 3
ENDMDL
