MODEL 1
REMARK minimizedAffinity -3.7707274
REMARK minimizedRMSD -1
REMARK  1 active torsions:
REMARK  status: ('A' for Active; 'I' for Inactive)
REMARK    1  A    between atoms: C1_2  and  C2_3 
ROOT
ATOM      1  C2  UNL d   1      -0.101  -0.428  -0.474  0.00  0.00    -0.073 A 
ATOM      2  C3  UNL d   1      -0.162   0.247  -1.698  0.00  0.00    -0.002 A 
ATOM      3  C4  UNL d   1      -0.677   1.542  -1.764  0.00  0.00     0.004 A 
ATOM      4  C5  UNL d   1      -1.128   2.178  -0.608  0.00  0.00    -0.004 A 
ATOM      5  C6  UNL d   1      -1.064   1.525   0.627  0.00  0.00    -0.075 A 
ATOM      6  C7  UNL d   1      -1.548   2.194   1.880  0.00  0.00     0.076 C 
ATOM      7  C8  UNL d   1      -0.549   0.223   0.685  0.00  0.00     0.001 A 
ENDROOT
BRANCH   1   8
ATOM      8  C1  UNL d   1       0.460  -1.824  -0.397  0.00  0.00     0.053 C 
ATOM      9  C   UNL d   1      -0.511  -2.859  -0.944  0.00  0.00     0.018 C 
ENDBRANCH   1   8
TORSDOF 1
ENDMDL
