MODEL 1
REMARK minimizedAffinity -4.29767561
REMARK minimizedRMSD -1
REMARK  1 active torsions:
REMARK  status: ('A' for Active; 'I' for Inactive)
REMARK    1  A    between atoms: C1_2  and  C2_3 
ROOT
ATOM      1  C2  UNL d   1      -0.084  -0.502   0.155  0.00  0.00    -0.073 A 
ATOM      2  C3  UNL d   1       0.035  -0.109   1.493  0.00  0.00    -0.002 A 
ATOM      3  C4  UNL d   1      -0.360   1.169   1.890  0.00  0.00     0.004 A 
ATOM      4  C5  UNL d   1      -0.883   2.064   0.957  0.00  0.00    -0.004 A 
ATOM      5  C6  UNL d   1      -1.021   1.686  -0.382  0.00  0.00    -0.075 A 
ATOM      6  C7  UNL d   1      -1.579   2.637  -1.399  0.00  0.00     0.076 C 
ATOM      7  C8  UNL d   1      -0.619   0.401  -0.774  0.00  0.00     0.001 A 
ENDROOT
BRANCH   1   8
ATOM      8  C1  UNL d   1       0.335  -1.883  -0.277  0.00  0.00     0.053 C 
ATOM      9  C   UNL d   1      -0.838  -2.698  -0.797  0.00  0.00     0.018 C 
ENDBRANCH   1   8
TORSDOF 1
ENDMDL
