MODEL 1
REMARK minimizedAffinity -2.47358346
REMARK minimizedRMSD -1
REMARK  1 active torsions:
REMARK  status: ('A' for Active; 'I' for Inactive)
REMARK    1  A    between atoms: C1_2  and  C2_3 
ROOT
ATOM      1  C2  UNL d   1       0.568  -0.016   3.128  0.00  0.00    -0.073 A 
ATOM      2  C3  UNL d   1       1.315  -0.113   1.948  0.00  0.00    -0.002 A 
ATOM      3  C4  UNL d   1       0.995   0.678   0.844  0.00  0.00     0.004 A 
ATOM      4  C5  UNL d   1      -0.069   1.577   0.909  0.00  0.00    -0.004 A 
ATOM      5  C6  UNL d   1      -0.820   1.697   2.083  0.00  0.00    -0.075 A 
ATOM      6  C7  UNL d   1      -1.969   2.658   2.169  0.00  0.00     0.076 C 
ATOM      7  C8  UNL d   1      -0.494   0.897   3.187  0.00  0.00     0.001 A 
ENDROOT
BRANCH   1   8
ATOM      8  C1  UNL d   1       0.914  -0.863   4.325  0.00  0.00     0.053 C 
ATOM      9  C   UNL d   1       2.109  -1.765   4.059  0.00  0.00     0.018 C 
ENDBRANCH   1   8
TORSDOF 1
ENDMDL
