MODEL 1
REMARK minimizedAffinity 4.74801254
REMARK minimizedRMSD -1
REMARK  1 active torsions:
REMARK  status: ('A' for Active; 'I' for Inactive)
REMARK    1  A    between atoms: C1_2  and  C2_3 
ROOT
ATOM      1  C2  UNL d   1      -1.291  -1.240  -1.957  0.00  0.00    -0.073 A 
ATOM      2  C3  UNL d   1      -0.092  -0.892  -2.588  0.00  0.00    -0.002 A 
ATOM      3  C4  UNL d   1       0.403   0.410  -2.492  0.00  0.00     0.004 A 
ATOM      4  C5  UNL d   1      -0.291   1.373  -1.760  0.00  0.00    -0.004 A 
ATOM      5  C6  UNL d   1      -1.485   1.041  -1.112  0.00  0.00    -0.075 A 
ATOM      6  C7  UNL d   1      -2.245   2.066  -0.322  0.00  0.00     0.076 C 
ATOM      7  C8  UNL d   1      -1.977  -0.267  -1.215  0.00  0.00     0.001 A 
ENDROOT
BRANCH   1   8
ATOM      8  C1  UNL d   1      -1.826  -2.645  -2.052  0.00  0.00     0.053 C 
ATOM      9  C   UNL d   1      -0.761  -3.683  -1.737  0.00  0.00     0.018 C 
ENDBRANCH   1   8
TORSDOF 1
ENDMDL
