MODEL 1
REMARK minimizedAffinity -3.72086096
REMARK minimizedRMSD -1
REMARK  1 active torsions:
REMARK  status: ('A' for Active; 'I' for Inactive)
REMARK    1  A    between atoms: C1_2  and  C2_3 
ROOT
ATOM      1  C2  UNL d   1       0.195  -0.841  -0.570  0.00  0.00    -0.073 A 
ATOM      2  C3  UNL d   1       0.398   0.016  -1.658  0.00  0.00    -0.002 A 
ATOM      3  C4  UNL d   1      -0.017   1.347  -1.593  0.00  0.00     0.004 A 
ATOM      4  C5  UNL d   1      -0.633   1.835  -0.441  0.00  0.00    -0.004 A 
ATOM      5  C6  UNL d   1      -0.835   0.997   0.660  0.00  0.00    -0.075 A 
ATOM      6  C7  UNL d   1      -1.498   1.506   1.906  0.00  0.00     0.076 C 
ATOM      7  C8  UNL d   1      -0.417  -0.338   0.587  0.00  0.00     0.001 A 
ENDROOT
BRANCH   1   8
ATOM      8  C1  UNL d   1       0.647  -2.277  -0.633  0.00  0.00     0.053 C 
ATOM      9  C   UNL d   1      -0.449  -3.199  -1.141  0.00  0.00     0.018 C 
ENDBRANCH   1   8
TORSDOF 1
ENDMDL
