MODEL 1
REMARK minimizedAffinity -4.34022236
REMARK minimizedRMSD -1
REMARK  1 active torsions:
REMARK  status: ('A' for Active; 'I' for Inactive)
REMARK    1  A    between atoms: C1_2  and  C2_3 
ROOT
ATOM      1  C2  UNL d   1       0.143  -1.132  -0.311  0.00  0.00    -0.073 A 
ATOM      2  C3  UNL d   1       0.579  -0.544  -1.503  0.00  0.00    -0.002 A 
ATOM      3  C4  UNL d   1       0.407   0.824  -1.718  0.00  0.00     0.004 A 
ATOM      4  C5  UNL d   1      -0.195   1.618  -0.742  0.00  0.00    -0.004 A 
ATOM      5  C6  UNL d   1      -0.626   1.051   0.461  0.00  0.00    -0.075 A 
ATOM      6  C7  UNL d   1      -1.278   1.890   1.521  0.00  0.00     0.076 C 
ATOM      7  C8  UNL d   1      -0.453  -0.325   0.668  0.00  0.00     0.001 A 
ENDROOT
BRANCH   1   8
ATOM      8  C1  UNL d   1       0.332  -2.608  -0.072  0.00  0.00     0.053 C 
ATOM      9  C   UNL d   1       0.287  -3.406  -1.365  0.00  0.00     0.018 C 
ENDBRANCH   1   8
TORSDOF 1
ENDMDL
