MODEL 1
REMARK minimizedAffinity 5.14168406
REMARK minimizedRMSD -1
REMARK  0 active torsions:
REMARK  status: ('A' for Active; 'I' for Inactive)
ROOT
ATOM      1  C   UNL d   1      -2.036  -2.309   1.590  0.00  0.00     0.077 C 
ATOM      2  C1  UNL d   1      -0.574  -2.234   1.261  0.00  0.00    -0.074 A 
ATOM      3  C2  UNL d   1       0.161  -1.071   1.516  0.00  0.00    -0.005 A 
ATOM      4  C3  UNL d   1       1.521  -1.019   1.213  0.00  0.00     0.006 A 
ATOM      5  C4  UNL d   1       2.160  -2.127   0.655  0.00  0.00    -0.005 A 
ATOM      6  C5  UNL d   1       1.442  -3.298   0.394  0.00  0.00    -0.074 A 
ATOM      7  C6  UNL d   1       2.115  -4.502  -0.197  0.00  0.00     0.077 C 
ATOM      8  C7  UNL d   1       0.076  -3.345   0.707  0.00  0.00    -0.001 A 
ENDROOT
TORSDOF 0
ENDMDL
