MODEL 1
REMARK minimizedAffinity -1.92623234
REMARK minimizedRMSD -1
REMARK  0 active torsions:
REMARK  status: ('A' for Active; 'I' for Inactive)
ROOT
ATOM      1  C   UNL d   1       2.262  -4.315  -0.253  0.00  0.00     0.077 C 
ATOM      2  C1  UNL d   1       1.266  -3.206  -0.084  0.00  0.00    -0.074 A 
ATOM      3  C2  UNL d   1      -0.015  -3.299  -0.638  0.00  0.00    -0.005 A 
ATOM      4  C3  UNL d   1      -0.933  -2.264  -0.464  0.00  0.00     0.006 A 
ATOM      5  C4  UNL d   1      -0.582  -1.128   0.265  0.00  0.00    -0.005 A 
ATOM      6  C5  UNL d   1       0.694  -1.018   0.828  0.00  0.00    -0.074 A 
ATOM      7  C6  UNL d   1       1.084   0.192   1.624  0.00  0.00     0.077 C 
ATOM      8  C7  UNL d   1       1.609  -2.065   0.655  0.00  0.00    -0.001 A 
ENDROOT
TORSDOF 0
ENDMDL
