MODEL 1
REMARK minimizedAffinity 5.10681629
REMARK minimizedRMSD -1
REMARK  0 active torsions:
REMARK  status: ('A' for Active; 'I' for Inactive)
ROOT
ATOM      1  C   UNL d   1       3.348  -0.204   0.385  0.00  0.00     0.077 C 
ATOM      2  C1  UNL d   1       2.181  -1.136   0.258  0.00  0.00    -0.074 A 
ATOM      3  C2  UNL d   1       2.360  -2.462  -0.152  0.00  0.00    -0.005 A 
ATOM      4  C3  UNL d   1       1.266  -3.320  -0.256  0.00  0.00     0.006 A 
ATOM      5  C4  UNL d   1      -0.017  -2.863   0.049  0.00  0.00    -0.005 A 
ATOM      6  C5  UNL d   1      -0.216  -1.542   0.461  0.00  0.00    -0.074 A 
ATOM      7  C6  UNL d   1      -1.587  -1.037   0.801  0.00  0.00     0.077 C 
ATOM      8  C7  UNL d   1       0.890  -0.687   0.569  0.00  0.00    -0.001 A 
ENDROOT
TORSDOF 0
ENDMDL
