MODEL 1
REMARK minimizedAffinity -2.50379539
REMARK minimizedRMSD -1
REMARK  0 active torsions:
REMARK  status: ('A' for Active; 'I' for Inactive)
ROOT
ATOM      1  C   UNL d   1       2.513  -4.213  -0.403  0.00  0.00     0.077 C 
ATOM      2  C1  UNL d   1       1.774  -3.006   0.093  0.00  0.00    -0.074 A 
ATOM      3  C2  UNL d   1       0.381  -3.014   0.211  0.00  0.00    -0.005 A 
ATOM      4  C3  UNL d   1      -0.292  -1.887   0.683  0.00  0.00     0.006 A 
ATOM      5  C4  UNL d   1       0.421  -0.742   1.041  0.00  0.00    -0.005 A 
ATOM      6  C5  UNL d   1       1.815  -0.716   0.931  0.00  0.00    -0.074 A 
ATOM      7  C6  UNL d   1       2.597   0.503   1.321  0.00  0.00     0.077 C 
ATOM      8  C7  UNL d   1       2.484  -1.855   0.462  0.00  0.00    -0.001 A 
ENDROOT
TORSDOF 0
ENDMDL
