MODEL 1
REMARK minimizedAffinity 4.12820864
REMARK minimizedRMSD -1
REMARK  0 active torsions:
REMARK  status: ('A' for Active; 'I' for Inactive)
ROOT
ATOM      1  C   UNL d   1       2.179  -3.708  -0.513  0.00  0.00     0.077 C 
ATOM      2  C1  UNL d   1       1.401  -2.564   0.066  0.00  0.00    -0.074 A 
ATOM      3  C2  UNL d   1       0.038  -2.408  -0.208  0.00  0.00    -0.005 A 
ATOM      4  C3  UNL d   1      -0.674  -1.345   0.345  0.00  0.00     0.006 A 
ATOM      5  C4  UNL d   1      -0.032  -0.427   1.178  0.00  0.00    -0.005 A 
ATOM      6  C5  UNL d   1       1.329  -0.566   1.465  0.00  0.00    -0.074 A 
ATOM      7  C6  UNL d   1       2.032   0.405   2.365  0.00  0.00     0.077 C 
ATOM      8  C7  UNL d   1       2.037  -1.642   0.910  0.00  0.00    -0.001 A 
ENDROOT
TORSDOF 0
ENDMDL
