MODEL 1
REMARK minimizedAffinity -2.05964947
REMARK minimizedRMSD -1
REMARK  0 active torsions:
REMARK  status: ('A' for Active; 'I' for Inactive)
ROOT
ATOM      1  C   UNL d   1      -0.618   0.600   1.902  0.00  0.00     0.077 C 
ATOM      2  C1  UNL d   1      -0.088  -0.561   1.115  0.00  0.00    -0.074 A 
ATOM      3  C2  UNL d   1      -0.925  -1.616   0.738  0.00  0.00    -0.005 A 
ATOM      4  C3  UNL d   1      -0.419  -2.685  -0.002  0.00  0.00     0.006 A 
ATOM      5  C4  UNL d   1       0.926  -2.710  -0.371  0.00  0.00    -0.005 A 
ATOM      6  C5  UNL d   1       1.778  -1.663  -0.004  0.00  0.00    -0.074 A 
ATOM      7  C6  UNL d   1       3.224  -1.669  -0.401  0.00  0.00     0.077 C 
ATOM      8  C7  UNL d   1       1.261  -0.589   0.734  0.00  0.00    -0.001 A 
ENDROOT
TORSDOF 0
ENDMDL
