MODEL 1
REMARK minimizedAffinity -0.890799761
REMARK minimizedRMSD -1
REMARK  0 active torsions:
REMARK  status: ('A' for Active; 'I' for Inactive)
ROOT
ATOM      1  C   UNL d   1       2.261  -0.012   1.814  0.00  0.00     0.077 C 
ATOM      2  C1  UNL d   1       1.145  -0.755   1.140  0.00  0.00    -0.074 A 
ATOM      3  C2  UNL d   1      -0.149  -0.226   1.101  0.00  0.00    -0.005 A 
ATOM      4  C3  UNL d   1      -1.174  -0.924   0.462  0.00  0.00     0.006 A 
ATOM      5  C4  UNL d   1      -0.916  -2.154  -0.144  0.00  0.00    -0.005 A 
ATOM      6  C5  UNL d   1       0.373  -2.698  -0.116  0.00  0.00    -0.074 A 
ATOM      7  C6  UNL d   1       0.670  -4.014  -0.770  0.00  0.00     0.077 C 
ATOM      8  C7  UNL d   1       1.399  -1.988   0.523  0.00  0.00    -0.001 A 
ENDROOT
TORSDOF 0
ENDMDL
