MODEL 1
REMARK minimizedAffinity -0.764917076
REMARK minimizedRMSD -1
REMARK  0 active torsions:
REMARK  status: ('A' for Active; 'I' for Inactive)
ROOT
ATOM      1  C   UNL d   1       0.067  -1.739   0.185  0.00  0.00     0.077 C 
ATOM      2  C1  UNL d   1      -0.704  -0.617   0.814  0.00  0.00    -0.074 A 
ATOM      3  C2  UNL d   1      -0.209   0.056   1.936  0.00  0.00    -0.005 A 
ATOM      4  C3  UNL d   1      -0.933   1.104   2.504  0.00  0.00     0.006 A 
ATOM      5  C4  UNL d   1      -2.157   1.490   1.957  0.00  0.00    -0.005 A 
ATOM      6  C5  UNL d   1      -2.668   0.829   0.836  0.00  0.00    -0.074 A 
ATOM      7  C6  UNL d   1      -3.978   1.238   0.230  0.00  0.00     0.077 C 
ATOM      8  C7  UNL d   1      -1.931  -0.218   0.266  0.00  0.00    -0.001 A 
ENDROOT
TORSDOF 0
ENDMDL
