MODEL 1
REMARK minimizedAffinity 3.59785962
REMARK minimizedRMSD -1
REMARK  0 active torsions:
REMARK  status: ('A' for Active; 'I' for Inactive)
ROOT
ATOM      1  C   UNL d   1       3.197  -2.961  -0.633  0.00  0.00     0.077 C 
ATOM      2  C1  UNL d   1       1.835  -2.683  -0.071  0.00  0.00    -0.074 A 
ATOM      3  C2  UNL d   1       0.750  -3.514  -0.370  0.00  0.00    -0.005 A 
ATOM      4  C3  UNL d   1      -0.509  -3.248   0.168  0.00  0.00     0.006 A 
ATOM      5  C4  UNL d   1      -0.696  -2.151   1.010  0.00  0.00    -0.005 A 
ATOM      6  C5  UNL d   1       0.377  -1.310   1.322  0.00  0.00    -0.074 A 
ATOM      7  C6  UNL d   1       0.196  -0.133   2.233  0.00  0.00     0.077 C 
ATOM      8  C7  UNL d   1       1.641  -1.588   0.782  0.00  0.00    -0.001 A 
ENDROOT
TORSDOF 0
ENDMDL
