MODEL 1
REMARK minimizedAffinity 1.29100657
REMARK minimizedRMSD -1
REMARK  0 active torsions:
REMARK  status: ('A' for Active; 'I' for Inactive)
ROOT
ATOM      1  C   UNL d   1      -1.687  -2.109   1.343  0.00  0.00     0.077 C 
ATOM      2  C1  UNL d   1      -0.290  -1.908   0.837  0.00  0.00    -0.074 A 
ATOM      3  C2  UNL d   1       0.353  -0.673   0.970  0.00  0.00    -0.005 A 
ATOM      4  C3  UNL d   1       1.656  -0.503   0.503  0.00  0.00     0.006 A 
ATOM      5  C4  UNL d   1       2.329  -1.566  -0.101  0.00  0.00    -0.005 A 
ATOM      6  C5  UNL d   1       1.703  -2.809  -0.242  0.00  0.00    -0.074 A 
ATOM      7  C6  UNL d   1       2.416  -3.964  -0.880  0.00  0.00     0.077 C 
ATOM      8  C7  UNL d   1       0.396  -2.973   0.236  0.00  0.00    -0.001 A 
ENDROOT
TORSDOF 0
ENDMDL
