MODEL 1
REMARK minimizedAffinity 1.47372186
REMARK minimizedRMSD -1
REMARK  0 active torsions:
REMARK  status: ('A' for Active; 'I' for Inactive)
ROOT
ATOM      1  C   UNL d   1       1.147  -1.519   3.950  0.00  0.00     0.077 C 
ATOM      2  C1  UNL d   1       0.599  -1.374   2.561  0.00  0.00    -0.074 A 
ATOM      3  C2  UNL d   1      -0.766  -1.159   2.346  0.00  0.00    -0.005 A 
ATOM      4  C3  UNL d   1      -1.259  -1.016   1.049  0.00  0.00     0.006 A 
ATOM      5  C4  UNL d   1      -0.394  -1.087  -0.044  0.00  0.00    -0.005 A 
ATOM      6  C5  UNL d   1       0.974  -1.300   0.152  0.00  0.00    -0.074 A 
ATOM      7  C6  UNL d   1       1.919  -1.369  -1.010  0.00  0.00     0.077 C 
ATOM      8  C7  UNL d   1       1.463  -1.436   1.459  0.00  0.00    -0.001 A 
ENDROOT
TORSDOF 0
ENDMDL
