MODEL 1
REMARK minimizedAffinity 2.14770246
REMARK minimizedRMSD -1
REMARK  0 active torsions:
REMARK  status: ('A' for Active; 'I' for Inactive)
ROOT
ATOM      1  C   UNL d   1       1.952  -3.983  -0.520  0.00  0.00     0.077 C 
ATOM      2  C1  UNL d   1       1.277  -2.723  -0.063  0.00  0.00    -0.074 A 
ATOM      3  C2  UNL d   1      -0.111  -2.580  -0.147  0.00  0.00    -0.005 A 
ATOM      4  C3  UNL d   1      -0.725  -1.407   0.291  0.00  0.00     0.006 A 
ATOM      5  C4  UNL d   1       0.042  -0.366   0.815  0.00  0.00    -0.005 A 
ATOM      6  C5  UNL d   1       1.432  -0.491   0.907  0.00  0.00    -0.074 A 
ATOM      7  C6  UNL d   1       2.270   0.614   1.478  0.00  0.00     0.077 C 
ATOM      8  C7  UNL d   1       2.041  -1.676   0.472  0.00  0.00    -0.001 A 
ENDROOT
TORSDOF 0
ENDMDL
