MODEL 1
REMARK minimizedAffinity 2.08042026
REMARK minimizedRMSD -1
REMARK  0 active torsions:
REMARK  status: ('A' for Active; 'I' for Inactive)
ROOT
ATOM      1  C   UNL d   1       3.362  -1.456  -0.287  0.00  0.00     0.077 C 
ATOM      2  C1  UNL d   1       1.937  -1.688   0.117  0.00  0.00    -0.074 A 
ATOM      3  C2  UNL d   1       1.251  -2.836  -0.292  0.00  0.00    -0.005 A 
ATOM      4  C3  UNL d   1      -0.071  -3.043   0.099  0.00  0.00     0.006 A 
ATOM      5  C4  UNL d   1      -0.721  -2.104   0.902  0.00  0.00    -0.005 A 
ATOM      6  C5  UNL d   1      -0.052  -0.950   1.322  0.00  0.00    -0.074 A 
ATOM      7  C6  UNL d   1      -0.732   0.063   2.193  0.00  0.00     0.077 C 
ATOM      8  C7  UNL d   1       1.280  -0.753   0.930  0.00  0.00    -0.001 A 
ENDROOT
TORSDOF 0
ENDMDL
