MODEL 1
REMARK minimizedAffinity -0.1044963
REMARK minimizedRMSD -1
REMARK  3 active torsions:
REMARK  status: ('A' for Active; 'I' for Inactive)
REMARK    1  A    between atoms: C3'_2  and  C2'_3 
REMARK    2  A    between atoms: C2'_3  and  C1'_4 
REMARK    3  A    between atoms: C1'_4  and  C1_5 
ROOT
ATOM      1  C1  N4B d   1       0.682  -0.289  -0.136  0.00  0.00    -0.075 A 
ATOM      2  C2  N4B d   1       0.207  -1.163   0.866  0.00  0.00     0.002 A 
ATOM      3  C3  N4B d   1      -0.837  -2.014   0.596  0.00  0.00     0.002 A 
ATOM      4  C4  N4B d   1      -1.431  -1.994  -0.657  0.00  0.00    -0.004 A 
ATOM      5  C5  N4B d   1      -0.950  -1.165  -1.627  0.00  0.00     0.002 A 
ATOM      6  C6  N4B d   1       0.101  -0.307  -1.371  0.00  0.00     0.002 A 
ENDROOT
BRANCH   1   7
ATOM      7  C1' N4B d   1       1.764   0.720   0.138  0.00  0.00     0.057 C 
BRANCH   7   8
ATOM      8  C2' N4B d   1       2.889   0.536  -0.877  0.00  0.00     0.009 C 
BRANCH   8   9
ATOM      9  C3' N4B d   1       4.086   1.416  -0.565  0.00  0.00     0.004 C 
ATOM     10  C4' N4B d   1       4.751   1.952  -1.797  0.00  0.00     0.003 C 
ENDBRANCH   8   9
ENDBRANCH   7   8
ENDBRANCH   1   7
TORSDOF 3
ENDMDL
