MODEL 1
REMARK minimizedAffinity 8.53517246
REMARK minimizedRMSD -1
REMARK  3 active torsions:
REMARK  status: ('A' for Active; 'I' for Inactive)
REMARK    1  A    between atoms: C3'_2  and  C2'_3 
REMARK    2  A    between atoms: C2'_3  and  C1'_4 
REMARK    3  A    between atoms: C1'_4  and  C1_5 
ROOT
ATOM      1  C1  N4B d   1       2.826   3.106   4.820  0.00  0.00    -0.075 A 
ATOM      2  C2  N4B d   1       3.497   3.396   3.611  0.00  0.00     0.002 A 
ATOM      3  C3  N4B d   1       4.651   4.141   3.628  0.00  0.00     0.002 A 
ATOM      4  C4  N4B d   1       5.141   4.620   4.834  0.00  0.00    -0.004 A 
ATOM      5  C5  N4B d   1       4.501   4.313   6.000  0.00  0.00     0.002 A 
ATOM      6  C6  N4B d   1       3.342   3.563   5.998  0.00  0.00     0.002 A 
ENDROOT
BRANCH   1   7
ATOM      7  C1' N4B d   1       1.515   2.369   4.843  0.00  0.00     0.057 C 
BRANCH   7   8
ATOM      8  C2' N4B d   1       0.381   3.357   4.589  0.00  0.00     0.009 C 
BRANCH   8   9
ATOM      9  C3' N4B d   1      -0.034   3.382   3.128  0.00  0.00     0.004 C 
ATOM     10  C4' N4B d   1      -0.063   4.769   2.557  0.00  0.00     0.003 C 
ENDBRANCH   8   9
ENDBRANCH   7   8
ENDBRANCH   1   7
TORSDOF 3
ENDMDL
