MODEL 1
REMARK minimizedAffinity 4.53863287
REMARK minimizedRMSD -1
REMARK  3 active torsions:
REMARK  status: ('A' for Active; 'I' for Inactive)
REMARK    1  A    between atoms: C3'_2  and  C2'_3 
REMARK    2  A    between atoms: C2'_3  and  C1'_4 
REMARK    3  A    between atoms: C1'_4  and  C1_5 
ROOT
ATOM      1  C1  N4B d   1       4.739   1.297  -1.928  0.00  0.00    -0.075 A 
ATOM      2  C2  N4B d   1       3.998   0.440  -2.772  0.00  0.00     0.002 A 
ATOM      3  C3  N4B d   1       3.037  -0.384  -2.240  0.00  0.00     0.002 A 
ATOM      4  C4  N4B d   1       2.812  -0.381  -0.871  0.00  0.00    -0.004 A 
ATOM      5  C5  N4B d   1       3.514   0.468  -0.067  0.00  0.00     0.002 A 
ATOM      6  C6  N4B d   1       4.481   1.304  -0.588  0.00  0.00     0.002 A 
ENDROOT
BRANCH   1   7
ATOM      7  C1' N4B d   1       5.859   2.153  -2.453  0.00  0.00     0.057 C 
BRANCH   7   8
ATOM      8  C2' N4B d   1       5.511   3.623  -2.234  0.00  0.00     0.009 C 
BRANCH   8   9
ATOM      9  C3' N4B d   1       5.967   4.493  -3.393  0.00  0.00     0.004 C 
ATOM     10  C4' N4B d   1       5.866   5.959  -3.093  0.00  0.00     0.003 C 
ENDBRANCH   8   9
ENDBRANCH   7   8
ENDBRANCH   1   7
TORSDOF 3
ENDMDL
