MODEL 1
REMARK minimizedAffinity 8.52519703
REMARK minimizedRMSD -1
REMARK  3 active torsions:
REMARK  status: ('A' for Active; 'I' for Inactive)
REMARK    1  A    between atoms: C3'_2  and  C2'_3 
REMARK    2  A    between atoms: C2'_3  and  C1'_4 
REMARK    3  A    between atoms: C1'_4  and  C1_5 
ROOT
ATOM      1  C1  N4B d   1       2.963   3.240   3.667  0.00  0.00    -0.075 A 
ATOM      2  C2  N4B d   1       4.277   3.738   3.522  0.00  0.00     0.002 A 
ATOM      3  C3  N4B d   1       4.960   4.202   4.619  0.00  0.00     0.002 A 
ATOM      4  C4  N4B d   1       4.347   4.196   5.863  0.00  0.00    -0.004 A 
ATOM      5  C5  N4B d   1       3.087   3.690   5.999  0.00  0.00     0.002 A 
ATOM      6  C6  N4B d   1       2.390   3.216   4.906  0.00  0.00     0.002 A 
ENDROOT
BRANCH   1   7
ATOM      7  C1' N4B d   1       2.145   2.802   2.484  0.00  0.00     0.057 C 
BRANCH   7   8
ATOM      8  C2' N4B d   1       3.060   2.136   1.461  0.00  0.00     0.009 C 
BRANCH   8   9
ATOM      9  C3' N4B d   1       2.274   1.390   0.396  0.00  0.00     0.004 C 
ATOM     10  C4' N4B d   1       3.122   0.982  -0.772  0.00  0.00     0.003 C 
ENDBRANCH   8   9
ENDBRANCH   7   8
ENDBRANCH   1   7
TORSDOF 3
ENDMDL
