MODEL 1
REMARK minimizedAffinity 20.1395283
REMARK minimizedRMSD -1
REMARK  1 active torsions:
REMARK  status: ('A' for Active; 'I' for Inactive)
REMARK    1  A    between atoms: C1_2  and  C2_3 
ROOT
ATOM      1  C2  UNL d   1      -3.827   3.893  -4.378  0.00  0.00    -0.076 A 
ATOM      2  C3  UNL d   1      -4.573   3.241  -5.375  0.00  0.00     0.004 A 
ATOM      3  C4  UNL d   1      -5.651   3.874  -5.993  0.00  0.00    -0.003 A 
ATOM      4  C5  UNL d   1      -6.000   5.168  -5.624  0.00  0.00     0.000 A 
ATOM      5  C6  UNL d   1      -5.260   5.836  -4.649  0.00  0.00     0.000 A 
ATOM      6  C7  UNL d   1      -4.161   5.219  -4.027  0.00  0.00    -0.073 A 
ATOM      7  C8  UNL d   1      -3.402   5.984  -2.978  0.00  0.00     0.078 C 
ENDROOT
BRANCH   1   8
ATOM      8  C1  UNL d   1      -2.686   3.147  -3.724  0.00  0.00     0.053 C 
ATOM      9  C   UNL d   1      -1.412   3.188  -4.554  0.00  0.00     0.018 C 
ENDBRANCH   1   8
TORSDOF 1
ENDMDL
