MODEL 1
REMARK minimizedAffinity 14.757349
REMARK minimizedRMSD -1
REMARK  1 active torsions:
REMARK  status: ('A' for Active; 'I' for Inactive)
REMARK    1  A    between atoms: C1_2  and  C2_3 
ROOT
ATOM      1  C2  UNL d   1      -1.182  -2.941  -1.072  0.00  0.00    -0.076 A 
ATOM      2  C3  UNL d   1      -0.905  -3.107  -2.440  0.00  0.00     0.004 A 
ATOM      3  C4  UNL d   1      -1.377  -2.196  -3.383  0.00  0.00    -0.003 A 
ATOM      4  C5  UNL d   1      -2.133  -1.104  -2.974  0.00  0.00     0.000 A 
ATOM      5  C6  UNL d   1      -2.403  -0.913  -1.619  0.00  0.00     0.000 A 
ATOM      6  C7  UNL d   1      -1.921  -1.814  -0.653  0.00  0.00    -0.073 A 
ATOM      7  C8  UNL d   1      -2.247  -1.563   0.793  0.00  0.00     0.078 C 
ENDROOT
BRANCH   1   8
ATOM      8  C1  UNL d   1      -0.667  -3.976  -0.098  0.00  0.00     0.053 C 
ATOM      9  C   UNL d   1      -0.795  -5.394  -0.632  0.00  0.00     0.018 C 
ENDBRANCH   1   8
TORSDOF 1
ENDMDL
