MODEL 1
REMARK minimizedAffinity 11.5732508
REMARK minimizedRMSD -1
REMARK  1 active torsions:
REMARK  status: ('A' for Active; 'I' for Inactive)
REMARK    1  A    between atoms: C1_2  and  C2_3 
ROOT
ATOM      1  C2  UNL d   1      -1.354  -2.444  -0.290  0.00  0.00    -0.076 A 
ATOM      2  C3  UNL d   1      -2.303  -2.355   0.743  0.00  0.00     0.004 A 
ATOM      3  C4  UNL d   1      -3.308  -1.391   0.713  0.00  0.00    -0.003 A 
ATOM      4  C5  UNL d   1      -3.382  -0.499  -0.351  0.00  0.00     0.000 A 
ATOM      5  C6  UNL d   1      -2.459  -0.583  -1.393  0.00  0.00     0.000 A 
ATOM      6  C7  UNL d   1      -1.449  -1.561  -1.386  0.00  0.00    -0.073 A 
ATOM      7  C8  UNL d   1      -0.477  -1.602  -2.534  0.00  0.00     0.078 C 
ENDROOT
BRANCH   1   8
ATOM      8  C1  UNL d   1      -0.269  -3.493  -0.189  0.00  0.00     0.053 C 
ATOM      9  C   UNL d   1      -0.705  -4.706   0.617  0.00  0.00     0.018 C 
ENDBRANCH   1   8
TORSDOF 1
ENDMDL
