MODEL 1
REMARK minimizedAffinity 11.1827154
REMARK minimizedRMSD -1
REMARK  1 active torsions:
REMARK  status: ('A' for Active; 'I' for Inactive)
REMARK    1  A    between atoms: C1_2  and  C2_3 
ROOT
ATOM      1  C2  UNL d   1      -2.093  -1.319   5.357  0.00  0.00    -0.076 A 
ATOM      2  C3  UNL d   1      -3.302  -1.702   4.751  0.00  0.00     0.004 A 
ATOM      3  C4  UNL d   1      -3.429  -2.940   4.123  0.00  0.00    -0.003 A 
ATOM      4  C5  UNL d   1      -2.349  -3.815   4.092  0.00  0.00     0.000 A 
ATOM      5  C6  UNL d   1      -1.148  -3.460   4.704  0.00  0.00     0.000 A 
ATOM      6  C7  UNL d   1      -1.008  -2.222   5.355  0.00  0.00    -0.073 A 
ATOM      7  C8  UNL d   1       0.312  -1.887   5.993  0.00  0.00     0.078 C 
ENDROOT
BRANCH   1   8
ATOM      8  C1  UNL d   1      -2.005   0.047   5.999  0.00  0.00     0.053 C 
ATOM      9  C   UNL d   1      -3.338   0.779   5.996  0.00  0.00     0.018 C 
ENDBRANCH   1   8
TORSDOF 1
ENDMDL
