MODEL 1
REMARK minimizedAffinity 7.24633598
REMARK minimizedRMSD -1
REMARK  1 active torsions:
REMARK  status: ('A' for Active; 'I' for Inactive)
REMARK    1  A    between atoms: C1_2  and  C2_3 
ROOT
ATOM      1  C2  UNL d   1       3.680   1.276   4.093  0.00  0.00    -0.076 A 
ATOM      2  C3  UNL d   1       2.855   2.324   4.537  0.00  0.00     0.004 A 
ATOM      3  C4  UNL d   1       3.368   3.359   5.318  0.00  0.00    -0.003 A 
ATOM      4  C5  UNL d   1       4.714   3.362   5.667  0.00  0.00     0.000 A 
ATOM      5  C6  UNL d   1       5.550   2.339   5.221  0.00  0.00     0.000 A 
ATOM      6  C7  UNL d   1       5.053   1.298   4.419  0.00  0.00    -0.073 A 
ATOM      7  C8  UNL d   1       5.999   0.217   3.971  0.00  0.00     0.078 C 
ENDROOT
BRANCH   1   8
ATOM      8  C1  UNL d   1       3.062   0.167   3.272  0.00  0.00     0.053 C 
ATOM      9  C   UNL d   1       2.707  -1.051   4.110  0.00  0.00     0.018 C 
ENDBRANCH   1   8
TORSDOF 1
ENDMDL
