MODEL 1
REMARK minimizedAffinity 13.8290787
REMARK minimizedRMSD -1
REMARK  1 active torsions:
REMARK  status: ('A' for Active; 'I' for Inactive)
REMARK    1  A    between atoms: C1_2  and  C2_3 
ROOT
ATOM      1  C2  UNL d   1       4.177   3.530   0.556  0.00  0.00    -0.076 A 
ATOM      2  C3  UNL d   1       4.129   2.921   1.822  0.00  0.00     0.004 A 
ATOM      3  C4  UNL d   1       4.538   3.606   2.964  0.00  0.00    -0.003 A 
ATOM      4  C5  UNL d   1       5.000   4.914   2.859  0.00  0.00     0.000 A 
ATOM      5  C6  UNL d   1       5.038   5.540   1.614  0.00  0.00     0.000 A 
ATOM      6  C7  UNL d   1       4.614   4.868   0.455  0.00  0.00    -0.073 A 
ATOM      7  C8  UNL d   1       4.681   5.590  -0.864  0.00  0.00     0.078 C 
ENDROOT
BRANCH   1   8
ATOM      8  C1  UNL d   1       3.746   2.727  -0.651  0.00  0.00     0.053 C 
ATOM      9  C   UNL d   1       2.274   2.349  -0.604  0.00  0.00     0.018 C 
ENDBRANCH   1   8
TORSDOF 1
ENDMDL
