MODEL 1
REMARK minimizedAffinity 9.43840981
REMARK minimizedRMSD -1
REMARK  1 active torsions:
REMARK  status: ('A' for Active; 'I' for Inactive)
REMARK    1  A    between atoms: C1_2  and  C2_3 
ROOT
ATOM      1  C2  UNL d   1      -1.297  -3.917   2.288  0.00  0.00    -0.076 A 
ATOM      2  C3  UNL d   1      -0.726  -5.168   2.577  0.00  0.00     0.004 A 
ATOM      3  C4  UNL d   1      -0.090  -5.914   1.586  0.00  0.00    -0.003 A 
ATOM      4  C5  UNL d   1      -0.016  -5.420   0.288  0.00  0.00     0.000 A 
ATOM      5  C6  UNL d   1      -0.561  -4.172  -0.013  0.00  0.00     0.000 A 
ATOM      6  C7  UNL d   1      -1.191  -3.401   0.979  0.00  0.00    -0.073 A 
ATOM      7  C8  UNL d   1      -1.767  -2.065   0.597  0.00  0.00     0.078 C 
ENDROOT
BRANCH   1   8
ATOM      8  C1  UNL d   1      -1.997  -3.166   3.398  0.00  0.00     0.053 C 
ATOM      9  C   UNL d   1      -1.100  -2.942   4.606  0.00  0.00     0.018 C 
ENDBRANCH   1   8
TORSDOF 1
ENDMDL
