MODEL 1
REMARK minimizedAffinity 23.4379959
REMARK minimizedRMSD -1
REMARK  1 active torsions:
REMARK  status: ('A' for Active; 'I' for Inactive)
REMARK    1  A    between atoms: C1_2  and  C2_3 
ROOT
ATOM      1  C2  UNL d   1      -3.875   3.908  -4.074  0.00  0.00    -0.076 A 
ATOM      2  C3  UNL d   1      -3.773   4.962  -3.150  0.00  0.00     0.004 A 
ATOM      3  C4  UNL d   1      -4.703   6.000  -3.140  0.00  0.00    -0.003 A 
ATOM      4  C5  UNL d   1      -5.752   5.999  -4.053  0.00  0.00     0.000 A 
ATOM      5  C6  UNL d   1      -5.879   4.952  -4.965  0.00  0.00     0.000 A 
ATOM      6  C7  UNL d   1      -4.958   3.890  -4.978  0.00  0.00    -0.073 A 
ATOM      7  C8  UNL d   1      -5.140   2.790  -5.987  0.00  0.00     0.078 C 
ENDROOT
BRANCH   1   8
ATOM      8  C1  UNL d   1      -2.821   2.824  -4.056  0.00  0.00     0.053 C 
ATOM      9  C   UNL d   1      -3.206   1.651  -3.167  0.00  0.00     0.018 C 
ENDBRANCH   1   8
TORSDOF 1
ENDMDL
