MODEL 1
REMARK minimizedAffinity 8.54336643
REMARK minimizedRMSD -1
REMARK  1 active torsions:
REMARK  status: ('A' for Active; 'I' for Inactive)
REMARK    1  A    between atoms: C1_2  and  C2_3 
ROOT
ATOM      1  C2  UNL d   1      -4.419   5.077  -3.559  0.00  0.00    -0.076 A 
ATOM      2  C3  UNL d   1      -5.348   6.000  -4.070  0.00  0.00     0.004 A 
ATOM      3  C4  UNL d   1      -6.000   5.768  -5.280  0.00  0.00    -0.003 A 
ATOM      4  C5  UNL d   1      -5.734   4.608  -5.999  0.00  0.00     0.000 A 
ATOM      5  C6  UNL d   1      -4.829   3.672  -5.499  0.00  0.00     0.000 A 
ATOM      6  C7  UNL d   1      -4.175   3.883  -4.273  0.00  0.00    -0.073 A 
ATOM      7  C8  UNL d   1      -3.204   2.844  -3.784  0.00  0.00     0.078 C 
ENDROOT
BRANCH   1   8
ATOM      8  C1  UNL d   1      -3.723   5.395  -2.256  0.00  0.00     0.053 C 
ATOM      9  C   UNL d   1      -4.701   5.644  -1.118  0.00  0.00     0.018 C 
ENDBRANCH   1   8
TORSDOF 1
ENDMDL
