MODEL 1
REMARK minimizedAffinity 7.43653965
REMARK minimizedRMSD -1
REMARK  1 active torsions:
REMARK  status: ('A' for Active; 'I' for Inactive)
REMARK    1  A    between atoms: C1_2  and  C2_3 
ROOT
ATOM      1  C2  UNL d   1      -1.098  -3.026  -0.701  0.00  0.00    -0.076 A 
ATOM      2  C3  UNL d   1      -0.785  -2.779  -2.049  0.00  0.00     0.004 A 
ATOM      3  C4  UNL d   1      -1.370  -1.719  -2.738  0.00  0.00    -0.003 A 
ATOM      4  C5  UNL d   1      -2.278  -0.888  -2.091  0.00  0.00     0.000 A 
ATOM      5  C6  UNL d   1      -2.587  -1.107  -0.749  0.00  0.00     0.000 A 
ATOM      6  C7  UNL d   1      -1.993  -2.162  -0.035  0.00  0.00    -0.073 A 
ATOM      7  C8  UNL d   1      -2.367  -2.356   1.409  0.00  0.00     0.078 C 
ENDROOT
BRANCH   1   8
ATOM      8  C1  UNL d   1      -0.452  -4.207  -0.012  0.00  0.00     0.053 C 
ATOM      9  C   UNL d   1      -0.597  -5.496  -0.806  0.00  0.00     0.018 C 
ENDBRANCH   1   8
TORSDOF 1
ENDMDL
