MODEL 1
REMARK minimizedAffinity 12.6008778
REMARK minimizedRMSD -1
REMARK  1 active torsions:
REMARK  status: ('A' for Active; 'I' for Inactive)
REMARK    1  A    between atoms: C1_2  and  C2_3 
ROOT
ATOM      1  C2  UNL d   1      -0.971   2.144  -4.369  0.00  0.00    -0.076 A 
ATOM      2  C3  UNL d   1      -0.722   3.151  -5.317  0.00  0.00     0.004 A 
ATOM      3  C4  UNL d   1      -1.768   3.768  -6.000  0.00  0.00    -0.003 A 
ATOM      4  C5  UNL d   1      -3.081   3.388  -5.746  0.00  0.00     0.000 A 
ATOM      5  C6  UNL d   1      -3.348   2.402  -4.795  0.00  0.00     0.000 A 
ATOM      6  C7  UNL d   1      -2.305   1.782  -4.086  0.00  0.00    -0.073 A 
ATOM      7  C8  UNL d   1      -2.650   0.721  -3.077  0.00  0.00     0.078 C 
ENDROOT
BRANCH   1   8
ATOM      8  C1  UNL d   1       0.206   1.492  -3.679  0.00  0.00     0.053 C 
ATOM      9  C   UNL d   1       1.301   2.487  -3.328  0.00  0.00     0.018 C 
ENDBRANCH   1   8
TORSDOF 1
ENDMDL
