MODEL 1
REMARK minimizedAffinity 17.4463234
REMARK minimizedRMSD -1
REMARK  1 active torsions:
REMARK  status: ('A' for Active; 'I' for Inactive)
REMARK    1  A    between atoms: C1_2  and  C2_3 
ROOT
ATOM      1  C2  UNL d   1       3.141   2.668  -0.398  0.00  0.00    -0.076 A 
ATOM      2  C3  UNL d   1       2.432   2.672  -1.612  0.00  0.00     0.004 A 
ATOM      3  C4  UNL d   1       1.813   1.517  -2.085  0.00  0.00    -0.003 A 
ATOM      4  C5  UNL d   1       1.891   0.338  -1.352  0.00  0.00     0.000 A 
ATOM      5  C6  UNL d   1       2.575   0.320  -0.137  0.00  0.00     0.000 A 
ATOM      6  C7  UNL d   1       3.191   1.480   0.363  0.00  0.00    -0.073 A 
ATOM      7  C8  UNL d   1       3.921   1.402   1.676  0.00  0.00     0.078 C 
ENDROOT
BRANCH   1   8
ATOM      8  C1  UNL d   1       3.815   3.944   0.052  0.00  0.00     0.053 C 
ATOM      9  C   UNL d   1       4.913   4.390  -0.901  0.00  0.00     0.018 C 
ENDBRANCH   1   8
TORSDOF 1
ENDMDL
