MODEL 1
REMARK minimizedAffinity 12.6069546
REMARK minimizedRMSD -1
REMARK  1 active torsions:
REMARK  status: ('A' for Active; 'I' for Inactive)
REMARK    1  A    between atoms: C1_2  and  C2_3 
ROOT
ATOM      1  C2  UNL d   1      -3.128  -0.317   5.761  0.00  0.00    -0.076 A 
ATOM      2  C3  UNL d   1      -2.452   0.910   5.881  0.00  0.00     0.004 A 
ATOM      3  C4  UNL d   1      -3.156   2.107   6.000  0.00  0.00    -0.003 A 
ATOM      4  C5  UNL d   1      -4.546   2.098   6.000  0.00  0.00     0.000 A 
ATOM      5  C6  UNL d   1      -5.233   0.888   5.899  0.00  0.00     0.000 A 
ATOM      6  C7  UNL d   1      -4.539  -0.330   5.795  0.00  0.00    -0.073 A 
ATOM      7  C8  UNL d   1      -5.330  -1.604   5.683  0.00  0.00     0.078 C 
ENDROOT
BRANCH   1   8
ATOM      8  C1  UNL d   1      -2.312  -1.581   5.608  0.00  0.00     0.053 C 
ATOM      9  C   UNL d   1      -2.927  -2.555   4.615  0.00  0.00     0.018 C 
ENDBRANCH   1   8
TORSDOF 1
ENDMDL
