MODEL 1
REMARK minimizedAffinity 14.9243383
REMARK minimizedRMSD -1
REMARK  1 active torsions:
REMARK  status: ('A' for Active; 'I' for Inactive)
REMARK    1  A    between atoms: C1_2  and  C2_3 
ROOT
ATOM      1  C2  UNL d   1      -3.797   4.234  -4.828  0.00  0.00    -0.076 A 
ATOM      2  C3  UNL d   1      -4.658   4.235  -5.939  0.00  0.00     0.004 A 
ATOM      3  C4  UNL d   1      -5.751   5.099  -5.999  0.00  0.00    -0.003 A 
ATOM      4  C5  UNL d   1      -6.000   5.976  -4.949  0.00  0.00     0.000 A 
ATOM      5  C6  UNL d   1      -5.146   6.000  -3.847  0.00  0.00     0.000 A 
ATOM      6  C7  UNL d   1      -4.031   5.147  -3.778  0.00  0.00    -0.073 A 
ATOM      7  C8  UNL d   1      -3.147   5.211  -2.562  0.00  0.00     0.078 C 
ENDROOT
BRANCH   1   8
ATOM      8  C1  UNL d   1      -2.644   3.256  -4.806  0.00  0.00     0.053 C 
ATOM      9  C   UNL d   1      -2.772   2.229  -3.692  0.00  0.00     0.018 C 
ENDBRANCH   1   8
TORSDOF 1
ENDMDL
