MODEL 1
REMARK minimizedAffinity 4.15408468
REMARK minimizedRMSD -1
REMARK  0 active torsions:
REMARK  status: ('A' for Active; 'I' for Inactive)
ROOT
ATOM      1  C   UNL d   1       5.877   5.947   5.999  0.00  0.00     0.077 C 
ATOM      2  C1  UNL d   1       5.282   5.409   4.731  0.00  0.00    -0.074 A 
ATOM      3  C2  UNL d   1       5.620   5.958   3.490  0.00  0.00    -0.005 A 
ATOM      4  C3  UNL d   1       5.067   5.441   2.318  0.00  0.00     0.006 A 
ATOM      5  C4  UNL d   1       4.171   4.373   2.376  0.00  0.00    -0.005 A 
ATOM      6  C5  UNL d   1       3.822   3.811   3.608  0.00  0.00    -0.074 A 
ATOM      7  C6  UNL d   1       2.868   2.656   3.688  0.00  0.00     0.077 C 
ATOM      8  C7  UNL d   1       4.388   4.331   4.780  0.00  0.00    -0.001 A 
ENDROOT
TORSDOF 0
ENDMDL
