MODEL 1
REMARK minimizedAffinity 4.79044151
REMARK minimizedRMSD -1
REMARK  0 active torsions:
REMARK  status: ('A' for Active; 'I' for Inactive)
ROOT
ATOM      1  C   UNL d   1       1.146  -0.721  -0.763  0.00  0.00     0.077 C 
ATOM      2  C1  UNL d   1       1.739   0.362   0.088  0.00  0.00    -0.074 A 
ATOM      3  C2  UNL d   1       2.944   0.977  -0.268  0.00  0.00    -0.005 A 
ATOM      4  C3  UNL d   1       3.479   1.989   0.528  0.00  0.00     0.006 A 
ATOM      5  C4  UNL d   1       2.816   2.397   1.686  0.00  0.00    -0.005 A 
ATOM      6  C5  UNL d   1       1.610   1.794   2.057  0.00  0.00    -0.074 A 
ATOM      7  C6  UNL d   1       0.879   2.227   3.294  0.00  0.00     0.077 C 
ATOM      8  C7  UNL d   1       1.075   0.782   1.248  0.00  0.00    -0.001 A 
ENDROOT
TORSDOF 0
ENDMDL
