MODEL 1
REMARK minimizedAffinity 6.66683912
REMARK minimizedRMSD -1
REMARK  0 active torsions:
REMARK  status: ('A' for Active; 'I' for Inactive)
ROOT
ATOM      1  C   UNL d   1      -5.983   0.363   0.002  0.00  0.00     0.077 C 
ATOM      2  C1  UNL d   1      -5.862   1.695  -0.677  0.00  0.00    -0.074 A 
ATOM      3  C2  UNL d   1      -5.614   2.857   0.060  0.00  0.00    -0.005 A 
ATOM      4  C3  UNL d   1      -5.494   4.088  -0.586  0.00  0.00     0.006 A 
ATOM      5  C4  UNL d   1      -5.622   4.168  -1.974  0.00  0.00    -0.005 A 
ATOM      6  C5  UNL d   1      -5.869   3.016  -2.727  0.00  0.00    -0.074 A 
ATOM      7  C6  UNL d   1      -5.999   3.083  -4.220  0.00  0.00     0.077 C 
ATOM      8  C7  UNL d   1      -5.981   1.782  -2.071  0.00  0.00    -0.001 A 
ENDROOT
TORSDOF 0
ENDMDL
