MODEL 1
REMARK minimizedAffinity 14.3243961
REMARK minimizedRMSD -1
REMARK  0 active torsions:
REMARK  status: ('A' for Active; 'I' for Inactive)
ROOT
ATOM      1  C   UNL d   1       0.523  -1.965   3.718  0.00  0.00     0.077 C 
ATOM      2  C1  UNL d   1       0.396  -3.226   4.519  0.00  0.00    -0.074 A 
ATOM      3  C2  UNL d   1      -0.858  -3.713   4.900  0.00  0.00    -0.005 A 
ATOM      4  C3  UNL d   1      -0.961  -4.893   5.636  0.00  0.00     0.006 A 
ATOM      5  C4  UNL d   1       0.188  -5.597   5.999  0.00  0.00    -0.005 A 
ATOM      6  C5  UNL d   1       1.451  -5.126   5.627  0.00  0.00    -0.074 A 
ATOM      7  C6  UNL d   1       2.696  -5.876   6.000  0.00  0.00     0.077 C 
ATOM      8  C7  UNL d   1       1.546  -3.943   4.880  0.00  0.00    -0.001 A 
ENDROOT
TORSDOF 0
ENDMDL
