MODEL 1
REMARK minimizedAffinity 18.3865166
REMARK minimizedRMSD -1
REMARK  0 active torsions:
REMARK  status: ('A' for Active; 'I' for Inactive)
ROOT
ATOM      1  C   UNL d   1       4.675   2.776  -1.407  0.00  0.00     0.077 C 
ATOM      2  C1  UNL d   1       3.430   2.073  -0.954  0.00  0.00    -0.074 A 
ATOM      3  C2  UNL d   1       2.374   2.783  -0.373  0.00  0.00    -0.005 A 
ATOM      4  C3  UNL d   1       1.219   2.116   0.034  0.00  0.00     0.006 A 
ATOM      5  C4  UNL d   1       1.107   0.736  -0.136  0.00  0.00    -0.005 A 
ATOM      6  C5  UNL d   1       2.152   0.009  -0.716  0.00  0.00    -0.074 A 
ATOM      7  C6  UNL d   1       2.045  -1.474  -0.914  0.00  0.00     0.077 C 
ATOM      8  C7  UNL d   1       3.307   0.687  -1.129  0.00  0.00    -0.001 A 
ENDROOT
TORSDOF 0
ENDMDL
