MODEL 1
REMARK minimizedAffinity 9.30600643
REMARK minimizedRMSD -1
REMARK  0 active torsions:
REMARK  status: ('A' for Active; 'I' for Inactive)
ROOT
ATOM      1  C   UNL d   1       5.635   1.517   4.582  0.00  0.00     0.077 C 
ATOM      2  C1  UNL d   1       5.292   2.974   4.676  0.00  0.00    -0.074 A 
ATOM      3  C2  UNL d   1       4.910   3.545   5.895  0.00  0.00    -0.005 A 
ATOM      4  C3  UNL d   1       4.603   4.904   5.969  0.00  0.00     0.006 A 
ATOM      5  C4  UNL d   1       4.675   5.704   4.828  0.00  0.00    -0.005 A 
ATOM      6  C5  UNL d   1       5.056   5.151   3.601  0.00  0.00    -0.074 A 
ATOM      7  C6  UNL d   1       5.148   5.999   2.368  0.00  0.00     0.077 C 
ATOM      8  C7  UNL d   1       5.370   3.786   3.536  0.00  0.00    -0.001 A 
ENDROOT
TORSDOF 0
ENDMDL
