MODEL 1
REMARK minimizedAffinity 9.0111084
REMARK minimizedRMSD -1
REMARK  0 active torsions:
REMARK  status: ('A' for Active; 'I' for Inactive)
ROOT
ATOM      1  C   UNL d   1       5.182  -0.952   2.028  0.00  0.00     0.077 C 
ATOM      2  C1  UNL d   1       3.905  -0.677   1.292  0.00  0.00    -0.074 A 
ATOM      3  C2  UNL d   1       2.951   0.204   1.811  0.00  0.00    -0.005 A 
ATOM      4  C3  UNL d   1       1.772   0.457   1.110  0.00  0.00     0.006 A 
ATOM      5  C4  UNL d   1       1.536  -0.167  -0.115  0.00  0.00    -0.005 A 
ATOM      6  C5  UNL d   1       2.479  -1.050  -0.651  0.00  0.00    -0.074 A 
ATOM      7  C6  UNL d   1       2.245  -1.721  -1.972  0.00  0.00     0.077 C 
ATOM      8  C7  UNL d   1       3.664  -1.293   0.056  0.00  0.00    -0.001 A 
ENDROOT
TORSDOF 0
ENDMDL
