MODEL 1
REMARK minimizedAffinity 4.61250782
REMARK minimizedRMSD -1
REMARK  0 active torsions:
REMARK  status: ('A' for Active; 'I' for Inactive)
ROOT
ATOM      1  C   UNL d   1      -1.751   5.998   4.713  0.00  0.00     0.077 C 
ATOM      2  C1  UNL d   1      -3.230   5.758   4.774  0.00  0.00    -0.074 A 
ATOM      3  C2  UNL d   1      -3.950   6.000   5.948  0.00  0.00    -0.005 A 
ATOM      4  C3  UNL d   1      -5.327   5.780   5.986  0.00  0.00     0.006 A 
ATOM      5  C4  UNL d   1      -5.996   5.317   4.853  0.00  0.00    -0.005 A 
ATOM      6  C5  UNL d   1      -5.293   5.071   3.669  0.00  0.00    -0.074 A 
ATOM      7  C6  UNL d   1      -5.999   4.582   2.439  0.00  0.00     0.077 C 
ATOM      8  C7  UNL d   1      -3.911   5.300   3.637  0.00  0.00    -0.001 A 
ENDROOT
TORSDOF 0
ENDMDL
