MODEL 1
REMARK minimizedAffinity 4.29727697
REMARK minimizedRMSD -1
REMARK  0 active torsions:
REMARK  status: ('A' for Active; 'I' for Inactive)
ROOT
ATOM      1  C   UNL d   1       5.366   3.389   0.547  0.00  0.00     0.077 C 
ATOM      2  C1  UNL d   1       4.683   2.354  -0.297  0.00  0.00    -0.074 A 
ATOM      3  C2  UNL d   1       4.935   2.265  -1.670  0.00  0.00    -0.005 A 
ATOM      4  C3  UNL d   1       4.299   1.291  -2.440  0.00  0.00     0.006 A 
ATOM      5  C4  UNL d   1       3.406   0.398  -1.847  0.00  0.00    -0.005 A 
ATOM      6  C5  UNL d   1       3.143   0.471  -0.475  0.00  0.00    -0.074 A 
ATOM      7  C6  UNL d   1       2.193  -0.487   0.180  0.00  0.00     0.077 C 
ATOM      8  C7  UNL d   1       3.790   1.448   0.293  0.00  0.00    -0.001 A 
ENDROOT
TORSDOF 0
ENDMDL
