MODEL 1
REMARK minimizedAffinity 21.1776047
REMARK minimizedRMSD -1
REMARK  0 active torsions:
REMARK  status: ('A' for Active; 'I' for Inactive)
ROOT
ATOM      1  C   UNL d   1      -6.000   0.654  -5.216  0.00  0.00     0.077 C 
ATOM      2  C1  UNL d   1      -4.687   0.712  -4.493  0.00  0.00    -0.074 A 
ATOM      3  C2  UNL d   1      -3.540   1.204  -5.125  0.00  0.00    -0.005 A 
ATOM      4  C3  UNL d   1      -2.328   1.261  -4.437  0.00  0.00     0.006 A 
ATOM      5  C4  UNL d   1      -2.250   0.828  -3.112  0.00  0.00    -0.005 A 
ATOM      6  C5  UNL d   1      -3.387   0.335  -2.464  0.00  0.00    -0.074 A 
ATOM      7  C6  UNL d   1      -3.324  -0.125  -1.038  0.00  0.00     0.077 C 
ATOM      8  C7  UNL d   1      -4.603   0.287  -3.160  0.00  0.00    -0.001 A 
ENDROOT
TORSDOF 0
ENDMDL
