MODEL 1
REMARK minimizedAffinity 2.23968267
REMARK minimizedRMSD -1
REMARK  1 active torsions:
REMARK  status: ('A' for Active; 'I' for Inactive)
REMARK    1  A    between atoms: C1_2  and  C2_3 
ROOT
ATOM      1  C2  UNL d   1       1.580   4.946  -4.314  0.00  0.00    -0.077 A 
ATOM      2  C3  UNL d   1       2.509   5.991  -4.214  0.00  0.00     0.002 A 
ATOM      3  C4  UNL d   1       3.663   5.988  -5.001  0.00  0.00     0.002 A 
ATOM      4  C5  UNL d   1       3.896   4.945  -5.894  0.00  0.00    -0.004 A 
ATOM      5  C6  UNL d   1       2.980   3.900  -6.000  0.00  0.00     0.002 A 
ATOM      6  C7  UNL d   1       1.826   3.900  -5.214  0.00  0.00     0.002 A 
ENDROOT
BRANCH   1   7
ATOM      7  C1  UNL d   1       0.311   4.972  -3.503  0.00  0.00     0.055 C 
ATOM      8  C   UNL d   1       0.103   3.661  -2.759  0.00  0.00     0.019 C 
ENDBRANCH   1   7
TORSDOF 1
ENDMDL
