MODEL 1
REMARK minimizedAffinity 12.720849
REMARK minimizedRMSD -1
REMARK  1 active torsions:
REMARK  status: ('A' for Active; 'I' for Inactive)
REMARK    1  A    between atoms: C1_2  and  C2_3 
ROOT
ATOM      1  C2  UNL d   1       1.088   4.819  -3.963  0.00  0.00    -0.077 A 
ATOM      2  C3  UNL d   1       1.945   5.925  -4.053  0.00  0.00     0.002 A 
ATOM      3  C4  UNL d   1       2.915   5.988  -5.055  0.00  0.00     0.002 A 
ATOM      4  C5  UNL d   1       3.034   4.950  -5.978  0.00  0.00    -0.004 A 
ATOM      5  C6  UNL d   1       2.188   3.845  -5.896  0.00  0.00     0.002 A 
ATOM      6  C7  UNL d   1       1.219   3.780  -4.894  0.00  0.00     0.002 A 
ENDROOT
BRANCH   1   7
ATOM      7  C1  UNL d   1       0.009   4.772  -2.913  0.00  0.00     0.055 C 
ATOM      8  C   UNL d   1       0.162   3.552  -2.017  0.00  0.00     0.019 C 
ENDBRANCH   1   7
TORSDOF 1
ENDMDL
