MODEL 1
REMARK minimizedAffinity 4.95012331
REMARK minimizedRMSD -1
REMARK  1 active torsions:
REMARK  status: ('A' for Active; 'I' for Inactive)
REMARK    1  A    between atoms: C1_2  and  C2_3 
ROOT
ATOM      1  C2  UNL d   1      -2.206  -3.572  -3.675  0.00  0.00    -0.077 A 
ATOM      2  C3  UNL d   1      -3.551  -3.745  -3.322  0.00  0.00     0.002 A 
ATOM      3  C4  UNL d   1      -4.547  -3.724  -4.300  0.00  0.00     0.002 A 
ATOM      4  C5  UNL d   1      -4.207  -3.536  -5.638  0.00  0.00    -0.004 A 
ATOM      5  C6  UNL d   1      -2.871  -3.361  -6.000  0.00  0.00     0.002 A 
ATOM      6  C7  UNL d   1      -1.875  -3.380  -5.022  0.00  0.00     0.002 A 
ENDROOT
BRANCH   1   7
ATOM      7  C1  UNL d   1      -1.126  -3.643  -2.627  0.00  0.00     0.055 C 
ATOM      8  C   UNL d   1      -0.762  -2.258  -2.112  0.00  0.00     0.019 C 
ENDBRANCH   1   7
TORSDOF 1
ENDMDL
