MODEL 1
REMARK minimizedAffinity 5.00107479
REMARK minimizedRMSD -1
REMARK  1 active torsions:
REMARK  status: ('A' for Active; 'I' for Inactive)
REMARK    1  A    between atoms: C1_2  and  C2_3 
ROOT
ATOM      1  C2  UNL d   1       1.840  -0.056   2.726  0.00  0.00    -0.077 A 
ATOM      2  C3  UNL d   1       2.068   0.027   1.345  0.00  0.00     0.002 A 
ATOM      3  C4  UNL d   1       3.290  -0.378   0.805  0.00  0.00     0.002 A 
ATOM      4  C5  UNL d   1       4.292  -0.872   1.638  0.00  0.00    -0.004 A 
ATOM      5  C6  UNL d   1       4.076  -0.956   3.013  0.00  0.00     0.002 A 
ATOM      6  C7  UNL d   1       2.856  -0.551   3.555  0.00  0.00     0.002 A 
ENDROOT
BRANCH   1   7
ATOM      7  C1  UNL d   1       0.505   0.334   3.305  0.00  0.00     0.055 C 
ATOM      8  C   UNL d   1       0.238  -0.389   4.617  0.00  0.00     0.019 C 
ENDBRANCH   1   7
TORSDOF 1
ENDMDL
