MODEL 1
REMARK minimizedAffinity 8.70924091
REMARK minimizedRMSD -1
REMARK  1 active torsions:
REMARK  status: ('A' for Active; 'I' for Inactive)
REMARK    1  A    between atoms: C1_2  and  C2_3 
ROOT
ATOM      1  C2  UNL d   1       3.631   2.257  -3.390  0.00  0.00    -0.077 A 
ATOM      2  C3  UNL d   1       2.624   3.164  -3.749  0.00  0.00     0.002 A 
ATOM      3  C4  UNL d   1       2.118   3.177  -5.050  0.00  0.00     0.002 A 
ATOM      4  C5  UNL d   1       2.608   2.284  -6.000  0.00  0.00    -0.004 A 
ATOM      5  C6  UNL d   1       3.610   1.379  -5.653  0.00  0.00     0.002 A 
ATOM      6  C7  UNL d   1       4.119   1.365  -4.353  0.00  0.00     0.002 A 
ENDROOT
BRANCH   1   7
ATOM      7  C1  UNL d   1       4.144   2.207  -1.974  0.00  0.00     0.055 C 
ATOM      8  C   UNL d   1       5.195   1.120  -1.804  0.00  0.00     0.019 C 
ENDBRANCH   1   7
TORSDOF 1
ENDMDL
