MODEL 1
REMARK minimizedAffinity 11.627655
REMARK minimizedRMSD -1
REMARK  1 active torsions:
REMARK  status: ('A' for Active; 'I' for Inactive)
REMARK    1  A    between atoms: C1_2  and  C2_3 
ROOT
ATOM      1  C2  UNL d   1       3.289   3.321  -5.944  0.00  0.00    -0.077 A 
ATOM      2  C3  UNL d   1       1.916   3.605  -5.942  0.00  0.00     0.002 A 
ATOM      3  C4  UNL d   1       1.468   4.928  -5.938  0.00  0.00     0.002 A 
ATOM      4  C5  UNL d   1       2.387   5.975  -5.940  0.00  0.00    -0.004 A 
ATOM      5  C6  UNL d   1       3.754   5.703  -5.940  0.00  0.00     0.002 A 
ATOM      6  C7  UNL d   1       4.203   4.382  -5.943  0.00  0.00     0.002 A 
ENDROOT
BRANCH   1   7
ATOM      7  C1  UNL d   1       3.773   1.895  -5.998  0.00  0.00     0.055 C 
ATOM      8  C   UNL d   1       5.293   1.827  -5.999  0.00  0.00     0.019 C 
ENDBRANCH   1   7
TORSDOF 1
ENDMDL
