MODEL 1
REMARK minimizedAffinity 18.5958157
REMARK minimizedRMSD -1
REMARK  1 active torsions:
REMARK  status: ('A' for Active; 'I' for Inactive)
REMARK    1  A    between atoms: C1_2  and  C2_3 
ROOT
ATOM      1  C2  UNL d   1      -2.682  -3.391   3.523  0.00  0.00    -0.077 A 
ATOM      2  C3  UNL d   1      -1.489  -3.266   2.797  0.00  0.00     0.002 A 
ATOM      3  C4  UNL d   1      -0.914  -2.010   2.595  0.00  0.00     0.002 A 
ATOM      4  C5  UNL d   1      -1.522  -0.871   3.119  0.00  0.00    -0.004 A 
ATOM      5  C6  UNL d   1      -2.709  -0.985   3.841  0.00  0.00     0.002 A 
ATOM      6  C7  UNL d   1      -3.286  -2.240   4.043  0.00  0.00     0.002 A 
ENDROOT
BRANCH   1   7
ATOM      7  C1  UNL d   1      -3.278  -4.750   3.784  0.00  0.00     0.055 C 
ATOM      8  C   UNL d   1      -2.232  -5.720   4.316  0.00  0.00     0.019 C 
ENDBRANCH   1   7
TORSDOF 1
ENDMDL
