MODEL 1
REMARK minimizedAffinity -1.1307739
REMARK minimizedRMSD -1
REMARK  1 active torsions:
REMARK  status: ('A' for Active; 'I' for Inactive)
REMARK    1  A    between atoms: C1_2  and  C2_3 
ROOT
ATOM      1  C2  UNL d   1      -3.961  -3.712  -0.870  0.00  0.00    -0.077 A 
ATOM      2  C3  UNL d   1      -3.370  -2.644  -0.180  0.00  0.00     0.002 A 
ATOM      3  C4  UNL d   1      -2.087  -2.209  -0.518  0.00  0.00     0.002 A 
ATOM      4  C5  UNL d   1      -1.386  -2.834  -1.547  0.00  0.00    -0.004 A 
ATOM      5  C6  UNL d   1      -1.964  -3.898  -2.237  0.00  0.00     0.002 A 
ATOM      6  C7  UNL d   1      -3.246  -4.335  -1.901  0.00  0.00     0.002 A 
ENDROOT
BRANCH   1   7
ATOM      7  C1  UNL d   1      -5.364  -4.151  -0.540  0.00  0.00     0.055 C 
ATOM      8  C   UNL d   1      -5.619  -5.579  -0.998  0.00  0.00     0.019 C 
ENDBRANCH   1   7
TORSDOF 1
ENDMDL
