MODEL 1
REMARK minimizedAffinity 0.91968894
REMARK minimizedRMSD -1
REMARK  1 active torsions:
REMARK  status: ('A' for Active; 'I' for Inactive)
REMARK    1  A    between atoms: C1_2  and  C2_3 
ROOT
ATOM      1  C2  UNL d   1       2.880   3.461  -5.251  0.00  0.00    -0.077 A 
ATOM      2  C3  UNL d   1       3.717   4.585  -5.201  0.00  0.00     0.002 A 
ATOM      3  C4  UNL d   1       3.227   5.846  -5.549  0.00  0.00     0.002 A 
ATOM      4  C5  UNL d   1       1.900   5.995  -5.945  0.00  0.00    -0.004 A 
ATOM      5  C6  UNL d   1       1.061   4.883  -6.000  0.00  0.00     0.002 A 
ATOM      6  C7  UNL d   1       1.548   3.622  -5.654  0.00  0.00     0.002 A 
ENDROOT
BRANCH   1   7
ATOM      7  C1  UNL d   1       3.392   2.109  -4.830  0.00  0.00     0.055 C 
ATOM      8  C   UNL d   1       3.417   1.137  -6.000  0.00  0.00     0.019 C 
ENDBRANCH   1   7
TORSDOF 1
ENDMDL
