MODEL 1
REMARK minimizedAffinity 0.523248255
REMARK minimizedRMSD -1
REMARK  1 active torsions:
REMARK  status: ('A' for Active; 'I' for Inactive)
REMARK    1  A    between atoms: C1_2  and  C2_3 
ROOT
ATOM      1  C2  UNL d   1       4.150   3.562  -5.572  0.00  0.00    -0.077 A 
ATOM      2  C3  UNL d   1       4.860   4.438  -4.739  0.00  0.00     0.002 A 
ATOM      3  C4  UNL d   1       4.294   5.651  -4.343  0.00  0.00     0.002 A 
ATOM      4  C5  UNL d   1       3.014   5.997  -4.770  0.00  0.00    -0.004 A 
ATOM      5  C6  UNL d   1       2.300   5.133  -5.601  0.00  0.00     0.002 A 
ATOM      6  C7  UNL d   1       2.865   3.921  -5.999  0.00  0.00     0.002 A 
ENDROOT
BRANCH   1   7
ATOM      7  C1  UNL d   1       4.739   2.231  -5.961  0.00  0.00     0.055 C 
ATOM      8  C   UNL d   1       5.199   1.451  -4.738  0.00  0.00     0.019 C 
ENDBRANCH   1   7
TORSDOF 1
ENDMDL
