MODEL 1
REMARK minimizedAffinity 3.21069336
REMARK minimizedRMSD -1
REMARK  1 active torsions:
REMARK  status: ('A' for Active; 'I' for Inactive)
REMARK    1  A    between atoms: C1_2  and  C2_3 
ROOT
ATOM      1  C2  UNL d   1      -2.740  -2.759  -3.462  0.00  0.00    -0.077 A 
ATOM      2  C3  UNL d   1      -4.093  -3.100  -3.317  0.00  0.00     0.002 A 
ATOM      3  C4  UNL d   1      -4.777  -2.788  -2.141  0.00  0.00     0.002 A 
ATOM      4  C5  UNL d   1      -4.120  -2.131  -1.103  0.00  0.00    -0.004 A 
ATOM      5  C6  UNL d   1      -2.774  -1.790  -1.237  0.00  0.00     0.002 A 
ATOM      6  C7  UNL d   1      -2.088  -2.101  -2.412  0.00  0.00     0.002 A 
ENDROOT
BRANCH   1   7
ATOM      7  C1  UNL d   1      -2.014  -3.051  -4.749  0.00  0.00     0.055 C 
ATOM      8  C   UNL d   1      -2.971  -3.078  -5.932  0.00  0.00     0.019 C 
ENDBRANCH   1   7
TORSDOF 1
ENDMDL
