MODEL 1
REMARK minimizedAffinity 12.2669468
REMARK minimizedRMSD -1
REMARK  1 active torsions:
REMARK  status: ('A' for Active; 'I' for Inactive)
REMARK    1  A    between atoms: C1_2  and  C2_3 
ROOT
ATOM      1  C2  UNL d   1       0.808   3.277   0.660  0.00  0.00    -0.077 A 
ATOM      2  C3  UNL d   1       0.571   2.875  -0.662  0.00  0.00     0.002 A 
ATOM      3  C4  UNL d   1      -0.479   3.435  -1.393  0.00  0.00     0.002 A 
ATOM      4  C5  UNL d   1      -1.296   4.403  -0.812  0.00  0.00    -0.004 A 
ATOM      5  C6  UNL d   1      -1.069   4.808   0.503  0.00  0.00     0.002 A 
ATOM      6  C7  UNL d   1      -0.021   4.248   1.235  0.00  0.00     0.002 A 
ENDROOT
BRANCH   1   7
ATOM      7  C1  UNL d   1       1.970   2.710   1.433  0.00  0.00     0.055 C 
ATOM      8  C   UNL d   1       2.181   1.237   1.115  0.00  0.00     0.019 C 
ENDBRANCH   1   7
TORSDOF 1
ENDMDL
