MODEL 1
REMARK minimizedAffinity 0.936547697
REMARK minimizedRMSD -1
REMARK  1 active torsions:
REMARK  status: ('A' for Active; 'I' for Inactive)
REMARK    1  A    between atoms: C3_4  and  O_7 
ROOT
ATOM      1  C   UNL d   1       5.623  -0.482   4.376  0.00  0.00    -0.033 A 
ATOM      2  C1  UNL d   1       4.662  -0.563   3.366  0.00  0.00     0.039 A 
ATOM      3  C2  UNL d   1       4.073   0.599   2.865  0.00  0.00    -0.080 A 
ATOM      4  C3  UNL d   1       4.454   1.835   3.381  0.00  0.00     0.150 A 
ATOM      5  C4  UNL d   1       5.413   1.924   4.384  0.00  0.00    -0.007 A 
ATOM      6  C5  UNL d   1       5.999   0.762   4.884  0.00  0.00     0.039 A 
ENDROOT
BRANCH   4   7
ATOM      7  O   UNL d   1       3.903   2.997   2.927  0.00  0.00    -0.526 OA
ATOM      8  H5  UNL d   1       3.235   2.779   2.255  0.00  0.00     0.418 HD
ENDBRANCH   4   7
TORSDOF 1
ENDMDL
