MODEL 1
REMARK minimizedAffinity -0.567046285
REMARK minimizedRMSD -1
REMARK  1 active torsions:
REMARK  status: ('A' for Active; 'I' for Inactive)
REMARK    1  A    between atoms: C3_4  and  O_7 
ROOT
ATOM      1  C   UNL d   1      -4.083   3.559   0.389  0.00  0.00    -0.033 A 
ATOM      2  C1  UNL d   1      -3.172   4.486  -0.121  0.00  0.00     0.039 A 
ATOM      3  C2  UNL d   1      -1.940   4.057  -0.619  0.00  0.00    -0.080 A 
ATOM      4  C3  UNL d   1      -1.632   2.700  -0.602  0.00  0.00     0.150 A 
ATOM      5  C4  UNL d   1      -2.536   1.770  -0.099  0.00  0.00    -0.007 A 
ATOM      6  C5  UNL d   1      -3.765   2.200   0.399  0.00  0.00     0.039 A 
ENDROOT
BRANCH   4   7
ATOM      7  O   UNL d   1      -0.441   2.233  -1.073  0.00  0.00    -0.526 OA
ATOM      8  H5  UNL d   1       0.094   2.992  -1.362  0.00  0.00     0.418 HD
ENDBRANCH   4   7
TORSDOF 1
ENDMDL
