MODEL 1
REMARK minimizedAffinity 2.8813436
REMARK minimizedRMSD -1
REMARK  1 active torsions:
REMARK  status: ('A' for Active; 'I' for Inactive)
REMARK    1  A    between atoms: C3_4  and  O_7 
ROOT
ATOM      1  C   UNL d   1      -2.522   1.609  -1.034  0.00  0.00    -0.033 A 
ATOM      2  C1  UNL d   1      -3.753   2.256  -0.907  0.00  0.00     0.039 A 
ATOM      3  C2  UNL d   1      -3.932   3.234   0.073  0.00  0.00    -0.080 A 
ATOM      4  C3  UNL d   1      -2.874   3.555   0.918  0.00  0.00     0.150 A 
ATOM      5  C4  UNL d   1      -1.644   2.918   0.796  0.00  0.00    -0.007 A 
ATOM      6  C5  UNL d   1      -1.467   1.941  -0.183  0.00  0.00     0.039 A 
ENDROOT
BRANCH   4   7
ATOM      7  O   UNL d   1      -3.003   4.500   1.893  0.00  0.00    -0.526 OA
ATOM      8  H5  UNL d   1      -3.915   4.835   1.879  0.00  0.00     0.418 HD
ENDBRANCH   4   7
TORSDOF 1
ENDMDL
