MODEL 1
REMARK minimizedAffinity -1.02225494
REMARK minimizedRMSD -1
REMARK  1 active torsions:
REMARK  status: ('A' for Active; 'I' for Inactive)
REMARK    1  A    between atoms: C3_4  and  O_7 
ROOT
ATOM      1  C   UNL d   1       4.871  -0.747   3.703  0.00  0.00    -0.033 A 
ATOM      2  C1  UNL d   1       3.755  -0.249   3.028  0.00  0.00     0.039 A 
ATOM      3  C2  UNL d   1       3.758   1.059   2.539  0.00  0.00    -0.080 A 
ATOM      4  C3  UNL d   1       4.883   1.857   2.731  0.00  0.00     0.150 A 
ATOM      5  C4  UNL d   1       6.000   1.366   3.399  0.00  0.00    -0.007 A 
ATOM      6  C5  UNL d   1       5.994   0.060   3.887  0.00  0.00     0.039 A 
ENDROOT
BRANCH   4   7
ATOM      7  O   UNL d   1       4.931   3.141   2.275  0.00  0.00    -0.526 OA
ATOM      8  H5  UNL d   1       4.078   3.352   1.860  0.00  0.00     0.418 HD
ENDBRANCH   4   7
TORSDOF 1
ENDMDL
