MODEL 1
REMARK minimizedAffinity -2.75769711
REMARK minimizedRMSD -1
REMARK  1 active torsions:
REMARK  status: ('A' for Active; 'I' for Inactive)
REMARK    1  A    between atoms: C3_4  and  O_7 
ROOT
ATOM      1  C   UNL d   1      -2.795  -0.127   1.367  0.00  0.00    -0.033 A 
ATOM      2  C1  UNL d   1      -2.877   0.267   0.029  0.00  0.00     0.039 A 
ATOM      3  C2  UNL d   1      -3.174   1.592  -0.293  0.00  0.00    -0.080 A 
ATOM      4  C3  UNL d   1      -3.385   2.513   0.729  0.00  0.00     0.150 A 
ATOM      5  C4  UNL d   1      -3.301   2.129   2.063  0.00  0.00    -0.007 A 
ATOM      6  C5  UNL d   1      -3.005   0.805   2.384  0.00  0.00     0.039 A 
ENDROOT
BRANCH   4   7
ATOM      7  O   UNL d   1      -3.683   3.817   0.464  0.00  0.00    -0.526 OA
ATOM      8  H5  UNL d   1      -3.736   3.930  -0.500  0.00  0.00     0.418 HD
ENDBRANCH   4   7
TORSDOF 1
ENDMDL
