MODEL 1
REMARK minimizedAffinity -3.57929659
REMARK minimizedRMSD -1
REMARK  1 active torsions:
REMARK  status: ('A' for Active; 'I' for Inactive)
REMARK    1  A    between atoms: C3_4  and  O_7 
ROOT
ATOM      1  C   UNL d   1      -3.626   0.662   0.388  0.00  0.00    -0.033 A 
ATOM      2  C1  UNL d   1      -4.044   1.794  -0.312  0.00  0.00     0.039 A 
ATOM      3  C2  UNL d   1      -3.730   3.068   0.165  0.00  0.00    -0.080 A 
ATOM      4  C3  UNL d   1      -2.997   3.195   1.342  0.00  0.00     0.150 A 
ATOM      5  C4  UNL d   1      -2.574   2.071   2.043  0.00  0.00    -0.007 A 
ATOM      6  C5  UNL d   1      -2.890   0.800   1.565  0.00  0.00     0.039 A 
ENDROOT
BRANCH   4   7
ATOM      7  O   UNL d   1      -2.669   4.418   1.849  0.00  0.00    -0.526 OA
ATOM      8  H5  UNL d   1      -3.053   5.102   1.275  0.00  0.00     0.418 HD
ENDBRANCH   4   7
TORSDOF 1
ENDMDL
