MODEL 1
REMARK minimizedAffinity -2.32438421
REMARK minimizedRMSD -1
REMARK  1 active torsions:
REMARK  status: ('A' for Active; 'I' for Inactive)
REMARK    1  A    between atoms: C3_4  and  O_7 
ROOT
ATOM      1  C   UNL d   1      -1.845  -0.215   0.634  0.00  0.00    -0.033 A 
ATOM      2  C1  UNL d   1      -1.732  -1.126   1.686  0.00  0.00     0.039 A 
ATOM      3  C2  UNL d   1      -2.347  -0.861   2.911  0.00  0.00    -0.080 A 
ATOM      4  C3  UNL d   1      -3.072   0.317   3.070  0.00  0.00     0.150 A 
ATOM      5  C4  UNL d   1      -3.192   1.227   2.025  0.00  0.00    -0.007 A 
ATOM      6  C5  UNL d   1      -2.576   0.961   0.803  0.00  0.00     0.039 A 
ENDROOT
BRANCH   4   7
ATOM      7  O   UNL d   1      -3.686   0.621   4.249  0.00  0.00    -0.526 OA
ATOM      8  H5  UNL d   1      -3.493  -0.085   4.888  0.00  0.00     0.418 HD
ENDBRANCH   4   7
TORSDOF 1
ENDMDL
