MODEL 1
REMARK minimizedAffinity 5.7343626
REMARK minimizedRMSD -1
REMARK  1 active torsions:
REMARK  status: ('A' for Active; 'I' for Inactive)
REMARK    1  A    between atoms: C3_4  and  O_7 
ROOT
ATOM      1  C   UNL d   1      -4.834   5.311   1.556  0.00  0.00    -0.033 A 
ATOM      2  C1  UNL d   1      -3.676   5.764   2.190  0.00  0.00     0.039 A 
ATOM      3  C2  UNL d   1      -3.677   5.998   3.566  0.00  0.00    -0.080 A 
ATOM      4  C3  UNL d   1      -4.841   5.774   4.296  0.00  0.00     0.150 A 
ATOM      5  C4  UNL d   1      -5.998   5.318   3.672  0.00  0.00    -0.007 A 
ATOM      6  C5  UNL d   1      -5.995   5.086   2.297  0.00  0.00     0.039 A 
ENDROOT
BRANCH   4   7
ATOM      7  O   UNL d   1      -4.893   5.992   5.641  0.00  0.00    -0.526 OA
ATOM      8  H5  UNL d   1      -4.029   6.333   5.930  0.00  0.00     0.418 HD
ENDBRANCH   4   7
TORSDOF 1
ENDMDL
