MODEL 1
REMARK minimizedAffinity -0.547811508
REMARK minimizedRMSD -1
REMARK  1 active torsions:
REMARK  status: ('A' for Active; 'I' for Inactive)
REMARK    1  A    between atoms: C3_4  and  O_7 
ROOT
ATOM      1  C   UNL d   1       5.999   1.240   4.522  0.00  0.00    -0.033 A 
ATOM      2  C1  UNL d   1       5.967   2.606   4.233  0.00  0.00     0.039 A 
ATOM      3  C2  UNL d   1       5.188   3.079   3.176  0.00  0.00    -0.080 A 
ATOM      4  C3  UNL d   1       4.446   2.179   2.417  0.00  0.00     0.150 A 
ATOM      5  C4  UNL d   1       4.470   0.817   2.701  0.00  0.00    -0.007 A 
ATOM      6  C5  UNL d   1       5.250   0.346   3.757  0.00  0.00     0.039 A 
ENDROOT
BRANCH   4   7
ATOM      7  O   UNL d   1       3.674   2.593   1.372  0.00  0.00    -0.526 OA
ATOM      8  H5  UNL d   1       3.778   3.555   1.276  0.00  0.00     0.418 HD
ENDBRANCH   4   7
TORSDOF 1
ENDMDL
