MODEL 1
REMARK minimizedAffinity -0.633823037
REMARK minimizedRMSD -1
REMARK  1 active torsions:
REMARK  status: ('A' for Active; 'I' for Inactive)
REMARK    1  A    between atoms: C3_4  and  O_7 
ROOT
ATOM      1  C   UNL d   1       4.825  -1.074   4.308  0.00  0.00    -0.033 A 
ATOM      2  C1  UNL d   1       5.781  -0.104   4.614  0.00  0.00     0.039 A 
ATOM      3  C2  UNL d   1       5.713   1.158   4.021  0.00  0.00    -0.080 A 
ATOM      4  C3  UNL d   1       4.685   1.437   3.125  0.00  0.00     0.150 A 
ATOM      5  C4  UNL d   1       3.726   0.477   2.818  0.00  0.00    -0.007 A 
ATOM      6  C5  UNL d   1       3.796  -0.783   3.411  0.00  0.00     0.039 A 
ENDROOT
BRANCH   4   7
ATOM      7  O   UNL d   1       4.580   2.653   2.517  0.00  0.00    -0.526 OA
ATOM      8  H5  UNL d   1       5.327   3.206   2.803  0.00  0.00     0.418 HD
ENDBRANCH   4   7
TORSDOF 1
ENDMDL
