MODEL 1
REMARK minimizedAffinity 1.57267511
REMARK minimizedRMSD -1
REMARK  1 active torsions:
REMARK  status: ('A' for Active; 'I' for Inactive)
REMARK    1  A    between atoms: C3_4  and  O_7 
ROOT
ATOM      1  C   UNL d   1       5.248   0.382   3.380  0.00  0.00    -0.033 A 
ATOM      2  C1  UNL d   1       4.567   1.130   2.417  0.00  0.00     0.039 A 
ATOM      3  C2  UNL d   1       4.599   2.525   2.463  0.00  0.00    -0.080 A 
ATOM      4  C3  UNL d   1       5.314   3.159   3.475  0.00  0.00     0.150 A 
ATOM      5  C4  UNL d   1       5.998   2.420   4.435  0.00  0.00    -0.007 A 
ATOM      6  C5  UNL d   1       5.964   1.027   4.388  0.00  0.00     0.039 A 
ENDROOT
BRANCH   4   7
ATOM      7  O   UNL d   1       5.370   4.518   3.564  0.00  0.00    -0.526 OA
ATOM      8  H5  UNL d   1       4.828   4.896   2.852  0.00  0.00     0.418 HD
ENDBRANCH   4   7
TORSDOF 1
ENDMDL
