MODEL 1
REMARK minimizedAffinity -0.736066878
REMARK minimizedRMSD -1
REMARK  1 active torsions:
REMARK  status: ('A' for Active; 'I' for Inactive)
REMARK    1  A    between atoms: C3_4  and  O_7 
ROOT
ATOM      1  C   UNL d   1       6.000  -0.030   4.434  0.00  0.00    -0.033 A 
ATOM      2  C1  UNL d   1       5.998   1.127   5.216  0.00  0.00     0.039 A 
ATOM      3  C2  UNL d   1       5.394   2.292   4.742  0.00  0.00    -0.080 A 
ATOM      4  C3  UNL d   1       4.795   2.289   3.485  0.00  0.00     0.150 A 
ATOM      5  C4  UNL d   1       4.790   1.139   2.702  0.00  0.00    -0.007 A 
ATOM      6  C5  UNL d   1       5.394  -0.024   3.177  0.00  0.00     0.039 A 
ENDROOT
BRANCH   4   7
ATOM      7  O   UNL d   1       4.198   3.404   2.977  0.00  0.00    -0.526 OA
ATOM      8  H5  UNL d   1       4.304   4.128   3.616  0.00  0.00     0.418 HD
ENDBRANCH   4   7
TORSDOF 1
ENDMDL
