MODEL 1
REMARK minimizedAffinity -1.86440909
REMARK minimizedRMSD -1
REMARK  1 active torsions:
REMARK  status: ('A' for Active; 'I' for Inactive)
REMARK    1  A    between atoms: C3_4  and  O_7 
ROOT
ATOM      1  C   UNL d   1       3.130  -0.209   1.770  0.00  0.00    -0.033 A 
ATOM      2  C1  UNL d   1       4.002  -1.059   2.453  0.00  0.00     0.039 A 
ATOM      3  C2  UNL d   1       4.975  -0.527   3.302  0.00  0.00    -0.080 A 
ATOM      4  C3  UNL d   1       5.064   0.853   3.460  0.00  0.00     0.150 A 
ATOM      5  C4  UNL d   1       4.196   1.705   2.785  0.00  0.00    -0.007 A 
ATOM      6  C5  UNL d   1       3.226   1.173   1.937  0.00  0.00     0.039 A 
ENDROOT
BRANCH   4   7
ATOM      7  O   UNL d   1       6.000   1.418   4.274  0.00  0.00    -0.526 OA
ATOM      8  H5  UNL d   1       6.547   0.710   4.652  0.00  0.00     0.418 HD
ENDBRANCH   4   7
TORSDOF 1
ENDMDL
