MODEL 1
REMARK minimizedAffinity 8.76913929
REMARK minimizedRMSD -1
REMARK  1 active torsions:
REMARK  status: ('A' for Active; 'I' for Inactive)
REMARK    1  A    between atoms: C3_4  and  O_7 
ROOT
ATOM      1  C   UNL d   1       5.997  -0.105   4.491  0.00  0.00    -0.033 A 
ATOM      2  C1  UNL d   1       6.000   1.238   4.872  0.00  0.00     0.039 A 
ATOM      3  C2  UNL d   1       5.313   2.184   4.108  0.00  0.00    -0.080 A 
ATOM      4  C3  UNL d   1       4.628   1.774   2.968  0.00  0.00     0.150 A 
ATOM      5  C4  UNL d   1       4.618   0.437   2.584  0.00  0.00    -0.007 A 
ATOM      6  C5  UNL d   1       5.305  -0.506   3.347  0.00  0.00     0.039 A 
ENDROOT
BRANCH   4   7
ATOM      7  O   UNL d   1       3.948   2.662   2.188  0.00  0.00    -0.526 OA
ATOM      8  H5  UNL d   1       4.067   3.552   2.559  0.00  0.00     0.418 HD
ENDBRANCH   4   7
TORSDOF 1
ENDMDL
