MODEL 1
REMARK minimizedAffinity -1.33798563
REMARK minimizedRMSD -1
REMARK  1 active torsions:
REMARK  status: ('A' for Active; 'I' for Inactive)
REMARK    1  A    between atoms: C3_4  and  O_7 
ROOT
ATOM      1  C   UNL d   1       5.439   0.855   4.041  0.00  0.00    -0.033 A 
ATOM      2  C1  UNL d   1       4.877   1.580   2.989  0.00  0.00     0.039 A 
ATOM      3  C2  UNL d   1       4.873   2.976   3.024  0.00  0.00    -0.080 A 
ATOM      4  C3  UNL d   1       5.432   3.634   4.116  0.00  0.00     0.150 A 
ATOM      5  C4  UNL d   1       5.997   2.917   5.167  0.00  0.00    -0.007 A 
ATOM      6  C5  UNL d   1       6.000   1.524   5.130  0.00  0.00     0.039 A 
ENDROOT
BRANCH   4   7
ATOM      7  O   UNL d   1       5.447   4.994   4.198  0.00  0.00    -0.526 OA
ATOM      8  H5  UNL d   1       4.997   5.354   3.416  0.00  0.00     0.418 HD
ENDBRANCH   4   7
TORSDOF 1
ENDMDL
