MODEL 1
REMARK minimizedAffinity -2.38920403
REMARK minimizedRMSD -1
REMARK  1 active torsions:
REMARK  status: ('A' for Active; 'I' for Inactive)
REMARK    1  A    between atoms: C3_4  and  O_7 
ROOT
ATOM      1  C   UNL d   1      -3.623  -0.400   3.758  0.00  0.00    -0.033 A 
ATOM      2  C1  UNL d   1      -4.450  -1.051   2.840  0.00  0.00     0.039 A 
ATOM      3  C2  UNL d   1      -3.928  -1.508   1.629  0.00  0.00    -0.080 A 
ATOM      4  C3  UNL d   1      -2.579  -1.309   1.348  0.00  0.00     0.150 A 
ATOM      5  C4  UNL d   1      -1.749  -0.664   2.259  0.00  0.00    -0.007 A 
ATOM      6  C5  UNL d   1      -2.272  -0.208   3.468  0.00  0.00     0.039 A 
ENDROOT
BRANCH   4   7
ATOM      7  O   UNL d   1      -2.025  -1.733   0.177  0.00  0.00    -0.526 OA
ATOM      8  H5  UNL d   1      -2.724  -2.134  -0.367  0.00  0.00     0.418 HD
ENDBRANCH   4   7
TORSDOF 1
ENDMDL
