MODEL 1
REMARK minimizedAffinity 16.6571655
REMARK minimizedRMSD -1
REMARK  2 active torsions:
REMARK  status: ('A' for Active; 'I' for Inactive)
REMARK    1  A    between atoms: C1_2  and  C2_3 
REMARK    2  A    between atoms: C2_3  and  C3_4 
ROOT
ATOM      1  C3  UNL d   1      -4.006  -3.783  -1.880  0.00  0.00    -0.075 A 
ATOM      2  C4  UNL d   1      -5.007  -3.494  -2.819  0.00  0.00     0.002 A 
ATOM      3  C5  UNL d   1      -6.000  -4.431  -3.107  0.00  0.00     0.002 A 
ATOM      4  C6  UNL d   1      -6.000  -5.669  -2.469  0.00  0.00    -0.004 A 
ATOM      5  C7  UNL d   1      -5.001  -5.973  -1.547  0.00  0.00     0.002 A 
ATOM      6  C8  UNL d   1      -4.009  -5.037  -1.254  0.00  0.00     0.002 A 
ENDROOT
BRANCH   1   7
ATOM      7  C2  UNL d   1      -2.945  -2.763  -1.543  0.00  0.00     0.056 C 
BRANCH   7   8
ATOM      8  C1  UNL d   1      -3.017  -2.242  -0.103  0.00  0.00     0.007 C 
ATOM      9  C   UNL d   1      -1.926  -2.808   0.796  0.00  0.00     0.009 C 
ENDBRANCH   7   8
ENDBRANCH   1   7
TORSDOF 2
ENDMDL
