MODEL 1
REMARK minimizedAffinity 16.5497475
REMARK minimizedRMSD -1
REMARK  2 active torsions:
REMARK  status: ('A' for Active; 'I' for Inactive)
REMARK    1  A    between atoms: C1_2  and  C2_3 
REMARK    2  A    between atoms: C2_3  and  C3_4 
ROOT
ATOM      1  C3  UNL d   1      -3.421  -4.124  -1.827  0.00  0.00    -0.075 A 
ATOM      2  C4  UNL d   1      -4.227  -3.681  -2.885  0.00  0.00     0.002 A 
ATOM      3  C5  UNL d   1      -5.379  -4.385  -3.240  0.00  0.00     0.002 A 
ATOM      4  C6  UNL d   1      -5.732  -5.542  -2.550  0.00  0.00    -0.004 A 
ATOM      5  C7  UNL d   1      -4.929  -6.000  -1.508  0.00  0.00     0.002 A 
ATOM      6  C8  UNL d   1      -3.779  -5.296  -1.147  0.00  0.00     0.002 A 
ENDROOT
BRANCH   1   7
ATOM      7  C2  UNL d   1      -2.190  -3.350  -1.418  0.00  0.00     0.056 C 
BRANCH   7   8
ATOM      8  C1  UNL d   1      -2.008  -3.222   0.098  0.00  0.00     0.007 C 
ATOM      9  C   UNL d   1      -0.770  -3.942   0.617  0.00  0.00     0.009 C 
ENDBRANCH   7   8
ENDBRANCH   1   7
TORSDOF 2
ENDMDL
