MODEL 1
REMARK minimizedAffinity 4.17032766
REMARK minimizedRMSD -1
REMARK  2 active torsions:
REMARK  status: ('A' for Active; 'I' for Inactive)
REMARK    1  A    between atoms: C1_2  and  C2_3 
REMARK    2  A    between atoms: C2_3  and  C3_4 
ROOT
ATOM      1  C3  UNL d   1       3.521   1.189  -1.382  0.00  0.00    -0.075 A 
ATOM      2  C4  UNL d   1       4.389   0.347  -0.673  0.00  0.00     0.002 A 
ATOM      3  C5  UNL d   1       3.992  -0.224   0.536  0.00  0.00     0.002 A 
ATOM      4  C6  UNL d   1       2.728   0.047   1.056  0.00  0.00    -0.004 A 
ATOM      5  C7  UNL d   1       1.863   0.895   0.368  0.00  0.00     0.002 A 
ATOM      6  C8  UNL d   1       2.256   1.464  -0.844  0.00  0.00     0.002 A 
ENDROOT
BRANCH   1   7
ATOM      7  C2  UNL d   1       3.933   1.787  -2.706  0.00  0.00     0.056 C 
BRANCH   7   8
ATOM      8  C1  UNL d   1       2.988   1.451  -3.864  0.00  0.00     0.007 C 
ATOM      9  C   UNL d   1       1.874   2.474  -4.046  0.00  0.00     0.009 C 
ENDBRANCH   7   8
ENDBRANCH   1   7
TORSDOF 2
ENDMDL
