MODEL 1
REMARK minimizedAffinity 7.55616045
REMARK minimizedRMSD -1
REMARK  2 active torsions:
REMARK  status: ('A' for Active; 'I' for Inactive)
REMARK    1  A    between atoms: C1_2  and  C2_3 
REMARK    2  A    between atoms: C2_3  and  C3_4 
ROOT
ATOM      1  C3  UNL d   1       2.516   1.327  -0.924  0.00  0.00    -0.075 A 
ATOM      2  C4  UNL d   1       1.941   1.716   0.294  0.00  0.00     0.002 A 
ATOM      3  C5  UNL d   1       2.538   1.361   1.504  0.00  0.00     0.002 A 
ATOM      4  C6  UNL d   1       3.709   0.607   1.512  0.00  0.00    -0.004 A 
ATOM      5  C7  UNL d   1       4.280   0.201   0.307  0.00  0.00     0.002 A 
ATOM      6  C8  UNL d   1       3.687   0.558  -0.905  0.00  0.00     0.002 A 
ENDROOT
BRANCH   1   7
ATOM      7  C2  UNL d   1       1.891   1.733  -2.238  0.00  0.00     0.056 C 
BRANCH   7   8
ATOM      8  C1  UNL d   1       2.869   1.746  -3.417  0.00  0.00     0.007 C 
ATOM      9  C   UNL d   1       2.311   2.440  -4.652  0.00  0.00     0.009 C 
ENDBRANCH   7   8
ENDBRANCH   1   7
TORSDOF 2
ENDMDL
