MODEL 1
REMARK minimizedAffinity 7.0737896
REMARK minimizedRMSD -1
REMARK  2 active torsions:
REMARK  status: ('A' for Active; 'I' for Inactive)
REMARK    1  A    between atoms: C1_2  and  C2_3 
REMARK    2  A    between atoms: C2_3  and  C3_4 
ROOT
ATOM      1  C3  UNL d   1      -1.997  -2.930   0.414  0.00  0.00    -0.075 A 
ATOM      2  C4  UNL d   1      -0.713  -2.725  -0.112  0.00  0.00     0.002 A 
ATOM      3  C5  UNL d   1      -0.538  -2.468  -1.472  0.00  0.00     0.002 A 
ATOM      4  C6  UNL d   1      -1.640  -2.423  -2.324  0.00  0.00    -0.004 A 
ATOM      5  C7  UNL d   1      -2.918  -2.642  -1.815  0.00  0.00     0.002 A 
ATOM      6  C8  UNL d   1      -3.097  -2.895  -0.453  0.00  0.00     0.002 A 
ENDROOT
BRANCH   1   7
ATOM      7  C2  UNL d   1      -2.196  -3.179   1.890  0.00  0.00     0.056 C 
BRANCH   7   8
ATOM      8  C1  UNL d   1      -1.542  -4.468   2.398  0.00  0.00     0.007 C 
ATOM      9  C   UNL d   1      -2.515  -5.635   2.501  0.00  0.00     0.009 C 
ENDBRANCH   7   8
ENDBRANCH   1   7
TORSDOF 2
ENDMDL
