MODEL 1
REMARK minimizedAffinity 19.4050522
REMARK minimizedRMSD -1
REMARK  2 active torsions:
REMARK  status: ('A' for Active; 'I' for Inactive)
REMARK    1  A    between atoms: C1_2  and  C2_3 
REMARK    2  A    between atoms: C2_3  and  C3_4 
ROOT
ATOM      1  C3  UNL d   1      -2.247  -3.162  -3.425  0.00  0.00    -0.075 A 
ATOM      2  C4  UNL d   1      -1.910  -4.303  -4.168  0.00  0.00     0.002 A 
ATOM      3  C5  UNL d   1      -1.362  -4.181  -5.445  0.00  0.00     0.002 A 
ATOM      4  C6  UNL d   1      -1.153  -2.920  -5.998  0.00  0.00    -0.004 A 
ATOM      5  C7  UNL d   1      -1.499  -1.780  -5.276  0.00  0.00     0.002 A 
ATOM      6  C8  UNL d   1      -2.044  -1.899  -3.996  0.00  0.00     0.002 A 
ENDROOT
BRANCH   1   7
ATOM      7  C2  UNL d   1      -2.813  -3.288  -2.031  0.00  0.00     0.056 C 
BRANCH   7   8
ATOM      8  C1  UNL d   1      -2.233  -2.284  -1.029  0.00  0.00     0.007 C 
ATOM      9  C   UNL d   1      -2.938  -2.306   0.321  0.00  0.00     0.009 C 
ENDBRANCH   7   8
ENDBRANCH   1   7
TORSDOF 2
ENDMDL
