MODEL 1
REMARK minimizedAffinity 18.7920341
REMARK minimizedRMSD -1
REMARK  2 active torsions:
REMARK  status: ('A' for Active; 'I' for Inactive)
REMARK    1  A    between atoms: C1_2  and  C2_3 
REMARK    2  A    between atoms: C2_3  and  C3_4 
ROOT
ATOM      1  C3  UNL d   1      -3.591  -5.364  -1.916  0.00  0.00    -0.075 A 
ATOM      2  C4  UNL d   1      -4.827  -5.998  -1.726  0.00  0.00     0.002 A 
ATOM      3  C5  UNL d   1      -5.995  -5.443  -2.249  0.00  0.00     0.002 A 
ATOM      4  C6  UNL d   1      -5.945  -4.245  -2.957  0.00  0.00    -0.004 A 
ATOM      5  C7  UNL d   1      -4.724  -3.597  -3.137  0.00  0.00     0.002 A 
ATOM      6  C8  UNL d   1      -3.553  -4.152  -2.619  0.00  0.00     0.002 A 
ENDROOT
BRANCH   1   7
ATOM      7  C2  UNL d   1      -2.318  -5.974  -1.379  0.00  0.00     0.056 C 
BRANCH   7   8
ATOM      8  C1  UNL d   1      -1.163  -5.994  -2.385  0.00  0.00     0.007 C 
ATOM      9  C   UNL d   1      -1.613  -5.760  -3.821  0.00  0.00     0.009 C 
ENDBRANCH   7   8
ENDBRANCH   1   7
TORSDOF 2
ENDMDL
