MODEL 1
REMARK minimizedAffinity 1.60180497
REMARK minimizedRMSD -1
REMARK  2 active torsions:
REMARK  status: ('A' for Active; 'I' for Inactive)
REMARK    1  A    between atoms: C1_2  and  C2_3 
REMARK    2  A    between atoms: C2_3  and  C3_4 
ROOT
ATOM      1  C3  UNL d   1      -2.638  -3.749   0.724  0.00  0.00    -0.075 A 
ATOM      2  C4  UNL d   1      -1.470  -3.754   1.499  0.00  0.00     0.002 A 
ATOM      3  C5  UNL d   1      -1.126  -4.876   2.255  0.00  0.00     0.002 A 
ATOM      4  C6  UNL d   1      -1.949  -6.000   2.253  0.00  0.00    -0.004 A 
ATOM      5  C7  UNL d   1      -3.121  -5.999   1.500  0.00  0.00     0.002 A 
ATOM      6  C8  UNL d   1      -3.465  -4.880   0.739  0.00  0.00     0.002 A 
ENDROOT
BRANCH   1   7
ATOM      7  C2  UNL d   1      -3.001  -2.550  -0.119  0.00  0.00     0.056 C 
BRANCH   7   8
ATOM      8  C1  UNL d   1      -2.231  -2.461  -1.441  0.00  0.00     0.007 C 
ATOM      9  C   UNL d   1      -3.017  -2.999  -2.630  0.00  0.00     0.009 C 
ENDBRANCH   7   8
ENDBRANCH   1   7
TORSDOF 2
ENDMDL
