MODEL 1
REMARK minimizedAffinity 1.06611097
REMARK minimizedRMSD -1
REMARK  2 active torsions:
REMARK  status: ('A' for Active; 'I' for Inactive)
REMARK    1  A    between atoms: C1_2  and  C2_3 
REMARK    2  A    between atoms: C2_3  and  C3_4 
ROOT
ATOM      1  C3  UNL d   1      -3.413   5.444  -1.729  0.00  0.00    -0.075 A 
ATOM      2  C4  UNL d   1      -4.487   5.991  -2.445  0.00  0.00     0.002 A 
ATOM      3  C5  UNL d   1      -5.771   6.000  -1.900  0.00  0.00     0.002 A 
ATOM      4  C6  UNL d   1      -6.000   5.453  -0.639  0.00  0.00    -0.004 A 
ATOM      5  C7  UNL d   1      -4.943   4.891   0.074  0.00  0.00     0.002 A 
ATOM      6  C8  UNL d   1      -3.656   4.885  -0.467  0.00  0.00     0.002 A 
ENDROOT
BRANCH   1   7
ATOM      7  C2  UNL d   1      -2.016   5.458  -2.301  0.00  0.00     0.056 C 
BRANCH   7   8
ATOM      8  C1  UNL d   1      -1.046   4.499  -1.603  0.00  0.00     0.007 C 
ATOM      9  C   UNL d   1      -0.718   3.266  -2.435  0.00  0.00     0.009 C 
ENDBRANCH   7   8
ENDBRANCH   1   7
TORSDOF 2
ENDMDL
