MODEL 1
REMARK minimizedAffinity 2.31546116
REMARK minimizedRMSD -1
REMARK  2 active torsions:
REMARK  status: ('A' for Active; 'I' for Inactive)
REMARK    1  A    between atoms: C1_2  and  C2_3 
REMARK    2  A    between atoms: C2_3  and  C3_4 
ROOT
ATOM      1  C3  UNL d   1       2.746   0.793   1.129  0.00  0.00    -0.075 A 
ATOM      2  C4  UNL d   1       3.755   0.042   1.748  0.00  0.00     0.002 A 
ATOM      3  C5  UNL d   1       4.785  -0.520   0.992  0.00  0.00     0.002 A 
ATOM      4  C6  UNL d   1       4.813  -0.346  -0.390  0.00  0.00    -0.004 A 
ATOM      5  C7  UNL d   1       3.807   0.385  -1.017  0.00  0.00     0.002 A 
ATOM      6  C8  UNL d   1       2.778   0.951  -0.263  0.00  0.00     0.002 A 
ENDROOT
BRANCH   1   7
ATOM      7  C2  UNL d   1       1.645   1.429   1.944  0.00  0.00     0.056 C 
BRANCH   7   8
ATOM      8  C1  UNL d   1       0.788   0.426   2.723  0.00  0.00     0.007 C 
ATOM      9  C   UNL d   1       1.105   0.393   4.212  0.00  0.00     0.009 C 
ENDBRANCH   7   8
ENDBRANCH   1   7
TORSDOF 2
ENDMDL
