MODEL 1
REMARK minimizedAffinity 13.8019581
REMARK minimizedRMSD -1
REMARK  2 active torsions:
REMARK  status: ('A' for Active; 'I' for Inactive)
REMARK    1  A    between atoms: C1_2  and  C2_3 
REMARK    2  A    between atoms: C2_3  and  C3_4 
ROOT
ATOM      1  C3  UNL d   1      -1.486  -3.312   0.974  0.00  0.00    -0.075 A 
ATOM      2  C4  UNL d   1      -1.583  -2.664   2.214  0.00  0.00     0.002 A 
ATOM      3  C5  UNL d   1      -1.722  -3.403   3.390  0.00  0.00     0.002 A 
ATOM      4  C6  UNL d   1      -1.776  -4.794   3.340  0.00  0.00    -0.004 A 
ATOM      5  C7  UNL d   1      -1.697  -5.447   2.112  0.00  0.00     0.002 A 
ATOM      6  C8  UNL d   1      -1.554  -4.711   0.934  0.00  0.00     0.002 A 
ENDROOT
BRANCH   1   7
ATOM      7  C2  UNL d   1      -1.306  -2.520  -0.299  0.00  0.00     0.056 C 
BRANCH   7   8
ATOM      8  C1  UNL d   1      -2.594  -2.340  -1.109  0.00  0.00     0.007 C 
ATOM      9  C   UNL d   1      -2.413  -2.619  -2.595  0.00  0.00     0.009 C 
ENDBRANCH   7   8
ENDBRANCH   1   7
TORSDOF 2
ENDMDL
