MODEL 1
REMARK minimizedAffinity 1.05550635
REMARK minimizedRMSD -1
REMARK  2 active torsions:
REMARK  status: ('A' for Active; 'I' for Inactive)
REMARK    1  A    between atoms: C1_2  and  C2_3 
REMARK    2  A    between atoms: C2_3  and  C3_4 
ROOT
ATOM      1  C3  UNL d   1       0.988   1.181   1.754  0.00  0.00    -0.075 A 
ATOM      2  C4  UNL d   1      -0.126   0.353   1.953  0.00  0.00     0.002 A 
ATOM      3  C5  UNL d   1      -1.407   0.898   2.038  0.00  0.00     0.002 A 
ATOM      4  C6  UNL d   1      -1.590   2.275   1.935  0.00  0.00    -0.004 A 
ATOM      5  C7  UNL d   1      -0.488   3.109   1.754  0.00  0.00     0.002 A 
ATOM      6  C8  UNL d   1       0.794   2.566   1.664  0.00  0.00     0.002 A 
ENDROOT
BRANCH   1   7
ATOM      7  C2  UNL d   1       2.374   0.594   1.632  0.00  0.00     0.056 C 
BRANCH   7   8
ATOM      8  C1  UNL d   1       3.109   0.993   0.347  0.00  0.00     0.007 C 
ATOM      9  C   UNL d   1       3.750  -0.189  -0.369  0.00  0.00     0.009 C 
ENDBRANCH   7   8
ENDBRANCH   1   7
TORSDOF 2
ENDMDL
