MODEL 1
REMARK minimizedAffinity -3.08531594
REMARK minimizedRMSD -1
REMARK  1 active torsions:
REMARK  status: ('A' for Active; 'I' for Inactive)
REMARK    1  A    between atoms: C1_2  and  C2_3 
ROOT
ATOM      1  C2  UNL d   1       0.146  -0.607   1.138  0.00  0.00    -0.076 A 
ATOM      2  C3  UNL d   1       1.281  -0.277   0.376  0.00  0.00     0.004 A 
ATOM      3  C4  UNL d   1       1.156   0.313  -0.880  0.00  0.00    -0.003 A 
ATOM      4  C5  UNL d   1      -0.107   0.583  -1.396  0.00  0.00     0.000 A 
ATOM      5  C6  UNL d   1      -1.243   0.279  -0.647  0.00  0.00     0.000 A 
ATOM      6  C7  UNL d   1      -1.134  -0.301   0.628  0.00  0.00    -0.073 A 
ATOM      7  C8  UNL d   1      -2.393  -0.614   1.390  0.00  0.00     0.078 C 
ENDROOT
BRANCH   1   8
ATOM      8  C1  UNL d   1       0.344  -1.270   2.482  0.00  0.00     0.053 C 
ATOM      9  C   UNL d   1       1.630  -0.831   3.165  0.00  0.00     0.018 C 
ENDBRANCH   1   8
TORSDOF 1
ENDMDL
