MODEL 1
REMARK minimizedAffinity -4.96044302
REMARK minimizedRMSD -1
REMARK  1 active torsions:
REMARK  status: ('A' for Active; 'I' for Inactive)
REMARK    1  A    between atoms: C1_2  and  C2_3 
ROOT
ATOM      1  C2  UNL d   1       0.353  -0.528   0.080  0.00  0.00    -0.076 A 
ATOM      2  C3  UNL d   1       1.561  -1.218  -0.127  0.00  0.00     0.004 A 
ATOM      3  C4  UNL d   1       2.221  -1.841   0.930  0.00  0.00    -0.003 A 
ATOM      4  C5  UNL d   1       1.684  -1.787   2.211  0.00  0.00     0.000 A 
ATOM      5  C6  UNL d   1       0.478  -1.123   2.432  0.00  0.00     0.000 A 
ATOM      6  C7  UNL d   1      -0.209  -0.502   1.374  0.00  0.00    -0.073 A 
ATOM      7  C8  UNL d   1      -1.503   0.205   1.671  0.00  0.00     0.078 C 
ENDROOT
BRANCH   1   8
ATOM      8  C1  UNL d   1      -0.304   0.152  -1.100  0.00  0.00     0.053 C 
ATOM      9  C   UNL d   1       0.350   1.482  -1.444  0.00  0.00     0.018 C 
ENDBRANCH   1   8
TORSDOF 1
ENDMDL
