MODEL 1
REMARK minimizedAffinity -2.61004472
REMARK minimizedRMSD -1
REMARK  0 active torsions:
REMARK  status: ('A' for Active; 'I' for Inactive)
ROOT
ATOM      1  N1  IND d   1      -2.435   0.489   0.183  0.00  0.00    -0.196 N 
ATOM      2  C2  IND d   1      -1.973   0.705  -1.085  0.00  0.00     0.054 A 
ATOM      3  C3  IND d   1      -0.622   0.767  -1.089  0.00  0.00    -0.031 A 
ATOM      4  C4  IND d   1       1.036   0.440   0.852  0.00  0.00     0.051 A 
ATOM      5  C5  IND d   1       1.087   0.256   2.206  0.00  0.00    -0.031 A 
ATOM      6  C6  IND d   1      -0.056   0.135   2.969  0.00  0.00     0.015 A 
ATOM      7  C7  IND d   1      -1.298   0.183   2.403  0.00  0.00    -0.016 A 
ATOM      8  C8  IND d   1      -1.354   0.376   1.030  0.00  0.00    -0.047 A 
ATOM      9  C9  IND d   1      -0.199   0.542   0.256  0.00  0.00    -0.096 A 
ATOM     10  HN1 IND d   1      -3.262   0.432   0.413  0.00  0.00     0.298 HD
ENDROOT
TORSDOF 0
ENDMDL
