MODEL 1
REMARK minimizedAffinity -4.11005974
REMARK minimizedRMSD -1
REMARK  0 active torsions:
REMARK  status: ('A' for Active; 'I' for Inactive)
ROOT
ATOM      1  N1  IND d   1       0.405   0.115   2.877  0.00  0.00    -0.196 N 
ATOM      2  C2  IND d   1      -0.687  -0.466   3.461  0.00  0.00     0.054 A 
ATOM      3  C3  IND d   1      -1.692  -0.583   2.566  0.00  0.00    -0.031 A 
ATOM      4  C4  IND d   1      -1.732   0.016   0.063  0.00  0.00     0.051 A 
ATOM      5  C5  IND d   1      -0.983   0.607  -0.916  0.00  0.00    -0.031 A 
ATOM      6  C6  IND d   1       0.295   1.071  -0.675  0.00  0.00     0.015 A 
ATOM      7  C7  IND d   1       0.877   0.950   0.555  0.00  0.00    -0.016 A 
ATOM      8  C8  IND d   1       0.116   0.357   1.552  0.00  0.00    -0.047 A 
ATOM      9  C9  IND d   1      -1.197  -0.077   1.325  0.00  0.00    -0.096 A 
ATOM     10  HN1 IND d   1       1.147   0.297   3.271  0.00  0.00     0.298 HD
ENDROOT
TORSDOF 0
ENDMDL
