MODEL 1
REMARK minimizedAffinity -3.29148078
REMARK minimizedRMSD -1
REMARK  0 active torsions:
REMARK  status: ('A' for Active; 'I' for Inactive)
ROOT
ATOM      1  N1  IND d   1      -1.682  -0.834   2.594  0.00  0.00    -0.196 N 
ATOM      2  C2  IND d   1      -1.038  -0.348   3.698  0.00  0.00     0.054 A 
ATOM      3  C3  IND d   1       0.040   0.380   3.331  0.00  0.00    -0.031 A 
ATOM      4  C4  IND d   1       0.877   0.991   0.974  0.00  0.00     0.051 A 
ATOM      5  C5  IND d   1       0.638   0.749  -0.350  0.00  0.00    -0.031 A 
ATOM      6  C6  IND d   1      -0.409  -0.046  -0.769  0.00  0.00     0.015 A 
ATOM      7  C7  IND d   1      -1.266  -0.623   0.124  0.00  0.00    -0.016 A 
ATOM      8  C8  IND d   1      -1.023  -0.386   1.470  0.00  0.00    -0.047 A 
ATOM      9  C9  IND d   1       0.063   0.386   1.902  0.00  0.00    -0.096 A 
ATOM     10  HN1 IND d   1      -2.380  -1.335   2.600  0.00  0.00     0.298 HD
ENDROOT
TORSDOF 0
ENDMDL
