MODEL 1
REMARK minimizedAffinity 0.3831411
REMARK minimizedRMSD -1
REMARK  0 active torsions:
REMARK  status: ('A' for Active; 'I' for Inactive)
ROOT
ATOM      1  N1  IND d   1      -0.094   0.200   1.899  0.00  0.00    -0.196 N 
ATOM      2  C2  IND d   1       1.272   0.235   1.869  0.00  0.00     0.054 A 
ATOM      3  C3  IND d   1       1.708   0.527   0.623  0.00  0.00    -0.031 A 
ATOM      4  C4  IND d   1       0.354   1.084  -1.495  0.00  0.00     0.051 A 
ATOM      5  C5  IND d   1      -0.925   1.143  -1.971  0.00  0.00    -0.031 A 
ATOM      6  C6  IND d   1      -2.016   0.888  -1.164  0.00  0.00     0.015 A 
ATOM      7  C7  IND d   1      -1.867   0.574   0.157  0.00  0.00    -0.016 A 
ATOM      8  C8  IND d   1      -0.568   0.507   0.642  0.00  0.00    -0.047 A 
ATOM      9  C9  IND d   1       0.544   0.723  -0.182  0.00  0.00    -0.096 A 
ATOM     10  HN1 IND d   1      -0.577   0.017   2.587  0.00  0.00     0.298 HD
ENDROOT
TORSDOF 0
ENDMDL
