MODEL 1
REMARK minimizedAffinity -0.999763131
REMARK minimizedRMSD -1
REMARK  0 active torsions:
REMARK  status: ('A' for Active; 'I' for Inactive)
ROOT
ATOM      1  N1  IND d   1      -2.399   0.557  -0.202  0.00  0.00    -0.196 N 
ATOM      2  C2  IND d   1      -2.078   0.770  -1.513  0.00  0.00     0.054 A 
ATOM      3  C3  IND d   1      -0.740   0.897  -1.655  0.00  0.00    -0.031 A 
ATOM      4  C4  IND d   1       1.119   0.688   0.114  0.00  0.00     0.051 A 
ATOM      5  C5  IND d   1       1.315   0.534   1.457  0.00  0.00    -0.031 A 
ATOM      6  C6  IND d   1       0.262   0.374   2.334  0.00  0.00     0.015 A 
ATOM      7  C7  IND d   1      -1.032   0.350   1.896  0.00  0.00    -0.016 A 
ATOM      8  C8  IND d   1      -1.235   0.513   0.533  0.00  0.00    -0.047 A 
ATOM      9  C9  IND d   1      -0.173   0.719  -0.356  0.00  0.00    -0.096 A 
ATOM     10  HN1 IND d   1      -3.195   0.466   0.111  0.00  0.00     0.298 HD
ENDROOT
TORSDOF 0
ENDMDL
