MODEL 1
REMARK minimizedAffinity -3.71610093
REMARK minimizedRMSD -1
REMARK  0 active torsions:
REMARK  status: ('A' for Active; 'I' for Inactive)
ROOT
ATOM      1  N1  IND d   1      -1.127   0.411  -1.052  0.00  0.00    -0.196 N 
ATOM      2  C2  IND d   1      -0.036   0.469  -1.874  0.00  0.00     0.054 A 
ATOM      3  C3  IND d   1       1.082   0.127  -1.196  0.00  0.00    -0.031 A 
ATOM      4  C4  IND d   1       1.341  -0.661   1.241  0.00  0.00     0.051 A 
ATOM      5  C5  IND d   1       0.633  -0.840   2.396  0.00  0.00    -0.031 A 
ATOM      6  C6  IND d   1      -0.725  -0.608   2.462  0.00  0.00     0.015 A 
ATOM      7  C7  IND d   1      -1.432  -0.199   1.367  0.00  0.00    -0.016 A 
ATOM      8  C8  IND d   1      -0.715  -0.010   0.194  0.00  0.00    -0.047 A 
ATOM      9  C9  IND d   1       0.671  -0.202   0.132  0.00  0.00    -0.096 A 
ATOM     10  HN1 IND d   1      -1.934   0.605  -1.275  0.00  0.00     0.298 HD
ENDROOT
TORSDOF 0
ENDMDL
