MODEL 1
REMARK minimizedAffinity -2.46498227
REMARK minimizedRMSD -1
REMARK  0 active torsions:
REMARK  status: ('A' for Active; 'I' for Inactive)
ROOT
ATOM      1  N1  IND d   1      -1.889  -1.084   1.672  0.00  0.00    -0.196 N 
ATOM      2  C2  IND d   1      -1.677  -1.292   3.007  0.00  0.00     0.054 A 
ATOM      3  C3  IND d   1      -0.437  -0.882   3.355  0.00  0.00    -0.031 A 
ATOM      4  C4  IND d   1       1.374   0.253   1.920  0.00  0.00     0.051 A 
ATOM      5  C5  IND d   1       1.656   0.620   0.634  0.00  0.00    -0.031 A 
ATOM      6  C6  IND d   1       0.752   0.436  -0.392  0.00  0.00     0.015 A 
ATOM      7  C7  IND d   1      -0.479  -0.113  -0.167  0.00  0.00    -0.016 A 
ATOM      8  C8  IND d   1      -0.766  -0.493   1.137  0.00  0.00    -0.047 A 
ATOM      9  C9  IND d   1       0.164  -0.348   2.174  0.00  0.00    -0.096 A 
ATOM     10  HN1 IND d   1      -2.604  -1.288   1.240  0.00  0.00     0.298 HD
ENDROOT
TORSDOF 0
ENDMDL
