MODEL 1
REMARK minimizedAffinity -4.24861288
REMARK minimizedRMSD -1
REMARK  0 active torsions:
REMARK  status: ('A' for Active; 'I' for Inactive)
ROOT
ATOM      1  N1  IND d   1      -0.416  -0.242  -0.280  0.00  0.00    -0.196 N 
ATOM      2  C2  IND d   1       0.751   0.441  -0.476  0.00  0.00     0.054 A 
ATOM      3  C3  IND d   1       1.295   0.794   0.710  0.00  0.00    -0.031 A 
ATOM      4  C4  IND d   1       0.493   0.266   3.099  0.00  0.00     0.051 A 
ATOM      5  C5  IND d   1      -0.544  -0.301   3.786  0.00  0.00    -0.031 A 
ATOM      6  C6  IND d   1      -1.610  -0.892   3.140  0.00  0.00     0.015 A 
ATOM      7  C7  IND d   1      -1.676  -0.948   1.777  0.00  0.00    -0.016 A 
ATOM      8  C8  IND d   1      -0.629  -0.367   1.076  0.00  0.00    -0.047 A 
ATOM      9  C9  IND d   1       0.436   0.272   1.725  0.00  0.00    -0.096 A 
ATOM     10  HN1 IND d   1      -0.931  -0.543  -0.899  0.00  0.00     0.298 HD
ENDROOT
TORSDOF 0
ENDMDL
