MODEL 1
REMARK minimizedAffinity -3.37545562
REMARK minimizedRMSD -1
REMARK  0 active torsions:
REMARK  status: ('A' for Active; 'I' for Inactive)
ROOT
ATOM      1  N1  IND d   1      -0.977   0.305  -2.107  0.00  0.00    -0.196 N 
ATOM      2  C2  IND d   1       0.171   0.693  -2.739  0.00  0.00     0.054 A 
ATOM      3  C3  IND d   1       1.198   0.743  -1.860  0.00  0.00    -0.031 A 
ATOM      4  C4  IND d   1       1.242   0.133   0.640  0.00  0.00     0.051 A 
ATOM      5  C5  IND d   1       0.427  -0.239   1.673  0.00  0.00    -0.031 A 
ATOM      6  C6  IND d   1      -0.924  -0.455   1.494  0.00  0.00     0.015 A 
ATOM      7  C7  IND d   1      -1.511  -0.318   0.268  0.00  0.00    -0.016 A 
ATOM      8  C8  IND d   1      -0.688   0.066  -0.781  0.00  0.00    -0.047 A 
ATOM      9  C9  IND d   1       0.675   0.328  -0.597  0.00  0.00    -0.096 A 
ATOM     10  HN1 IND d   1      -1.750   0.225  -2.475  0.00  0.00     0.298 HD
ENDROOT
TORSDOF 0
ENDMDL
