MODEL 1
REMARK minimizedAffinity -5.04758739
REMARK minimizedRMSD -1
REMARK  0 active torsions:
REMARK  status: ('A' for Active; 'I' for Inactive)
ROOT
ATOM      1  N1  IND d   1       0.801   0.740  -0.205  0.00  0.00    -0.196 N 
ATOM      2  C2  IND d   1      -0.137   0.719  -1.199  0.00  0.00     0.054 A 
ATOM      3  C3  IND d   1      -1.265   0.110  -0.769  0.00  0.00    -0.031 A 
ATOM      4  C4  IND d   1      -1.827  -0.837   1.558  0.00  0.00     0.051 A 
ATOM      5  C5  IND d   1      -1.275  -1.080   2.784  0.00  0.00    -0.031 A 
ATOM      6  C6  IND d   1       0.023  -0.720   3.083  0.00  0.00     0.015 A 
ATOM      7  C7  IND d   1       0.817  -0.089   2.167  0.00  0.00    -0.016 A 
ATOM      8  C8  IND d   1       0.261   0.153   0.919  0.00  0.00    -0.047 A 
ATOM      9  C9  IND d   1      -1.041  -0.248   0.595  0.00  0.00    -0.096 A 
ATOM     10  HN1 IND d   1       1.594   1.064  -0.271  0.00  0.00     0.298 HD
ENDROOT
TORSDOF 0
ENDMDL
