MODEL 1
REMARK minimizedAffinity -2.55259538
REMARK minimizedRMSD -1
REMARK  0 active torsions:
REMARK  status: ('A' for Active; 'I' for Inactive)
ROOT
ATOM      1  N1  IND d   1       0.687  -0.433   1.903  0.00  0.00    -0.196 N 
ATOM      2  C2  IND d   1       0.049  -0.659   3.090  0.00  0.00     0.054 A 
ATOM      3  C3  IND d   1      -1.279  -0.442   2.960  0.00  0.00    -0.031 A 
ATOM      4  C4  IND d   1      -2.634   0.192   0.865  0.00  0.00     0.051 A 
ATOM      5  C5  IND d   1      -2.487   0.542  -0.448  0.00  0.00    -0.031 A 
ATOM      6  C6  IND d   1      -1.250   0.583  -1.058  0.00  0.00     0.015 A 
ATOM      7  C7  IND d   1      -0.109   0.263  -0.377  0.00  0.00    -0.016 A 
ATOM      8  C8  IND d   1      -0.254  -0.086   0.959  0.00  0.00    -0.047 A 
ATOM      9  C9  IND d   1      -1.503  -0.088   1.594  0.00  0.00    -0.096 A 
ATOM     10  HN1 IND d   1       1.534  -0.497   1.768  0.00  0.00     0.298 HD
ENDROOT
TORSDOF 0
ENDMDL
