MODEL 1
REMARK minimizedAffinity -4.33582544
REMARK minimizedRMSD -1
REMARK  0 active torsions:
REMARK  status: ('A' for Active; 'I' for Inactive)
ROOT
ATOM      1  N1  IND d   1       0.531  -0.578   2.699  0.00  0.00    -0.196 N 
ATOM      2  C2  IND d   1      -0.787  -0.864   2.917  0.00  0.00     0.054 A 
ATOM      3  C3  IND d   1      -1.519  -0.580   1.817  0.00  0.00    -0.031 A 
ATOM      4  C4  IND d   1      -0.745   0.266  -0.488  0.00  0.00     0.051 A 
ATOM      5  C5  IND d   1       0.362   0.706  -1.158  0.00  0.00    -0.031 A 
ATOM      6  C6  IND d   1       1.608   0.739  -0.565  0.00  0.00     0.015 A 
ATOM      7  C7  IND d   1       1.795   0.320   0.722  0.00  0.00    -0.016 A 
ATOM      8  C8  IND d   1       0.672  -0.121   1.407  0.00  0.00    -0.047 A 
ATOM      9  C9  IND d   1      -0.602  -0.116   0.825  0.00  0.00    -0.096 A 
ATOM     10  HN1 IND d   1       1.166  -0.668   3.272  0.00  0.00     0.298 HD
ENDROOT
TORSDOF 0
ENDMDL
