MODEL 1
REMARK minimizedAffinity -3.40602183
REMARK minimizedRMSD -1
REMARK  0 active torsions:
REMARK  status: ('A' for Active; 'I' for Inactive)
ROOT
ATOM      1  N1  IND d   1      -1.880   0.201   0.126  0.00  0.00    -0.196 N 
ATOM      2  C2  IND d   1      -1.377   0.494  -1.110  0.00  0.00     0.054 A 
ATOM      3  C3  IND d   1      -0.033   0.627  -1.052  0.00  0.00    -0.031 A 
ATOM      4  C4  IND d   1       1.557   0.307   0.947  0.00  0.00     0.051 A 
ATOM      5  C5  IND d   1       1.561   0.070   2.294  0.00  0.00    -0.031 A 
ATOM      6  C6  IND d   1       0.394  -0.142   3.000  0.00  0.00     0.015 A 
ATOM      7  C7  IND d   1      -0.824  -0.137   2.381  0.00  0.00    -0.016 A 
ATOM      8  C8  IND d   1      -0.832   0.110   1.016  0.00  0.00    -0.047 A 
ATOM      9  C9  IND d   1       0.345   0.369   0.301  0.00  0.00    -0.096 A 
ATOM     10  HN1 IND d   1      -2.712   0.092   0.317  0.00  0.00     0.298 HD
ENDROOT
TORSDOF 0
ENDMDL
