MODEL 1
REMARK minimizedAffinity -0.443337202
REMARK minimizedRMSD -1
REMARK  0 active torsions:
REMARK  status: ('A' for Active; 'I' for Inactive)
ROOT
ATOM      1  N1  IND d   1      -0.844  -0.275  -0.635  0.00  0.00    -0.196 N 
ATOM      2  C2  IND d   1       0.108   0.299  -1.431  0.00  0.00     0.054 A 
ATOM      3  C3  IND d   1       1.172   0.683  -0.690  0.00  0.00    -0.031 A 
ATOM      4  C4  IND d   1       1.606   0.378   1.829  0.00  0.00     0.051 A 
ATOM      5  C5  IND d   1       1.011  -0.059   2.980  0.00  0.00    -0.031 A 
ATOM      6  C6  IND d   1      -0.257  -0.603   2.984  0.00  0.00     0.015 A 
ATOM      7  C7  IND d   1      -0.976  -0.742   1.831  0.00  0.00    -0.016 A 
ATOM      8  C8  IND d   1      -0.378  -0.294   0.661  0.00  0.00    -0.047 A 
ATOM      9  C9  IND d   1       0.892   0.299   0.657  0.00  0.00    -0.096 A 
ATOM     10  HN1 IND d   1      -1.605  -0.574  -0.899  0.00  0.00     0.298 HD
ENDROOT
TORSDOF 0
ENDMDL
