MODEL 1
REMARK minimizedAffinity -3.27836609
REMARK minimizedRMSD -1
REMARK  0 active torsions:
REMARK  status: ('A' for Active; 'I' for Inactive)
ROOT
ATOM      1  N1  IND d   1      -0.376  -0.065  -0.687  0.00  0.00    -0.196 N 
ATOM      2  C2  IND d   1       0.739   0.707  -0.861  0.00  0.00     0.054 A 
ATOM      3  C3  IND d   1       1.309   0.986   0.333  0.00  0.00    -0.031 A 
ATOM      4  C4  IND d   1       0.640   0.195   2.689  0.00  0.00     0.051 A 
ATOM      5  C5  IND d   1      -0.330  -0.496   3.358  0.00  0.00    -0.031 A 
ATOM      6  C6  IND d   1      -1.386  -1.094   2.700  0.00  0.00     0.015 A 
ATOM      7  C7  IND d   1      -1.504  -1.031   1.340  0.00  0.00    -0.016 A 
ATOM      8  C8  IND d   1      -0.524  -0.324   0.658  0.00  0.00    -0.047 A 
ATOM      9  C9  IND d   1       0.526   0.321   1.325  0.00  0.00    -0.096 A 
ATOM     10  HN1 IND d   1      -0.897  -0.342  -1.312  0.00  0.00     0.298 HD
ENDROOT
TORSDOF 0
ENDMDL
