MODEL 1
REMARK minimizedAffinity -0.481180876
REMARK minimizedRMSD -1
REMARK  0 active torsions:
REMARK  status: ('A' for Active; 'I' for Inactive)
ROOT
ATOM      1  N1  IND d   1       0.110  -1.976   1.901  0.00  0.00    -0.196 N 
ATOM      2  C2  IND d   1      -1.141  -2.495   2.087  0.00  0.00     0.054 A 
ATOM      3  C3  IND d   1      -2.020  -1.917   1.239  0.00  0.00    -0.031 A 
ATOM      4  C4  IND d   1      -1.607  -0.171  -0.608  0.00  0.00     0.051 A 
ATOM      5  C5  IND d   1      -0.633   0.631  -1.133  0.00  0.00    -0.031 A 
ATOM      6  C6  IND d   1       0.666   0.602  -0.667  0.00  0.00     0.015 A 
ATOM      7  C7  IND d   1       1.043  -0.241   0.340  0.00  0.00    -0.016 A 
ATOM      8  C8  IND d   1       0.055  -1.052   0.881  0.00  0.00    -0.047 A 
ATOM      9  C9  IND d   1      -1.274  -0.997   0.440  0.00  0.00    -0.096 A 
ATOM     10  HN1 IND d   1       0.814  -2.191   2.346  0.00  0.00     0.298 HD
ENDROOT
TORSDOF 0
ENDMDL
