MODEL 1
REMARK minimizedAffinity -4.43649101
REMARK minimizedRMSD -1
REMARK  0 active torsions:
REMARK  status: ('A' for Active; 'I' for Inactive)
ROOT
ATOM      1  C   UNL d   1       0.485  -0.507  -1.431  0.00  0.00     0.078 C 
ATOM      2  C1  UNL d   1      -0.135  -0.059  -0.141  0.00  0.00    -0.077 A 
ATOM      3  C2  UNL d   1      -1.484  -0.312   0.138  0.00  0.00    -0.001 A 
ATOM      4  C3  UNL d   1      -2.050   0.119   1.339  0.00  0.00     0.003 A 
ATOM      5  C4  UNL d   1      -1.274   0.807   2.270  0.00  0.00    -0.005 A 
ATOM      6  C5  UNL d   1       0.068   1.066   2.000  0.00  0.00     0.003 A 
ATOM      7  C6  UNL d   1       0.636   0.635   0.800  0.00  0.00    -0.001 A 
ENDROOT
TORSDOF 0
ENDMDL
