MODEL 1
REMARK minimizedAffinity -5.1096673
REMARK minimizedRMSD -1
REMARK  0 active torsions:
REMARK  status: ('A' for Active; 'I' for Inactive)
ROOT
ATOM      1  C   UNL d   1       0.501  -0.161  -1.009  0.00  0.00     0.078 C 
ATOM      2  C1  UNL d   1       0.354   0.030   0.471  0.00  0.00    -0.077 A 
ATOM      3  C2  UNL d   1       1.351  -0.398   1.356  0.00  0.00    -0.001 A 
ATOM      4  C3  UNL d   1       1.197  -0.222   2.732  0.00  0.00     0.003 A 
ATOM      5  C4  UNL d   1       0.046   0.381   3.235  0.00  0.00    -0.005 A 
ATOM      6  C5  UNL d   1      -0.953   0.808   2.363  0.00  0.00     0.003 A 
ATOM      7  C6  UNL d   1      -0.800   0.633   0.986  0.00  0.00    -0.001 A 
ENDROOT
TORSDOF 0
ENDMDL
