MODEL 1
REMARK minimizedAffinity -4.69617367
REMARK minimizedRMSD -1
REMARK  0 active torsions:
REMARK  status: ('A' for Active; 'I' for Inactive)
ROOT
ATOM      1  C   UNL d   1       0.666   0.136  -0.925  0.00  0.00     0.078 C 
ATOM      2  C1  UNL d   1       0.086   0.423   0.428  0.00  0.00    -0.077 A 
ATOM      3  C2  UNL d   1      -1.239   0.088   0.731  0.00  0.00    -0.001 A 
ATOM      4  C3  UNL d   1      -1.768   0.371   1.992  0.00  0.00     0.003 A 
ATOM      5  C4  UNL d   1      -0.979   0.990   2.959  0.00  0.00    -0.005 A 
ATOM      6  C5  UNL d   1       0.340   1.329   2.666  0.00  0.00     0.003 A 
ATOM      7  C6  UNL d   1       0.871   1.048   1.406  0.00  0.00    -0.001 A 
ENDROOT
TORSDOF 0
ENDMDL
