MODEL 1
REMARK minimizedAffinity -4.19296598
REMARK minimizedRMSD -1
REMARK  0 active torsions:
REMARK  status: ('A' for Active; 'I' for Inactive)
ROOT
ATOM      1  C   UNL d   1       0.741  -0.466  -0.763  0.00  0.00     0.078 C 
ATOM      2  C1  UNL d   1       0.064   0.017   0.485  0.00  0.00    -0.077 A 
ATOM      3  C2  UNL d   1       0.801   0.298   1.642  0.00  0.00    -0.001 A 
ATOM      4  C3  UNL d   1       0.157   0.737   2.800  0.00  0.00     0.003 A 
ATOM      5  C4  UNL d   1      -1.228   0.897   2.813  0.00  0.00    -0.005 A 
ATOM      6  C5  UNL d   1      -1.969   0.617   1.667  0.00  0.00     0.003 A 
ATOM      7  C6  UNL d   1      -1.327   0.178   0.508  0.00  0.00    -0.001 A 
ENDROOT
TORSDOF 0
ENDMDL
