MODEL 1
REMARK minimizedAffinity -4.76277733
REMARK minimizedRMSD -1
REMARK  0 active torsions:
REMARK  status: ('A' for Active; 'I' for Inactive)
ROOT
ATOM      1  C   UNL d   1       0.090  -1.042  -0.814  0.00  0.00     0.078 C 
ATOM      2  C1  UNL d   1      -0.079  -0.158   0.385  0.00  0.00    -0.077 A 
ATOM      3  C2  UNL d   1       1.021   0.211   1.169  0.00  0.00    -0.001 A 
ATOM      4  C3  UNL d   1       0.849   1.026   2.289  0.00  0.00     0.003 A 
ATOM      5  C4  UNL d   1      -0.423   1.479   2.635  0.00  0.00    -0.005 A 
ATOM      6  C5  UNL d   1      -1.524   1.116   1.862  0.00  0.00     0.003 A 
ATOM      7  C6  UNL d   1      -1.353   0.300   0.742  0.00  0.00    -0.001 A 
ENDROOT
TORSDOF 0
ENDMDL
