MODEL 1
REMARK minimizedAffinity -1.81673193
REMARK minimizedRMSD -1
REMARK  0 active torsions:
REMARK  status: ('A' for Active; 'I' for Inactive)
ROOT
ATOM      1  C   UNL d   1       0.169  -0.750  -1.681  0.00  0.00     0.078 C 
ATOM      2  C1  UNL d   1      -0.161  -0.490  -0.241  0.00  0.00    -0.077 A 
ATOM      3  C2  UNL d   1      -1.409   0.024   0.132  0.00  0.00    -0.001 A 
ATOM      4  C3  UNL d   1      -1.698   0.271   1.475  0.00  0.00     0.003 A 
ATOM      5  C4  UNL d   1      -0.744   0.007   2.456  0.00  0.00    -0.005 A 
ATOM      6  C5  UNL d   1       0.501  -0.503   2.094  0.00  0.00     0.003 A 
ATOM      7  C6  UNL d   1       0.792  -0.750   0.752  0.00  0.00    -0.001 A 
ENDROOT
TORSDOF 0
ENDMDL
