MODEL 1
REMARK minimizedAffinity -2.75858974
REMARK minimizedRMSD -1
REMARK  0 active torsions:
REMARK  status: ('A' for Active; 'I' for Inactive)
ROOT
ATOM      1  C   UNL d   1      -2.157  -0.066  -5.090  0.00  0.00     0.078 C 
ATOM      2  C1  UNL d   1      -0.839   0.045  -4.382  0.00  0.00    -0.077 A 
ATOM      3  C2  UNL d   1       0.124   0.974  -4.792  0.00  0.00    -0.001 A 
ATOM      4  C3  UNL d   1       1.350   1.060  -4.130  0.00  0.00     0.003 A 
ATOM      5  C4  UNL d   1       1.624   0.218  -3.054  0.00  0.00    -0.005 A 
ATOM      6  C5  UNL d   1       0.672  -0.711  -2.639  0.00  0.00     0.003 A 
ATOM      7  C6  UNL d   1      -0.554  -0.798  -3.300  0.00  0.00    -0.001 A 
ENDROOT
TORSDOF 0
ENDMDL
