MODEL 1
REMARK minimizedAffinity -3.78487706
REMARK minimizedRMSD -1
REMARK  0 active torsions:
REMARK  status: ('A' for Active; 'I' for Inactive)
ROOT
ATOM      1  C   UNL d   1       2.338  -1.210   1.097  0.00  0.00     0.078 C 
ATOM      2  C1  UNL d   1       1.178  -0.324   1.441  0.00  0.00    -0.077 A 
ATOM      3  C2  UNL d   1       1.371   1.026   1.760  0.00  0.00    -0.001 A 
ATOM      4  C3  UNL d   1       0.283   1.836   2.088  0.00  0.00     0.003 A 
ATOM      5  C4  UNL d   1      -1.005   1.305   2.102  0.00  0.00    -0.005 A 
ATOM      6  C5  UNL d   1      -1.207  -0.037   1.789  0.00  0.00     0.003 A 
ATOM      7  C6  UNL d   1      -0.120  -0.849   1.460  0.00  0.00    -0.001 A 
ENDROOT
TORSDOF 0
ENDMDL
