MODEL 1
REMARK minimizedAffinity -3.45978975
REMARK minimizedRMSD -1
REMARK  0 active torsions:
REMARK  status: ('A' for Active; 'I' for Inactive)
ROOT
ATOM      1  C   UNL d   1       0.793  -0.080   1.266  0.00  0.00     0.078 C 
ATOM      2  C1  UNL d   1       0.566   0.031   2.744  0.00  0.00    -0.077 A 
ATOM      3  C2  UNL d   1       1.168  -0.866   3.635  0.00  0.00    -0.001 A 
ATOM      4  C3  UNL d   1       0.939  -0.758   5.008  0.00  0.00     0.003 A 
ATOM      5  C4  UNL d   1       0.107   0.245   5.501  0.00  0.00    -0.005 A 
ATOM      6  C5  UNL d   1      -0.499   1.141   4.622  0.00  0.00     0.003 A 
ATOM      7  C6  UNL d   1      -0.271   1.034   3.249  0.00  0.00    -0.001 A 
ENDROOT
TORSDOF 0
ENDMDL
