MODEL 1
REMARK minimizedAffinity 15.4204988
REMARK minimizedRMSD -1
REMARK  2 active torsions:
REMARK  status: ('A' for Active; 'I' for Inactive)
REMARK    1  A    between atoms: C2'_3  and  C1'_4 
REMARK    2  A    between atoms: C1'_4  and  C1_5 
ROOT
ATOM      1  C1  I4B d   1      -1.105  -0.500   2.288  0.00  0.00    -0.075 A 
ATOM      2  C2  I4B d   1      -0.103   0.302   2.775  0.00  0.00     0.003 A 
ATOM      3  C3  I4B d   1       1.251  -0.093   2.650  0.00  0.00     0.002 A 
ATOM      4  C4  I4B d   1       1.553  -1.314   2.081  0.00  0.00    -0.004 A 
ATOM      5  C5  I4B d   1       0.537  -2.116   1.568  0.00  0.00     0.002 A 
ATOM      6  C6  I4B d   1      -0.799  -1.701   1.661  0.00  0.00     0.003 A 
ENDROOT
BRANCH   1   7
ATOM      7  C1' I4B d   1      -2.526  -0.067   2.466  0.00  0.00     0.060 C 
BRANCH   7   8
ATOM      8  C2' I4B d   1      -2.967   0.621   1.190  0.00  0.00    -0.013 C 
ATOM      9  C4' I4B d   1      -4.105  -0.119   0.537  0.00  0.00     0.013 C 
ATOM     10  C3' I4B d   1      -3.362   2.026   1.535  0.00  0.00     0.013 C 
ENDBRANCH   7   8
ENDBRANCH   1   7
TORSDOF 2
ENDMDL
