MODEL 1
REMARK minimizedAffinity 6.71174765
REMARK minimizedRMSD -1
REMARK  2 active torsions:
REMARK  status: ('A' for Active; 'I' for Inactive)
REMARK    1  A    between atoms: C2'_3  and  C1'_4 
REMARK    2  A    between atoms: C1'_4  and  C1_5 
ROOT
ATOM      1  C1  I4B d   1       1.369  -0.079   1.737  0.00  0.00    -0.075 A 
ATOM      2  C2  I4B d   1       0.347   0.588   2.363  0.00  0.00     0.003 A 
ATOM      3  C3  I4B d   1      -0.884  -0.065   2.613  0.00  0.00     0.002 A 
ATOM      4  C4  I4B d   1      -1.065  -1.362   2.178  0.00  0.00    -0.004 A 
ATOM      5  C5  I4B d   1      -0.019  -2.045   1.564  0.00  0.00     0.002 A 
ATOM      6  C6  I4B d   1       1.210  -1.404   1.352  0.00  0.00     0.003 A 
ENDROOT
BRANCH   1   7
ATOM      7  C1' I4B d   1       2.644   0.652   1.459  0.00  0.00     0.060 C 
BRANCH   7   8
ATOM      8  C2' I4B d   1       2.359   1.704   0.406  0.00  0.00    -0.013 C 
ATOM      9  C4' I4B d   1       3.424   2.769   0.397  0.00  0.00     0.013 C 
ATOM     10  C3' I4B d   1       2.271   1.015  -0.924  0.00  0.00     0.013 C 
ENDBRANCH   7   8
ENDBRANCH   1   7
TORSDOF 2
ENDMDL
