MODEL 1
REMARK minimizedAffinity 6.37149715
REMARK minimizedRMSD -1
REMARK  2 active torsions:
REMARK  status: ('A' for Active; 'I' for Inactive)
REMARK    1  A    between atoms: C2'_3  and  C1'_4 
REMARK    2  A    between atoms: C1'_4  and  C1_5 
ROOT
ATOM      1  C1  I4B d   1      -2.014  -2.588   1.950  0.00  0.00    -0.075 A 
ATOM      2  C2  I4B d   1      -2.239  -1.557   1.073  0.00  0.00     0.003 A 
ATOM      3  C3  I4B d   1      -1.690  -1.599  -0.232  0.00  0.00     0.002 A 
ATOM      4  C4  I4B d   1      -0.886  -2.659  -0.597  0.00  0.00    -0.004 A 
ATOM      5  C5  I4B d   1      -0.677  -3.714   0.286  0.00  0.00     0.002 A 
ATOM      6  C6  I4B d   1      -1.255  -3.685   1.564  0.00  0.00     0.003 A 
ENDROOT
BRANCH   1   7
ATOM      7  C1' I4B d   1      -2.581  -2.497   3.331  0.00  0.00     0.060 C 
BRANCH   7   8
ATOM      8  C2' I4B d   1      -1.631  -1.669   4.173  0.00  0.00    -0.013 C 
ATOM      9  C4' I4B d   1      -2.351  -0.536   4.854  0.00  0.00     0.013 C 
ATOM     10  C3' I4B d   1      -0.987  -2.581   5.174  0.00  0.00     0.013 C 
ENDBRANCH   7   8
ENDBRANCH   1   7
TORSDOF 2
ENDMDL
