MODEL 1
REMARK minimizedAffinity 2.75911546
REMARK minimizedRMSD -1
REMARK  2 active torsions:
REMARK  status: ('A' for Active; 'I' for Inactive)
REMARK    1  A    between atoms: C2'_3  and  C1'_4 
REMARK    2  A    between atoms: C1'_4  and  C1_5 
ROOT
ATOM      1  C1  I4B d   1      -5.067   5.502   0.275  0.00  0.00    -0.075 A 
ATOM      2  C2  I4B d   1      -5.452   5.997  -0.947  0.00  0.00     0.003 A 
ATOM      3  C3  I4B d   1      -4.588   5.890  -2.063  0.00  0.00     0.002 A 
ATOM      4  C4  I4B d   1      -3.336   5.331  -1.903  0.00  0.00    -0.004 A 
ATOM      5  C5  I4B d   1      -2.957   4.810  -0.669  0.00  0.00     0.002 A 
ATOM      6  C6  I4B d   1      -3.832   4.885   0.424  0.00  0.00     0.003 A 
ENDROOT
BRANCH   1   7
ATOM      7  C1' I4B d   1      -5.991   5.662   1.440  0.00  0.00     0.060 C 
BRANCH   7   8
ATOM      8  C2' I4B d   1      -5.247   5.234   2.688  0.00  0.00    -0.013 C 
ATOM      9  C4' I4B d   1      -5.842   5.862   3.921  0.00  0.00     0.013 C 
ATOM     10  C3' I4B d   1      -5.295   3.737   2.766  0.00  0.00     0.013 C 
ENDBRANCH   7   8
ENDBRANCH   1   7
TORSDOF 2
ENDMDL
