MODEL 1
REMARK minimizedAffinity 18.4377499
REMARK minimizedRMSD -1
REMARK  2 active torsions:
REMARK  status: ('A' for Active; 'I' for Inactive)
REMARK    1  A    between atoms: C2'_3  and  C1'_4 
REMARK    2  A    between atoms: C1'_4  and  C1_5 
ROOT
ATOM      1  C1  I4B d   1       4.779   4.922   2.827  0.00  0.00    -0.075 A 
ATOM      2  C2  I4B d   1       5.331   5.689   1.831  0.00  0.00     0.003 A 
ATOM      3  C3  I4B d   1       5.232   5.279   0.479  0.00  0.00     0.002 A 
ATOM      4  C4  I4B d   1       4.621   4.080   0.175  0.00  0.00    -0.004 A 
ATOM      5  C5  I4B d   1       4.042   3.316   1.184  0.00  0.00     0.002 A 
ATOM      6  C6  I4B d   1       4.110   3.745   2.517  0.00  0.00     0.003 A 
ENDROOT
BRANCH   1   7
ATOM      7  C1' I4B d   1       4.930   5.368   4.247  0.00  0.00     0.060 C 
BRANCH   7   8
ATOM      8  C2' I4B d   1       4.443   4.247   5.143  0.00  0.00    -0.013 C 
ATOM      9  C4' I4B d   1       5.559   3.710   6.000  0.00  0.00     0.013 C 
ATOM     10  C3' I4B d   1       3.322   4.781   5.984  0.00  0.00     0.013 C 
ENDBRANCH   7   8
ENDBRANCH   1   7
TORSDOF 2
ENDMDL
