MODEL 1
REMARK minimizedAffinity 15.4967022
REMARK minimizedRMSD -1
REMARK  2 active torsions:
REMARK  status: ('A' for Active; 'I' for Inactive)
REMARK    1  A    between atoms: C2'_3  and  C1'_4 
REMARK    2  A    between atoms: C1'_4  and  C1_5 
ROOT
ATOM      1  C1  I4B d   1       3.566   1.489  -1.301  0.00  0.00    -0.075 A 
ATOM      2  C2  I4B d   1       4.533   1.518  -2.275  0.00  0.00     0.003 A 
ATOM      3  C3  I4B d   1       4.748   0.387  -3.100  0.00  0.00     0.002 A 
ATOM      4  C4  I4B d   1       4.013  -0.760  -2.886  0.00  0.00    -0.004 A 
ATOM      5  C5  I4B d   1       3.017  -0.780  -1.913  0.00  0.00     0.002 A 
ATOM      6  C6  I4B d   1       2.784   0.355  -1.124  0.00  0.00     0.003 A 
ENDROOT
BRANCH   1   7
ATOM      7  C1' I4B d   1       3.389   2.688  -0.426  0.00  0.00     0.060 C 
BRANCH   7   8
ATOM      8  C2' I4B d   1       4.749   3.075   0.117  0.00  0.00    -0.013 C 
ATOM      9  C4' I4B d   1       4.953   4.567   0.066  0.00  0.00     0.013 C 
ATOM     10  C3' I4B d   1       4.850   2.563   1.523  0.00  0.00     0.013 C 
ENDBRANCH   7   8
ENDBRANCH   1   7
TORSDOF 2
ENDMDL
