MODEL 1
REMARK minimizedAffinity 10.4724445
REMARK minimizedRMSD -1
REMARK  2 active torsions:
REMARK  status: ('A' for Active; 'I' for Inactive)
REMARK    1  A    between atoms: C2'_3  and  C1'_4 
REMARK    2  A    between atoms: C1'_4  and  C1_5 
ROOT
ATOM      1  C1  I4B d   1      -4.011   3.684  -5.275  0.00  0.00    -0.075 A 
ATOM      2  C2  I4B d   1      -3.363   4.481  -4.365  0.00  0.00     0.003 A 
ATOM      3  C3  I4B d   1      -4.000   5.634  -3.846  0.00  0.00     0.002 A 
ATOM      4  C4  I4B d   1      -5.257   5.978  -4.300  0.00  0.00    -0.004 A 
ATOM      5  C5  I4B d   1      -5.922   5.156  -5.206  0.00  0.00     0.002 A 
ATOM      6  C6  I4B d   1      -5.300   3.995  -5.687  0.00  0.00     0.003 A 
ENDROOT
BRANCH   1   7
ATOM      7  C1' I4B d   1      -3.295   2.491  -5.826  0.00  0.00     0.060 C 
BRANCH   7   8
ATOM      8  C2' I4B d   1      -2.134   2.177  -4.906  0.00  0.00    -0.013 C 
ATOM      9  C4' I4B d   1      -1.206   3.356  -4.777  0.00  0.00     0.013 C 
ATOM     10  C3' I4B d   1      -2.694   1.780  -3.573  0.00  0.00     0.013 C 
ENDBRANCH   7   8
ENDBRANCH   1   7
TORSDOF 2
ENDMDL
