MODEL 1
REMARK minimizedAffinity 16.4421406
REMARK minimizedRMSD -1
REMARK  2 active torsions:
REMARK  status: ('A' for Active; 'I' for Inactive)
REMARK    1  A    between atoms: C2'_3  and  C1'_4 
REMARK    2  A    between atoms: C1'_4  and  C1_5 
ROOT
ATOM      1  C1  I4B d   1       5.021   3.124   1.423  0.00  0.00    -0.075 A 
ATOM      2  C2  I4B d   1       5.486   2.455   0.318  0.00  0.00     0.003 A 
ATOM      3  C3  I4B d   1       5.978   3.176  -0.797  0.00  0.00     0.002 A 
ATOM      4  C4  I4B d   1       5.940   4.555  -0.785  0.00  0.00    -0.004 A 
ATOM      5  C5  I4B d   1       5.490   5.232   0.345  0.00  0.00     0.002 A 
ATOM      6  C6  I4B d   1       5.039   4.513   1.461  0.00  0.00     0.003 A 
ENDROOT
BRANCH   1   7
ATOM      7  C1' I4B d   1       4.478   2.332   2.570  0.00  0.00     0.060 C 
BRANCH   7   8
ATOM      8  C2' I4B d   1       5.558   2.244   3.629  0.00  0.00    -0.013 C 
ATOM      9  C4' I4B d   1       5.065   2.758   4.955  0.00  0.00     0.013 C 
ATOM     10  C3' I4B d   1       5.991   0.811   3.730  0.00  0.00     0.013 C 
ENDBRANCH   7   8
ENDBRANCH   1   7
TORSDOF 2
ENDMDL
