MODEL 1
REMARK minimizedAffinity 18.6196899
REMARK minimizedRMSD -1
REMARK  2 active torsions:
REMARK  status: ('A' for Active; 'I' for Inactive)
REMARK    1  A    between atoms: C2'_3  and  C1'_4 
REMARK    2  A    between atoms: C1'_4  and  C1_5 
ROOT
ATOM      1  C1  I4B d   1      -1.100  -1.233  -0.461  0.00  0.00    -0.075 A 
ATOM      2  C2  I4B d   1       0.073  -0.546  -0.273  0.00  0.00     0.003 A 
ATOM      3  C3  I4B d   1       0.794  -0.050  -1.385  0.00  0.00     0.002 A 
ATOM      4  C4  I4B d   1       0.336  -0.306  -2.661  0.00  0.00    -0.004 A 
ATOM      5  C5  I4B d   1      -0.866  -0.983  -2.849  0.00  0.00     0.002 A 
ATOM      6  C6  I4B d   1      -1.595  -1.439  -1.742  0.00  0.00     0.003 A 
ENDROOT
BRANCH   1   7
ATOM      7  C1' I4B d   1      -1.820  -1.772   0.735  0.00  0.00     0.060 C 
BRANCH   7   8
ATOM      8  C2' I4B d   1      -0.891  -2.737   1.443  0.00  0.00    -0.013 C 
ATOM      9  C4' I4B d   1      -1.137  -2.740   2.929  0.00  0.00     0.013 C 
ATOM     10  C3' I4B d   1      -1.106  -4.101   0.856  0.00  0.00     0.013 C 
ENDBRANCH   7   8
ENDBRANCH   1   7
TORSDOF 2
ENDMDL
