MODEL 1
REMARK minimizedAffinity 15.9383516
REMARK minimizedRMSD -1
REMARK  2 active torsions:
REMARK  status: ('A' for Active; 'I' for Inactive)
REMARK    1  A    between atoms: C2'_3  and  C1'_4 
REMARK    2  A    between atoms: C1'_4  and  C1_5 
ROOT
ATOM      1  C1  I4B d   1      -2.155  -1.276  -1.432  0.00  0.00    -0.075 A 
ATOM      2  C2  I4B d   1      -1.120  -2.128  -1.136  0.00  0.00     0.003 A 
ATOM      3  C3  I4B d   1      -0.820  -2.444   0.211  0.00  0.00     0.002 A 
ATOM      4  C4  I4B d   1      -1.543  -1.851   1.226  0.00  0.00    -0.004 A 
ATOM      5  C5  I4B d   1      -2.607  -1.006   0.923  0.00  0.00     0.002 A 
ATOM      6  C6  I4B d   1      -2.923  -0.726  -0.414  0.00  0.00     0.003 A 
ENDROOT
BRANCH   1   7
ATOM      7  C1' I4B d   1      -2.423  -0.938  -2.864  0.00  0.00     0.060 C 
BRANCH   7   8
ATOM      8  C2' I4B d   1      -1.806  -2.023  -3.723  0.00  0.00    -0.013 C 
ATOM      9  C4' I4B d   1      -2.817  -2.603  -4.678  0.00  0.00     0.013 C 
ATOM     10  C3' I4B d   1      -0.645  -1.426  -4.461  0.00  0.00     0.013 C 
ENDBRANCH   7   8
ENDBRANCH   1   7
TORSDOF 2
ENDMDL
