MODEL 1
REMARK minimizedAffinity 14.1506987
REMARK minimizedRMSD -1
REMARK  2 active torsions:
REMARK  status: ('A' for Active; 'I' for Inactive)
REMARK    1  A    between atoms: C2'_3  and  C1'_4 
REMARK    2  A    between atoms: C1'_4  and  C1_5 
ROOT
ATOM      1  C1  I4B d   1      -2.609  -0.764   5.941  0.00  0.00    -0.075 A 
ATOM      2  C2  I4B d   1      -1.357  -1.322   5.882  0.00  0.00     0.003 A 
ATOM      3  C3  I4B d   1      -1.203  -2.730   5.865  0.00  0.00     0.002 A 
ATOM      4  C4  I4B d   1      -2.319  -3.536   5.959  0.00  0.00    -0.004 A 
ATOM      5  C5  I4B d   1      -3.590  -2.969   5.995  0.00  0.00     0.002 A 
ATOM      6  C6  I4B d   1      -3.737  -1.574   5.974  0.00  0.00     0.003 A 
ENDROOT
BRANCH   1   7
ATOM      7  C1' I4B d   1      -2.733   0.726   5.990  0.00  0.00     0.060 C 
BRANCH   7   8
ATOM      8  C2' I4B d   1      -3.851   1.133   5.052  0.00  0.00    -0.013 C 
ATOM      9  C4' I4B d   1      -4.529   2.391   5.525  0.00  0.00     0.013 C 
ATOM     10  C3' I4B d   1      -3.263   1.316   3.684  0.00  0.00     0.013 C 
ENDBRANCH   7   8
ENDBRANCH   1   7
TORSDOF 2
ENDMDL
