MODEL 1
REMARK minimizedAffinity -2.06060028
REMARK minimizedRMSD -1
REMARK  0 active torsions:
REMARK  status: ('A' for Active; 'I' for Inactive)
ROOT
ATOM      1  C2' OXE d   1       2.022   3.674   0.494  0.00  0.00     0.078 C 
ATOM      2  C1' OXE d   1       2.831   1.717   2.336  0.00  0.00     0.078 C 
ATOM      3  C1  OXE d   1       1.856   1.310   1.260  0.00  0.00    -0.078 A 
ATOM      4  C2  OXE d   1       1.429   2.286   0.391  0.00  0.00    -0.078 A 
ATOM      5  C3  OXE d   1       0.572   1.952  -0.653  0.00  0.00     0.003 A 
ATOM      6  C4  OXE d   1       0.021   0.667  -0.735  0.00  0.00    -0.002 A 
ATOM      7  C5  OXE d   1       0.411  -0.331   0.163  0.00  0.00    -0.002 A 
ATOM      8  C6  OXE d   1       1.358  -0.038   1.138  0.00  0.00     0.003 A 
ENDROOT
TORSDOF 0
ENDMDL
