MODEL 1
REMARK minimizedAffinity -5.42815161
REMARK minimizedRMSD -1
REMARK  0 active torsions:
REMARK  status: ('A' for Active; 'I' for Inactive)
ROOT
ATOM      1  C2' OXE d   1      -1.094   0.602  -1.693  0.00  0.00     0.078 C 
ATOM      2  C1' OXE d   1       0.786  -0.036   0.292  0.00  0.00     0.078 C 
ATOM      3  C1  OXE d   1      -0.485  -0.846   0.240  0.00  0.00    -0.078 A 
ATOM      4  C2  OXE d   1      -1.419  -0.497  -0.705  0.00  0.00    -0.078 A 
ATOM      5  C3  OXE d   1      -2.585  -1.246  -0.831  0.00  0.00     0.003 A 
ATOM      6  C4  OXE d   1      -2.884  -2.254   0.093  0.00  0.00    -0.002 A 
ATOM      7  C5  OXE d   1      -1.963  -2.600   1.088  0.00  0.00    -0.002 A 
ATOM      8  C6  OXE d   1      -0.743  -1.936   1.148  0.00  0.00     0.003 A 
ENDROOT
TORSDOF 0
ENDMDL
