MODEL 1
REMARK minimizedAffinity -4.97385311
REMARK minimizedRMSD -1
REMARK  0 active torsions:
REMARK  status: ('A' for Active; 'I' for Inactive)
ROOT
ATOM      1  C2' OXE d   1      -1.116   0.837  -1.822  0.00  0.00     0.078 C 
ATOM      2  C1' OXE d   1       0.957   0.493   0.039  0.00  0.00     0.078 C 
ATOM      3  C1  OXE d   1      -0.159  -0.521   0.035  0.00  0.00    -0.078 A 
ATOM      4  C2  OXE d   1      -1.193  -0.319  -0.847  0.00  0.00    -0.078 A 
ATOM      5  C3  OXE d   1      -2.221  -1.254  -0.930  0.00  0.00     0.003 A 
ATOM      6  C4  OXE d   1      -2.290  -2.314  -0.018  0.00  0.00    -0.002 A 
ATOM      7  C5  OXE d   1      -1.268  -2.515   0.915  0.00  0.00    -0.002 A 
ATOM      8  C6  OXE d   1      -0.176  -1.654   0.926  0.00  0.00     0.003 A 
ENDROOT
TORSDOF 0
ENDMDL
