MODEL 1
REMARK minimizedAffinity -4.63310766
REMARK minimizedRMSD -1
REMARK  0 active torsions:
REMARK  status: ('A' for Active; 'I' for Inactive)
ROOT
ATOM      1  C2' OXE d   1      -0.940   1.006  -1.585  0.00  0.00     0.078 C 
ATOM      2  C1' OXE d   1       1.170   0.669   0.235  0.00  0.00     0.078 C 
ATOM      3  C1  OXE d   1       0.062  -0.354   0.246  0.00  0.00    -0.078 A 
ATOM      4  C2  OXE d   1      -0.990  -0.156  -0.616  0.00  0.00    -0.078 A 
ATOM      5  C3  OXE d   1      -2.011  -1.099  -0.686  0.00  0.00     0.003 A 
ATOM      6  C4  OXE d   1      -2.054  -2.165   0.221  0.00  0.00    -0.002 A 
ATOM      7  C5  OXE d   1      -1.013  -2.363   1.134  0.00  0.00    -0.002 A 
ATOM      8  C6  OXE d   1       0.071  -1.493   1.130  0.00  0.00     0.003 A 
ENDROOT
TORSDOF 0
ENDMDL
