MODEL 1
REMARK minimizedAffinity -2.98156142
REMARK minimizedRMSD -1
REMARK  0 active torsions:
REMARK  status: ('A' for Active; 'I' for Inactive)
ROOT
ATOM      1  C2' OXE d   1       1.448  -0.560   0.700  0.00  0.00     0.078 C 
ATOM      2  C1' OXE d   1      -0.636  -2.372   1.207  0.00  0.00     0.078 C 
ATOM      3  C1  OXE d   1      -0.849  -1.338   0.130  0.00  0.00    -0.078 A 
ATOM      4  C2  OXE d   1       0.157  -0.426  -0.079  0.00  0.00    -0.078 A 
ATOM      5  C3  OXE d   1       0.034   0.516  -1.097  0.00  0.00     0.003 A 
ATOM      6  C4  OXE d   1      -1.167   0.640  -1.806  0.00  0.00    -0.002 A 
ATOM      7  C5  OXE d   1      -2.220  -0.254  -1.581  0.00  0.00    -0.002 A 
ATOM      8  C6  OXE d   1      -2.061  -1.273  -0.648  0.00  0.00     0.003 A 
ENDROOT
TORSDOF 0
ENDMDL
