MODEL 1
REMARK minimizedAffinity -0.551979601
REMARK minimizedRMSD -1
REMARK  0 active torsions:
REMARK  status: ('A' for Active; 'I' for Inactive)
ROOT
ATOM      1  C2' OXE d   1      -1.955  -1.011  -2.744  0.00  0.00     0.078 C 
ATOM      2  C1' OXE d   1      -2.556  -2.143  -0.247  0.00  0.00     0.078 C 
ATOM      3  C1  OXE d   1      -1.348  -1.245  -0.340  0.00  0.00    -0.078 A 
ATOM      4  C2  OXE d   1      -1.035  -0.733  -1.576  0.00  0.00    -0.078 A 
ATOM      5  C3  OXE d   1       0.038   0.145  -1.706  0.00  0.00     0.003 A 
ATOM      6  C4  OXE d   1       0.890   0.389  -0.623  0.00  0.00    -0.002 A 
ATOM      7  C5  OXE d   1       0.612  -0.154   0.636  0.00  0.00    -0.002 A 
ATOM      8  C6  OXE d   1      -0.525  -0.937   0.804  0.00  0.00     0.003 A 
ENDROOT
TORSDOF 0
ENDMDL
