MODEL 1
REMARK minimizedAffinity -4.14503145
REMARK minimizedRMSD -1
REMARK  0 active torsions:
REMARK  status: ('A' for Active; 'I' for Inactive)
ROOT
ATOM      1  C2' OXE d   1      -2.466  -3.059   0.245  0.00  0.00     0.078 C 
ATOM      2  C1' OXE d   1      -0.174  -2.286   1.669  0.00  0.00     0.078 C 
ATOM      3  C1  OXE d   1      -0.591  -1.438   0.494  0.00  0.00    -0.078 A 
ATOM      4  C2  OXE d   1      -1.687  -1.850  -0.226  0.00  0.00    -0.078 A 
ATOM      5  C3  OXE d   1      -2.147  -1.074  -1.286  0.00  0.00     0.003 A 
ATOM      6  C4  OXE d   1      -1.415   0.037  -1.721  0.00  0.00    -0.002 A 
ATOM      7  C5  OXE d   1      -0.274   0.451  -1.027  0.00  0.00    -0.002 A 
ATOM      8  C6  OXE d   1       0.127  -0.249   0.106  0.00  0.00     0.003 A 
ENDROOT
TORSDOF 0
ENDMDL
