MODEL 1
REMARK minimizedAffinity 1.73049212
REMARK minimizedRMSD -1
REMARK  0 active torsions:
REMARK  status: ('A' for Active; 'I' for Inactive)
ROOT
ATOM      1  C2' OXE d   1      -0.827   0.130  -1.064  0.00  0.00     0.078 C 
ATOM      2  C1' OXE d   1       0.628  -1.121   0.985  0.00  0.00     0.078 C 
ATOM      3  C1  OXE d   1       0.829   0.360   0.783  0.00  0.00    -0.078 A 
ATOM      4  C2  OXE d   1       0.148   0.955  -0.252  0.00  0.00    -0.078 A 
ATOM      5  C3  OXE d   1       0.255   2.329  -0.448  0.00  0.00     0.003 A 
ATOM      6  C4  OXE d   1       1.167   3.083   0.301  0.00  0.00    -0.002 A 
ATOM      7  C5  OXE d   1       1.899   2.489   1.335  0.00  0.00    -0.002 A 
ATOM      8  C6  OXE d   1       1.711   1.140   1.616  0.00  0.00     0.003 A 
ENDROOT
TORSDOF 0
ENDMDL
