MODEL 1
REMARK minimizedAffinity -1.25228345
REMARK minimizedRMSD -1
REMARK  0 active torsions:
REMARK  status: ('A' for Active; 'I' for Inactive)
ROOT
ATOM      1  C2' OXE d   1      -0.290   1.181   1.706  0.00  0.00     0.078 C 
ATOM      2  C1' OXE d   1       1.345  -0.147  -0.150  0.00  0.00     0.078 C 
ATOM      3  C1  OXE d   1       1.791   1.208   0.337  0.00  0.00    -0.078 A 
ATOM      4  C2  OXE d   1       0.962   1.872   1.209  0.00  0.00    -0.078 A 
ATOM      5  C3  OXE d   1       1.353   3.101   1.731  0.00  0.00     0.003 A 
ATOM      6  C4  OXE d   1       2.507   3.738   1.259  0.00  0.00    -0.002 A 
ATOM      7  C5  OXE d   1       3.345   3.097   0.341  0.00  0.00    -0.002 A 
ATOM      8  C6  OXE d   1       3.024   1.817  -0.097  0.00  0.00     0.003 A 
ENDROOT
TORSDOF 0
ENDMDL
