MODEL 1
REMARK minimizedAffinity -2.78852439
REMARK minimizedRMSD -1
REMARK  0 active torsions:
REMARK  status: ('A' for Active; 'I' for Inactive)
ROOT
ATOM      1  C2' OXE d   1       2.316  -0.231  -0.164  0.00  0.00     0.078 C 
ATOM      2  C1' OXE d   1      -0.447   0.257  -0.250  0.00  0.00     0.078 C 
ATOM      3  C1  OXE d   1       0.430   1.294   0.405  0.00  0.00    -0.078 A 
ATOM      4  C2  OXE d   1       1.775   1.026   0.484  0.00  0.00    -0.078 A 
ATOM      5  C3  OXE d   1       2.637   1.974   1.029  0.00  0.00     0.003 A 
ATOM      6  C4  OXE d   1       2.127   3.129   1.635  0.00  0.00    -0.002 A 
ATOM      7  C5  OXE d   1       0.756   3.403   1.601  0.00  0.00    -0.002 A 
ATOM      8  C6  OXE d   1      -0.100   2.518   0.953  0.00  0.00     0.003 A 
ENDROOT
TORSDOF 0
ENDMDL
