MODEL 1
REMARK minimizedAffinity -3.55858636
REMARK minimizedRMSD -1
REMARK  0 active torsions:
REMARK  status: ('A' for Active; 'I' for Inactive)
ROOT
ATOM      1  C2' OXE d   1       1.279   0.172   0.684  0.00  0.00     0.078 C 
ATOM      2  C1' OXE d   1      -0.532   0.998  -1.296  0.00  0.00     0.078 C 
ATOM      3  C1  OXE d   1      -0.959  -0.114  -0.371  0.00  0.00    -0.078 A 
ATOM      4  C2  OXE d   1      -0.049  -0.544   0.565  0.00  0.00    -0.078 A 
ATOM      5  C3  OXE d   1      -0.413  -1.529   1.478  0.00  0.00     0.003 A 
ATOM      6  C4  OXE d   1      -1.639  -2.193   1.354  0.00  0.00    -0.002 A 
ATOM      7  C5  OXE d   1      -2.565  -1.798   0.382  0.00  0.00    -0.002 A 
ATOM      8  C6  OXE d   1      -2.258  -0.734  -0.459  0.00  0.00     0.003 A 
ENDROOT
TORSDOF 0
ENDMDL
