MODEL 1
REMARK minimizedAffinity 0.0431371368
REMARK minimizedRMSD -1
REMARK  0 active torsions:
REMARK  status: ('A' for Active; 'I' for Inactive)
ROOT
ATOM      1  C2' OXE d   1       1.669   0.527   0.204  0.00  0.00     0.078 C 
ATOM      2  C1' OXE d   1      -0.248  -1.305   1.123  0.00  0.00     0.078 C 
ATOM      3  C1  OXE d   1      -0.612  -0.438  -0.057  0.00  0.00    -0.078 A 
ATOM      4  C2  OXE d   1       0.315   0.488  -0.470  0.00  0.00    -0.078 A 
ATOM      5  C3  OXE d   1       0.051   1.275  -1.587  0.00  0.00     0.003 A 
ATOM      6  C4  OXE d   1      -1.208   1.240  -2.199  0.00  0.00    -0.002 A 
ATOM      7  C5  OXE d   1      -2.181   0.331  -1.768  0.00  0.00    -0.002 A 
ATOM      8  C6  OXE d   1      -1.884  -0.543  -0.728  0.00  0.00     0.003 A 
ENDROOT
TORSDOF 0
ENDMDL
