MODEL 1
REMARK minimizedAffinity 5.9587698
REMARK minimizedRMSD -1
REMARK  0 active torsions:
REMARK  status: ('A' for Active; 'I' for Inactive)
ROOT
ATOM      1  C2' OXE d   1      -2.740  -0.485  -0.937  0.00  0.00     0.078 C 
ATOM      2  C1' OXE d   1       0.019  -0.507  -0.422  0.00  0.00     0.078 C 
ATOM      3  C1  OXE d   1      -0.830  -1.558   0.248  0.00  0.00    -0.078 A 
ATOM      4  C2  OXE d   1      -2.185  -1.512   0.027  0.00  0.00    -0.078 A 
ATOM      5  C3  OXE d   1      -3.007  -2.491   0.576  0.00  0.00     0.003 A 
ATOM      6  C4  OXE d   1      -2.487  -3.431   1.474  0.00  0.00    -0.002 A 
ATOM      7  C5  OXE d   1      -1.115  -3.471   1.744  0.00  0.00    -0.002 A 
ATOM      8  C6  OXE d   1      -0.269  -2.571   1.108  0.00  0.00     0.003 A 
ENDROOT
TORSDOF 0
ENDMDL
