MODEL 1
REMARK minimizedAffinity -2.82074022
REMARK minimizedRMSD -1
REMARK  0 active torsions:
REMARK  status: ('A' for Active; 'I' for Inactive)
ROOT
ATOM      1  C2' OXE d   1      -0.388  -0.115   1.024  0.00  0.00     0.078 C 
ATOM      2  C1' OXE d   1       1.101  -0.118  -1.356  0.00  0.00     0.078 C 
ATOM      3  C1  OXE d   1       1.533   0.820  -0.257  0.00  0.00    -0.078 A 
ATOM      4  C2  OXE d   1       0.771   0.848   0.886  0.00  0.00    -0.078 A 
ATOM      5  C3  OXE d   1       1.158   1.655   1.953  0.00  0.00     0.003 A 
ATOM      6  C4  OXE d   1       2.225   2.550   1.814  0.00  0.00    -0.002 A 
ATOM      7  C5  OXE d   1       2.990   2.566   0.643  0.00  0.00    -0.002 A 
ATOM      8  C6  OXE d   1       2.685   1.679  -0.383  0.00  0.00     0.003 A 
ENDROOT
TORSDOF 0
ENDMDL
