MODEL 1
REMARK minimizedAffinity -5.90817928
REMARK minimizedRMSD -1
REMARK  0 active torsions:
REMARK  status: ('A' for Active; 'I' for Inactive)
ROOT
ATOM      1  C2' OXE d   1       0.541  -0.598   0.097  0.00  0.00     0.078 C 
ATOM      2  C1' OXE d   1      -0.751  -2.593   1.591  0.00  0.00     0.078 C 
ATOM      3  C1  OXE d   1      -1.576  -1.811   0.599  0.00  0.00    -0.078 A 
ATOM      4  C2  OXE d   1      -0.946  -0.806  -0.094  0.00  0.00    -0.078 A 
ATOM      5  C3  OXE d   1      -1.647  -0.090  -1.060  0.00  0.00     0.003 A 
ATOM      6  C4  OXE d   1      -3.024  -0.282  -1.223  0.00  0.00    -0.002 A 
ATOM      7  C5  OXE d   1      -3.694  -1.274  -0.499  0.00  0.00    -0.002 A 
ATOM      8  C6  OXE d   1      -2.977  -2.075   0.384  0.00  0.00     0.003 A 
ENDROOT
TORSDOF 0
ENDMDL
