MODEL 1
REMARK minimizedAffinity -2.10935068
REMARK minimizedRMSD -1
REMARK  0 active torsions:
REMARK  status: ('A' for Active; 'I' for Inactive)
ROOT
ATOM      1  C2' OXE d   1       0.949  -0.424   0.791  0.00  0.00     0.078 C 
ATOM      2  C1' OXE d   1      -0.690   0.327  -1.360  0.00  0.00     0.078 C 
ATOM      3  C1  OXE d   1      -1.078  -0.901  -0.575  0.00  0.00    -0.078 A 
ATOM      4  C2  OXE d   1      -0.245  -1.288   0.446  0.00  0.00    -0.078 A 
ATOM      5  C3  OXE d   1      -0.585  -2.382   1.236  0.00  0.00     0.003 A 
ATOM      6  C4  OXE d   1      -1.685  -3.182   0.904  0.00  0.00    -0.002 A 
ATOM      7  C5  OXE d   1      -2.525  -2.828  -0.157  0.00  0.00    -0.002 A 
ATOM      8  C6  OXE d   1      -2.260  -1.670  -0.879  0.00  0.00     0.003 A 
ENDROOT
TORSDOF 0
ENDMDL
