MODEL 1
REMARK minimizedAffinity -2.25141311
REMARK minimizedRMSD -1
REMARK  0 active torsions:
REMARK  status: ('A' for Active; 'I' for Inactive)
ROOT
ATOM      1  C2' OXE d   1       2.334  -0.930   1.205  0.00  0.00     0.078 C 
ATOM      2  C1' OXE d   1       0.479   0.157  -0.599  0.00  0.00     0.078 C 
ATOM      3  C1  OXE d   1       1.484   1.093   0.026  0.00  0.00    -0.078 A 
ATOM      4  C2  OXE d   1       2.358   0.561   0.943  0.00  0.00    -0.078 A 
ATOM      5  C3  OXE d   1       3.340   1.369   1.508  0.00  0.00     0.003 A 
ATOM      6  C4  OXE d   1       3.348   2.748   1.268  0.00  0.00    -0.002 A 
ATOM      7  C5  OXE d   1       2.441   3.317   0.367  0.00  0.00    -0.002 A 
ATOM      8  C6  OXE d   1       1.532   2.498  -0.293  0.00  0.00     0.003 A 
ENDROOT
TORSDOF 0
ENDMDL
