MODEL 1
REMARK minimizedAffinity -1.58446872
REMARK minimizedRMSD -1
REMARK  0 active torsions:
REMARK  status: ('A' for Active; 'I' for Inactive)
ROOT
ATOM      1  C2' OXE d   1       0.765   0.069   0.946  0.00  0.00     0.078 C 
ATOM      2  C1' OXE d   1      -1.010   0.533  -1.178  0.00  0.00     0.078 C 
ATOM      3  C1  OXE d   1      -1.237  -0.690  -0.326  0.00  0.00    -0.078 A 
ATOM      4  C2  OXE d   1      -0.337  -0.935   0.682  0.00  0.00    -0.078 A 
ATOM      5  C3  OXE d   1      -0.531  -2.019   1.533  0.00  0.00     0.003 A 
ATOM      6  C4  OXE d   1      -1.547  -2.948   1.276  0.00  0.00    -0.002 A 
ATOM      7  C5  OXE d   1      -2.452  -2.739   0.230  0.00  0.00    -0.002 A 
ATOM      8  C6  OXE d   1      -2.337  -1.595  -0.553  0.00  0.00     0.003 A 
ENDROOT
TORSDOF 0
ENDMDL
