MODEL 1
REMARK minimizedAffinity -4.09074211
REMARK minimizedRMSD -1
REMARK  0 active torsions:
REMARK  status: ('A' for Active; 'I' for Inactive)
ROOT
ATOM      1  C2' OXE d   1      -1.068   0.610  -1.634  0.00  0.00     0.078 C 
ATOM      2  C1' OXE d   1       0.800   0.044   0.384  0.00  0.00     0.078 C 
ATOM      3  C1  OXE d   1      -0.426  -0.830   0.296  0.00  0.00    -0.078 A 
ATOM      4  C2  OXE d   1      -1.357  -0.517  -0.665  0.00  0.00    -0.078 A 
ATOM      5  C3  OXE d   1      -2.480  -1.324  -0.825  0.00  0.00     0.003 A 
ATOM      6  C4  OXE d   1      -2.745  -2.358   0.081  0.00  0.00    -0.002 A 
ATOM      7  C5  OXE d   1      -1.829  -2.668   1.091  0.00  0.00    -0.002 A 
ATOM      8  C6  OXE d   1      -0.646  -1.943   1.186  0.00  0.00     0.003 A 
ENDROOT
TORSDOF 0
ENDMDL
