MODEL 1
REMARK minimizedAffinity -5.3315382
REMARK minimizedRMSD -1
REMARK  1 active torsions:
REMARK  status: ('A' for Active; 'I' for Inactive)
REMARK    1  A    between atoms: C1_2  and  C2_3 
ROOT
ATOM      1  C2  UNL d   1       0.051  -1.519  -1.034  0.00  0.00    -0.073 A 
ATOM      2  C3  UNL d   1       0.313  -0.463  -1.913  0.00  0.00    -0.002 A 
ATOM      3  C4  UNL d   1      -0.032   0.845  -1.566  0.00  0.00     0.004 A 
ATOM      4  C5  UNL d   1      -0.634   1.109  -0.336  0.00  0.00    -0.004 A 
ATOM      5  C6  UNL d   1      -0.893   0.068   0.561  0.00  0.00    -0.075 A 
ATOM      6  C7  UNL d   1      -1.542   0.335   1.887  0.00  0.00     0.076 C 
ATOM      7  C8  UNL d   1      -0.547  -1.243   0.204  0.00  0.00     0.001 A 
ENDROOT
BRANCH   1   8
ATOM      8  C1  UNL d   1       0.426  -2.932  -1.401  0.00  0.00     0.053 C 
ATOM      9  C   UNL d   1      -0.065  -3.938  -0.373  0.00  0.00     0.018 C 
ENDBRANCH   1   8
TORSDOF 1
ENDMDL
