MODEL 1
REMARK minimizedAffinity -4.48856878
REMARK minimizedRMSD -1
REMARK  1 active torsions:
REMARK  status: ('A' for Active; 'I' for Inactive)
REMARK    1  A    between atoms: C1_2  and  C2_3 
ROOT
ATOM      1  C2  UNL d   1       0.209   0.890  -0.340  0.00  0.00    -0.073 A 
ATOM      2  C3  UNL d   1       0.220   1.063  -1.728  0.00  0.00    -0.002 A 
ATOM      3  C4  UNL d   1       0.194  -0.044  -2.577  0.00  0.00     0.004 A 
ATOM      4  C5  UNL d   1       0.149  -1.334  -2.048  0.00  0.00    -0.004 A 
ATOM      5  C6  UNL d   1       0.125  -1.527  -0.663  0.00  0.00    -0.075 A 
ATOM      6  C7  UNL d   1       0.079  -2.908  -0.077  0.00  0.00     0.076 C 
ATOM      7  C8  UNL d   1       0.155  -0.410   0.183  0.00  0.00     0.001 A 
ENDROOT
BRANCH   1   8
ATOM      8  C1  UNL d   1       0.231   2.083   0.581  0.00  0.00     0.053 C 
ATOM      9  C   UNL d   1       1.334   3.064   0.216  0.00  0.00     0.018 C 
ENDBRANCH   1   8
TORSDOF 1
ENDMDL
