MODEL 1
REMARK minimizedAffinity -3.15368366
REMARK minimizedRMSD -1
REMARK  1 active torsions:
REMARK  status: ('A' for Active; 'I' for Inactive)
REMARK    1  A    between atoms: C1_2  and  C2_3 
ROOT
ATOM      1  C2  UNL d   1      -0.311   1.038   0.632  0.00  0.00    -0.073 A 
ATOM      2  C3  UNL d   1      -0.176   1.240  -0.746  0.00  0.00    -0.002 A 
ATOM      3  C4  UNL d   1       0.396   2.415  -1.234  0.00  0.00     0.004 A 
ATOM      4  C5  UNL d   1       0.845   3.397  -0.351  0.00  0.00    -0.004 A 
ATOM      5  C6  UNL d   1       0.729   3.209   1.030  0.00  0.00    -0.075 A 
ATOM      6  C7  UNL d   1       1.204   4.257   1.994  0.00  0.00     0.076 C 
ATOM      7  C8  UNL d   1       0.151   2.027   1.512  0.00  0.00     0.001 A 
ENDROOT
BRANCH   1   8
ATOM      8  C1  UNL d   1      -0.922  -0.232   1.164  0.00  0.00     0.053 C 
ATOM      9  C   UNL d   1      -0.114  -1.460   0.773  0.00  0.00     0.018 C 
ENDBRANCH   1   8
TORSDOF 1
ENDMDL
