MODEL 1
REMARK minimizedAffinity -5.27218628
REMARK minimizedRMSD -1
REMARK  1 active torsions:
REMARK  status: ('A' for Active; 'I' for Inactive)
REMARK    1  A    between atoms: C1_2  and  C2_3 
ROOT
ATOM      1  C2  UNL d   1       0.391   5.257   2.005  0.00  0.00    -0.073 A 
ATOM      2  C3  UNL d   1       1.678   5.779   1.833  0.00  0.00    -0.002 A 
ATOM      3  C4  UNL d   1       2.621   5.092   1.067  0.00  0.00     0.004 A 
ATOM      4  C5  UNL d   1       2.285   3.882   0.460  0.00  0.00    -0.004 A 
ATOM      5  C6  UNL d   1       1.000   3.350   0.611  0.00  0.00    -0.075 A 
ATOM      6  C7  UNL d   1       0.624   2.048  -0.033  0.00  0.00     0.076 C 
ATOM      7  C8  UNL d   1       0.060   4.045   1.384  0.00  0.00     0.001 A 
ENDROOT
BRANCH   1   8
ATOM      8  C1  UNL d   1      -0.633   5.999   2.826  0.00  0.00     0.053 C 
ATOM      9  C   UNL d   1      -2.012   5.958   2.188  0.00  0.00     0.018 C 
ENDBRANCH   1   8
TORSDOF 1
ENDMDL
