MODEL 1
REMARK minimizedAffinity -4.8602953
REMARK minimizedRMSD -1
REMARK  1 active torsions:
REMARK  status: ('A' for Active; 'I' for Inactive)
REMARK    1  A    between atoms: C1_2  and  C2_3 
ROOT
ATOM      1  C2  UNL d   1      -0.020   1.159   0.155  0.00  0.00    -0.073 A 
ATOM      2  C3  UNL d   1      -0.686   0.440   1.154  0.00  0.00    -0.002 A 
ATOM      3  C4  UNL d   1      -0.775  -0.951   1.082  0.00  0.00     0.004 A 
ATOM      4  C5  UNL d   1      -0.194  -1.637   0.015  0.00  0.00    -0.004 A 
ATOM      5  C6  UNL d   1       0.486  -0.937  -0.987  0.00  0.00    -0.075 A 
ATOM      6  C7  UNL d   1       1.114  -1.660  -2.142  0.00  0.00     0.076 C 
ATOM      7  C8  UNL d   1       0.569   0.459  -0.908  0.00  0.00     0.001 A 
ENDROOT
BRANCH   1   8
ATOM      8  C1  UNL d   1       0.085   2.660   0.232  0.00  0.00     0.053 C 
ATOM      9  C   UNL d   1       1.480   3.115   0.628  0.00  0.00     0.018 C 
ENDBRANCH   1   8
TORSDOF 1
ENDMDL
