MODEL 1
REMARK minimizedAffinity -4.38746977
REMARK minimizedRMSD -1
REMARK  1 active torsions:
REMARK  status: ('A' for Active; 'I' for Inactive)
REMARK    1  A    between atoms: C1_2  and  C2_3 
ROOT
ATOM      1  C2  UNL d   1       0.830   1.860  -0.156  0.00  0.00    -0.073 A 
ATOM      2  C3  UNL d   1       2.119   2.027  -0.674  0.00  0.00    -0.002 A 
ATOM      3  C4  UNL d   1       2.871   3.154  -0.342  0.00  0.00     0.004 A 
ATOM      4  C5  UNL d   1       2.346   4.121   0.515  0.00  0.00    -0.004 A 
ATOM      5  C6  UNL d   1       1.064   3.967   1.052  0.00  0.00    -0.075 A 
ATOM      6  C7  UNL d   1       0.484   4.999   1.974  0.00  0.00     0.076 C 
ATOM      7  C8  UNL d   1       0.314   2.833   0.712  0.00  0.00     0.001 A 
ENDROOT
BRANCH   1   8
ATOM      8  C1  UNL d   1       0.016   0.641  -0.506  0.00  0.00     0.053 C 
ATOM      9  C   UNL d   1      -0.804   0.144   0.674  0.00  0.00     0.018 C 
ENDBRANCH   1   8
TORSDOF 1
ENDMDL
