MODEL 1
REMARK minimizedAffinity -4.49101877
REMARK minimizedRMSD -1
REMARK  1 active torsions:
REMARK  status: ('A' for Active; 'I' for Inactive)
REMARK    1  A    between atoms: C1_2  and  C2_3 
ROOT
ATOM      1  C2  UNL d   1       0.206   0.270  -0.016  0.00  0.00    -0.073 A 
ATOM      2  C3  UNL d   1      -0.805   0.651   0.873  0.00  0.00    -0.002 A 
ATOM      3  C4  UNL d   1      -1.455  -0.306   1.653  0.00  0.00     0.004 A 
ATOM      4  C5  UNL d   1      -1.098  -1.651   1.558  0.00  0.00    -0.004 A 
ATOM      5  C6  UNL d   1      -0.082  -2.050   0.683  0.00  0.00    -0.075 A 
ATOM      6  C7  UNL d   1       0.313  -3.493   0.567  0.00  0.00     0.076 C 
ATOM      7  C8  UNL d   1       0.565  -1.083  -0.099  0.00  0.00     0.001 A 
ENDROOT
BRANCH   1   8
ATOM      8  C1  UNL d   1       0.915   1.300  -0.856  0.00  0.00     0.053 C 
ATOM      9  C   UNL d   1       1.384   2.486  -0.027  0.00  0.00     0.018 C 
ENDBRANCH   1   8
TORSDOF 1
ENDMDL
