MODEL 1
REMARK minimizedAffinity -4.46277905
REMARK minimizedRMSD -1
REMARK  1 active torsions:
REMARK  status: ('A' for Active; 'I' for Inactive)
REMARK    1  A    between atoms: C1_2  and  C2_3 
ROOT
ATOM      1  C2  UNL d   1       0.366   0.394   0.283  0.00  0.00    -0.073 A 
ATOM      2  C3  UNL d   1      -0.408   1.124  -0.627  0.00  0.00    -0.002 A 
ATOM      3  C4  UNL d   1      -0.212   2.498  -0.775  0.00  0.00     0.004 A 
ATOM      4  C5  UNL d   1       0.762   3.153  -0.022  0.00  0.00    -0.004 A 
ATOM      5  C6  UNL d   1       1.553   2.439   0.883  0.00  0.00    -0.075 A 
ATOM      6  C7  UNL d   1       2.604   3.130   1.702  0.00  0.00     0.076 C 
ATOM      7  C8  UNL d   1       1.349   1.060   1.028  0.00  0.00     0.001 A 
ENDROOT
BRANCH   1   8
ATOM      8  C1  UNL d   1       0.163  -1.091   0.442  0.00  0.00     0.053 C 
ATOM      9  C   UNL d   1       0.228  -1.821  -0.891  0.00  0.00     0.018 C 
ENDBRANCH   1   8
TORSDOF 1
ENDMDL
