MODEL 1
REMARK minimizedAffinity -5.60689688
REMARK minimizedRMSD -1
REMARK  1 active torsions:
REMARK  status: ('A' for Active; 'I' for Inactive)
REMARK    1  A    between atoms: C1_2  and  C2_3 
ROOT
ATOM      1  C2  UNL d   1      -0.398   0.406   0.048  0.00  0.00    -0.073 A 
ATOM      2  C3  UNL d   1      -1.232   0.580   1.158  0.00  0.00    -0.002 A 
ATOM      3  C4  UNL d   1      -1.593  -0.513   1.947  0.00  0.00     0.004 A 
ATOM      4  C5  UNL d   1      -1.118  -1.788   1.639  0.00  0.00    -0.004 A 
ATOM      5  C6  UNL d   1      -0.274  -1.980   0.541  0.00  0.00    -0.075 A 
ATOM      6  C7  UNL d   1       0.243  -3.346   0.195  0.00  0.00     0.076 C 
ATOM      7  C8  UNL d   1       0.081  -0.878  -0.248  0.00  0.00     0.001 A 
ENDROOT
BRANCH   1   8
ATOM      8  C1  UNL d   1      -0.001   1.585  -0.803  0.00  0.00     0.053 C 
ATOM      9  C   UNL d   1       0.303   2.816   0.035  0.00  0.00     0.018 C 
ENDBRANCH   1   8
TORSDOF 1
ENDMDL
