MODEL 1
REMARK minimizedAffinity -2.14301538
REMARK minimizedRMSD -1
REMARK  1 active torsions:
REMARK  status: ('A' for Active; 'I' for Inactive)
REMARK    1  A    between atoms: C1_2  and  C2_3 
ROOT
ATOM      1  C2  UNL d   1       0.723   1.426   0.281  0.00  0.00    -0.073 A 
ATOM      2  C3  UNL d   1       2.106   1.576   0.430  0.00  0.00    -0.002 A 
ATOM      3  C4  UNL d   1       2.660   2.842   0.625  0.00  0.00     0.004 A 
ATOM      4  C5  UNL d   1       1.838   3.968   0.681  0.00  0.00    -0.004 A 
ATOM      5  C6  UNL d   1       0.452   3.836   0.546  0.00  0.00    -0.075 A 
ATOM      6  C7  UNL d   1      -0.445   5.037   0.601  0.00  0.00     0.076 C 
ATOM      7  C8  UNL d   1      -0.096   2.562   0.347  0.00  0.00     0.001 A 
ENDROOT
BRANCH   1   8
ATOM      8  C1  UNL d   1       0.119   0.061   0.076  0.00  0.00     0.053 C 
ATOM      9  C   UNL d   1      -0.929  -0.263   1.129  0.00  0.00     0.018 C 
ENDBRANCH   1   8
TORSDOF 1
ENDMDL
