MODEL 1
REMARK minimizedAffinity -5.43750191
REMARK minimizedRMSD -1
REMARK  1 active torsions:
REMARK  status: ('A' for Active; 'I' for Inactive)
REMARK    1  A    between atoms: C1_2  and  C2_3 
ROOT
ATOM      1  C2  UNL d   1      -0.387  -1.062   0.372  0.00  0.00    -0.073 A 
ATOM      2  C3  UNL d   1      -0.465  -2.197   1.186  0.00  0.00    -0.002 A 
ATOM      3  C4  UNL d   1      -0.224  -3.465   0.654  0.00  0.00     0.004 A 
ATOM      4  C5  UNL d   1       0.104  -3.609  -0.694  0.00  0.00    -0.004 A 
ATOM      5  C6  UNL d   1       0.198  -2.485  -1.521  0.00  0.00    -0.075 A 
ATOM      6  C7  UNL d   1       0.548  -2.624  -2.974  0.00  0.00     0.076 C 
ATOM      7  C8  UNL d   1      -0.048  -1.216  -0.980  0.00  0.00     0.001 A 
ENDROOT
BRANCH   1   8
ATOM      8  C1  UNL d   1      -0.641   0.309   0.944  0.00  0.00     0.053 C 
ATOM      9  C   UNL d   1      -0.268   1.412  -0.034  0.00  0.00     0.018 C 
ENDBRANCH   1   8
TORSDOF 1
ENDMDL
