MODEL 1
REMARK minimizedAffinity -2.8645153
REMARK minimizedRMSD -1
REMARK  1 active torsions:
REMARK  status: ('A' for Active; 'I' for Inactive)
REMARK    1  A    between atoms: C1_2  and  C2_3 
ROOT
ATOM      1  C2  UNL d   1       0.209   0.446   0.158  0.00  0.00    -0.073 A 
ATOM      2  C3  UNL d   1      -0.999   0.675   0.826  0.00  0.00    -0.002 A 
ATOM      3  C4  UNL d   1      -1.788  -0.398   1.243  0.00  0.00     0.004 A 
ATOM      4  C5  UNL d   1      -1.374  -1.708   1.004  0.00  0.00    -0.004 A 
ATOM      5  C6  UNL d   1      -0.164  -1.957   0.348  0.00  0.00    -0.075 A 
ATOM      6  C7  UNL d   1       0.294  -3.361   0.081  0.00  0.00     0.076 C 
ATOM      7  C8  UNL d   1       0.621  -0.874  -0.070  0.00  0.00     0.001 A 
ENDROOT
BRANCH   1   8
ATOM      8  C1  UNL d   1       1.067   1.602  -0.289  0.00  0.00     0.053 C 
ATOM      9  C   UNL d   1       0.685   2.898   0.408  0.00  0.00     0.018 C 
ENDBRANCH   1   8
TORSDOF 1
ENDMDL
