MODEL 1
REMARK minimizedAffinity -3.07142186
REMARK minimizedRMSD -1
REMARK  1 active torsions:
REMARK  status: ('A' for Active; 'I' for Inactive)
REMARK    1  A    between atoms: C1_2  and  C2_3 
ROOT
ATOM      1  C2  UNL d   1       0.153  -1.514  -0.165  0.00  0.00    -0.073 A 
ATOM      2  C3  UNL d   1       0.372  -0.443  -1.039  0.00  0.00    -0.002 A 
ATOM      3  C4  UNL d   1      -0.082   0.836  -0.715  0.00  0.00     0.004 A 
ATOM      4  C5  UNL d   1      -0.752   1.059   0.488  0.00  0.00    -0.004 A 
ATOM      5  C6  UNL d   1      -0.970   0.004   1.380  0.00  0.00    -0.075 A 
ATOM      6  C7  UNL d   1      -1.691   0.226   2.677  0.00  0.00     0.076 C 
ATOM      7  C8  UNL d   1      -0.513  -1.278   1.046  0.00  0.00     0.001 A 
ENDROOT
BRANCH   1   8
ATOM      8  C1  UNL d   1       0.647  -2.895  -0.509  0.00  0.00     0.053 C 
ATOM      9  C   UNL d   1      -0.130  -3.977   0.225  0.00  0.00     0.018 C 
ENDBRANCH   1   8
TORSDOF 1
ENDMDL
