MODEL 1
REMARK minimizedAffinity 14.0213099
REMARK minimizedRMSD -1
REMARK  1 active torsions:
REMARK  status: ('A' for Active; 'I' for Inactive)
REMARK    1  A    between atoms: C1_2  and  C2_3 
ROOT
ATOM      1  C2  UNL d   1       1.708  -1.782   4.038  0.00  0.00    -0.073 A 
ATOM      2  C3  UNL d   1       1.093  -0.528   4.117  0.00  0.00    -0.002 A 
ATOM      3  C4  UNL d   1       1.043   0.305   2.999  0.00  0.00     0.004 A 
ATOM      4  C5  UNL d   1       1.600  -0.110   1.789  0.00  0.00    -0.004 A 
ATOM      5  C6  UNL d   1       2.208  -1.365   1.687  0.00  0.00    -0.075 A 
ATOM      6  C7  UNL d   1       2.814  -1.826   0.393  0.00  0.00     0.076 C 
ATOM      7  C8  UNL d   1       2.257  -2.195   2.815  0.00  0.00     0.001 A 
ENDROOT
BRANCH   1   8
ATOM      8  C1  UNL d   1       1.759  -2.687   5.242  0.00  0.00     0.053 C 
ATOM      9  C   UNL d   1       0.438  -2.709   5.995  0.00  0.00     0.018 C 
ENDBRANCH   1   8
TORSDOF 1
ENDMDL
