MODEL 1
REMARK minimizedAffinity 11.2413321
REMARK minimizedRMSD -1
REMARK  1 active torsions:
REMARK  status: ('A' for Active; 'I' for Inactive)
REMARK    1  A    between atoms: C1_2  and  C2_3 
ROOT
ATOM      1  C2  UNL d   1       2.252  -2.211   1.466  0.00  0.00    -0.073 A 
ATOM      2  C3  UNL d   1       1.418  -1.091   1.564  0.00  0.00    -0.002 A 
ATOM      3  C4  UNL d   1       0.853  -0.738   2.790  0.00  0.00     0.004 A 
ATOM      4  C5  UNL d   1       1.120  -1.496   3.930  0.00  0.00    -0.004 A 
ATOM      5  C6  UNL d   1       1.960  -2.612   3.855  0.00  0.00    -0.075 A 
ATOM      6  C7  UNL d   1       2.255  -3.439   5.072  0.00  0.00     0.076 C 
ATOM      7  C8  UNL d   1       2.522  -2.962   2.620  0.00  0.00     0.001 A 
ENDROOT
BRANCH   1   8
ATOM      8  C1  UNL d   1       2.870  -2.593   0.146  0.00  0.00     0.053 C 
ATOM      9  C   UNL d   1       4.342  -2.218   0.076  0.00  0.00     0.018 C 
ENDBRANCH   1   8
TORSDOF 1
ENDMDL
