MODEL 1
REMARK minimizedAffinity 7.58510399
REMARK minimizedRMSD -1
REMARK  1 active torsions:
REMARK  status: ('A' for Active; 'I' for Inactive)
REMARK    1  A    between atoms: C1_2  and  C2_3 
ROOT
ATOM      1  C2  UNL d   1       2.673  -2.975   3.603  0.00  0.00    -0.073 A 
ATOM      2  C3  UNL d   1       2.728  -3.656   4.825  0.00  0.00    -0.002 A 
ATOM      3  C4  UNL d   1       2.294  -3.036   5.997  0.00  0.00     0.004 A 
ATOM      4  C5  UNL d   1       1.794  -1.735   5.960  0.00  0.00    -0.004 A 
ATOM      5  C6  UNL d   1       1.720  -1.042   4.747  0.00  0.00    -0.075 A 
ATOM      6  C7  UNL d   1       1.188   0.360   4.690  0.00  0.00     0.076 C 
ATOM      7  C8  UNL d   1       2.161  -1.670   3.574  0.00  0.00     0.001 A 
ENDROOT
BRANCH   1   8
ATOM      8  C1  UNL d   1       3.136  -3.642   2.334  0.00  0.00     0.053 C 
ATOM      9  C   UNL d   1       2.651  -2.907   1.094  0.00  0.00     0.018 C 
ENDBRANCH   1   8
TORSDOF 1
ENDMDL
