MODEL 1
REMARK minimizedAffinity 10.3447609
REMARK minimizedRMSD -1
REMARK  1 active torsions:
REMARK  status: ('A' for Active; 'I' for Inactive)
REMARK    1  A    between atoms: C1_2  and  C2_3 
ROOT
ATOM      1  C2  UNL d   1       1.772  -0.573   4.230  0.00  0.00    -0.073 A 
ATOM      2  C3  UNL d   1       2.893  -1.226   3.705  0.00  0.00    -0.002 A 
ATOM      3  C4  UNL d   1       3.080  -2.592   3.924  0.00  0.00     0.004 A 
ATOM      4  C5  UNL d   1       2.147  -3.318   4.664  0.00  0.00    -0.004 A 
ATOM      5  C6  UNL d   1       1.015  -2.686   5.188  0.00  0.00    -0.075 A 
ATOM      6  C7  UNL d   1       0.003  -3.452   5.988  0.00  0.00     0.076 C 
ATOM      7  C8  UNL d   1       0.835  -1.314   4.965  0.00  0.00     0.001 A 
ENDROOT
BRANCH   1   8
ATOM      8  C1  UNL d   1       1.563   0.900   3.991  0.00  0.00     0.053 C 
ATOM      9  C   UNL d   1       1.649   1.705   5.278  0.00  0.00     0.018 C 
ENDBRANCH   1   8
TORSDOF 1
ENDMDL
