MODEL 1
REMARK minimizedAffinity 5.73538494
REMARK minimizedRMSD -1
REMARK  1 active torsions:
REMARK  status: ('A' for Active; 'I' for Inactive)
REMARK    1  A    between atoms: C1_2  and  C2_3 
ROOT
ATOM      1  C2  UNL d   1      -1.515  -4.252  -0.412  0.00  0.00    -0.073 A 
ATOM      2  C3  UNL d   1      -0.982  -4.261   0.883  0.00  0.00    -0.002 A 
ATOM      3  C4  UNL d   1       0.395  -4.368   1.078  0.00  0.00     0.004 A 
ATOM      4  C5  UNL d   1       1.254  -4.460  -0.018  0.00  0.00    -0.004 A 
ATOM      5  C6  UNL d   1       0.742  -4.441  -1.319  0.00  0.00    -0.075 A 
ATOM      6  C7  UNL d   1       1.653  -4.542  -2.508  0.00  0.00     0.076 C 
ATOM      7  C8  UNL d   1      -0.642  -4.336  -1.507  0.00  0.00     0.001 A 
ENDROOT
BRANCH   1   8
ATOM      8  C1  UNL d   1      -3.001  -4.130  -0.627  0.00  0.00     0.053 C 
ATOM      9  C   UNL d   1      -3.737  -5.410  -0.264  0.00  0.00     0.018 C 
ENDBRANCH   1   8
TORSDOF 1
ENDMDL
