MODEL 1
REMARK minimizedAffinity -2.4027977
REMARK minimizedRMSD -1
REMARK  0 active torsions:
REMARK  status: ('A' for Active; 'I' for Inactive)
ROOT
ATOM      1  N1  IND d   1      -0.330   2.801  -2.275  0.00  0.00    -0.196 N 
ATOM      2  C2  IND d   1      -1.296   3.194  -3.159  0.00  0.00     0.054 A 
ATOM      3  C3  IND d   1      -2.393   3.625  -2.495  0.00  0.00    -0.031 A 
ATOM      4  C4  IND d   1      -2.781   3.867   0.038  0.00  0.00     0.051 A 
ATOM      5  C5  IND d   1      -2.202   3.601   1.247  0.00  0.00    -0.031 A 
ATOM      6  C6  IND d   1      -0.942   3.046   1.346  0.00  0.00     0.015 A 
ATOM      7  C7  IND d   1      -0.207   2.746   0.234  0.00  0.00    -0.016 A 
ATOM      8  C8  IND d   1      -0.795   3.008  -0.995  0.00  0.00    -0.047 A 
ATOM      9  C9  IND d   1      -2.090   3.531  -1.102  0.00  0.00    -0.096 A 
ATOM     10  HN1 IND d   1       0.439   2.478  -2.484  0.00  0.00     0.298 HD
ENDROOT
TORSDOF 0
ENDMDL
