MODEL 1
REMARK minimizedAffinity 4.82019758
REMARK minimizedRMSD -1
REMARK  0 active torsions:
REMARK  status: ('A' for Active; 'I' for Inactive)
ROOT
ATOM      1  N1  IND d   1       1.554  -0.879   3.648  0.00  0.00    -0.196 N 
ATOM      2  C2  IND d   1       0.943  -1.141   4.843  0.00  0.00     0.054 A 
ATOM      3  C3  IND d   1      -0.019  -0.223   5.090  0.00  0.00    -0.031 A 
ATOM      4  C4  IND d   1      -0.829   1.732   3.624  0.00  0.00     0.051 A 
ATOM      5  C5  IND d   1      -0.552   2.393   2.461  0.00  0.00    -0.031 A 
ATOM      6  C6  IND d   1       0.461   1.988   1.616  0.00  0.00     0.015 A 
ATOM      7  C7  IND d   1       1.229   0.894   1.898  0.00  0.00    -0.016 A 
ATOM      8  C8  IND d   1       0.955   0.224   3.082  0.00  0.00    -0.047 A 
ATOM      9  C9  IND d   1      -0.043   0.656   3.964  0.00  0.00    -0.096 A 
ATOM     10  HN1 IND d   1       2.203  -1.328   3.308  0.00  0.00     0.298 HD
ENDROOT
TORSDOF 0
ENDMDL
