MODEL 1
REMARK minimizedAffinity 4.28602171
REMARK minimizedRMSD -1
REMARK  0 active torsions:
REMARK  status: ('A' for Active; 'I' for Inactive)
ROOT
ATOM      1  N1  IND d   1      -0.083  -0.602   4.472  0.00  0.00    -0.196 N 
ATOM      2  C2  IND d   1       1.077  -1.325   4.430  0.00  0.00     0.054 A 
ATOM      3  C3  IND d   1       1.864  -0.892   3.420  0.00  0.00    -0.031 A 
ATOM      4  C4  IND d   1       1.494   1.054   1.776  0.00  0.00     0.051 A 
ATOM      5  C5  IND d   1       0.567   1.985   1.400  0.00  0.00    -0.031 A 
ATOM      6  C6  IND d   1      -0.648   2.105   2.043  0.00  0.00     0.015 A 
ATOM      7  C7  IND d   1      -0.977   1.303   3.099  0.00  0.00    -0.016 A 
ATOM      8  C8  IND d   1      -0.041   0.352   3.479  0.00  0.00    -0.047 A 
ATOM      9  C9  IND d   1       1.176   0.197   2.803  0.00  0.00    -0.096 A 
ATOM     10  HN1 IND d   1      -0.729  -0.723   5.026  0.00  0.00     0.298 HD
ENDROOT
TORSDOF 0
ENDMDL
