MODEL 1
REMARK minimizedAffinity 3.38939381
REMARK minimizedRMSD -1
REMARK  0 active torsions:
REMARK  status: ('A' for Active; 'I' for Inactive)
ROOT
ATOM      1  N1  IND d   1      -0.368   2.617  -1.759  0.00  0.00    -0.196 N 
ATOM      2  C2  IND d   1      -0.216   1.443  -2.443  0.00  0.00     0.054 A 
ATOM      3  C3  IND d   1       0.198   0.463  -1.609  0.00  0.00    -0.031 A 
ATOM      4  C4  IND d   1       0.592   0.537   0.934  0.00  0.00     0.051 A 
ATOM      5  C5  IND d   1       0.619   1.398   1.995  0.00  0.00    -0.031 A 
ATOM      6  C6  IND d   1       0.308   2.735   1.857  0.00  0.00     0.015 A 
ATOM      7  C7  IND d   1      -0.053   3.262   0.649  0.00  0.00    -0.016 A 
ATOM      8  C8  IND d   1      -0.073   2.392  -0.432  0.00  0.00    -0.047 A 
ATOM      9  C9  IND d   1       0.282   1.043  -0.306  0.00  0.00    -0.096 A 
ATOM     10  HN1 IND d   1      -0.608   3.369  -2.100  0.00  0.00     0.298 HD
ENDROOT
TORSDOF 0
ENDMDL
