MODEL 1
REMARK minimizedAffinity 9.64060497
REMARK minimizedRMSD -1
REMARK  0 active torsions:
REMARK  status: ('A' for Active; 'I' for Inactive)
ROOT
ATOM      1  N1  IND d   1       0.627   0.223  -1.898  0.00  0.00    -0.196 N 
ATOM      2  C2  IND d   1      -0.379   0.764  -2.649  0.00  0.00     0.054 A 
ATOM      3  C3  IND d   1      -1.129   1.601  -1.898  0.00  0.00    -0.031 A 
ATOM      4  C4  IND d   1      -0.826   2.310   0.558  0.00  0.00     0.051 A 
ATOM      5  C5  IND d   1      -0.070   2.055   1.667  0.00  0.00    -0.031 A 
ATOM      6  C6  IND d   1       0.981   1.160   1.644  0.00  0.00     0.015 A 
ATOM      7  C7  IND d   1       1.322   0.492   0.502  0.00  0.00    -0.016 A 
ATOM      8  C8  IND d   1       0.552   0.744  -0.625  0.00  0.00    -0.047 A 
ATOM      9  C9  IND d   1      -0.542   1.619  -0.596  0.00  0.00    -0.096 A 
ATOM     10  HN1 IND d   1       1.209  -0.346  -2.174  0.00  0.00     0.298 HD
ENDROOT
TORSDOF 0
ENDMDL
