MODEL 1
REMARK minimizedAffinity 6.69681311
REMARK minimizedRMSD -1
REMARK  0 active torsions:
REMARK  status: ('A' for Active; 'I' for Inactive)
ROOT
ATOM      1  N1  IND d   1      -0.661   0.930  -1.094  0.00  0.00    -0.196 N 
ATOM      2  C2  IND d   1      -0.990   1.799  -2.097  0.00  0.00     0.054 A 
ATOM      3  C3  IND d   1      -1.533   2.926  -1.582  0.00  0.00    -0.031 A 
ATOM      4  C4  IND d   1      -1.882   3.598   0.878  0.00  0.00     0.051 A 
ATOM      5  C5  IND d   1      -1.770   3.116   2.152  0.00  0.00    -0.031 A 
ATOM      6  C6  IND d   1      -1.271   1.857   2.415  0.00  0.00     0.015 A 
ATOM      7  C7  IND d   1      -0.851   1.033   1.409  0.00  0.00    -0.016 A 
ATOM      8  C8  IND d   1      -0.970   1.516   0.113  0.00  0.00    -0.047 A 
ATOM      9  C9  IND d   1      -1.516   2.776  -0.162  0.00  0.00    -0.096 A 
ATOM     10  HN1 IND d   1      -0.319   0.148  -1.201  0.00  0.00     0.298 HD
ENDROOT
TORSDOF 0
ENDMDL
