MODEL 1
REMARK minimizedAffinity -3.49345446
REMARK minimizedRMSD -1
REMARK  0 active torsions:
REMARK  status: ('A' for Active; 'I' for Inactive)
ROOT
ATOM      1  N1  IND d   1      -5.329   0.395   3.066  0.00  0.00    -0.196 N 
ATOM      2  C2  IND d   1      -5.593  -0.103   1.820  0.00  0.00     0.054 A 
ATOM      3  C3  IND d   1      -5.853  -1.428   1.888  0.00  0.00    -0.031 A 
ATOM      4  C4  IND d   1      -5.998  -2.962   3.950  0.00  0.00     0.051 A 
ATOM      5  C5  IND d   1      -5.800  -2.971   5.302  0.00  0.00    -0.031 A 
ATOM      6  C6  IND d   1      -5.430  -1.835   5.992  0.00  0.00     0.015 A 
ATOM      7  C7  IND d   1      -5.254  -0.640   5.355  0.00  0.00    -0.016 A 
ATOM      8  C8  IND d   1      -5.448  -0.629   3.981  0.00  0.00    -0.047 A 
ATOM      9  C9  IND d   1      -5.782  -1.788   3.269  0.00  0.00    -0.096 A 
ATOM     10  HN1 IND d   1      -5.124   1.209   3.247  0.00  0.00     0.298 HD
ENDROOT
TORSDOF 0
ENDMDL
