MODEL 1
REMARK minimizedAffinity 6.84694862
REMARK minimizedRMSD -1
REMARK  0 active torsions:
REMARK  status: ('A' for Active; 'I' for Inactive)
ROOT
ATOM      1  N1  IND d   1       0.359   0.534  -1.883  0.00  0.00    -0.196 N 
ATOM      2  C2  IND d   1      -0.026   1.341  -0.848  0.00  0.00     0.054 A 
ATOM      3  C3  IND d   1      -1.374   1.372  -0.751  0.00  0.00    -0.031 A 
ATOM      4  C4  IND d   1      -3.142   0.096  -2.120  0.00  0.00     0.051 A 
ATOM      5  C5  IND d   1      -3.277  -0.735  -3.197  0.00  0.00    -0.031 A 
ATOM      6  C6  IND d   1      -2.185  -1.196  -3.904  0.00  0.00     0.015 A 
ATOM      7  C7  IND d   1      -0.911  -0.852  -3.551  0.00  0.00    -0.016 A 
ATOM      8  C8  IND d   1      -0.770  -0.003  -2.462  0.00  0.00    -0.047 A 
ATOM      9  C9  IND d   1      -1.876   0.502  -1.767  0.00  0.00    -0.096 A 
ATOM     10  HN1 IND d   1       1.169   0.386  -2.130  0.00  0.00     0.298 HD
ENDROOT
TORSDOF 0
ENDMDL
