MODEL 1
REMARK minimizedAffinity 8.06580257
REMARK minimizedRMSD -1
REMARK  0 active torsions:
REMARK  status: ('A' for Active; 'I' for Inactive)
ROOT
ATOM      1  N1  IND d   1       0.230   0.329  -0.261  0.00  0.00    -0.196 N 
ATOM      2  C2  IND d   1       0.305  -0.800   0.506  0.00  0.00     0.054 A 
ATOM      3  C3  IND d   1       0.679  -0.488   1.767  0.00  0.00    -0.031 A 
ATOM      4  C4  IND d   1       1.120   1.820   2.818  0.00  0.00     0.051 A 
ATOM      5  C5  IND d   1       1.212   3.147   2.503  0.00  0.00    -0.031 A 
ATOM      6  C6  IND d   1       0.974   3.612   1.226  0.00  0.00     0.015 A 
ATOM      7  C7  IND d   1       0.622   2.765   0.214  0.00  0.00    -0.016 A 
ATOM      8  C8  IND d   1       0.534   1.416   0.528  0.00  0.00    -0.047 A 
ATOM      9  C9  IND d   1       0.817   0.933   1.812  0.00  0.00    -0.096 A 
ATOM     10  HN1 IND d   1       0.026   0.355  -1.096  0.00  0.00     0.298 HD
ENDROOT
TORSDOF 0
ENDMDL
