MODEL 1
REMARK minimizedAffinity 2.44673324
REMARK minimizedRMSD -1
REMARK  0 active torsions:
REMARK  status: ('A' for Active; 'I' for Inactive)
ROOT
ATOM      1  N1  IND d   1      -0.893  -0.144  -1.607  0.00  0.00    -0.196 N 
ATOM      2  C2  IND d   1      -1.407  -1.388  -1.370  0.00  0.00     0.054 A 
ATOM      3  C3  IND d   1      -1.022  -1.833  -0.153  0.00  0.00    -0.031 A 
ATOM      4  C4  IND d   1       0.368  -0.642   1.658  0.00  0.00     0.051 A 
ATOM      5  C5  IND d   1       1.089   0.496   1.888  0.00  0.00    -0.031 A 
ATOM      6  C6  IND d   1       1.186   1.500   0.946  0.00  0.00     0.015 A 
ATOM      7  C7  IND d   1       0.554   1.408  -0.261  0.00  0.00    -0.016 A 
ATOM      8  C8  IND d   1      -0.174   0.251  -0.500  0.00  0.00    -0.047 A 
ATOM      9  C9  IND d   1      -0.242  -0.790   0.434  0.00  0.00    -0.096 A 
ATOM     10  HN1 IND d   1      -1.001   0.315  -2.326  0.00  0.00     0.298 HD
ENDROOT
TORSDOF 0
ENDMDL
