MODEL 1
REMARK minimizedAffinity -3.763376
REMARK minimizedRMSD -1
REMARK  0 active torsions:
REMARK  status: ('A' for Active; 'I' for Inactive)
ROOT
ATOM      1  C   UNL d   1       2.453  -1.979  -0.192  0.00  0.00     0.020 A 
ATOM      2  C1  UNL d   1       1.197  -2.544  -0.411  0.00  0.00     0.020 A 
ATOM      3  C2  UNL d   1       0.053  -1.746  -0.356  0.00  0.00     0.034 A 
ATOM      4  C3  UNL d   1       0.161  -0.378  -0.082  0.00  0.00     0.017 A 
ATOM      5  C4  UNL d   1       1.422   0.189   0.138  0.00  0.00     0.017 A 
ATOM      6  C5  UNL d   1       2.565  -0.615   0.081  0.00  0.00     0.034 A 
ATOM      7 Cl   UNL d   1       1.636   1.869   0.482  0.00  0.00    -0.070 Cl
ATOM      8 Cl1  UNL d   1      -1.296   0.549  -0.029  0.00  0.00    -0.070 Cl
ENDROOT
TORSDOF 0
ENDMDL
