MODEL 1
REMARK minimizedAffinity -0.779416382
REMARK minimizedRMSD -1
REMARK  0 active torsions:
REMARK  status: ('A' for Active; 'I' for Inactive)
ROOT
ATOM      1  C   UNL d   1      -3.621   1.143   0.710  0.00  0.00     0.020 A 
ATOM      2  C1  UNL d   1      -2.929   1.936   1.625  0.00  0.00     0.020 A 
ATOM      3  C2  UNL d   1      -1.535   1.877   1.685  0.00  0.00     0.034 A 
ATOM      4  C3  UNL d   1      -0.829   1.023   0.829  0.00  0.00     0.017 A 
ATOM      5  C4  UNL d   1      -1.525   0.228  -0.088  0.00  0.00     0.017 A 
ATOM      6  C5  UNL d   1      -2.921   0.292  -0.145  0.00  0.00     0.034 A 
ATOM      7 Cl   UNL d   1      -0.724  -0.849  -1.177  0.00  0.00    -0.070 Cl
ATOM      8 Cl1  UNL d   1       0.894   1.001   0.958  0.00  0.00    -0.070 Cl
ENDROOT
TORSDOF 0
ENDMDL
