MODEL 1
REMARK minimizedAffinity 2.51652551
REMARK minimizedRMSD -1
REMARK  0 active torsions:
REMARK  status: ('A' for Active; 'I' for Inactive)
ROOT
ATOM      1  C   UNL d   1       2.375  -1.981   1.079  0.00  0.00     0.020 A 
ATOM      2  C1  UNL d   1       0.985  -1.899   1.164  0.00  0.00     0.020 A 
ATOM      3  C2  UNL d   1       0.217  -1.835  -0.000  0.00  0.00     0.034 A 
ATOM      4  C3  UNL d   1       0.838  -1.854  -1.255  0.00  0.00     0.017 A 
ATOM      5  C4  UNL d   1       2.232  -1.937  -1.339  0.00  0.00     0.017 A 
ATOM      6  C5  UNL d   1       2.996  -2.001  -0.170  0.00  0.00     0.034 A 
ATOM      7 Cl   UNL d   1       3.069  -1.965  -2.851  0.00  0.00    -0.070 Cl
ATOM      8 Cl1  UNL d   1      -0.175  -1.772  -2.653  0.00  0.00    -0.070 Cl
ENDROOT
TORSDOF 0
ENDMDL
