MODEL 1
REMARK minimizedAffinity -3.03265762
REMARK minimizedRMSD -1
REMARK  0 active torsions:
REMARK  status: ('A' for Active; 'I' for Inactive)
ROOT
ATOM      1  C   UNL d   1       0.514   1.482   0.163  0.00  0.00     0.020 A 
ATOM      2  C1  UNL d   1      -0.704   1.085  -0.388  0.00  0.00     0.020 A 
ATOM      3  C2  UNL d   1      -0.948  -0.266  -0.641  0.00  0.00     0.034 A 
ATOM      4  C3  UNL d   1       0.026  -1.226  -0.344  0.00  0.00     0.017 A 
ATOM      5  C4  UNL d   1       1.248  -0.827   0.209  0.00  0.00     0.017 A 
ATOM      6  C5  UNL d   1       1.488   0.528   0.460  0.00  0.00     0.034 A 
ATOM      7 Cl   UNL d   1       2.500  -1.952   0.603  0.00  0.00    -0.070 Cl
ATOM      8 Cl1  UNL d   1      -0.344  -2.879  -0.682  0.00  0.00    -0.070 Cl
ENDROOT
TORSDOF 0
ENDMDL
