MODEL 1
REMARK minimizedAffinity -2.28181863
REMARK minimizedRMSD -1
REMARK  0 active torsions:
REMARK  status: ('A' for Active; 'I' for Inactive)
ROOT
ATOM      1  C   UNL d   1      -2.235   0.725   0.193  0.00  0.00     0.020 A 
ATOM      2  C1  UNL d   1      -1.025   1.292  -0.207  0.00  0.00     0.020 A 
ATOM      3  C2  UNL d   1       0.126   0.505  -0.275  0.00  0.00     0.034 A 
ATOM      4  C3  UNL d   1       0.071  -0.854   0.057  0.00  0.00     0.017 A 
ATOM      5  C4  UNL d   1      -1.144  -1.422   0.459  0.00  0.00     0.017 A 
ATOM      6  C5  UNL d   1      -2.294  -0.629   0.525  0.00  0.00     0.034 A 
ATOM      7 Cl   UNL d   1      -1.290  -3.091   0.884  0.00  0.00    -0.070 Cl
ATOM      8 Cl1  UNL d   1       1.533  -1.767  -0.050  0.00  0.00    -0.070 Cl
ENDROOT
TORSDOF 0
ENDMDL
