MODEL 1
REMARK minimizedAffinity -3.94164681
REMARK minimizedRMSD -1
REMARK  0 active torsions:
REMARK  status: ('A' for Active; 'I' for Inactive)
ROOT
ATOM      1  C   UNL d   1       1.815  -2.114  -0.167  0.00  0.00     0.020 A 
ATOM      2  C1  UNL d   1       0.475  -1.837  -0.435  0.00  0.00     0.020 A 
ATOM      3  C2  UNL d   1       0.049  -0.514  -0.568  0.00  0.00     0.034 A 
ATOM      4  C3  UNL d   1       0.963   0.538  -0.433  0.00  0.00     0.017 A 
ATOM      5  C4  UNL d   1       2.308   0.259  -0.164  0.00  0.00     0.017 A 
ATOM      6  C5  UNL d   1       2.730  -1.068  -0.032  0.00  0.00     0.034 A 
ATOM      7 Cl   UNL d   1       3.494   1.502   0.016  0.00  0.00    -0.070 Cl
ATOM      8 Cl1  UNL d   1       0.366   2.149  -0.610  0.00  0.00    -0.070 Cl
ENDROOT
TORSDOF 0
ENDMDL
