MODEL 1
REMARK minimizedAffinity 7.50763178
REMARK minimizedRMSD -1
REMARK  0 active torsions:
REMARK  status: ('A' for Active; 'I' for Inactive)
ROOT
ATOM      1  C   UNL d   1      -3.976   4.276  -4.469  0.00  0.00     0.020 A 
ATOM      2  C1  UNL d   1      -5.109   3.867  -3.767  0.00  0.00     0.020 A 
ATOM      3  C2  UNL d   1      -4.976   3.294  -2.500  0.00  0.00     0.034 A 
ATOM      4  C3  UNL d   1      -3.708   3.128  -1.932  0.00  0.00     0.017 A 
ATOM      5  C4  UNL d   1      -2.571   3.539  -2.638  0.00  0.00     0.017 A 
ATOM      6  C5  UNL d   1      -2.710   4.112  -3.905  0.00  0.00     0.034 A 
ATOM      7 Cl   UNL d   1      -0.973   3.367  -2.002  0.00  0.00    -0.070 Cl
ATOM      8 Cl1  UNL d   1      -3.618   2.412  -0.362  0.00  0.00    -0.070 Cl
ENDROOT
TORSDOF 0
ENDMDL
