MODEL 1
REMARK minimizedAffinity -4.37044621
REMARK minimizedRMSD -1
REMARK  0 active torsions:
REMARK  status: ('A' for Active; 'I' for Inactive)
ROOT
ATOM      1  C   UNL d   1       2.901  -1.623   0.685  0.00  0.00     0.020 A 
ATOM      2  C1  UNL d   1       2.617  -0.391   1.273  0.00  0.00     0.020 A 
ATOM      3  C2  UNL d   1       1.418   0.262   0.979  0.00  0.00     0.034 A 
ATOM      4  C3  UNL d   1       0.500  -0.315   0.095  0.00  0.00     0.017 A 
ATOM      5  C4  UNL d   1       0.786  -1.552  -0.494  0.00  0.00     0.017 A 
ATOM      6  C5  UNL d   1       1.988  -2.202  -0.196  0.00  0.00     0.034 A 
ATOM      7 Cl   UNL d   1      -0.298  -2.327  -1.595  0.00  0.00    -0.070 Cl
ATOM      8 Cl1  UNL d   1      -0.962   0.549  -0.222  0.00  0.00    -0.070 Cl
ENDROOT
TORSDOF 0
ENDMDL
