MODEL 1
REMARK minimizedAffinity -4.67004251
REMARK minimizedRMSD -1
REMARK  0 active torsions:
REMARK  status: ('A' for Active; 'I' for Inactive)
ROOT
ATOM      1  C   UNL d   1       2.392  -0.248   1.438  0.00  0.00     0.020 A 
ATOM      2  C1  UNL d   1       2.592  -1.477   0.811  0.00  0.00     0.020 A 
ATOM      3  C2  UNL d   1       1.810  -1.836  -0.289  0.00  0.00     0.034 A 
ATOM      4  C3  UNL d   1       0.824  -0.964  -0.765  0.00  0.00     0.017 A 
ATOM      5  C4  UNL d   1       0.624   0.269  -0.135  0.00  0.00     0.017 A 
ATOM      6  C5  UNL d   1       1.410   0.623   0.966  0.00  0.00     0.034 A 
ATOM      7 Cl   UNL d   1      -0.574   1.398  -0.665  0.00  0.00    -0.070 Cl
ATOM      8 Cl1  UNL d   1      -0.106  -1.472  -2.130  0.00  0.00    -0.070 Cl
ENDROOT
TORSDOF 0
ENDMDL
