MODEL 1
REMARK minimizedAffinity -1.89363265
REMARK minimizedRMSD -1
REMARK  0 active torsions:
REMARK  status: ('A' for Active; 'I' for Inactive)
ROOT
ATOM      1  C   UNL d   1       0.844  -2.267  -0.596  0.00  0.00     0.020 A 
ATOM      2  C1  UNL d   1       2.096  -1.655  -0.555  0.00  0.00     0.020 A 
ATOM      3  C2  UNL d   1       2.190  -0.266  -0.440  0.00  0.00     0.034 A 
ATOM      4  C3  UNL d   1       1.031   0.515  -0.366  0.00  0.00     0.017 A 
ATOM      5  C4  UNL d   1      -0.225  -0.101  -0.407  0.00  0.00     0.017 A 
ATOM      6  C5  UNL d   1      -0.314  -1.492  -0.522  0.00  0.00     0.034 A 
ATOM      7 Cl   UNL d   1      -1.700   0.796  -0.321  0.00  0.00    -0.070 Cl
ATOM      8 Cl1  UNL d   1       1.223   2.226  -0.225  0.00  0.00    -0.070 Cl
ENDROOT
TORSDOF 0
ENDMDL
