MODEL 1
REMARK minimizedAffinity -2.41885829
REMARK minimizedRMSD -1
REMARK  0 active torsions:
REMARK  status: ('A' for Active; 'I' for Inactive)
ROOT
ATOM      1  C   UNL d   1      -0.053  -0.869  -0.876  0.00  0.00     0.020 A 
ATOM      2  C1  UNL d   1      -0.515   0.446  -0.845  0.00  0.00     0.020 A 
ATOM      3  C2  UNL d   1       0.308   1.465  -0.360  0.00  0.00     0.034 A 
ATOM      4  C3  UNL d   1       1.597   1.170   0.098  0.00  0.00     0.017 A 
ATOM      5  C4  UNL d   1       2.060  -0.151   0.067  0.00  0.00     0.017 A 
ATOM      6  C5  UNL d   1       1.232  -1.166  -0.421  0.00  0.00     0.034 A 
ATOM      7 Cl   UNL d   1       3.639  -0.592   0.614  0.00  0.00    -0.070 Cl
ATOM      8 Cl1  UNL d   1       2.561   2.478   0.685  0.00  0.00    -0.070 Cl
ENDROOT
TORSDOF 0
ENDMDL
