MODEL 1
REMARK minimizedAffinity -4.06976604
REMARK minimizedRMSD -1
REMARK  0 active torsions:
REMARK  status: ('A' for Active; 'I' for Inactive)
ROOT
ATOM      1  C   UNL d   1       1.595  -1.235   0.177  0.00  0.00     0.020 A 
ATOM      2  C1  UNL d   1       0.490  -2.063  -0.020  0.00  0.00     0.020 A 
ATOM      3  C2  UNL d   1      -0.744  -1.509  -0.368  0.00  0.00     0.034 A 
ATOM      4  C3  UNL d   1      -0.876  -0.124  -0.518  0.00  0.00     0.017 A 
ATOM      5  C4  UNL d   1       0.233   0.706  -0.320  0.00  0.00     0.017 A 
ATOM      6  C5  UNL d   1       1.466   0.146   0.028  0.00  0.00     0.034 A 
ATOM      7 Cl   UNL d   1       0.147   2.424  -0.487  0.00  0.00    -0.070 Cl
ATOM      8 Cl1  UNL d   1      -2.432   0.492  -0.949  0.00  0.00    -0.070 Cl
ENDROOT
TORSDOF 0
ENDMDL
