MODEL 1
REMARK minimizedAffinity -3.59807301
REMARK minimizedRMSD -1
REMARK  1 active torsions:
REMARK  status: ('A' for Active; 'I' for Inactive)
REMARK    1  A    between atoms: C1_2  and  C2_3 
ROOT
ATOM      1  C2  UNL d   1      -0.034   0.348   0.142  0.00  0.00    -0.076 A 
ATOM      2  C3  UNL d   1       0.780  -0.207   1.145  0.00  0.00     0.004 A 
ATOM      3  C4  UNL d   1       0.226  -0.917   2.208  0.00  0.00    -0.003 A 
ATOM      4  C5  UNL d   1      -1.153  -1.083   2.286  0.00  0.00     0.000 A 
ATOM      5  C6  UNL d   1      -1.974  -0.554   1.291  0.00  0.00     0.000 A 
ATOM      6  C7  UNL d   1      -1.430   0.150   0.204  0.00  0.00    -0.073 A 
ATOM      7  C8  UNL d   1      -2.363   0.704  -0.838  0.00  0.00     0.078 C 
ENDROOT
BRANCH   1   8
ATOM      8  C1  UNL d   1       0.622   1.131  -0.972  0.00  0.00     0.053 C 
ATOM      9  C   UNL d   1       0.910   0.274  -2.196  0.00  0.00     0.018 C 
ENDBRANCH   1   8
TORSDOF 1
ENDMDL
