MODEL 1
REMARK minimizedAffinity -4.93519115
REMARK minimizedRMSD -1
REMARK  1 active torsions:
REMARK  status: ('A' for Active; 'I' for Inactive)
REMARK    1  A    between atoms: C1_2  and  C2_3 
ROOT
ATOM      1  C2  UNL d   1       0.013   0.024   0.774  0.00  0.00    -0.076 A 
ATOM      2  C3  UNL d   1       1.339   0.281   0.385  0.00  0.00     0.004 A 
ATOM      3  C4  UNL d   1       1.627   0.829  -0.863  0.00  0.00    -0.003 A 
ATOM      4  C5  UNL d   1       0.594   1.129  -1.744  0.00  0.00     0.000 A 
ATOM      5  C6  UNL d   1      -0.729   0.897  -1.369  0.00  0.00     0.000 A 
ATOM      6  C7  UNL d   1      -1.038   0.361  -0.107  0.00  0.00    -0.073 A 
ATOM      7  C8  UNL d   1      -2.482   0.126   0.243  0.00  0.00     0.078 C 
ENDROOT
BRANCH   1   8
ATOM      8  C1  UNL d   1      -0.238  -0.596   2.130  0.00  0.00     0.053 C 
ATOM      9  C   UNL d   1      -0.057   0.397   3.267  0.00  0.00     0.018 C 
ENDBRANCH   1   8
TORSDOF 1
ENDMDL
