MODEL 1
REMARK minimizedAffinity -4.56235313
REMARK minimizedRMSD -1
REMARK  1 active torsions:
REMARK  status: ('A' for Active; 'I' for Inactive)
REMARK    1  A    between atoms: C1_2  and  C2_3 
ROOT
ATOM      1  C2  UNL d   1       0.787  -2.166  -1.048  0.00  0.00    -0.076 A 
ATOM      2  C3  UNL d   1       0.891  -1.283   0.041  0.00  0.00     0.004 A 
ATOM      3  C4  UNL d   1       1.380   0.011  -0.129  0.00  0.00    -0.003 A 
ATOM      4  C5  UNL d   1       1.774   0.444  -1.391  0.00  0.00     0.000 A 
ATOM      5  C6  UNL d   1       1.661  -0.413  -2.485  0.00  0.00     0.000 A 
ATOM      6  C7  UNL d   1       1.155  -1.715  -2.334  0.00  0.00    -0.073 A 
ATOM      7  C8  UNL d   1       1.061  -2.599  -3.548  0.00  0.00     0.078 C 
ENDROOT
BRANCH   1   8
ATOM      8  C1  UNL d   1       0.275  -3.566  -0.799  0.00  0.00     0.053 C 
ATOM      9  C   UNL d   1       0.682  -4.101   0.565  0.00  0.00     0.018 C 
ENDBRANCH   1   8
TORSDOF 1
ENDMDL
