MODEL 1
REMARK minimizedAffinity -4.09632969
REMARK minimizedRMSD -1
REMARK  1 active torsions:
REMARK  status: ('A' for Active; 'I' for Inactive)
REMARK    1  A    between atoms: C1_2  and  C2_3 
ROOT
ATOM      1  C2  UNL d   1       2.060  -1.326  -3.983  0.00  0.00    -0.076 A 
ATOM      2  C3  UNL d   1       3.388  -1.345  -4.443  0.00  0.00     0.004 A 
ATOM      3  C4  UNL d   1       4.206  -0.222  -4.321  0.00  0.00    -0.003 A 
ATOM      4  C5  UNL d   1       3.709   0.937  -3.736  0.00  0.00     0.000 A 
ATOM      5  C6  UNL d   1       2.399   0.968  -3.258  0.00  0.00     0.000 A 
ATOM      6  C7  UNL d   1       1.567  -0.160  -3.359  0.00  0.00    -0.073 A 
ATOM      7  C8  UNL d   1       0.161  -0.070  -2.832  0.00  0.00     0.078 C 
ENDROOT
BRANCH   1   8
ATOM      8  C1  UNL d   1       1.212  -2.564  -4.167  0.00  0.00     0.053 C 
ATOM      9  C   UNL d   1       1.227  -3.467  -2.944  0.00  0.00     0.018 C 
ENDBRANCH   1   8
TORSDOF 1
ENDMDL
