MODEL 1
REMARK minimizedAffinity 5.92774057
REMARK minimizedRMSD -1
REMARK  1 active torsions:
REMARK  status: ('A' for Active; 'I' for Inactive)
REMARK    1  A    between atoms: C1_2  and  C2_3 
ROOT
ATOM      1  C2  UNL d   1      -0.608   0.446   2.063  0.00  0.00    -0.076 A 
ATOM      2  C3  UNL d   1       0.408   1.195   1.445  0.00  0.00     0.004 A 
ATOM      3  C4  UNL d   1       1.734   1.084   1.861  0.00  0.00    -0.003 A 
ATOM      4  C5  UNL d   1       2.065   0.221   2.900  0.00  0.00     0.000 A 
ATOM      5  C6  UNL d   1       1.072  -0.542   3.512  0.00  0.00     0.000 A 
ATOM      6  C7  UNL d   1      -0.267  -0.454   3.095  0.00  0.00    -0.073 A 
ATOM      7  C8  UNL d   1      -1.298  -1.297   3.795  0.00  0.00     0.078 C 
ENDROOT
BRANCH   1   8
ATOM      8  C1  UNL d   1      -2.032   0.629   1.589  0.00  0.00     0.053 C 
ATOM      9  C   UNL d   1      -2.144   0.642   0.072  0.00  0.00     0.018 C 
ENDBRANCH   1   8
TORSDOF 1
ENDMDL
