MODEL 1
REMARK minimizedAffinity 5.28177071
REMARK minimizedRMSD -1
REMARK  1 active torsions:
REMARK  status: ('A' for Active; 'I' for Inactive)
REMARK    1  A    between atoms: C1_2  and  C2_3 
ROOT
ATOM      1  C2  UNL d   1      -3.551   1.074   1.903  0.00  0.00    -0.076 A 
ATOM      2  C3  UNL d   1      -2.804   1.847   0.998  0.00  0.00     0.004 A 
ATOM      3  C4  UNL d   1      -2.607   1.423  -0.315  0.00  0.00    -0.003 A 
ATOM      4  C5  UNL d   1      -3.153   0.218  -0.744  0.00  0.00     0.000 A 
ATOM      5  C6  UNL d   1      -3.911  -0.553   0.136  0.00  0.00     0.000 A 
ATOM      6  C7  UNL d   1      -4.134  -0.132   1.458  0.00  0.00    -0.073 A 
ATOM      7  C8  UNL d   1      -4.954  -1.006   2.366  0.00  0.00     0.078 C 
ENDROOT
BRANCH   1   8
ATOM      8  C1  UNL d   1      -3.709   1.572   3.322  0.00  0.00     0.053 C 
ATOM      9  C   UNL d   1      -3.327   3.037   3.472  0.00  0.00     0.018 C 
ENDBRANCH   1   8
TORSDOF 1
ENDMDL
