MODEL 1
REMARK minimizedAffinity -3.39282012
REMARK minimizedRMSD -1
REMARK  1 active torsions:
REMARK  status: ('A' for Active; 'I' for Inactive)
REMARK    1  A    between atoms: C1_2  and  C2_3 
ROOT
ATOM      1  C2  UNL d   1      -0.163   0.206   0.090  0.00  0.00    -0.076 A 
ATOM      2  C3  UNL d   1       1.166   0.281   0.540  0.00  0.00     0.004 A 
ATOM      3  C4  UNL d   1       1.471   0.186   1.896  0.00  0.00    -0.003 A 
ATOM      4  C5  UNL d   1       0.451   0.013   2.826  0.00  0.00     0.000 A 
ATOM      5  C6  UNL d   1      -0.872  -0.080   2.396  0.00  0.00     0.000 A 
ATOM      6  C7  UNL d   1      -1.195  -0.002   1.030  0.00  0.00    -0.073 A 
ATOM      7  C8  UNL d   1      -2.640  -0.104   0.623  0.00  0.00     0.078 C 
ENDROOT
BRANCH   1   8
ATOM      8  C1  UNL d   1      -0.436   0.344  -1.391  0.00  0.00     0.053 C 
ATOM      9  C   UNL d   1       0.403  -0.610  -2.229  0.00  0.00     0.018 C 
ENDBRANCH   1   8
TORSDOF 1
ENDMDL
