MODEL 1
REMARK minimizedAffinity -5.67926359
REMARK minimizedRMSD -1
REMARK  1 active torsions:
REMARK  status: ('A' for Active; 'I' for Inactive)
REMARK    1  A    between atoms: C1_2  and  C2_3 
ROOT
ATOM      1  C2  UNL d   1      -0.930  -0.021   0.925  0.00  0.00    -0.076 A 
ATOM      2  C3  UNL d   1      -0.971   0.422   2.258  0.00  0.00     0.004 A 
ATOM      3  C4  UNL d   1       0.158   0.352   3.072  0.00  0.00    -0.003 A 
ATOM      4  C5  UNL d   1       1.348  -0.160   2.565  0.00  0.00     0.000 A 
ATOM      5  C6  UNL d   1       1.411  -0.587   1.240  0.00  0.00     0.000 A 
ATOM      6  C7  UNL d   1       0.286  -0.509   0.401  0.00  0.00    -0.073 A 
ATOM      7  C8  UNL d   1       0.410  -0.990  -1.019  0.00  0.00     0.078 C 
ENDROOT
BRANCH   1   8
ATOM      8  C1  UNL d   1      -2.193   0.053   0.098  0.00  0.00     0.053 C 
ATOM      9  C   UNL d   1      -2.178   1.213  -0.887  0.00  0.00     0.018 C 
ENDBRANCH   1   8
TORSDOF 1
ENDMDL
