MODEL 1
REMARK minimizedAffinity -1.92996907
REMARK minimizedRMSD -1
REMARK  1 active torsions:
REMARK  status: ('A' for Active; 'I' for Inactive)
REMARK    1  A    between atoms: C1_2  and  C2_3 
ROOT
ATOM      1  C2  UNL d   1      -0.150  -0.371  -0.213  0.00  0.00    -0.076 A 
ATOM      2  C3  UNL d   1       0.631  -1.094   0.706  0.00  0.00     0.004 A 
ATOM      3  C4  UNL d   1       0.220  -1.250   2.028  0.00  0.00    -0.003 A 
ATOM      4  C5  UNL d   1      -0.978  -0.686   2.454  0.00  0.00     0.000 A 
ATOM      5  C6  UNL d   1      -1.773   0.019   1.551  0.00  0.00     0.000 A 
ATOM      6  C7  UNL d   1      -1.381   0.172   0.210  0.00  0.00    -0.073 A 
ATOM      7  C8  UNL d   1      -2.275   0.948  -0.718  0.00  0.00     0.078 C 
ENDROOT
BRANCH   1   8
ATOM      8  C1  UNL d   1       0.360  -0.211  -1.628  0.00  0.00     0.053 C 
ATOM      9  C   UNL d   1       0.802  -1.531  -2.240  0.00  0.00     0.018 C 
ENDBRANCH   1   8
TORSDOF 1
ENDMDL
