MODEL 1
REMARK minimizedAffinity 14.9369802
REMARK minimizedRMSD -1
REMARK  0 active torsions:
REMARK  status: ('A' for Active; 'I' for Inactive)
ROOT
ATOM      1  C   UNL d   1      -5.388   1.092   2.296  0.00  0.00    -0.002 A 
ATOM      2  C1  UNL d   1      -5.148   1.031   0.931  0.00  0.00     0.010 A 
ATOM      3  C2  UNL d   1      -3.866   0.766   0.446  0.00  0.00     0.041 A 
ATOM      4  C3  UNL d   1      -2.819   0.561   1.366  0.00  0.00    -0.075 A 
ATOM      5  S   UNL d   1      -1.168   0.221   1.003  0.00  0.00     0.015 SA
ATOM      6  C4  UNL d   1      -0.743   0.149   2.652  0.00  0.00     0.022 A 
ATOM      7  C5  UNL d   1      -1.821   0.376   3.474  0.00  0.00     0.026 A 
ATOM      8  C6  UNL d   1      -3.036   0.617   2.746  0.00  0.00    -0.082 A 
ATOM      9  C7  UNL d   1      -4.347   0.888   3.206  0.00  0.00     0.045 A 
ENDROOT
TORSDOF 0
ENDMDL
