MODEL 1
REMARK minimizedAffinity 3.29754305
REMARK minimizedRMSD -1
REMARK  0 active torsions:
REMARK  status: ('A' for Active; 'I' for Inactive)
ROOT
ATOM      1  C   UNL d   1       0.284   1.422   3.129  0.00  0.00    -0.002 A 
ATOM      2  C1  UNL d   1      -0.412   2.597   3.374  0.00  0.00     0.010 A 
ATOM      3  C2  UNL d   1      -1.759   2.710   3.026  0.00  0.00     0.041 A 
ATOM      4  C3  UNL d   1      -2.402   1.610   2.424  0.00  0.00    -0.075 A 
ATOM      5  S   UNL d   1      -4.046   1.519   1.913  0.00  0.00     0.015 SA
ATOM      6  C4  UNL d   1      -3.864  -0.082   1.359  0.00  0.00     0.022 A 
ATOM      7  C5  UNL d   1      -2.586  -0.551   1.551  0.00  0.00     0.026 A 
ATOM      8  C6  UNL d   1      -1.722   0.416   2.168  0.00  0.00    -0.082 A 
ATOM      9  C7  UNL d   1      -0.357   0.333   2.532  0.00  0.00     0.045 A 
ENDROOT
TORSDOF 0
ENDMDL
