MODEL 1
REMARK minimizedAffinity 7.07105446
REMARK minimizedRMSD -1
REMARK  0 active torsions:
REMARK  status: ('A' for Active; 'I' for Inactive)
ROOT
ATOM      1  C   UNL d   1      -4.827   0.265   1.635  0.00  0.00    -0.002 A 
ATOM      2  C1  UNL d   1      -4.700   0.355   3.013  0.00  0.00     0.010 A 
ATOM      3  C2  UNL d   1      -3.437   0.379   3.610  0.00  0.00     0.041 A 
ATOM      4  C3  UNL d   1      -2.294   0.311   2.790  0.00  0.00    -0.075 A 
ATOM      5  S   UNL d   1      -0.647   0.326   3.298  0.00  0.00     0.015 SA
ATOM      6  C4  UNL d   1      -0.074   0.213   1.697  0.00  0.00     0.022 A 
ATOM      7  C5  UNL d   1      -1.100   0.164   0.784  0.00  0.00     0.026 A 
ATOM      8  C6  UNL d   1      -2.397   0.221   1.398  0.00  0.00    -0.082 A 
ATOM      9  C7  UNL d   1      -3.691   0.198   0.824  0.00  0.00     0.045 A 
ENDROOT
TORSDOF 0
ENDMDL
