MODEL 1
REMARK minimizedAffinity 5.79201031
REMARK minimizedRMSD -1
REMARK  0 active torsions:
REMARK  status: ('A' for Active; 'I' for Inactive)
ROOT
ATOM      1  C   UNL d   1       0.827  -4.846   1.837  0.00  0.00    -0.002 A 
ATOM      2  C1  UNL d   1       0.757  -5.600   3.000  0.00  0.00     0.010 A 
ATOM      3  C2  UNL d   1       1.922  -6.000   3.658  0.00  0.00     0.041 A 
ATOM      4  C3  UNL d   1       3.170  -5.625   3.123  0.00  0.00    -0.075 A 
ATOM      5  S   UNL d   1       4.728  -6.000   3.758  0.00  0.00     0.015 SA
ATOM      6  C4  UNL d   1       5.523  -5.168   2.500  0.00  0.00     0.022 A 
ATOM      7  C5  UNL d   1       4.637  -4.612   1.609  0.00  0.00     0.026 A 
ATOM      8  C6  UNL d   1       3.266  -4.865   1.953  0.00  0.00    -0.082 A 
ATOM      9  C7  UNL d   1       2.067  -4.476   1.309  0.00  0.00     0.045 A 
ENDROOT
TORSDOF 0
ENDMDL
