MODEL 1
REMARK minimizedAffinity 12.1010628
REMARK minimizedRMSD -1
REMARK  0 active torsions:
REMARK  status: ('A' for Active; 'I' for Inactive)
ROOT
ATOM      1  C   UNL d   1      -5.613  -2.946  -5.999  0.00  0.00    -0.002 A 
ATOM      2  C1  UNL d   1      -4.840  -4.097  -5.998  0.00  0.00     0.010 A 
ATOM      3  C2  UNL d   1      -3.446  -4.017  -5.999  0.00  0.00     0.041 A 
ATOM      4  C3  UNL d   1      -2.836  -2.746  -5.999  0.00  0.00    -0.075 A 
ATOM      5  S   UNL d   1      -1.147  -2.404  -5.999  0.00  0.00     0.015 SA
ATOM      6  C4  UNL d   1      -1.412  -0.720  -6.000  0.00  0.00     0.022 A 
ATOM      7  C5  UNL d   1      -2.751  -0.409  -6.000  0.00  0.00     0.026 A 
ATOM      8  C6  UNL d   1      -3.594  -1.572  -5.999  0.00  0.00    -0.082 A 
ATOM      9  C7  UNL d   1      -5.005  -1.687  -5.999  0.00  0.00     0.045 A 
ENDROOT
TORSDOF 0
ENDMDL
