MODEL 1
REMARK minimizedAffinity 15.4541273
REMARK minimizedRMSD -1
REMARK  0 active torsions:
REMARK  status: ('A' for Active; 'I' for Inactive)
ROOT
ATOM      1  C   UNL d   1      -0.146   2.633   4.100  0.00  0.00    -0.002 A 
ATOM      2  C1  UNL d   1       0.892   1.731   3.912  0.00  0.00     0.010 A 
ATOM      3  C2  UNL d   1       0.711   0.596   3.118  0.00  0.00     0.041 A 
ATOM      4  C3  UNL d   1      -0.541   0.383   2.509  0.00  0.00    -0.075 A 
ATOM      5  S   UNL d   1      -0.992  -0.936   1.494  0.00  0.00     0.015 SA
ATOM      6  C4  UNL d   1      -2.571  -0.331   1.284  0.00  0.00     0.022 A 
ATOM      7  C5  UNL d   1      -2.767   0.847   1.965  0.00  0.00     0.026 A 
ATOM      8  C6  UNL d   1      -1.600   1.278   2.682  0.00  0.00    -0.082 A 
ATOM      9  C7  UNL d   1      -1.386   2.418   3.493  0.00  0.00     0.045 A 
ENDROOT
TORSDOF 0
ENDMDL
