MODEL 1
REMARK minimizedAffinity 7.93100786
REMARK minimizedRMSD -1
REMARK  0 active torsions:
REMARK  status: ('A' for Active; 'I' for Inactive)
ROOT
ATOM      1  C   UNL d   1      -1.400  -0.338   3.463  0.00  0.00    -0.002 A 
ATOM      2  C1  UNL d   1      -1.196   0.379   2.293  0.00  0.00     0.010 A 
ATOM      3  C2  UNL d   1      -2.279   0.792   1.514  0.00  0.00     0.041 A 
ATOM      4  C3  UNL d   1      -3.584   0.470   1.937  0.00  0.00    -0.075 A 
ATOM      5  S   UNL d   1      -5.062   0.872   1.145  0.00  0.00     0.015 SA
ATOM      6  C4  UNL d   1      -6.000   0.102   2.343  0.00  0.00     0.022 A 
ATOM      7  C5  UNL d   1      -5.220  -0.453   3.330  0.00  0.00     0.026 A 
ATOM      8  C6  UNL d   1      -3.815  -0.250   3.113  0.00  0.00    -0.082 A 
ATOM      9  C7  UNL d   1      -2.696  -0.654   3.880  0.00  0.00     0.045 A 
ENDROOT
TORSDOF 0
ENDMDL
