MODEL 1
REMARK minimizedAffinity 5.75142336
REMARK minimizedRMSD -1
REMARK  0 active torsions:
REMARK  status: ('A' for Active; 'I' for Inactive)
ROOT
ATOM      1  C   UNL d   1      -0.019   2.600   4.004  0.00  0.00    -0.002 A 
ATOM      2  C1  UNL d   1       0.714   1.447   3.762  0.00  0.00     0.010 A 
ATOM      3  C2  UNL d   1       0.158   0.391   3.037  0.00  0.00     0.041 A 
ATOM      4  C3  UNL d   1      -1.159   0.516   2.553  0.00  0.00    -0.075 A 
ATOM      5  S   UNL d   1      -2.046  -0.647   1.640  0.00  0.00     0.015 SA
ATOM      6  C4  UNL d   1      -3.418   0.360   1.549  0.00  0.00     0.022 A 
ATOM      7  C5  UNL d   1      -3.222   1.558   2.194  0.00  0.00     0.026 A 
ATOM      8  C6  UNL d   1      -1.917   1.668   2.783  0.00  0.00    -0.082 A 
ATOM      9  C7  UNL d   1      -1.325   2.721   3.522  0.00  0.00     0.045 A 
ENDROOT
TORSDOF 0
ENDMDL
