MODEL 1
REMARK minimizedAffinity 1.99551749
REMARK minimizedRMSD -1
REMARK  0 active torsions:
REMARK  status: ('A' for Active; 'I' for Inactive)
ROOT
ATOM      1  C   UNL d   1       0.675  -5.388   1.948  0.00  0.00    -0.002 A 
ATOM      2  C1  UNL d   1       0.771  -5.787   3.274  0.00  0.00     0.010 A 
ATOM      3  C2  UNL d   1       2.020  -6.000   3.863  0.00  0.00     0.041 A 
ATOM      4  C3  UNL d   1       3.180  -5.801   3.090  0.00  0.00    -0.075 A 
ATOM      5  S   UNL d   1       4.815  -6.000   3.600  0.00  0.00     0.015 SA
ATOM      6  C4  UNL d   1       5.424  -5.559   2.070  0.00  0.00     0.022 A 
ATOM      7  C5  UNL d   1       4.419  -5.264   1.180  0.00  0.00     0.026 A 
ATOM      8  C6  UNL d   1       3.109  -5.398   1.753  0.00  0.00    -0.082 A 
ATOM      9  C7  UNL d   1       1.829  -5.192   1.185  0.00  0.00     0.045 A 
ENDROOT
TORSDOF 0
ENDMDL
