MODEL 1
REMARK minimizedAffinity 3.14762378
REMARK minimizedRMSD -1
REMARK  0 active torsions:
REMARK  status: ('A' for Active; 'I' for Inactive)
ROOT
ATOM      1  C   UNL d   1      -1.899  -1.463   0.680  0.00  0.00    -0.002 A 
ATOM      2  C1  UNL d   1      -3.138  -2.026   0.410  0.00  0.00     0.010 A 
ATOM      3  C2  UNL d   1      -3.299  -3.413   0.389  0.00  0.00     0.041 A 
ATOM      4  C3  UNL d   1      -2.183  -4.232   0.649  0.00  0.00    -0.075 A 
ATOM      5  S   UNL d   1      -2.144  -5.956   0.678  0.00  0.00     0.015 SA
ATOM      6  C4  UNL d   1      -0.481  -5.986   1.050  0.00  0.00     0.022 A 
ATOM      7  C5  UNL d   1       0.047  -4.721   1.154  0.00  0.00     0.026 A 
ATOM      8  C6  UNL d   1      -0.925  -3.689   0.925  0.00  0.00    -0.082 A 
ATOM      9  C7  UNL d   1      -0.794  -2.280   0.937  0.00  0.00     0.045 A 
ENDROOT
TORSDOF 0
ENDMDL
