MODEL 1
REMARK minimizedAffinity 6.28938818
REMARK minimizedRMSD -1
REMARK  0 active torsions:
REMARK  status: ('A' for Active; 'I' for Inactive)
ROOT
ATOM      1  C   UNL d   1       4.914  -0.383   1.445  0.00  0.00    -0.002 A 
ATOM      2  C1  UNL d   1       4.325  -0.333   0.190  0.00  0.00     0.010 A 
ATOM      3  C2  UNL d   1       2.956  -0.094   0.056  0.00  0.00     0.041 A 
ATOM      4  C3  UNL d   1       2.181   0.096   1.217  0.00  0.00    -0.075 A 
ATOM      5  S   UNL d   1       0.486   0.403   1.298  0.00  0.00     0.015 SA
ATOM      6  C4  UNL d   1       0.504   0.475   3.000  0.00  0.00     0.022 A 
ATOM      7  C5  UNL d   1       1.764   0.272   3.512  0.00  0.00     0.026 A 
ATOM      8  C6  UNL d   1       2.751   0.051   2.493  0.00  0.00    -0.082 A 
ATOM      9  C7  UNL d   1       4.142  -0.194   2.595  0.00  0.00     0.045 A 
ENDROOT
TORSDOF 0
ENDMDL
