MODEL 1
REMARK minimizedAffinity -0.00741870888
REMARK minimizedRMSD -1
REMARK  0 active torsions:
REMARK  status: ('A' for Active; 'I' for Inactive)
ROOT
ATOM      1  C   UNL d   1      -0.988   1.410   0.038  0.00  0.00     0.124 A 
ATOM      2  C1  UNL d   1      -1.133   0.268   0.814  0.00  0.00     0.062 A 
ATOM      3  C2  UNL d   1      -0.670  -0.959   0.347  0.00  0.00     0.162 A 
ATOM      4  C3  UNL d   1      -0.057  -1.050  -0.902  0.00  0.00    -0.034 A 
ATOM      5  C4  UNL d   1       0.085   0.102  -1.677  0.00  0.00     0.162 A 
ATOM      6  C5  UNL d   1      -0.380   1.326  -1.206  0.00  0.00     0.062 A 
ATOM      7  F   UNL d   1      -0.239   2.428  -1.957  0.00  0.00    -0.097 F 
ATOM      8  F1  UNL d   1       0.669   0.050  -2.883  0.00  0.00    -0.096 F 
ATOM      9  I   UNL d   1       0.636  -2.883  -1.604  0.00  0.00    -0.060 I 
ATOM     10  F2  UNL d   1      -0.824  -2.046   1.118  0.00  0.00    -0.096 F 
ATOM     11  F3  UNL d   1      -1.721   0.346   2.016  0.00  0.00    -0.097 F 
ATOM     12  F4  UNL d   1      -1.435   2.589   0.489  0.00  0.00    -0.092 F 
ENDROOT
TORSDOF 0
ENDMDL
