MODEL 1
REMARK minimizedAffinity 2.71628404
REMARK minimizedRMSD -1
REMARK  0 active torsions:
REMARK  status: ('A' for Active; 'I' for Inactive)
ROOT
ATOM      1  C   UNL d   1       0.048   1.956   0.947  0.00  0.00     0.124 A 
ATOM      2  C1  UNL d   1       0.321   0.994   1.909  0.00  0.00     0.062 A 
ATOM      3  C2  UNL d   1       0.442  -0.344   1.547  0.00  0.00     0.162 A 
ATOM      4  C3  UNL d   1       0.291  -0.729   0.214  0.00  0.00    -0.034 A 
ATOM      5  C4  UNL d   1       0.015   0.245  -0.748  0.00  0.00     0.162 A 
ATOM      6  C5  UNL d   1      -0.105   1.581  -0.380  0.00  0.00     0.062 A 
ATOM      7  F   UNL d   1      -0.369   2.509  -1.311  0.00  0.00    -0.097 F 
ATOM      8  F1  UNL d   1      -0.136  -0.090  -2.038  0.00  0.00    -0.096 F 
ATOM      9  I   UNL d   1       0.471  -2.729  -0.332  0.00  0.00    -0.060 I 
ATOM     10  F2  UNL d   1       0.706  -1.253   2.498  0.00  0.00    -0.096 F 
ATOM     11  F3  UNL d   1       0.468   1.354   3.193  0.00  0.00    -0.097 F 
ATOM     12  F4  UNL d   1      -0.069   3.243   1.299  0.00  0.00    -0.092 F 
ENDROOT
TORSDOF 0
ENDMDL
