MODEL 1
REMARK minimizedAffinity 0.849144399
REMARK minimizedRMSD -1
REMARK  0 active torsions:
REMARK  status: ('A' for Active; 'I' for Inactive)
ROOT
ATOM      1  C   UNL d   1       0.488   0.368   1.656  0.00  0.00     0.124 A 
ATOM      2  C1  UNL d   1      -0.752   0.472   1.041  0.00  0.00     0.062 A 
ATOM      3  C2  UNL d   1      -1.088  -0.381  -0.006  0.00  0.00     0.162 A 
ATOM      4  C3  UNL d   1      -0.183  -1.349  -0.443  0.00  0.00    -0.034 A 
ATOM      5  C4  UNL d   1       1.062  -1.447   0.180  0.00  0.00     0.162 A 
ATOM      6  C5  UNL d   1       1.394  -0.591   1.225  0.00  0.00     0.062 A 
ATOM      7  F   UNL d   1       2.592  -0.694   1.819  0.00  0.00    -0.097 F 
ATOM      8  F1  UNL d   1       1.956  -2.366  -0.216  0.00  0.00    -0.096 F 
ATOM      9  I   UNL d   1      -0.682  -2.627  -2.008  0.00  0.00    -0.060 I 
ATOM     10  F2  UNL d   1      -2.293  -0.258  -0.582  0.00  0.00    -0.096 F 
ATOM     11  F3  UNL d   1      -1.628   1.399   1.455  0.00  0.00    -0.097 F 
ATOM     12  F4  UNL d   1       0.809   1.191   2.662  0.00  0.00    -0.092 F 
ENDROOT
TORSDOF 0
ENDMDL
