MODEL 1
REMARK minimizedAffinity -5.78698206
REMARK minimizedRMSD -1
REMARK  0 active torsions:
REMARK  status: ('A' for Active; 'I' for Inactive)
ROOT
ATOM      1  C   UNL d   1      -0.506   1.638   1.940  0.00  0.00     0.124 A 
ATOM      2  C1  UNL d   1      -0.813   2.322   0.772  0.00  0.00     0.062 A 
ATOM      3  C2  UNL d   1      -0.463   1.787  -0.464  0.00  0.00     0.162 A 
ATOM      4  C3  UNL d   1       0.196   0.560  -0.539  0.00  0.00    -0.034 A 
ATOM      5  C4  UNL d   1       0.502  -0.122   0.640  0.00  0.00     0.162 A 
ATOM      6  C5  UNL d   1       0.151   0.417   1.873  0.00  0.00     0.062 A 
ATOM      7  F   UNL d   1       0.448  -0.245   3.001  0.00  0.00    -0.097 F 
ATOM      8  F1  UNL d   1       1.135  -1.303   0.604  0.00  0.00    -0.096 F 
ATOM      9  I   UNL d   1       0.720  -0.244  -2.386  0.00  0.00    -0.060 I 
ATOM     10  F2  UNL d   1      -0.772   2.469  -1.577  0.00  0.00    -0.096 F 
ATOM     11  F3  UNL d   1      -1.447   3.502   0.834  0.00  0.00    -0.097 F 
ATOM     12  F4  UNL d   1      -0.843   2.155   3.129  0.00  0.00    -0.092 F 
ENDROOT
TORSDOF 0
ENDMDL
