MODEL 1
REMARK minimizedAffinity -1.18157899
REMARK minimizedRMSD -1
REMARK  0 active torsions:
REMARK  status: ('A' for Active; 'I' for Inactive)
ROOT
ATOM      1  C   UNL d   1       0.168   1.352   1.480  0.00  0.00     0.124 A 
ATOM      2  C1  UNL d   1       1.074   0.408   1.019  0.00  0.00     0.062 A 
ATOM      3  C2  UNL d   1       0.636  -0.663   0.245  0.00  0.00     0.162 A 
ATOM      4  C3  UNL d   1      -0.715  -0.794  -0.074  0.00  0.00    -0.034 A 
ATOM      5  C4  UNL d   1      -1.621   0.159   0.395  0.00  0.00     0.162 A 
ATOM      6  C5  UNL d   1      -1.178   1.228   1.168  0.00  0.00     0.062 A 
ATOM      7  F   UNL d   1      -2.055   2.139   1.613  0.00  0.00    -0.097 F 
ATOM      8  F1  UNL d   1      -2.927   0.063   0.107  0.00  0.00    -0.096 F 
ATOM      9  I   UNL d   1      -1.375  -2.394  -1.230  0.00  0.00    -0.060 I 
ATOM     10  F2  UNL d   1       1.534  -1.561  -0.187  0.00  0.00    -0.096 F 
ATOM     11  F3  UNL d   1       2.376   0.526   1.320  0.00  0.00    -0.097 F 
ATOM     12  F4  UNL d   1       0.593   2.381   2.225  0.00  0.00    -0.092 F 
ENDROOT
TORSDOF 0
ENDMDL
