MODEL 1
REMARK minimizedAffinity 0.135496348
REMARK minimizedRMSD -1
REMARK  0 active torsions:
REMARK  status: ('A' for Active; 'I' for Inactive)
ROOT
ATOM      1  C   UNL d   1       0.462   1.208   2.728  0.00  0.00     0.124 A 
ATOM      2  C1  UNL d   1      -0.416   1.730   1.788  0.00  0.00     0.062 A 
ATOM      3  C2  UNL d   1      -0.480   1.182   0.511  0.00  0.00     0.162 A 
ATOM      4  C3  UNL d   1       0.335   0.104   0.165  0.00  0.00    -0.034 A 
ATOM      5  C4  UNL d   1       1.215  -0.415   1.116  0.00  0.00     0.162 A 
ATOM      6  C5  UNL d   1       1.276   0.136   2.391  0.00  0.00     0.062 A 
ATOM      7  F   UNL d   1       2.125  -0.369   3.298  0.00  0.00    -0.097 F 
ATOM      8  F1  UNL d   1       2.013  -1.451   0.817  0.00  0.00    -0.096 F 
ATOM      9  I   UNL d   1       0.241  -0.718  -1.744  0.00  0.00    -0.060 I 
ATOM     10  F2  UNL d   1      -1.338   1.707  -0.378  0.00  0.00    -0.096 F 
ATOM     11  F3  UNL d   1      -1.203   2.767   2.111  0.00  0.00    -0.097 F 
ATOM     12  F4  UNL d   1       0.523   1.738   3.957  0.00  0.00    -0.092 F 
ENDROOT
TORSDOF 0
ENDMDL
