MODEL 1
REMARK minimizedAffinity 13.2244978
REMARK minimizedRMSD -1
REMARK  0 active torsions:
REMARK  status: ('A' for Active; 'I' for Inactive)
ROOT
ATOM      1  C   UNL d   1      -2.382   1.470  -1.184  0.00  0.00     0.124 A 
ATOM      2  C1  UNL d   1      -1.054   1.101  -1.349  0.00  0.00     0.062 A 
ATOM      3  C2  UNL d   1      -0.038   1.883  -0.807  0.00  0.00     0.162 A 
ATOM      4  C3  UNL d   1      -0.347   3.042  -0.094  0.00  0.00    -0.034 A 
ATOM      5  C4  UNL d   1      -1.685   3.407   0.066  0.00  0.00     0.162 A 
ATOM      6  C5  UNL d   1      -2.696   2.622  -0.478  0.00  0.00     0.062 A 
ATOM      7  F   UNL d   1      -3.979   2.980  -0.318  0.00  0.00    -0.097 F 
ATOM      8  F1  UNL d   1      -2.016   4.515   0.745  0.00  0.00    -0.096 F 
ATOM      9  I   UNL d   1       1.169   4.214   0.718  0.00  0.00    -0.060 I 
ATOM     10  F2  UNL d   1       1.236   1.503  -0.981  0.00  0.00    -0.096 F 
ATOM     11  F3  UNL d   1      -0.748  -0.012  -2.032  0.00  0.00    -0.097 F 
ATOM     12  F4  UNL d   1      -3.358   0.716  -1.708  0.00  0.00    -0.092 F 
ENDROOT
TORSDOF 0
ENDMDL
