MODEL 1
REMARK minimizedAffinity 15.1280155
REMARK minimizedRMSD -1
REMARK  0 active torsions:
REMARK  status: ('A' for Active; 'I' for Inactive)
ROOT
ATOM      1  C   UNL d   1       4.917  -2.374  -0.925  0.00  0.00     0.124 A 
ATOM      2  C1  UNL d   1       4.855  -1.240  -1.723  0.00  0.00     0.062 A 
ATOM      3  C2  UNL d   1       3.731  -0.420  -1.688  0.00  0.00     0.162 A 
ATOM      4  C3  UNL d   1       2.660  -0.730  -0.851  0.00  0.00    -0.034 A 
ATOM      5  C4  UNL d   1       2.729  -1.873  -0.052  0.00  0.00     0.162 A 
ATOM      6  C5  UNL d   1       3.854  -2.689  -0.090  0.00  0.00     0.062 A 
ATOM      7  F   UNL d   1       3.912  -3.785   0.681  0.00  0.00    -0.097 F 
ATOM      8  F1  UNL d   1       1.716  -2.201   0.765  0.00  0.00    -0.096 F 
ATOM      9  I   UNL d   1       0.977   0.493  -0.796  0.00  0.00    -0.060 I 
ATOM     10  F2  UNL d   1       3.699   0.669  -2.470  0.00  0.00    -0.096 F 
ATOM     11  F3  UNL d   1       5.881  -0.934  -2.531  0.00  0.00    -0.097 F 
ATOM     12  F4  UNL d   1       5.999  -3.162  -0.961  0.00  0.00    -0.092 F 
ENDROOT
TORSDOF 0
ENDMDL
