MODEL 1
REMARK minimizedAffinity -2.69687533
REMARK minimizedRMSD -1
REMARK  0 active torsions:
REMARK  status: ('A' for Active; 'I' for Inactive)
ROOT
ATOM      1  C   UNL d   1       1.128  -0.162  -0.600  0.00  0.00     0.020 A 
ATOM      2  C1  UNL d   1       0.522   1.092  -0.663  0.00  0.00     0.020 A 
ATOM      3  C2  UNL d   1      -0.787   1.258  -0.205  0.00  0.00     0.034 A 
ATOM      4  C3  UNL d   1      -1.494   0.169   0.317  0.00  0.00     0.017 A 
ATOM      5  C4  UNL d   1      -0.884  -1.089   0.380  0.00  0.00     0.017 A 
ATOM      6  C5  UNL d   1       0.426  -1.250  -0.080  0.00  0.00     0.034 A 
ATOM      7 Cl   UNL d   1      -1.693  -2.480   1.012  0.00  0.00    -0.070 Cl
ATOM      8 Cl1  UNL d   1      -3.109   0.448   0.865  0.00  0.00    -0.070 Cl
ENDROOT
TORSDOF 0
ENDMDL
