MODEL 1
REMARK minimizedAffinity -2.45929146
REMARK minimizedRMSD -1
REMARK  0 active torsions:
REMARK  status: ('A' for Active; 'I' for Inactive)
ROOT
ATOM      1  C   UNL d   1      -1.214  -2.809   0.616  0.00  0.00     0.020 A 
ATOM      2  C1  UNL d   1      -1.911  -1.938  -0.221  0.00  0.00     0.020 A 
ATOM      3  C2  UNL d   1      -1.308  -0.755  -0.654  0.00  0.00     0.034 A 
ATOM      4  C3  UNL d   1      -0.006  -0.440  -0.251  0.00  0.00     0.017 A 
ATOM      5  C4  UNL d   1       0.693  -1.315   0.588  0.00  0.00     0.017 A 
ATOM      6  C5  UNL d   1       0.085  -2.499   1.019  0.00  0.00     0.034 A 
ATOM      7 Cl   UNL d   1       2.304  -0.995   1.127  0.00  0.00    -0.070 Cl
ATOM      8 Cl1  UNL d   1       0.677   1.039  -0.826  0.00  0.00    -0.070 Cl
ENDROOT
TORSDOF 0
ENDMDL
