MODEL 1
REMARK minimizedAffinity -4.97648764
REMARK minimizedRMSD -1
REMARK  0 active torsions:
REMARK  status: ('A' for Active; 'I' for Inactive)
ROOT
ATOM      1  C   UNL d   1      -1.932  -2.354   1.506  0.00  0.00     0.020 A 
ATOM      2  C1  UNL d   1      -1.008  -2.832   0.578  0.00  0.00     0.020 A 
ATOM      3  C2  UNL d   1      -0.277  -1.935  -0.204  0.00  0.00     0.034 A 
ATOM      4  C3  UNL d   1      -0.469  -0.556  -0.059  0.00  0.00     0.017 A 
ATOM      5  C4  UNL d   1      -1.397  -0.078   0.873  0.00  0.00     0.017 A 
ATOM      6  C5  UNL d   1      -2.126  -0.980   1.653  0.00  0.00     0.034 A 
ATOM      7 Cl   UNL d   1      -1.689   1.610   1.108  0.00  0.00    -0.070 Cl
ATOM      8 Cl1  UNL d   1       0.470   0.495  -1.059  0.00  0.00    -0.070 Cl
ENDROOT
TORSDOF 0
ENDMDL
