MODEL 1
REMARK minimizedAffinity -2.87799788
REMARK minimizedRMSD -1
REMARK  0 active torsions:
REMARK  status: ('A' for Active; 'I' for Inactive)
ROOT
ATOM      1  C   UNL d   1      -1.279   1.274   0.128  0.00  0.00     0.020 A 
ATOM      2  C1  UNL d   1       0.073   1.533  -0.095  0.00  0.00     0.020 A 
ATOM      3  C2  UNL d   1       0.994   0.483  -0.090  0.00  0.00     0.034 A 
ATOM      4  C3  UNL d   1       0.565  -0.829   0.138  0.00  0.00     0.017 A 
ATOM      5  C4  UNL d   1      -0.792  -1.087   0.361  0.00  0.00     0.017 A 
ATOM      6  C5  UNL d   1      -1.711  -0.033   0.355  0.00  0.00     0.034 A 
ATOM      7 Cl   UNL d   1      -1.398  -2.681   0.650  0.00  0.00    -0.070 Cl
ATOM      8 Cl1  UNL d   1       1.759  -2.078   0.130  0.00  0.00    -0.070 Cl
ENDROOT
TORSDOF 0
ENDMDL
