MODEL 1
REMARK minimizedAffinity -2.30161834
REMARK minimizedRMSD -1
REMARK  0 active torsions:
REMARK  status: ('A' for Active; 'I' for Inactive)
ROOT
ATOM      1  C   UNL d   1       0.275  -2.616   0.216  0.00  0.00     0.020 A 
ATOM      2  C1  UNL d   1      -0.939  -2.752   0.889  0.00  0.00     0.020 A 
ATOM      3  C2  UNL d   1      -1.690  -1.619   1.209  0.00  0.00     0.034 A 
ATOM      4  C3  UNL d   1      -1.228  -0.346   0.857  0.00  0.00     0.017 A 
ATOM      5  C4  UNL d   1      -0.009  -0.211   0.182  0.00  0.00     0.017 A 
ATOM      6  C5  UNL d   1       0.739  -1.348  -0.137  0.00  0.00     0.034 A 
ATOM      7 Cl   UNL d   1       0.626   1.327  -0.286  0.00  0.00    -0.070 Cl
ATOM      8 Cl1  UNL d   1      -2.208   1.011   1.284  0.00  0.00    -0.070 Cl
ENDROOT
TORSDOF 0
ENDMDL
