MODEL 1
REMARK minimizedAffinity -1.68094528
REMARK minimizedRMSD -1
REMARK  0 active torsions:
REMARK  status: ('A' for Active; 'I' for Inactive)
ROOT
ATOM      1  C   UNL d   1      -0.137   2.388  -2.524  0.00  0.00     0.020 A 
ATOM      2  C1  UNL d   1       1.254   2.327  -2.463  0.00  0.00     0.020 A 
ATOM      3  C2  UNL d   1       1.876   1.465  -1.558  0.00  0.00     0.034 A 
ATOM      4  C3  UNL d   1       1.107   0.660  -0.709  0.00  0.00     0.017 A 
ATOM      5  C4  UNL d   1      -0.290   0.723  -0.771  0.00  0.00     0.017 A 
ATOM      6  C5  UNL d   1      -0.908   1.588  -1.680  0.00  0.00     0.034 A 
ATOM      7 Cl   UNL d   1      -1.307  -0.239   0.243  0.00  0.00    -0.070 Cl
ATOM      8 Cl1  UNL d   1       1.942  -0.383   0.386  0.00  0.00    -0.070 Cl
ENDROOT
TORSDOF 0
ENDMDL
