MODEL 1
REMARK minimizedAffinity -2.05002713
REMARK minimizedRMSD -1
REMARK  0 active torsions:
REMARK  status: ('A' for Active; 'I' for Inactive)
ROOT
ATOM      1  C   UNL d   1      -2.157  -1.682   0.324  0.00  0.00     0.020 A 
ATOM      2  C1  UNL d   1      -1.364  -2.382   1.232  0.00  0.00     0.020 A 
ATOM      3  C2  UNL d   1      -0.021  -2.034   1.398  0.00  0.00     0.034 A 
ATOM      4  C3  UNL d   1       0.532  -0.985   0.655  0.00  0.00     0.017 A 
ATOM      5  C4  UNL d   1      -0.266  -0.284  -0.257  0.00  0.00     0.017 A 
ATOM      6  C5  UNL d   1      -1.610  -0.636  -0.419  0.00  0.00     0.034 A 
ATOM      7 Cl   UNL d   1       0.345   1.022  -1.209  0.00  0.00    -0.070 Cl
ATOM      8 Cl1  UNL d   1       2.198  -0.610   0.911  0.00  0.00    -0.070 Cl
ENDROOT
TORSDOF 0
ENDMDL
