MODEL 1
REMARK minimizedAffinity -2.83290434
REMARK minimizedRMSD -1
REMARK  0 active torsions:
REMARK  status: ('A' for Active; 'I' for Inactive)
ROOT
ATOM      1  C   UNL d   1      -0.303  -2.125   0.046  0.00  0.00     0.020 A 
ATOM      2  C1  UNL d   1      -1.521  -1.923   0.694  0.00  0.00     0.020 A 
ATOM      3  C2  UNL d   1      -1.941  -0.628   1.003  0.00  0.00     0.034 A 
ATOM      4  C3  UNL d   1      -1.142   0.471   0.663  0.00  0.00     0.017 A 
ATOM      5  C4  UNL d   1       0.080   0.267   0.012  0.00  0.00     0.017 A 
ATOM      6  C5  UNL d   1       0.495  -1.033  -0.295  0.00  0.00     0.034 A 
ATOM      7 Cl   UNL d   1       1.119   1.572  -0.439  0.00  0.00    -0.070 Cl
ATOM      8 Cl1  UNL d   1      -1.724   2.045   1.075  0.00  0.00    -0.070 Cl
ENDROOT
TORSDOF 0
ENDMDL
