MODEL 1
REMARK minimizedAffinity -4.53758144
REMARK minimizedRMSD -1
REMARK  0 active torsions:
REMARK  status: ('A' for Active; 'I' for Inactive)
ROOT
ATOM      1  C   UNL d   1      -2.433  -0.900   1.444  0.00  0.00     0.020 A 
ATOM      2  C1  UNL d   1      -2.106  -2.235   1.211  0.00  0.00     0.020 A 
ATOM      3  C2  UNL d   1      -0.926  -2.557   0.536  0.00  0.00     0.034 A 
ATOM      4  C3  UNL d   1      -0.069  -1.543   0.093  0.00  0.00     0.017 A 
ATOM      5  C4  UNL d   1      -0.399  -0.203   0.328  0.00  0.00     0.017 A 
ATOM      6  C5  UNL d   1      -1.581   0.113   1.003  0.00  0.00     0.034 A 
ATOM      7 Cl   UNL d   1       0.608   1.103  -0.189  0.00  0.00    -0.070 Cl
ATOM      8 Cl1  UNL d   1       1.373  -2.014  -0.733  0.00  0.00    -0.070 Cl
ENDROOT
TORSDOF 0
ENDMDL
