MODEL 1
REMARK minimizedAffinity -2.57729506
REMARK minimizedRMSD -1
REMARK  0 active torsions:
REMARK  status: ('A' for Active; 'I' for Inactive)
ROOT
ATOM      1  C   UNL d   1       1.484  -0.480   0.156  0.00  0.00     0.020 A 
ATOM      2  C1  UNL d   1       1.496  -1.869   0.284  0.00  0.00     0.020 A 
ATOM      3  C2  UNL d   1       0.304  -2.559   0.512  0.00  0.00     0.034 A 
ATOM      4  C3  UNL d   1      -0.906  -1.862   0.612  0.00  0.00     0.017 A 
ATOM      5  C4  UNL d   1      -0.917  -0.468   0.483  0.00  0.00     0.017 A 
ATOM      6  C5  UNL d   1       0.280   0.218   0.255  0.00  0.00     0.034 A 
ATOM      7 Cl   UNL d   1      -2.370   0.461   0.594  0.00  0.00    -0.070 Cl
ATOM      8 Cl1  UNL d   1      -2.342  -2.780   0.893  0.00  0.00    -0.070 Cl
ENDROOT
TORSDOF 0
ENDMDL
