MODEL 1
REMARK minimizedAffinity -4.45104027
REMARK minimizedRMSD -1
REMARK  0 active torsions:
REMARK  status: ('A' for Active; 'I' for Inactive)
ROOT
ATOM      1  C   UNL d   1       0.780  -2.259   0.223  0.00  0.00     0.020 A 
ATOM      2  C1  UNL d   1      -0.496  -2.715   0.550  0.00  0.00     0.020 A 
ATOM      3  C2  UNL d   1      -1.532  -1.802   0.760  0.00  0.00     0.034 A 
ATOM      4  C3  UNL d   1      -1.293  -0.428   0.643  0.00  0.00     0.017 A 
ATOM      5  C4  UNL d   1      -0.011   0.029   0.315  0.00  0.00     0.017 A 
ATOM      6  C5  UNL d   1       1.022  -0.890   0.106  0.00  0.00     0.034 A 
ATOM      7 Cl   UNL d   1       0.361   1.709   0.153  0.00  0.00    -0.070 Cl
ATOM      8 Cl1  UNL d   1      -2.620   0.645   0.916  0.00  0.00    -0.070 Cl
ENDROOT
TORSDOF 0
ENDMDL
