MODEL 1
REMARK minimizedAffinity -3.86400151
REMARK minimizedRMSD -1
REMARK  0 active torsions:
REMARK  status: ('A' for Active; 'I' for Inactive)
ROOT
ATOM      1  C   UNL d   1      -0.002   1.699   0.351  0.00  0.00     0.020 A 
ATOM      2  C1  UNL d   1      -1.317   1.368   0.675  0.00  0.00     0.020 A 
ATOM      3  C2  UNL d   1      -1.691   0.027   0.791  0.00  0.00     0.034 A 
ATOM      4  C3  UNL d   1      -0.749  -0.987   0.582  0.00  0.00     0.017 A 
ATOM      5  C4  UNL d   1       0.571  -0.654   0.257  0.00  0.00     0.017 A 
ATOM      6  C5  UNL d   1       0.940   0.690   0.142  0.00  0.00     0.034 A 
ATOM      7 Cl   UNL d   1       1.789  -1.849  -0.015  0.00  0.00    -0.070 Cl
ATOM      8 Cl1  UNL d   1      -1.282  -2.623   0.742  0.00  0.00    -0.070 Cl
ENDROOT
TORSDOF 0
ENDMDL
