MODEL 1
REMARK minimizedAffinity -5.35694742
REMARK minimizedRMSD -1
REMARK  0 active torsions:
REMARK  status: ('A' for Active; 'I' for Inactive)
ROOT
ATOM      1  C   UNL d   1      -2.582  -1.131   0.934  0.00  0.00     0.020 A 
ATOM      2  C1  UNL d   1      -1.906  -2.304   1.268  0.00  0.00     0.020 A 
ATOM      3  C2  UNL d   1      -0.512  -2.352   1.190  0.00  0.00     0.034 A 
ATOM      4  C3  UNL d   1       0.209  -1.226   0.777  0.00  0.00     0.017 A 
ATOM      5  C4  UNL d   1      -0.471  -0.049   0.442  0.00  0.00     0.017 A 
ATOM      6  C5  UNL d   1      -1.867  -0.006   0.522  0.00  0.00     0.034 A 
ATOM      7 Cl   UNL d   1       0.350   1.381  -0.076  0.00  0.00    -0.070 Cl
ATOM      8 Cl1  UNL d   1       1.930  -1.356   0.704  0.00  0.00    -0.070 Cl
ENDROOT
TORSDOF 0
ENDMDL
