MODEL 1
REMARK minimizedAffinity -5.19952488
REMARK minimizedRMSD -1
REMARK  0 active torsions:
REMARK  status: ('A' for Active; 'I' for Inactive)
ROOT
ATOM      1  C   UNL d   1      -1.540   1.634   1.154  0.00  0.00     0.020 A 
ATOM      2  C1  UNL d   1      -0.284   1.917   0.620  0.00  0.00     0.020 A 
ATOM      3  C2  UNL d   1       0.564   0.875   0.237  0.00  0.00     0.034 A 
ATOM      4  C3  UNL d   1       0.156  -0.455   0.388  0.00  0.00     0.017 A 
ATOM      5  C4  UNL d   1      -1.105  -0.739   0.924  0.00  0.00     0.017 A 
ATOM      6  C5  UNL d   1      -1.950   0.308   1.306  0.00  0.00     0.034 A 
ATOM      7 Cl   UNL d   1      -1.678  -2.355   1.141  0.00  0.00    -0.070 Cl
ATOM      8 Cl1  UNL d   1       1.254  -1.694  -0.107  0.00  0.00    -0.070 Cl
ENDROOT
TORSDOF 0
ENDMDL
