MODEL 1
REMARK minimizedAffinity -4.37306023
REMARK minimizedRMSD -1
REMARK  1 active torsions:
REMARK  status: ('A' for Active; 'I' for Inactive)
REMARK    1  A    between atoms: C3_4  and  O_7 
ROOT
ATOM      1  C   UNL d   1       0.258   0.414  -0.437  0.00  0.00    -0.033 A 
ATOM      2  C1  UNL d   1      -0.777  -0.098   0.348  0.00  0.00     0.039 A 
ATOM      3  C2  UNL d   1      -0.897   0.287   1.685  0.00  0.00    -0.080 A 
ATOM      4  C3  UNL d   1       0.021   1.184   2.223  0.00  0.00     0.150 A 
ATOM      5  C4  UNL d   1       1.052   1.701   1.446  0.00  0.00    -0.007 A 
ATOM      6  C5  UNL d   1       1.172   1.315   0.111  0.00  0.00     0.039 A 
ENDROOT
BRANCH   4   7
ATOM      7  O   UNL d   1      -0.053   1.585   3.524  0.00  0.00    -0.526 OA
ATOM      8  H5  UNL d   1      -0.797   1.124   3.946  0.00  0.00     0.418 HD
ENDBRANCH   4   7
TORSDOF 1
ENDMDL
