MODEL 1
REMARK minimizedAffinity -3.89559722
REMARK minimizedRMSD -1
REMARK  1 active torsions:
REMARK  status: ('A' for Active; 'I' for Inactive)
REMARK    1  A    between atoms: C3_4  and  O_7 
ROOT
ATOM      1  C   UNL d   1      -0.463  -1.396  -0.731  0.00  0.00    -0.033 A 
ATOM      2  C1  UNL d   1       0.726  -0.891  -1.262  0.00  0.00     0.039 A 
ATOM      3  C2  UNL d   1       1.210   0.349  -0.840  0.00  0.00    -0.080 A 
ATOM      4  C3  UNL d   1       0.499   1.071   0.114  0.00  0.00     0.150 A 
ATOM      5  C4  UNL d   1      -0.684   0.573   0.650  0.00  0.00    -0.007 A 
ATOM      6  C5  UNL d   1      -1.167  -0.665   0.226  0.00  0.00     0.039 A 
ENDROOT
BRANCH   4   7
ATOM      7  O   UNL d   1       0.929   2.288   0.554  0.00  0.00    -0.526 OA
ATOM      8  H5  UNL d   1       1.743   2.518   0.075  0.00  0.00     0.418 HD
ENDBRANCH   4   7
TORSDOF 1
ENDMDL
