MODEL 1
REMARK minimizedAffinity -5.39601088
REMARK minimizedRMSD -1
REMARK  1 active torsions:
REMARK  status: ('A' for Active; 'I' for Inactive)
REMARK    1  A    between atoms: C3_4  and  O_7 
ROOT
ATOM      1  C   UNL d   1       0.774  -0.743  -0.545  0.00  0.00    -0.033 A 
ATOM      2  C1  UNL d   1      -0.351  -0.463   0.233  0.00  0.00     0.039 A 
ATOM      3  C2  UNL d   1      -0.425   0.732   0.952  0.00  0.00    -0.080 A 
ATOM      4  C3  UNL d   1       0.630   1.637   0.883  0.00  0.00     0.150 A 
ATOM      5  C4  UNL d   1       1.752   1.367   0.106  0.00  0.00    -0.007 A 
ATOM      6  C5  UNL d   1       1.824   0.173  -0.610  0.00  0.00     0.039 A 
ENDROOT
BRANCH   4   7
ATOM      7  O   UNL d   1       0.605   2.814   1.570  0.00  0.00    -0.526 OA
ATOM      8  H5  UNL d   1      -0.218   2.852   2.086  0.00  0.00     0.418 HD
ENDBRANCH   4   7
TORSDOF 1
ENDMDL
