MODEL 1
REMARK minimizedAffinity -3.53602934
REMARK minimizedRMSD -1
REMARK  1 active torsions:
REMARK  status: ('A' for Active; 'I' for Inactive)
REMARK    1  A    between atoms: C3_4  and  O_7 
ROOT
ATOM      1  C   UNL d   1      -1.476  -1.169  -2.931  0.00  0.00    -0.033 A 
ATOM      2  C1  UNL d   1      -2.673  -1.078  -3.644  0.00  0.00     0.039 A 
ATOM      3  C2  UNL d   1      -3.853  -1.585  -3.097  0.00  0.00    -0.080 A 
ATOM      4  C3  UNL d   1      -3.824  -2.178  -1.838  0.00  0.00     0.150 A 
ATOM      5  C4  UNL d   1      -2.636  -2.268  -1.120  0.00  0.00    -0.007 A 
ATOM      6  C5  UNL d   1      -1.458  -1.763  -1.668  0.00  0.00     0.039 A 
ENDROOT
BRANCH   4   7
ATOM      7  O   UNL d   1      -4.950  -2.691  -1.266  0.00  0.00    -0.526 OA
ATOM      8  H5  UNL d   1      -5.688  -2.584  -1.889  0.00  0.00     0.418 HD
ENDBRANCH   4   7
TORSDOF 1
ENDMDL
