MODEL 1
REMARK minimizedAffinity -5.38577127
REMARK minimizedRMSD -1
REMARK  1 active torsions:
REMARK  status: ('A' for Active; 'I' for Inactive)
REMARK    1  A    between atoms: C3_4  and  O_7 
ROOT
ATOM      1  C   UNL d   1       0.376  -0.146   0.145  0.00  0.00    -0.033 A 
ATOM      2  C1  UNL d   1      -0.731   0.316   0.859  0.00  0.00     0.039 A 
ATOM      3  C2  UNL d   1      -0.695   1.568   1.475  0.00  0.00    -0.080 A 
ATOM      4  C3  UNL d   1       0.453   2.348   1.370  0.00  0.00     0.150 A 
ATOM      5  C4  UNL d   1       1.559   1.897   0.657  0.00  0.00    -0.007 A 
ATOM      6  C5  UNL d   1       1.521   0.645   0.043  0.00  0.00     0.039 A 
ENDROOT
BRANCH   4   7
ATOM      7  O   UNL d   1       0.538   3.575   1.958  0.00  0.00    -0.526 OA
ATOM      8  H5  UNL d   1      -0.289   3.743   2.440  0.00  0.00     0.418 HD
ENDBRANCH   4   7
TORSDOF 1
ENDMDL
