MODEL 1
REMARK minimizedAffinity -2.37188387
REMARK minimizedRMSD -1
REMARK  1 active torsions:
REMARK  status: ('A' for Active; 'I' for Inactive)
REMARK    1  A    between atoms: C3_4  and  O_7 
ROOT
ATOM      1  C   UNL d   1      -2.804  -2.030  -3.505  0.00  0.00    -0.033 A 
ATOM      2  C1  UNL d   1      -2.106  -0.833  -3.676  0.00  0.00     0.039 A 
ATOM      3  C2  UNL d   1      -1.351  -0.307  -2.626  0.00  0.00    -0.080 A 
ATOM      4  C3  UNL d   1      -1.301  -0.987  -1.412  0.00  0.00     0.150 A 
ATOM      5  C4  UNL d   1      -1.992  -2.181  -1.236  0.00  0.00    -0.007 A 
ATOM      6  C5  UNL d   1      -2.746  -2.705  -2.285  0.00  0.00     0.039 A 
ENDROOT
BRANCH   4   7
ATOM      7  O   UNL d   1      -0.582  -0.510  -0.357  0.00  0.00    -0.526 OA
ATOM      8  H5  UNL d   1      -0.182   0.337  -0.615  0.00  0.00     0.418 HD
ENDBRANCH   4   7
TORSDOF 1
ENDMDL
