MODEL 1
REMARK minimizedAffinity -3.54419851
REMARK minimizedRMSD -1
REMARK  1 active torsions:
REMARK  status: ('A' for Active; 'I' for Inactive)
REMARK    1  A    between atoms: C3_4  and  O_7 
ROOT
ATOM      1  C   UNL d   1      -1.765  -2.038  -3.061  0.00  0.00    -0.033 A 
ATOM      2  C1  UNL d   1      -0.494  -1.545  -2.759  0.00  0.00     0.039 A 
ATOM      3  C2  UNL d   1      -0.221  -1.047  -1.483  0.00  0.00    -0.080 A 
ATOM      4  C3  UNL d   1      -1.227  -1.048  -0.520  0.00  0.00     0.150 A 
ATOM      5  C4  UNL d   1      -2.494  -1.541  -0.813  0.00  0.00    -0.007 A 
ATOM      6  C5  UNL d   1      -2.764  -2.038  -2.088  0.00  0.00     0.039 A 
ENDROOT
BRANCH   4   7
ATOM      7  O   UNL d   1      -1.009  -0.568   0.737  0.00  0.00    -0.526 OA
ATOM      8  H5  UNL d   1      -0.098  -0.234   0.786  0.00  0.00     0.418 HD
ENDBRANCH   4   7
TORSDOF 1
ENDMDL
