MODEL 1
REMARK minimizedAffinity -4.40347958
REMARK minimizedRMSD -1
REMARK  1 active torsions:
REMARK  status: ('A' for Active; 'I' for Inactive)
REMARK    1  A    between atoms: C3_4  and  O_7 
ROOT
ATOM      1  C   UNL d   1      -0.442  -1.091   0.009  0.00  0.00    -0.033 A 
ATOM      2  C1  UNL d   1      -0.976  -0.443   1.124  0.00  0.00     0.039 A 
ATOM      3  C2  UNL d   1      -0.429   0.766   1.560  0.00  0.00    -0.080 A 
ATOM      4  C3  UNL d   1       0.650   1.314   0.873  0.00  0.00     0.150 A 
ATOM      5  C4  UNL d   1       1.185   0.675  -0.241  0.00  0.00    -0.007 A 
ATOM      6  C5  UNL d   1       0.638  -0.532  -0.674  0.00  0.00     0.039 A 
ENDROOT
BRANCH   4   7
ATOM      7  O   UNL d   1       1.221   2.489   1.263  0.00  0.00    -0.526 OA
ATOM      8  H5  UNL d   1       0.766   2.801   2.063  0.00  0.00     0.418 HD
ENDBRANCH   4   7
TORSDOF 1
ENDMDL
