MODEL 1
REMARK minimizedAffinity -5.39955902
REMARK minimizedRMSD -1
REMARK  1 active torsions:
REMARK  status: ('A' for Active; 'I' for Inactive)
REMARK    1  A    between atoms: C3_4  and  O_7 
ROOT
ATOM      1  C   UNL d   1       1.035   2.484   0.719  0.00  0.00    -0.033 A 
ATOM      2  C1  UNL d   1       0.301   1.392   0.251  0.00  0.00     0.039 A 
ATOM      3  C2  UNL d   1       0.960   0.260  -0.232  0.00  0.00    -0.080 A 
ATOM      4  C3  UNL d   1       2.352   0.232  -0.240  0.00  0.00     0.150 A 
ATOM      5  C4  UNL d   1       3.090   1.314   0.228  0.00  0.00    -0.007 A 
ATOM      6  C5  UNL d   1       2.430   2.444   0.709  0.00  0.00     0.039 A 
ENDROOT
BRANCH   4   7
ATOM      7  O   UNL d   1       3.039  -0.849  -0.707  0.00  0.00    -0.526 OA
ATOM      8  H5  UNL d   1       2.399  -1.508  -1.024  0.00  0.00     0.418 HD
ENDBRANCH   4   7
TORSDOF 1
ENDMDL
