MODEL 1
REMARK minimizedAffinity -2.87476254
REMARK minimizedRMSD -1
REMARK  1 active torsions:
REMARK  status: ('A' for Active; 'I' for Inactive)
REMARK    1  A    between atoms: C3_4  and  O_7 
ROOT
ATOM      1  C   UNL d   1       0.498  -0.349  -0.641  0.00  0.00    -0.033 A 
ATOM      2  C1  UNL d   1       1.437   0.626  -0.298  0.00  0.00     0.039 A 
ATOM      3  C2  UNL d   1       1.289   1.355   0.883  0.00  0.00    -0.080 A 
ATOM      4  C3  UNL d   1       0.201   1.099   1.713  0.00  0.00     0.150 A 
ATOM      5  C4  UNL d   1      -0.736   0.126   1.380  0.00  0.00    -0.007 A 
ATOM      6  C5  UNL d   1      -0.588  -0.600   0.199  0.00  0.00     0.039 A 
ENDROOT
BRANCH   4   7
ATOM      7  O   UNL d   1       0.012   1.789   2.874  0.00  0.00    -0.526 OA
ATOM      8  H5  UNL d   1       0.721   2.447   2.959  0.00  0.00     0.418 HD
ENDBRANCH   4   7
TORSDOF 1
ENDMDL
