MODEL 1
REMARK minimizedAffinity 0.0703176409
REMARK minimizedRMSD -1
REMARK  1 active torsions:
REMARK  status: ('A' for Active; 'I' for Inactive)
REMARK    1  A    between atoms: C3_4  and  O_7 
ROOT
ATOM      1  C   UNL d   1      -2.403  -1.106  -3.571  0.00  0.00    -0.033 A 
ATOM      2  C1  UNL d   1      -1.174  -0.444  -3.577  0.00  0.00     0.039 A 
ATOM      3  C2  UNL d   1      -0.432  -0.334  -2.399  0.00  0.00    -0.080 A 
ATOM      4  C3  UNL d   1      -0.930  -0.892  -1.224  0.00  0.00     0.150 A 
ATOM      5  C4  UNL d   1      -2.151  -1.556  -1.212  0.00  0.00    -0.007 A 
ATOM      6  C5  UNL d   1      -2.891  -1.663  -2.389  0.00  0.00     0.039 A 
ENDROOT
BRANCH   4   7
ATOM      7  O   UNL d   1      -0.244  -0.806  -0.049  0.00  0.00    -0.526 OA
ATOM      8  H5  UNL d   1       0.568  -0.295  -0.203  0.00  0.00     0.418 HD
ENDBRANCH   4   7
TORSDOF 1
ENDMDL
