MODEL 1
REMARK minimizedAffinity -3.62676024
REMARK minimizedRMSD -1
REMARK  1 active torsions:
REMARK  status: ('A' for Active; 'I' for Inactive)
REMARK    1  A    between atoms: C3_4  and  O_7 
ROOT
ATOM      1  C   UNL d   1       0.779  -0.770  -0.458  0.00  0.00    -0.033 A 
ATOM      2  C1  UNL d   1       1.962  -0.090  -0.752  0.00  0.00     0.039 A 
ATOM      3  C2  UNL d   1       2.145   1.221  -0.310  0.00  0.00    -0.080 A 
ATOM      4  C3  UNL d   1       1.137   1.841   0.425  0.00  0.00     0.150 A 
ATOM      5  C4  UNL d   1      -0.043   1.169   0.724  0.00  0.00    -0.007 A 
ATOM      6  C5  UNL d   1      -0.224  -0.141   0.281  0.00  0.00     0.039 A 
ENDROOT
BRANCH   4   7
ATOM      7  O   UNL d   1       1.267   3.122   0.873  0.00  0.00    -0.526 OA
ATOM      8  H5  UNL d   1       2.121   3.470   0.567  0.00  0.00     0.418 HD
ENDBRANCH   4   7
TORSDOF 1
ENDMDL
