MODEL 1
REMARK minimizedAffinity -4.30140448
REMARK minimizedRMSD -1
REMARK  1 active torsions:
REMARK  status: ('A' for Active; 'I' for Inactive)
REMARK    1  A    between atoms: C3_4  and  O_7 
ROOT
ATOM      1  C   UNL d   1      -0.662  -0.150   0.810  0.00  0.00    -0.033 A 
ATOM      2  C1  UNL d   1      -0.965   0.515   2.000  0.00  0.00     0.039 A 
ATOM      3  C2  UNL d   1      -0.321   1.713   2.315  0.00  0.00    -0.080 A 
ATOM      4  C3  UNL d   1       0.621   2.235   1.433  0.00  0.00     0.150 A 
ATOM      5  C4  UNL d   1       0.925   1.580   0.244  0.00  0.00    -0.007 A 
ATOM      6  C5  UNL d   1       0.282   0.383  -0.069  0.00  0.00     0.039 A 
ENDROOT
BRANCH   4   7
ATOM      7  O   UNL d   1       1.279   3.399   1.700  0.00  0.00    -0.526 OA
ATOM      8  H5  UNL d   1       0.988   3.725   2.569  0.00  0.00     0.418 HD
ENDBRANCH   4   7
TORSDOF 1
ENDMDL
