MODEL 1
REMARK minimizedAffinity 1.86544752
REMARK minimizedRMSD -1
REMARK  2 active torsions:
REMARK  status: ('A' for Active; 'I' for Inactive)
REMARK    1  A    between atoms: C2'_3  and  C1'_4 
REMARK    2  A    between atoms: C1'_4  and  C1_5 
ROOT
ATOM      1  C1  I4B d   1      -0.469  -2.186   3.072  0.00  0.00    -0.075 A 
ATOM      2  C2  I4B d   1      -1.317  -2.999   3.782  0.00  0.00     0.003 A 
ATOM      3  C3  I4B d   1      -0.803  -3.886   4.758  0.00  0.00     0.002 A 
ATOM      4  C4  I4B d   1       0.561  -3.965   4.954  0.00  0.00    -0.004 A 
ATOM      5  C5  I4B d   1       1.417  -3.124   4.248  0.00  0.00     0.002 A 
ATOM      6  C6  I4B d   1       0.898  -2.220   3.310  0.00  0.00     0.003 A 
ENDROOT
BRANCH   1   7
ATOM      7  C1' I4B d   1      -1.044  -1.284   2.025  0.00  0.00     0.060 C 
BRANCH   7   8
ATOM      8  C2' I4B d   1       0.108  -0.668   1.257  0.00  0.00    -0.013 C 
ATOM      9  C4' I4B d   1       0.554  -1.564   0.132  0.00  0.00     0.013 C 
ATOM     10  C3' I4B d   1      -0.342   0.667   0.741  0.00  0.00     0.013 C 
ENDBRANCH   7   8
ENDBRANCH   1   7
TORSDOF 2
ENDMDL
