MODEL 1
REMARK minimizedAffinity -0.416435987
REMARK minimizedRMSD -1
REMARK  2 active torsions:
REMARK  status: ('A' for Active; 'I' for Inactive)
REMARK    1  A    between atoms: C2'_3  and  C1'_4 
REMARK    2  A    between atoms: C1'_4  and  C1_5 
ROOT
ATOM      1  C1  I4B d   1      -3.378  -3.791  -4.576  0.00  0.00    -0.075 A 
ATOM      2  C2  I4B d   1      -2.727  -4.232  -3.451  0.00  0.00     0.003 A 
ATOM      3  C3  I4B d   1      -1.649  -5.143  -3.562  0.00  0.00     0.002 A 
ATOM      4  C4  I4B d   1      -1.290  -5.623  -4.805  0.00  0.00    -0.004 A 
ATOM      5  C5  I4B d   1      -1.935  -5.157  -5.947  0.00  0.00     0.002 A 
ATOM      6  C6  I4B d   1      -2.978  -4.226  -5.833  0.00  0.00     0.003 A 
ENDROOT
BRANCH   1   7
ATOM      7  C1' I4B d   1      -4.534  -2.855  -4.420  0.00  0.00     0.060 C 
BRANCH   7   8
ATOM      8  C2' I4B d   1      -4.247  -1.953  -3.237  0.00  0.00    -0.013 C 
ATOM      9  C4' I4B d   1      -4.083  -0.520  -3.671  0.00  0.00     0.013 C 
ATOM     10  C3' I4B d   1      -5.377  -2.097  -2.261  0.00  0.00     0.013 C 
ENDBRANCH   7   8
ENDBRANCH   1   7
TORSDOF 2
ENDMDL
