MODEL 1
REMARK minimizedAffinity -0.150465101
REMARK minimizedRMSD -1
REMARK  2 active torsions:
REMARK  status: ('A' for Active; 'I' for Inactive)
REMARK    1  A    between atoms: C2'_3  and  C1'_4 
REMARK    2  A    between atoms: C1'_4  and  C1_5 
ROOT
ATOM      1  C1  I4B d   1       0.595  -2.053   1.256  0.00  0.00    -0.075 A 
ATOM      2  C2  I4B d   1       1.665  -1.841   0.422  0.00  0.00     0.003 A 
ATOM      3  C3  I4B d   1       1.702  -0.698  -0.413  0.00  0.00     0.002 A 
ATOM      4  C4  I4B d   1       0.633   0.175  -0.419  0.00  0.00    -0.004 A 
ATOM      5  C5  I4B d   1      -0.440  -0.029   0.444  0.00  0.00     0.002 A 
ATOM      6  C6  I4B d   1      -0.454  -1.143   1.296  0.00  0.00     0.003 A 
ENDROOT
BRANCH   1   7
ATOM      7  C1' I4B d   1       0.573  -3.287   2.101  0.00  0.00     0.060 C 
BRANCH   7   8
ATOM      8  C2' I4B d   1       0.803  -2.872   3.540  0.00  0.00    -0.013 C 
ATOM      9  C4' I4B d   1      -0.500  -2.603   4.245  0.00  0.00     0.013 C 
ATOM     10  C3' I4B d   1       1.571  -3.967   4.220  0.00  0.00     0.013 C 
ENDBRANCH   7   8
ENDBRANCH   1   7
TORSDOF 2
ENDMDL
