MODEL 1
REMARK minimizedAffinity 4.54923105
REMARK minimizedRMSD -1
REMARK  2 active torsions:
REMARK  status: ('A' for Active; 'I' for Inactive)
REMARK    1  A    between atoms: C2'_3  and  C1'_4 
REMARK    2  A    between atoms: C1'_4  and  C1_5 
ROOT
ATOM      1  C1  I4B d   1       0.577  -1.682   1.494  0.00  0.00    -0.075 A 
ATOM      2  C2  I4B d   1      -0.370  -0.725   1.228  0.00  0.00     0.003 A 
ATOM      3  C3  I4B d   1      -0.047   0.394   0.423  0.00  0.00     0.002 A 
ATOM      4  C4  I4B d   1       1.241   0.541  -0.050  0.00  0.00    -0.004 A 
ATOM      5  C5  I4B d   1       2.194  -0.442   0.202  0.00  0.00     0.002 A 
ATOM      6  C6  I4B d   1       1.857  -1.567   0.968  0.00  0.00     0.003 A 
ENDROOT
BRANCH   1   7
ATOM      7  C1' I4B d   1       0.210  -2.834   2.375  0.00  0.00     0.060 C 
BRANCH   7   8
ATOM      8  C2' I4B d   1       0.339  -2.380   3.815  0.00  0.00    -0.013 C 
ATOM      9  C4' I4B d   1      -1.003  -2.012   4.392  0.00  0.00     0.013 C 
ATOM     10  C3' I4B d   1       0.978  -3.490   4.595  0.00  0.00     0.013 C 
ENDBRANCH   7   8
ENDBRANCH   1   7
TORSDOF 2
ENDMDL
