MODEL 1
REMARK minimizedAffinity 0.921237946
REMARK minimizedRMSD -1
REMARK  2 active torsions:
REMARK  status: ('A' for Active; 'I' for Inactive)
REMARK    1  A    between atoms: C2'_3  and  C1'_4 
REMARK    2  A    between atoms: C1'_4  and  C1_5 
ROOT
ATOM      1  C1  I4B d   1      -1.780  -0.825  -0.445  0.00  0.00    -0.075 A 
ATOM      2  C2  I4B d   1      -2.922  -0.067  -0.521  0.00  0.00     0.003 A 
ATOM      3  C3  I4B d   1      -4.002  -0.485  -1.336  0.00  0.00     0.002 A 
ATOM      4  C4  I4B d   1      -3.879  -1.633  -2.092  0.00  0.00    -0.004 A 
ATOM      5  C5  I4B d   1      -2.729  -2.412  -1.996  0.00  0.00     0.002 A 
ATOM      6  C6  I4B d   1      -1.678  -2.013  -1.158  0.00  0.00     0.003 A 
ENDROOT
BRANCH   1   7
ATOM      7  C1' I4B d   1      -0.646  -0.338   0.400  0.00  0.00     0.060 C 
BRANCH   7   8
ATOM      8  C2' I4B d   1       0.440  -1.394   0.378  0.00  0.00    -0.013 C 
ATOM      9  C4' I4B d   1       1.791  -0.781   0.117  0.00  0.00     0.013 C 
ATOM     10  C3' I4B d   1       0.416  -2.111   1.694  0.00  0.00     0.013 C 
ENDBRANCH   7   8
ENDBRANCH   1   7
TORSDOF 2
ENDMDL
