MODEL 1
REMARK minimizedAffinity 9.21528625
REMARK minimizedRMSD -1
REMARK  2 active torsions:
REMARK  status: ('A' for Active; 'I' for Inactive)
REMARK    1  A    between atoms: C2'_3  and  C1'_4 
REMARK    2  A    between atoms: C1'_4  and  C1_5 
ROOT
ATOM      1  C1  I4B d   1       0.023  -2.757   2.714  0.00  0.00    -0.075 A 
ATOM      2  C2  I4B d   1      -0.841  -2.666   3.776  0.00  0.00     0.003 A 
ATOM      3  C3  I4B d   1      -0.404  -2.999   5.081  0.00  0.00     0.002 A 
ATOM      4  C4  I4B d   1       0.881  -3.463   5.270  0.00  0.00    -0.004 A 
ATOM      5  C5  I4B d   1       1.763  -3.533   4.195  0.00  0.00     0.002 A 
ATOM      6  C6  I4B d   1       1.336  -3.166   2.911  0.00  0.00     0.003 A 
ENDROOT
BRANCH   1   7
ATOM      7  C1' I4B d   1      -0.481  -2.430   1.344  0.00  0.00     0.060 C 
BRANCH   7   8
ATOM      8  C2' I4B d   1       0.107  -1.094   0.937  0.00  0.00    -0.013 C 
ATOM      9  C4' I4B d   1       0.904  -1.214  -0.335  0.00  0.00     0.013 C 
ATOM     10  C3' I4B d   1      -1.022  -0.120   0.779  0.00  0.00     0.013 C 
ENDBRANCH   7   8
ENDBRANCH   1   7
TORSDOF 2
ENDMDL
