MODEL 1
REMARK minimizedAffinity -7.02459478
REMARK minimizedRMSD -1
REMARK  2 active torsions:
REMARK  status: ('A' for Active; 'I' for Inactive)
REMARK    1  A    between atoms: C2'_3  and  C1'_4 
REMARK    2  A    between atoms: C1'_4  and  C1_5 
ROOT
ATOM      1  C1  I4B d   1      -2.968  -2.213   2.884  0.00  0.00    -0.075 A 
ATOM      2  C2  I4B d   1      -1.820  -2.016   3.611  0.00  0.00     0.003 A 
ATOM      3  C3  I4B d   1      -0.554  -2.120   2.986  0.00  0.00     0.002 A 
ATOM      4  C4  I4B d   1      -0.481  -2.470   1.653  0.00  0.00    -0.004 A 
ATOM      5  C5  I4B d   1      -1.646  -2.646   0.912  0.00  0.00     0.002 A 
ATOM      6  C6  I4B d   1      -2.898  -2.505   1.528  0.00  0.00     0.003 A 
ENDROOT
BRANCH   1   7
ATOM      7  C1' I4B d   1      -4.287  -2.127   3.583  0.00  0.00     0.060 C 
BRANCH   7   8
ATOM      8  C2' I4B d   1      -4.521  -3.441   4.302  0.00  0.00    -0.013 C 
ATOM      9  C4' I4B d   1      -4.630  -3.237   5.790  0.00  0.00     0.013 C 
ATOM     10  C3' I4B d   1      -5.770  -4.057   3.746  0.00  0.00     0.013 C 
ENDBRANCH   7   8
ENDBRANCH   1   7
TORSDOF 2
ENDMDL
