MODEL 1
REMARK minimizedAffinity -1.64556706
REMARK minimizedRMSD -1
REMARK  2 active torsions:
REMARK  status: ('A' for Active; 'I' for Inactive)
REMARK    1  A    between atoms: C2'_3  and  C1'_4 
REMARK    2  A    between atoms: C1'_4  and  C1_5 
ROOT
ATOM      1  C1  I4B d   1       0.563   3.257  -3.913  0.00  0.00    -0.075 A 
ATOM      2  C2  I4B d   1      -0.426   2.615  -4.616  0.00  0.00     0.003 A 
ATOM      3  C3  I4B d   1      -1.787   2.929  -4.380  0.00  0.00     0.002 A 
ATOM      4  C4  I4B d   1      -2.113   3.848  -3.404  0.00  0.00    -0.004 A 
ATOM      5  C5  I4B d   1      -1.108   4.515  -2.708  0.00  0.00     0.002 A 
ATOM      6  C6  I4B d   1       0.239   4.227  -2.973  0.00  0.00     0.003 A 
ENDROOT
BRANCH   1   7
ATOM      7  C1' I4B d   1       1.988   2.878  -4.164  0.00  0.00     0.060 C 
BRANCH   7   8
ATOM      8  C2' I4B d   1       2.553   2.311  -2.878  0.00  0.00    -0.013 C 
ATOM      9  C4' I4B d   1       2.026   0.925  -2.615  0.00  0.00     0.013 C 
ATOM     10  C3' I4B d   1       4.049   2.309  -2.991  0.00  0.00     0.013 C 
ENDBRANCH   7   8
ENDBRANCH   1   7
TORSDOF 2
ENDMDL
