MODEL 1
REMARK minimizedAffinity 6.9114933
REMARK minimizedRMSD -1
REMARK  2 active torsions:
REMARK  status: ('A' for Active; 'I' for Inactive)
REMARK    1  A    between atoms: C2'_3  and  C1'_4 
REMARK    2  A    between atoms: C1'_4  and  C1_5 
ROOT
ATOM      1  C1  I4B d   1       0.650  -2.405   2.762  0.00  0.00    -0.075 A 
ATOM      2  C2  I4B d   1       1.701  -3.080   3.329  0.00  0.00     0.003 A 
ATOM      3  C3  I4B d   1       1.601  -3.573   4.653  0.00  0.00     0.002 A 
ATOM      4  C4  I4B d   1       0.458  -3.326   5.385  0.00  0.00    -0.004 A 
ATOM      5  C5  I4B d   1      -0.616  -2.660   4.801  0.00  0.00     0.002 A 
ATOM      6  C6  I4B d   1      -0.525  -2.208   3.477  0.00  0.00     0.003 A 
ENDROOT
BRANCH   1   7
ATOM      7  C1' I4B d   1       0.802  -1.869   1.374  0.00  0.00     0.060 C 
BRANCH   7   8
ATOM      8  C2' I4B d   1      -0.160  -0.710   1.212  0.00  0.00    -0.013 C 
ATOM      9  C4' I4B d   1       0.554   0.532   0.748  0.00  0.00     0.013 C 
ATOM     10  C3' I4B d   1      -1.221  -1.122   0.235  0.00  0.00     0.013 C 
ENDBRANCH   7   8
ENDBRANCH   1   7
TORSDOF 2
ENDMDL
