MODEL 1
REMARK minimizedAffinity 0.913675189
REMARK minimizedRMSD -1
REMARK  2 active torsions:
REMARK  status: ('A' for Active; 'I' for Inactive)
REMARK    1  A    between atoms: C2'_3  and  C1'_4 
REMARK    2  A    between atoms: C1'_4  and  C1_5 
ROOT
ATOM      1  C1  I4B d   1       0.151  -2.191   2.516  0.00  0.00    -0.075 A 
ATOM      2  C2  I4B d   1       1.350  -2.860   2.512  0.00  0.00     0.003 A 
ATOM      3  C3  I4B d   1       1.835  -3.459   3.700  0.00  0.00     0.002 A 
ATOM      4  C4  I4B d   1       1.119  -3.324   4.871  0.00  0.00    -0.004 A 
ATOM      5  C5  I4B d   1      -0.107  -2.666   4.868  0.00  0.00     0.002 A 
ATOM      6  C6  I4B d   1      -0.601  -2.106   3.680  0.00  0.00     0.003 A 
ENDROOT
BRANCH   1   7
ATOM      7  C1' I4B d   1      -0.315  -1.542   1.252  0.00  0.00     0.060 C 
BRANCH   7   8
ATOM      8  C2' I4B d   1       0.848  -0.765   0.669  0.00  0.00    -0.013 C 
ATOM      9  C4' I4B d   1       1.088  -1.140  -0.770  0.00  0.00     0.013 C 
ATOM     10  C3' I4B d   1       0.542   0.697   0.804  0.00  0.00     0.013 C 
ENDBRANCH   7   8
ENDBRANCH   1   7
TORSDOF 2
ENDMDL
