MODEL 1
REMARK minimizedAffinity 1.50170994
REMARK minimizedRMSD -1
REMARK  2 active torsions:
REMARK  status: ('A' for Active; 'I' for Inactive)
REMARK    1  A    between atoms: C2'_3  and  C1'_4 
REMARK    2  A    between atoms: C1'_4  and  C1_5 
ROOT
ATOM      1  C1  I4B d   1      -4.068  -3.614  -5.671  0.00  0.00    -0.075 A 
ATOM      2  C2  I4B d   1      -2.700  -3.514  -5.640  0.00  0.00     0.003 A 
ATOM      3  C3  I4B d   1      -1.897  -4.669  -5.803  0.00  0.00     0.002 A 
ATOM      4  C4  I4B d   1      -2.501  -5.902  -5.944  0.00  0.00    -0.004 A 
ATOM      5  C5  I4B d   1      -3.888  -5.998  -5.998  0.00  0.00     0.002 A 
ATOM      6  C6  I4B d   1      -4.677  -4.846  -5.873  0.00  0.00     0.003 A 
ENDROOT
BRANCH   1   7
ATOM      7  C1' I4B d   1      -4.886  -2.379  -5.462  0.00  0.00     0.060 C 
BRANCH   7   8
ATOM      8  C2' I4B d   1      -4.265  -1.595  -4.323  0.00  0.00    -0.013 C 
ATOM      9  C4' I4B d   1      -3.824  -0.229  -4.778  0.00  0.00     0.013 C 
ATOM     10  C3' I4B d   1      -5.278  -1.498  -3.222  0.00  0.00     0.013 C 
ENDBRANCH   7   8
ENDBRANCH   1   7
TORSDOF 2
ENDMDL
