MODEL 1
REMARK minimizedAffinity -4.93886709
REMARK minimizedRMSD -1
REMARK  2 active torsions:
REMARK  status: ('A' for Active; 'I' for Inactive)
REMARK    1  A    between atoms: C1_2  and  C2_3 
REMARK    2  A    between atoms: C2_3  and  C3_4 
ROOT
ATOM      1  C3  UNL d   1       0.283  -0.919  -0.323  0.00  0.00    -0.075 A 
ATOM      2  C4  UNL d   1       0.099  -1.144   1.049  0.00  0.00     0.002 A 
ATOM      3  C5  UNL d   1      -0.649  -0.252   1.818  0.00  0.00     0.002 A 
ATOM      4  C6  UNL d   1      -1.212   0.878   1.230  0.00  0.00    -0.004 A 
ATOM      5  C7  UNL d   1      -1.021   1.120  -0.129  0.00  0.00     0.002 A 
ATOM      6  C8  UNL d   1      -0.277   0.227  -0.902  0.00  0.00     0.002 A 
ENDROOT
BRANCH   1   7
ATOM      7  C2  UNL d   1       1.067  -1.896  -1.167  0.00  0.00     0.056 C 
BRANCH   7   8
ATOM      8  C1  UNL d   1       0.312  -2.398  -2.402  0.00  0.00     0.007 C 
ATOM      9  C   UNL d   1      -0.202  -3.824  -2.253  0.00  0.00     0.009 C 
ENDBRANCH   7   8
ENDBRANCH   1   7
TORSDOF 2
ENDMDL
