MODEL 1
REMARK minimizedAffinity -4.62095261
REMARK minimizedRMSD -1
REMARK  2 active torsions:
REMARK  status: ('A' for Active; 'I' for Inactive)
REMARK    1  A    between atoms: C1_2  and  C2_3 
REMARK    2  A    between atoms: C2_3  and  C3_4 
ROOT
ATOM      1  C3  UNL d   1       0.216  -0.677   0.067  0.00  0.00    -0.075 A 
ATOM      2  C4  UNL d   1      -0.068  -1.135   1.362  0.00  0.00     0.002 A 
ATOM      3  C5  UNL d   1      -0.804  -0.346   2.247  0.00  0.00     0.002 A 
ATOM      4  C6  UNL d   1      -1.257   0.911   1.853  0.00  0.00    -0.004 A 
ATOM      5  C7  UNL d   1      -0.966   1.383   0.575  0.00  0.00     0.002 A 
ATOM      6  C8  UNL d   1      -0.233   0.595  -0.314  0.00  0.00     0.002 A 
ENDROOT
BRANCH   1   7
ATOM      7  C2  UNL d   1       0.987  -1.537  -0.905  0.00  0.00     0.056 C 
BRANCH   7   8
ATOM      8  C1  UNL d   1       0.132  -2.127  -2.031  0.00  0.00     0.007 C 
ATOM      9  C   UNL d   1      -0.231  -3.589  -1.806  0.00  0.00     0.009 C 
ENDBRANCH   7   8
ENDBRANCH   1   7
TORSDOF 2
ENDMDL
