MODEL 1
REMARK minimizedAffinity -2.4873476
REMARK minimizedRMSD -1
REMARK  2 active torsions:
REMARK  status: ('A' for Active; 'I' for Inactive)
REMARK    1  A    between atoms: C1_2  and  C2_3 
REMARK    2  A    between atoms: C2_3  and  C3_4 
ROOT
ATOM      1  C3  UNL d   1       0.897  -1.340  -0.140  0.00  0.00    -0.075 A 
ATOM      2  C4  UNL d   1       1.217  -0.783  -1.387  0.00  0.00     0.002 A 
ATOM      3  C5  UNL d   1       1.306  -1.589  -2.522  0.00  0.00     0.002 A 
ATOM      4  C6  UNL d   1       1.088  -2.962  -2.424  0.00  0.00    -0.004 A 
ATOM      5  C7  UNL d   1       0.787  -3.529  -1.187  0.00  0.00     0.002 A 
ATOM      6  C8  UNL d   1       0.692  -2.723  -0.051  0.00  0.00     0.002 A 
ENDROOT
BRANCH   1   7
ATOM      7  C2  UNL d   1       0.770  -0.468   1.086  0.00  0.00     0.056 C 
BRANCH   7   8
ATOM      8  C1  UNL d   1      -0.670  -0.291   1.578  0.00  0.00     0.007 C 
ATOM      9  C   UNL d   1      -1.049   1.165   1.814  0.00  0.00     0.009 C 
ENDBRANCH   7   8
ENDBRANCH   1   7
TORSDOF 2
ENDMDL
