MODEL 1
REMARK minimizedAffinity -3.25182152
REMARK minimizedRMSD -1
REMARK  2 active torsions:
REMARK  status: ('A' for Active; 'I' for Inactive)
REMARK    1  A    between atoms: C1_2  and  C2_3 
REMARK    2  A    between atoms: C2_3  and  C3_4 
ROOT
ATOM      1  C3  UNL d   1       0.601  -0.766  -0.674  0.00  0.00    -0.075 A 
ATOM      2  C4  UNL d   1      -0.130  -1.004   0.499  0.00  0.00     0.002 A 
ATOM      3  C5  UNL d   1      -0.771   0.045   1.159  0.00  0.00     0.002 A 
ATOM      4  C6  UNL d   1      -0.682   1.343   0.662  0.00  0.00    -0.004 A 
ATOM      5  C7  UNL d   1       0.055   1.594  -0.494  0.00  0.00     0.002 A 
ATOM      6  C8  UNL d   1       0.694   0.546  -1.159  0.00  0.00     0.002 A 
ENDROOT
BRANCH   1   7
ATOM      7  C2  UNL d   1       1.273  -1.901  -1.409  0.00  0.00     0.056 C 
BRANCH   7   8
ATOM      8  C1  UNL d   1       0.443  -2.474  -2.563  0.00  0.00     0.007 C 
ATOM      9  C   UNL d   1      -0.307  -3.746  -2.189  0.00  0.00     0.009 C 
ENDBRANCH   7   8
ENDBRANCH   1   7
TORSDOF 2
ENDMDL
