MODEL 1
REMARK minimizedAffinity -2.68229818
REMARK minimizedRMSD -1
REMARK  2 active torsions:
REMARK  status: ('A' for Active; 'I' for Inactive)
REMARK    1  A    between atoms: C1_2  and  C2_3 
REMARK    2  A    between atoms: C2_3  and  C3_4 
ROOT
ATOM      1  C3  UNL d   1       0.127  -0.609  -0.069  0.00  0.00    -0.075 A 
ATOM      2  C4  UNL d   1      -0.511  -0.646   1.179  0.00  0.00     0.002 A 
ATOM      3  C5  UNL d   1      -1.042   0.517   1.738  0.00  0.00     0.002 A 
ATOM      4  C6  UNL d   1      -0.934   1.730   1.063  0.00  0.00    -0.004 A 
ATOM      5  C7  UNL d   1      -0.288   1.782  -0.170  0.00  0.00     0.002 A 
ATOM      6  C8  UNL d   1       0.240   0.619  -0.734  0.00  0.00     0.002 A 
ENDROOT
BRANCH   1   7
ATOM      7  C2  UNL d   1       0.678  -1.869  -0.693  0.00  0.00     0.056 C 
BRANCH   7   8
ATOM      8  C1  UNL d   1      -0.218  -2.469  -1.783  0.00  0.00     0.007 C 
ATOM      9  C   UNL d   1      -0.174  -3.990  -1.825  0.00  0.00     0.009 C 
ENDBRANCH   7   8
ENDBRANCH   1   7
TORSDOF 2
ENDMDL
