MODEL 1
REMARK minimizedAffinity -4.23572588
REMARK minimizedRMSD -1
REMARK  2 active torsions:
REMARK  status: ('A' for Active; 'I' for Inactive)
REMARK    1  A    between atoms: C1_2  and  C2_3 
REMARK    2  A    between atoms: C2_3  and  C3_4 
ROOT
ATOM      1  C3  UNL d   1       0.399  -1.132   0.077  0.00  0.00    -0.075 A 
ATOM      2  C4  UNL d   1      -0.018  -1.170   1.416  0.00  0.00     0.002 A 
ATOM      3  C5  UNL d   1      -0.703  -0.091   1.975  0.00  0.00     0.002 A 
ATOM      4  C6  UNL d   1      -0.971   1.041   1.208  0.00  0.00    -0.004 A 
ATOM      5  C7  UNL d   1      -0.547   1.096  -0.118  0.00  0.00     0.002 A 
ATOM      6  C8  UNL d   1       0.135   0.016  -0.681  0.00  0.00     0.002 A 
ENDROOT
BRANCH   1   7
ATOM      7  C2  UNL d   1       1.115  -2.308  -0.542  0.00  0.00     0.056 C 
BRANCH   7   8
ATOM      8  C1  UNL d   1       0.691  -2.608  -1.984  0.00  0.00     0.007 C 
ATOM      9  C   UNL d   1       0.203  -4.038  -2.181  0.00  0.00     0.009 C 
ENDBRANCH   7   8
ENDBRANCH   1   7
TORSDOF 2
ENDMDL
