MODEL 1
REMARK minimizedAffinity -5.36967802
REMARK minimizedRMSD -1
REMARK  2 active torsions:
REMARK  status: ('A' for Active; 'I' for Inactive)
REMARK    1  A    between atoms: C1_2  and  C2_3 
REMARK    2  A    between atoms: C2_3  and  C3_4 
ROOT
ATOM      1  C3  UNL d   1       0.070   0.291   0.183  0.00  0.00    -0.075 A 
ATOM      2  C4  UNL d   1      -0.429   1.518  -0.276  0.00  0.00     0.002 A 
ATOM      3  C5  UNL d   1      -1.109   2.375   0.589  0.00  0.00     0.002 A 
ATOM      4  C6  UNL d   1      -1.309   2.012   1.919  0.00  0.00    -0.004 A 
ATOM      5  C7  UNL d   1      -0.833   0.787   2.382  0.00  0.00     0.002 A 
ATOM      6  C8  UNL d   1      -0.148  -0.070   1.520  0.00  0.00     0.002 A 
ENDROOT
BRANCH   1   7
ATOM      7  C2  UNL d   1       0.832  -0.628  -0.741  0.00  0.00     0.056 C 
BRANCH   7   8
ATOM      8  C1  UNL d   1       0.043  -1.865  -1.182  0.00  0.00     0.007 C 
ATOM      9  C   UNL d   1       0.876  -2.854  -1.987  0.00  0.00     0.009 C 
ENDBRANCH   7   8
ENDBRANCH   1   7
TORSDOF 2
ENDMDL
