MODEL 1
REMARK minimizedAffinity -5.74445438
REMARK minimizedRMSD -1
REMARK  2 active torsions:
REMARK  status: ('A' for Active; 'I' for Inactive)
REMARK    1  A    between atoms: C1_2  and  C2_3 
REMARK    2  A    between atoms: C2_3  and  C3_4 
ROOT
ATOM      1  C3  UNL d   1      -0.509   0.856   0.370  0.00  0.00    -0.075 A 
ATOM      2  C4  UNL d   1      -1.180   1.355   1.496  0.00  0.00     0.002 A 
ATOM      3  C5  UNL d   1      -1.770   2.619   1.468  0.00  0.00     0.002 A 
ATOM      4  C6  UNL d   1      -1.687   3.403   0.320  0.00  0.00    -0.004 A 
ATOM      5  C7  UNL d   1      -1.009   2.925  -0.799  0.00  0.00     0.002 A 
ATOM      6  C8  UNL d   1      -0.422   1.659  -0.775  0.00  0.00     0.002 A 
ENDROOT
BRANCH   1   7
ATOM      7  C2  UNL d   1       0.106  -0.523   0.385  0.00  0.00     0.056 C 
BRANCH   7   8
ATOM      8  C1  UNL d   1       1.174  -0.741  -0.692  0.00  0.00     0.007 C 
ATOM      9  C   UNL d   1       1.193  -2.162  -1.240  0.00  0.00     0.009 C 
ENDBRANCH   7   8
ENDBRANCH   1   7
TORSDOF 2
ENDMDL
