MODEL 1
REMARK minimizedAffinity -4.21840763
REMARK minimizedRMSD -1
REMARK  2 active torsions:
REMARK  status: ('A' for Active; 'I' for Inactive)
REMARK    1  A    between atoms: C1_2  and  C2_3 
REMARK    2  A    between atoms: C2_3  and  C3_4 
ROOT
ATOM      1  C3  UNL d   1      -0.645   0.805   0.555  0.00  0.00    -0.075 A 
ATOM      2  C4  UNL d   1      -0.090   1.470  -0.548  0.00  0.00     0.002 A 
ATOM      3  C5  UNL d   1      -0.289   2.840  -0.722  0.00  0.00     0.002 A 
ATOM      4  C6  UNL d   1      -1.052   3.558   0.196  0.00  0.00    -0.004 A 
ATOM      5  C7  UNL d   1      -1.622   2.904   1.286  0.00  0.00     0.002 A 
ATOM      6  C8  UNL d   1      -1.420   1.535   1.466  0.00  0.00     0.002 A 
ENDROOT
BRANCH   1   7
ATOM      7  C2  UNL d   1      -0.408  -0.672   0.765  0.00  0.00     0.056 C 
BRANCH   7   8
ATOM      8  C1  UNL d   1       0.617  -1.282  -0.196  0.00  0.00     0.007 C 
ATOM      9  C   UNL d   1       0.006  -2.278  -1.172  0.00  0.00     0.009 C 
ENDBRANCH   7   8
ENDBRANCH   1   7
TORSDOF 2
ENDMDL
