MODEL 1
REMARK minimizedAffinity -5.10785246
REMARK minimizedRMSD -1
REMARK  2 active torsions:
REMARK  status: ('A' for Active; 'I' for Inactive)
REMARK    1  A    between atoms: C1_2  and  C2_3 
REMARK    2  A    between atoms: C2_3  and  C3_4 
ROOT
ATOM      1  C3  UNL d   1       0.056   0.073  -0.092  0.00  0.00    -0.075 A 
ATOM      2  C4  UNL d   1      -0.245  -0.351   1.210  0.00  0.00     0.002 A 
ATOM      3  C5  UNL d   1      -1.198   0.324   1.973  0.00  0.00     0.002 A 
ATOM      4  C6  UNL d   1      -1.854   1.436   1.449  0.00  0.00    -0.004 A 
ATOM      5  C7  UNL d   1      -1.552   1.876   0.162  0.00  0.00     0.002 A 
ATOM      6  C8  UNL d   1      -0.602   1.200  -0.605  0.00  0.00     0.002 A 
ENDROOT
BRANCH   1   7
ATOM      7  C2  UNL d   1       1.065  -0.671  -0.933  0.00  0.00     0.056 C 
BRANCH   7   8
ATOM      8  C1  UNL d   1       0.730  -2.151  -1.145  0.00  0.00     0.007 C 
ATOM      9  C   UNL d   1       0.242  -2.461  -2.553  0.00  0.00     0.009 C 
ENDBRANCH   7   8
ENDBRANCH   1   7
TORSDOF 2
ENDMDL
