MODEL 1
REMARK minimizedAffinity -5.54900217
REMARK minimizedRMSD -1
REMARK  2 active torsions:
REMARK  status: ('A' for Active; 'I' for Inactive)
REMARK    1  A    between atoms: C1_2  and  C2_3 
REMARK    2  A    between atoms: C2_3  and  C3_4 
ROOT
ATOM      1  C3  UNL d   1       0.300  -0.055  -0.292  0.00  0.00    -0.075 A 
ATOM      2  C4  UNL d   1       0.024  -0.503   1.008  0.00  0.00     0.002 A 
ATOM      3  C5  UNL d   1      -0.959   0.119   1.778  0.00  0.00     0.002 A 
ATOM      4  C6  UNL d   1      -1.671   1.201   1.263  0.00  0.00    -0.004 A 
ATOM      5  C7  UNL d   1      -1.394   1.665  -0.021  0.00  0.00     0.002 A 
ATOM      6  C8  UNL d   1      -0.413   1.042  -0.795  0.00  0.00     0.002 A 
ENDROOT
BRANCH   1   7
ATOM      7  C2  UNL d   1       1.342  -0.742  -1.141  0.00  0.00     0.056 C 
BRANCH   7   8
ATOM      8  C1  UNL d   1       1.094  -2.241  -1.342  0.00  0.00     0.007 C 
ATOM      9  C   UNL d   1       0.452  -2.569  -2.683  0.00  0.00     0.009 C 
ENDBRANCH   7   8
ENDBRANCH   1   7
TORSDOF 2
ENDMDL
