MODEL 1
REMARK minimizedAffinity -2.01674628
REMARK minimizedRMSD -1
REMARK  0 active torsions:
REMARK  status: ('A' for Active; 'I' for Inactive)
ROOT
ATOM      1  C1  BNZ d   1       4.861   5.901  -3.165  0.00  0.00     0.000 A 
ATOM      2  C2  BNZ d   1       3.735   5.146  -3.358  0.00  0.00     0.000 A 
ATOM      3  C3  BNZ d   1       3.739   4.094  -4.231  0.00  0.00     0.000 A 
ATOM      4  C4  BNZ d   1       4.856   3.824  -4.937  0.00  0.00     0.000 A 
ATOM      5  C5  BNZ d   1       5.996   4.582  -4.761  0.00  0.00     0.000 A 
ATOM      6  C6  BNZ d   1       6.000   5.616  -3.853  0.00  0.00     0.000 A 
ENDROOT
TORSDOF 0
ENDMDL
