MODEL 1
REMARK minimizedAffinity -2.52726912
REMARK minimizedRMSD -1
REMARK  0 active torsions:
REMARK  status: ('A' for Active; 'I' for Inactive)
ROOT
ATOM      1  C1  BNZ d   1       0.368  -2.491  -1.253  0.00  0.00     0.000 A 
ATOM      2  C2  BNZ d   1       0.041  -2.371  -2.578  0.00  0.00     0.000 A 
ATOM      3  C3  BNZ d   1      -1.234  -2.057  -2.957  0.00  0.00     0.000 A 
ATOM      4  C4  BNZ d   1      -2.188  -1.904  -2.016  0.00  0.00     0.000 A 
ATOM      5  C5  BNZ d   1      -1.875  -2.031  -0.677  0.00  0.00     0.000 A 
ATOM      6  C6  BNZ d   1      -0.582  -2.308  -0.297  0.00  0.00     0.000 A 
ENDROOT
TORSDOF 0
ENDMDL
