MODEL 1
REMARK minimizedAffinity 7.78999662
REMARK minimizedRMSD -1
REMARK  0 active torsions:
REMARK  status: ('A' for Active; 'I' for Inactive)
ROOT
ATOM      1  C1  BNZ d   1       5.999  -3.334   4.734  0.00  0.00     0.000 A 
ATOM      2  C2  BNZ d   1       5.352  -2.967   3.584  0.00  0.00     0.000 A 
ATOM      3  C3  BNZ d   1       4.114  -2.390   3.632  0.00  0.00     0.000 A 
ATOM      4  C4  BNZ d   1       3.508  -2.217   4.824  0.00  0.00     0.000 A 
ATOM      5  C5  BNZ d   1       4.144  -2.590   5.992  0.00  0.00     0.000 A 
ATOM      6  C6  BNZ d   1       5.406  -3.135   5.942  0.00  0.00     0.000 A 
ENDROOT
TORSDOF 0
ENDMDL
