MODEL 1
REMARK minimizedAffinity 13.2843819
REMARK minimizedRMSD -1
REMARK  0 active torsions:
REMARK  status: ('A' for Active; 'I' for Inactive)
ROOT
ATOM      1  C1  BNZ d   1       4.518  -4.612   5.300  0.00  0.00     0.000 A 
ATOM      2  C2  BNZ d   1       5.626  -4.201   5.991  0.00  0.00     0.000 A 
ATOM      3  C3  BNZ d   1       5.999  -2.886   5.998  0.00  0.00     0.000 A 
ATOM      4  C4  BNZ d   1       5.287  -1.992   5.282  0.00  0.00     0.000 A 
ATOM      5  C5  BNZ d   1       4.173  -2.392   4.572  0.00  0.00     0.000 A 
ATOM      6  C6  BNZ d   1       3.778  -3.710   4.600  0.00  0.00     0.000 A 
ENDROOT
TORSDOF 0
ENDMDL
