MODEL 1
REMARK minimizedAffinity 3.55453014
REMARK minimizedRMSD -1
REMARK  0 active torsions:
REMARK  status: ('A' for Active; 'I' for Inactive)
ROOT
ATOM      1  C1  BNZ d   1       0.498  -2.534  -0.728  0.00  0.00     0.000 A 
ATOM      2  C2  BNZ d   1       1.366  -2.572  -1.787  0.00  0.00     0.000 A 
ATOM      3  C3  BNZ d   1       1.076  -1.920  -2.953  0.00  0.00     0.000 A 
ATOM      4  C4  BNZ d   1      -0.097  -1.266  -3.073  0.00  0.00     0.000 A 
ATOM      5  C5  BNZ d   1      -0.987  -1.227  -2.018  0.00  0.00     0.000 A 
ATOM      6  C6  BNZ d   1      -0.674  -1.851  -0.832  0.00  0.00     0.000 A 
ENDROOT
TORSDOF 0
ENDMDL
