MODEL 1
REMARK minimizedAffinity 5.04217529
REMARK minimizedRMSD -1
REMARK  0 active torsions:
REMARK  status: ('A' for Active; 'I' for Inactive)
ROOT
ATOM      1  C1  BNZ d   1      -0.262  -2.053  -0.610  0.00  0.00     0.000 A 
ATOM      2  C2  BNZ d   1       0.270  -3.275  -0.925  0.00  0.00     0.000 A 
ATOM      3  C3  BNZ d   1      -0.063  -3.903  -2.093  0.00  0.00     0.000 A 
ATOM      4  C4  BNZ d   1      -0.957  -3.329  -2.923  0.00  0.00     0.000 A 
ATOM      5  C5  BNZ d   1      -1.509  -2.101  -2.615  0.00  0.00     0.000 A 
ATOM      6  C6  BNZ d   1      -1.142  -1.454  -1.458  0.00  0.00     0.000 A 
ENDROOT
TORSDOF 0
ENDMDL
