MODEL 1
REMARK minimizedAffinity 9.42025852
REMARK minimizedRMSD -1
REMARK  0 active torsions:
REMARK  status: ('A' for Active; 'I' for Inactive)
ROOT
ATOM      1  C1  BNZ d   1       5.140  -1.140  -3.654  0.00  0.00     0.000 A 
ATOM      2  C2  BNZ d   1       4.633  -2.382  -3.381  0.00  0.00     0.000 A 
ATOM      3  C3  BNZ d   1       3.434  -2.779  -3.903  0.00  0.00     0.000 A 
ATOM      4  C4  BNZ d   1       2.724  -1.920  -4.662  0.00  0.00     0.000 A 
ATOM      5  C5  BNZ d   1       3.217  -0.660  -4.938  0.00  0.00     0.000 A 
ATOM      6  C6  BNZ d   1       4.443  -0.278  -4.444  0.00  0.00     0.000 A 
ENDROOT
TORSDOF 0
ENDMDL
