MODEL 1
REMARK minimizedAffinity 3.04673862
REMARK minimizedRMSD -1
REMARK  0 active torsions:
REMARK  status: ('A' for Active; 'I' for Inactive)
ROOT
ATOM      1  C1  BNZ d   1      -0.073   5.542   0.608  0.00  0.00     0.000 A 
ATOM      2  C2  BNZ d   1       0.639   4.549   1.227  0.00  0.00     0.000 A 
ATOM      3  C3  BNZ d   1       1.595   3.846   0.548  0.00  0.00     0.000 A 
ATOM      4  C4  BNZ d   1       1.810   4.109  -0.757  0.00  0.00     0.000 A 
ATOM      5  C5  BNZ d   1       1.093   5.100  -1.398  0.00  0.00     0.000 A 
ATOM      6  C6  BNZ d   1       0.159   5.832  -0.701  0.00  0.00     0.000 A 
ENDROOT
TORSDOF 0
ENDMDL
