MODEL 1
REMARK minimizedAffinity 5.81467152
REMARK minimizedRMSD -1
REMARK  0 active torsions:
REMARK  status: ('A' for Active; 'I' for Inactive)
ROOT
ATOM      1  C1  BNZ d   1      -0.193  -1.586  -0.484  0.00  0.00     0.000 A 
ATOM      2  C2  BNZ d   1       0.608  -2.661  -0.765  0.00  0.00     0.000 A 
ATOM      3  C3  BNZ d   1       0.518  -3.306  -1.967  0.00  0.00     0.000 A 
ATOM      4  C4  BNZ d   1      -0.398  -2.900  -2.870  0.00  0.00     0.000 A 
ATOM      5  C5  BNZ d   1      -1.219  -1.823  -2.598  0.00  0.00     0.000 A 
ATOM      6  C6  BNZ d   1      -1.099  -1.153  -1.402  0.00  0.00     0.000 A 
ENDROOT
TORSDOF 0
ENDMDL
