MODEL 1
REMARK minimizedAffinity 1.91237271
REMARK minimizedRMSD -1
REMARK  0 active torsions:
REMARK  status: ('A' for Active; 'I' for Inactive)
ROOT
ATOM      1  C1  BNZ d   1      -1.076  -1.489  -0.173  0.00  0.00     0.000 A 
ATOM      2  C2  BNZ d   1      -1.830  -1.288  -1.299  0.00  0.00     0.000 A 
ATOM      3  C3  BNZ d   1      -1.553  -1.962  -2.455  0.00  0.00     0.000 A 
ATOM      4  C4  BNZ d   1      -0.500  -2.804  -2.496  0.00  0.00     0.000 A 
ATOM      5  C5  BNZ d   1       0.275  -3.010  -1.372  0.00  0.00     0.000 A 
ATOM      6  C6  BNZ d   1      -0.031  -2.359  -0.198  0.00  0.00     0.000 A 
ENDROOT
TORSDOF 0
ENDMDL
