MODEL 1
REMARK minimizedAffinity 10.4849758
REMARK minimizedRMSD -1
REMARK  0 active torsions:
REMARK  status: ('A' for Active; 'I' for Inactive)
ROOT
ATOM      1  C1  BNZ d   1       0.619  -3.043  -0.865  0.00  0.00     0.000 A 
ATOM      2  C2  BNZ d   1       0.796  -3.335  -2.192  0.00  0.00     0.000 A 
ATOM      3  C3  BNZ d   1       0.087  -2.673  -3.155  0.00  0.00     0.000 A 
ATOM      4  C4  BNZ d   1      -0.826  -1.750  -2.789  0.00  0.00     0.000 A 
ATOM      5  C5  BNZ d   1      -1.023  -1.452  -1.456  0.00  0.00     0.000 A 
ATOM      6  C6  BNZ d   1      -0.280  -2.092  -0.491  0.00  0.00     0.000 A 
ENDROOT
TORSDOF 0
ENDMDL
