MODEL 1
REMARK minimizedAffinity -1.37897134
REMARK minimizedRMSD -1
REMARK  0 active torsions:
REMARK  status: ('A' for Active; 'I' for Inactive)
ROOT
ATOM      1  C1  BNZ d   1      -0.916  -2.007  -2.972  0.00  0.00     0.000 A 
ATOM      2  C2  BNZ d   1       0.377  -2.307  -2.636  0.00  0.00     0.000 A 
ATOM      3  C3  BNZ d   1       1.237  -2.829  -3.561  0.00  0.00     0.000 A 
ATOM      4  C4  BNZ d   1       0.793  -3.088  -4.808  0.00  0.00     0.000 A 
ATOM      5  C5  BNZ d   1      -0.511  -2.800  -5.159  0.00  0.00     0.000 A 
ATOM      6  C6  BNZ d   1      -1.363  -2.238  -4.237  0.00  0.00     0.000 A 
ENDROOT
TORSDOF 0
ENDMDL
