MODEL 1
REMARK minimizedAffinity 5.79957628
REMARK minimizedRMSD -1
REMARK  0 active torsions:
REMARK  status: ('A' for Active; 'I' for Inactive)
ROOT
ATOM      1  C1  BNZ d   1      -0.217  -2.319  -0.861  0.00  0.00     0.000 A 
ATOM      2  C2  BNZ d   1       0.520  -3.342  -1.395  0.00  0.00     0.000 A 
ATOM      3  C3  BNZ d   1       0.392  -3.684  -2.712  0.00  0.00     0.000 A 
ATOM      4  C4  BNZ d   1      -0.500  -3.030  -3.483  0.00  0.00     0.000 A 
ATOM      5  C5  BNZ d   1      -1.258  -2.002  -2.958  0.00  0.00     0.000 A 
ATOM      6  C6  BNZ d   1      -1.098  -1.635  -1.642  0.00  0.00     0.000 A 
ENDROOT
TORSDOF 0
ENDMDL
