MODEL 1
REMARK minimizedAffinity 13.868269
REMARK minimizedRMSD -1
REMARK  0 active torsions:
REMARK  status: ('A' for Active; 'I' for Inactive)
ROOT
ATOM      1  C   UNL d   1       2.031   1.162  -2.828  0.00  0.00     0.124 A 
ATOM      2  C1  UNL d   1       1.042   2.104  -2.579  0.00  0.00     0.062 A 
ATOM      3  C2  UNL d   1      -0.038   1.784  -1.762  0.00  0.00     0.162 A 
ATOM      4  C3  UNL d   1      -0.136   0.517  -1.187  0.00  0.00    -0.034 A 
ATOM      5  C4  UNL d   1       0.862  -0.425  -1.444  0.00  0.00     0.162 A 
ATOM      6  C5  UNL d   1       1.940  -0.101  -2.261  0.00  0.00     0.062 A 
ATOM      7  F   UNL d   1       2.895  -1.011  -2.501  0.00  0.00    -0.097 F 
ATOM      8  F1  UNL d   1       0.800  -1.653  -0.908  0.00  0.00    -0.096 F 
ATOM      9  I   UNL d   1      -1.750   0.035   0.035  0.00  0.00    -0.060 I 
ATOM     10  F2  UNL d   1      -0.979   2.713  -1.538  0.00  0.00    -0.096 F 
ATOM     11  F3  UNL d   1       1.127   3.325  -3.126  0.00  0.00    -0.097 F 
ATOM     12  F4  UNL d   1       3.069   1.473  -3.615  0.00  0.00    -0.092 F 
ENDROOT
TORSDOF 0
ENDMDL
