MODEL 1
REMARK minimizedAffinity 12.5850592
REMARK minimizedRMSD -1
REMARK  0 active torsions:
REMARK  status: ('A' for Active; 'I' for Inactive)
ROOT
ATOM      1  C   UNL d   1       0.472  -0.910  -1.657  0.00  0.00     0.124 A 
ATOM      2  C1  UNL d   1      -0.158   0.270  -1.286  0.00  0.00     0.062 A 
ATOM      3  C2  UNL d   1       0.590   1.419  -1.048  0.00  0.00     0.162 A 
ATOM      4  C3  UNL d   1       1.979   1.394  -1.181  0.00  0.00    -0.034 A 
ATOM      5  C4  UNL d   1       2.606   0.203  -1.553  0.00  0.00     0.162 A 
ATOM      6  C5  UNL d   1       1.853  -0.942  -1.789  0.00  0.00     0.062 A 
ATOM      7  F   UNL d   1       2.464  -2.081  -2.147  0.00  0.00    -0.097 F 
ATOM      8  F1  UNL d   1       3.939   0.145  -1.689  0.00  0.00    -0.096 F 
ATOM      9  I   UNL d   1       3.102   3.110  -0.825  0.00  0.00    -0.060 I 
ATOM     10  F2  UNL d   1      -0.045   2.545  -0.691  0.00  0.00    -0.096 F 
ATOM     11  F3  UNL d   1      -1.492   0.303  -1.156  0.00  0.00    -0.097 F 
ATOM     12  F4  UNL d   1      -0.250  -2.014  -1.884  0.00  0.00    -0.092 F 
ENDROOT
TORSDOF 0
ENDMDL
