MODEL 1
REMARK minimizedAffinity 15.6267872
REMARK minimizedRMSD -1
REMARK  0 active torsions:
REMARK  status: ('A' for Active; 'I' for Inactive)
ROOT
ATOM      1  C   UNL d   1       2.083  -1.300  -1.531  0.00  0.00     0.124 A 
ATOM      2  C1  UNL d   1       2.438   0.013  -1.809  0.00  0.00     0.062 A 
ATOM      3  C2  UNL d   1       1.599   1.059  -1.437  0.00  0.00     0.162 A 
ATOM      4  C3  UNL d   1       0.395   0.797  -0.782  0.00  0.00    -0.034 A 
ATOM      5  C4  UNL d   1       0.045  -0.526  -0.507  0.00  0.00     0.162 A 
ATOM      6  C5  UNL d   1       0.887  -1.568  -0.881  0.00  0.00     0.062 A 
ATOM      7  F   UNL d   1       0.542  -2.836  -0.611  0.00  0.00    -0.097 F 
ATOM      8  F1  UNL d   1      -1.105  -0.814   0.122  0.00  0.00    -0.096 F 
ATOM      9  I   UNL d   1      -0.863   2.358  -0.224  0.00  0.00    -0.060 I 
ATOM     10  F2  UNL d   1       1.967   2.318  -1.718  0.00  0.00    -0.096 F 
ATOM     11  F3  UNL d   1       3.593   0.275  -2.438  0.00  0.00    -0.097 F 
ATOM     12  F4  UNL d   1       2.892  -2.304  -1.891  0.00  0.00    -0.092 F 
ENDROOT
TORSDOF 0
ENDMDL
