MODEL 1
REMARK minimizedAffinity 23.8487778
REMARK minimizedRMSD -1
REMARK  0 active torsions:
REMARK  status: ('A' for Active; 'I' for Inactive)
ROOT
ATOM      1  C   UNL d   1       2.900  -1.489  -1.154  0.00  0.00     0.124 A 
ATOM      2  C1  UNL d   1       2.181  -2.574  -0.671  0.00  0.00     0.062 A 
ATOM      3  C2  UNL d   1       0.790  -2.541  -0.655  0.00  0.00     0.162 A 
ATOM      4  C3  UNL d   1       0.107  -1.419  -1.124  0.00  0.00    -0.034 A 
ATOM      5  C4  UNL d   1       0.836  -0.331  -1.607  0.00  0.00     0.162 A 
ATOM      6  C5  UNL d   1       2.227  -0.369  -1.622  0.00  0.00     0.062 A 
ATOM      7  F   UNL d   1       2.919   0.680  -2.089  0.00  0.00    -0.097 F 
ATOM      8  F1  UNL d   1       0.212   0.764  -2.066  0.00  0.00    -0.096 F 
ATOM      9  I   UNL d   1      -1.973  -1.366  -1.101  0.00  0.00    -0.060 I 
ATOM     10  F2  UNL d   1       0.121  -3.604  -0.183  0.00  0.00    -0.096 F 
ATOM     11  F3  UNL d   1       2.829  -3.657  -0.218  0.00  0.00    -0.097 F 
ATOM     12  F4  UNL d   1       4.238  -1.523  -1.168  0.00  0.00    -0.092 F 
ENDROOT
TORSDOF 0
ENDMDL
