MODEL 1
REMARK minimizedAffinity 3.66050744
REMARK minimizedRMSD -1
REMARK  0 active torsions:
REMARK  status: ('A' for Active; 'I' for Inactive)
ROOT
ATOM      1  C   UNL d   1       2.252   0.120  -1.759  0.00  0.00     0.124 A 
ATOM      2  C1  UNL d   1       1.937  -1.072  -1.122  0.00  0.00     0.062 A 
ATOM      3  C2  UNL d   1       0.676  -1.256  -0.563  0.00  0.00     0.162 A 
ATOM      4  C3  UNL d   1      -0.281  -0.244  -0.639  0.00  0.00    -0.034 A 
ATOM      5  C4  UNL d   1       0.043   0.953  -1.280  0.00  0.00     0.162 A 
ATOM      6  C5  UNL d   1       1.305   1.131  -1.837  0.00  0.00     0.062 A 
ATOM      7  F   UNL d   1       1.607   2.284  -2.452  0.00  0.00    -0.097 F 
ATOM      8  F1  UNL d   1      -0.854   1.946  -1.371  0.00  0.00    -0.096 F 
ATOM      9  I   UNL d   1      -2.169  -0.514   0.196  0.00  0.00    -0.060 I 
ATOM     10  F2  UNL d   1       0.400  -2.418   0.046  0.00  0.00    -0.096 F 
ATOM     11  F3  UNL d   1       2.851  -2.050  -1.044  0.00  0.00    -0.097 F 
ATOM     12  F4  UNL d   1       3.467   0.294  -2.295  0.00  0.00    -0.092 F 
ENDROOT
TORSDOF 0
ENDMDL
