MODEL 1
REMARK minimizedAffinity 18.338768
REMARK minimizedRMSD -1
REMARK  0 active torsions:
REMARK  status: ('A' for Active; 'I' for Inactive)
ROOT
ATOM      1  C   UNL d   1      -0.011   2.668   0.278  0.00  0.00     0.124 A 
ATOM      2  C1  UNL d   1       0.070   2.365  -1.074  0.00  0.00     0.062 A 
ATOM      3  C2  UNL d   1       1.124   1.595  -1.557  0.00  0.00     0.162 A 
ATOM      4  C3  UNL d   1       2.106   1.121  -0.687  0.00  0.00    -0.034 A 
ATOM      5  C4  UNL d   1       2.018   1.431   0.672  0.00  0.00     0.162 A 
ATOM      6  C5  UNL d   1       0.963   2.201   1.149  0.00  0.00     0.062 A 
ATOM      7  F   UNL d   1       0.886   2.493   2.456  0.00  0.00    -0.097 F 
ATOM      8  F1  UNL d   1       2.945   0.992   1.536  0.00  0.00    -0.096 F 
ATOM      9  I   UNL d   1       3.684  -0.031  -1.405  0.00  0.00    -0.060 I 
ATOM     10  F2  UNL d   1       1.177   1.318  -2.868  0.00  0.00    -0.096 F 
ATOM     11  F3  UNL d   1      -0.869   2.816  -1.918  0.00  0.00    -0.097 F 
ATOM     12  F4  UNL d   1      -1.026   3.410   0.740  0.00  0.00    -0.092 F 
ENDROOT
TORSDOF 0
ENDMDL
