MODEL 1
REMARK minimizedAffinity 4.91126299
REMARK minimizedRMSD -1
REMARK  0 active torsions:
REMARK  status: ('A' for Active; 'I' for Inactive)
ROOT
ATOM      1  C   UNL d   1       0.733  -1.792  -0.918  0.00  0.00     0.124 A 
ATOM      2  C1  UNL d   1       1.967  -1.508  -1.485  0.00  0.00     0.062 A 
ATOM      3  C2  UNL d   1       2.221  -0.245  -2.012  0.00  0.00     0.162 A 
ATOM      4  C3  UNL d   1       1.239   0.745  -1.972  0.00  0.00    -0.034 A 
ATOM      5  C4  UNL d   1      -0.001   0.451  -1.401  0.00  0.00     0.162 A 
ATOM      6  C5  UNL d   1      -0.250  -0.813  -0.876  0.00  0.00     0.062 A 
ATOM      7  F   UNL d   1      -1.443  -1.086  -0.328  0.00  0.00    -0.097 F 
ATOM      8  F1  UNL d   1      -0.968   1.379  -1.346  0.00  0.00    -0.096 F 
ATOM      9  I   UNL d   1       1.614   2.635  -2.759  0.00  0.00    -0.060 I 
ATOM     10  F2  UNL d   1       3.423   0.002  -2.554  0.00  0.00    -0.096 F 
ATOM     11  F3  UNL d   1       2.918  -2.452  -1.527  0.00  0.00    -0.097 F 
ATOM     12  F4  UNL d   1       0.491  -3.009  -0.413  0.00  0.00    -0.092 F 
ENDROOT
TORSDOF 0
ENDMDL
