MODEL 1
REMARK minimizedAffinity 10.713191
REMARK minimizedRMSD -1
REMARK  0 active torsions:
REMARK  status: ('A' for Active; 'I' for Inactive)
ROOT
ATOM      1  C   UNL d   1       2.275   0.966  -1.495  0.00  0.00     0.124 A 
ATOM      2  C1  UNL d   1       2.566  -0.279  -0.955  0.00  0.00     0.062 A 
ATOM      3  C2  UNL d   1       2.365  -1.433  -1.708  0.00  0.00     0.162 A 
ATOM      4  C3  UNL d   1       1.871  -1.347  -3.010  0.00  0.00    -0.034 A 
ATOM      5  C4  UNL d   1       1.580  -0.091  -3.545  0.00  0.00     0.162 A 
ATOM      6  C5  UNL d   1       1.782   1.059  -2.789  0.00  0.00     0.062 A 
ATOM      7  F   UNL d   1       1.500   2.261  -3.313  0.00  0.00    -0.097 F 
ATOM      8  F1  UNL d   1       1.104   0.028  -4.794  0.00  0.00    -0.096 F 
ATOM      9  I   UNL d   1       1.570  -3.069  -4.138  0.00  0.00    -0.060 I 
ATOM     10  F2  UNL d   1       2.655  -2.622  -1.161  0.00  0.00    -0.096 F 
ATOM     11  F3  UNL d   1       3.041  -0.371   0.295  0.00  0.00    -0.097 F 
ATOM     12  F4  UNL d   1       2.467   2.074  -0.769  0.00  0.00    -0.092 F 
ENDROOT
TORSDOF 0
ENDMDL
