MODEL 1
REMARK minimizedAffinity 8.77598095
REMARK minimizedRMSD -1
REMARK  0 active torsions:
REMARK  status: ('A' for Active; 'I' for Inactive)
ROOT
ATOM      1  C   UNL d   1       0.424   1.933  -1.899  0.00  0.00     0.124 A 
ATOM      2  C1  UNL d   1       1.760   1.689  -2.187  0.00  0.00     0.062 A 
ATOM      3  C2  UNL d   1       2.305   0.428  -1.962  0.00  0.00     0.162 A 
ATOM      4  C3  UNL d   1       1.514  -0.599  -1.447  0.00  0.00    -0.034 A 
ATOM      5  C4  UNL d   1       0.172  -0.346  -1.159  0.00  0.00     0.162 A 
ATOM      6  C5  UNL d   1      -0.368   0.916  -1.386  0.00  0.00     0.062 A 
ATOM      7  F   UNL d   1      -1.659   1.150  -1.107  0.00  0.00    -0.097 F 
ATOM      8  F1  UNL d   1      -0.616  -1.311  -0.663  0.00  0.00    -0.096 F 
ATOM      9  I   UNL d   1       2.326  -2.486  -1.110  0.00  0.00    -0.060 I 
ATOM     10  F2  UNL d   1       3.599   0.220  -2.250  0.00  0.00    -0.096 F 
ATOM     11  F3  UNL d   1       2.528   2.670  -2.682  0.00  0.00    -0.097 F 
ATOM     12  F4  UNL d   1      -0.097   3.147  -2.115  0.00  0.00    -0.092 F 
ENDROOT
TORSDOF 0
ENDMDL
