MODEL 1
REMARK minimizedAffinity 5.65580273
REMARK minimizedRMSD -1
REMARK  0 active torsions:
REMARK  status: ('A' for Active; 'I' for Inactive)
ROOT
ATOM      1  C   UNL d   1       2.112   0.679  -2.416  0.00  0.00     0.124 A 
ATOM      2  C1  UNL d   1       1.703  -0.491  -1.791  0.00  0.00     0.062 A 
ATOM      3  C2  UNL d   1       0.451  -0.561  -1.188  0.00  0.00     0.162 A 
ATOM      4  C3  UNL d   1      -0.403   0.541  -1.208  0.00  0.00    -0.034 A 
ATOM      5  C4  UNL d   1       0.016   1.715  -1.838  0.00  0.00     0.162 A 
ATOM      6  C5  UNL d   1       1.268   1.781  -2.439  0.00  0.00     0.062 A 
ATOM      7  F   UNL d   1       1.662   2.912  -3.042  0.00  0.00    -0.097 F 
ATOM      8  F1  UNL d   1      -0.780   2.794  -1.875  0.00  0.00    -0.096 F 
ATOM      9  I   UNL d   1      -2.276   0.440  -0.307  0.00  0.00    -0.060 I 
ATOM     10  F2  UNL d   1       0.082  -1.705  -0.592  0.00  0.00    -0.096 F 
ATOM     11  F3  UNL d   1       2.517  -1.556  -1.767  0.00  0.00    -0.097 F 
ATOM     12  F4  UNL d   1       3.318   0.745  -2.995  0.00  0.00    -0.092 F 
ENDROOT
TORSDOF 0
ENDMDL
