MODEL 1
REMARK minimizedAffinity 8.82778835
REMARK minimizedRMSD -1
REMARK  0 active torsions:
REMARK  status: ('A' for Active; 'I' for Inactive)
ROOT
ATOM      1  C   UNL d   1       0.401  -1.723  -0.295  0.00  0.00     0.124 A 
ATOM      2  C1  UNL d   1       1.645  -1.538  -0.882  0.00  0.00     0.062 A 
ATOM      3  C2  UNL d   1       1.913  -0.379  -1.604  0.00  0.00     0.162 A 
ATOM      4  C3  UNL d   1       0.935   0.605  -1.744  0.00  0.00    -0.034 A 
ATOM      5  C4  UNL d   1      -0.315   0.412  -1.152  0.00  0.00     0.162 A 
ATOM      6  C5  UNL d   1      -0.578  -0.748  -0.431  0.00  0.00     0.062 A 
ATOM      7  F   UNL d   1      -1.780  -0.925   0.135  0.00  0.00    -0.097 F 
ATOM      8  F1  UNL d   1      -1.278   1.338  -1.267  0.00  0.00    -0.096 F 
ATOM      9  I   UNL d   1       1.332   2.339  -2.824  0.00  0.00    -0.060 I 
ATOM     10  F2  UNL d   1       3.124  -0.227  -2.160  0.00  0.00    -0.096 F 
ATOM     11  F3  UNL d   1       2.592  -2.479  -0.753  0.00  0.00    -0.097 F 
ATOM     12  F4  UNL d   1       0.145  -2.839   0.399  0.00  0.00    -0.092 F 
ENDROOT
TORSDOF 0
ENDMDL
