MODEL 1
REMARK minimizedAffinity 12.4469175
REMARK minimizedRMSD -1
REMARK  0 active torsions:
REMARK  status: ('A' for Active; 'I' for Inactive)
ROOT
ATOM      1  C   UNL d   1       1.164  -1.279  -0.817  0.00  0.00     0.124 A 
ATOM      2  C1  UNL d   1       2.417  -1.081  -1.379  0.00  0.00     0.062 A 
ATOM      3  C2  UNL d   1       2.690   0.086  -2.088  0.00  0.00     0.162 A 
ATOM      4  C3  UNL d   1       1.707   1.064  -2.237  0.00  0.00    -0.034 A 
ATOM      5  C4  UNL d   1       0.449   0.857  -1.669  0.00  0.00     0.162 A 
ATOM      6  C5  UNL d   1       0.181  -0.311  -0.962  0.00  0.00     0.062 A 
ATOM      7  F   UNL d   1      -1.030  -0.501  -0.420  0.00  0.00    -0.097 F 
ATOM      8  F1  UNL d   1      -0.519   1.777  -1.794  0.00  0.00    -0.096 F 
ATOM      9  I   UNL d   1       2.111   2.810  -3.295  0.00  0.00    -0.060 I 
ATOM     10  F2  UNL d   1       3.910   0.251  -2.621  0.00  0.00    -0.096 F 
ATOM     11  F3  UNL d   1       3.369  -2.016  -1.241  0.00  0.00    -0.097 F 
ATOM     12  F4  UNL d   1       0.904  -2.403  -0.137  0.00  0.00    -0.092 F 
ENDROOT
TORSDOF 0
ENDMDL
