MODEL 1
REMARK minimizedAffinity 20.2885094
REMARK minimizedRMSD -1
REMARK  0 active torsions:
REMARK  status: ('A' for Active; 'I' for Inactive)
ROOT
ATOM      1  C   UNL d   1       1.087   1.499  -4.326  0.00  0.00     0.124 A 
ATOM      2  C1  UNL d   1       0.959   0.175  -4.722  0.00  0.00     0.062 A 
ATOM      3  C2  UNL d   1       1.122  -0.851  -3.796  0.00  0.00     0.162 A 
ATOM      4  C3  UNL d   1       1.414  -0.557  -2.464  0.00  0.00    -0.034 A 
ATOM      5  C4  UNL d   1       1.543   0.777  -2.074  0.00  0.00     0.162 A 
ATOM      6  C5  UNL d   1       1.379   1.799  -3.003  0.00  0.00     0.062 A 
ATOM      7  F   UNL d   1       1.503   3.078  -2.619  0.00  0.00    -0.097 F 
ATOM      8  F1  UNL d   1       1.823   1.095  -0.801  0.00  0.00    -0.096 F 
ATOM      9  I   UNL d   1       1.659  -2.089  -1.076  0.00  0.00    -0.060 I 
ATOM     10  F2  UNL d   1       0.993  -2.122  -4.206  0.00  0.00    -0.096 F 
ATOM     11  F3  UNL d   1       0.679  -0.118  -6.000  0.00  0.00    -0.097 F 
ATOM     12  F4  UNL d   1       0.931   2.484  -5.220  0.00  0.00    -0.092 F 
ENDROOT
TORSDOF 0
ENDMDL
