MODEL 1
REMARK minimizedAffinity 3.10928822
REMARK minimizedRMSD -1
REMARK  0 active torsions:
REMARK  status: ('A' for Active; 'I' for Inactive)
ROOT
ATOM      1  C   UNL d   1       2.022   0.720  -2.091  0.00  0.00     0.124 A 
ATOM      2  C1  UNL d   1       0.770   0.400  -1.585  0.00  0.00     0.062 A 
ATOM      3  C2  UNL d   1       0.607  -0.719  -0.775  0.00  0.00     0.162 A 
ATOM      4  C3  UNL d   1       1.700  -1.528  -0.464  0.00  0.00    -0.034 A 
ATOM      5  C4  UNL d   1       2.956  -1.202  -0.978  0.00  0.00     0.162 A 
ATOM      6  C5  UNL d   1       3.114  -0.081  -1.788  0.00  0.00     0.062 A 
ATOM      7  F   UNL d   1       4.325   0.225  -2.276  0.00  0.00    -0.097 F 
ATOM      8  F1  UNL d   1       4.029  -1.958  -0.700  0.00  0.00    -0.096 F 
ATOM      9  I   UNL d   1       1.461  -3.204   0.747  0.00  0.00    -0.060 I 
ATOM     10  F2  UNL d   1      -0.614  -1.004  -0.299  0.00  0.00    -0.096 F 
ATOM     11  F3  UNL d   1      -0.287   1.172  -1.878  0.00  0.00    -0.097 F 
ATOM     12  F4  UNL d   1       2.176   1.797  -2.872  0.00  0.00    -0.092 F 
ENDROOT
TORSDOF 0
ENDMDL
