MODEL 1
REMARK minimizedAffinity 12.5570316
REMARK minimizedRMSD -1
REMARK  0 active torsions:
REMARK  status: ('A' for Active; 'I' for Inactive)
ROOT
ATOM      1  C   UNL d   1       1.391  -0.973  -1.987  0.00  0.00     0.124 A 
ATOM      2  C1  UNL d   1       0.083  -1.071  -1.532  0.00  0.00     0.062 A 
ATOM      3  C2  UNL d   1      -0.474  -0.045  -0.775  0.00  0.00     0.162 A 
ATOM      4  C3  UNL d   1       0.278   1.090  -0.467  0.00  0.00    -0.034 A 
ATOM      5  C4  UNL d   1       1.593   1.180  -0.926  0.00  0.00     0.162 A 
ATOM      6  C5  UNL d   1       2.144   0.152  -1.683  0.00  0.00     0.062 A 
ATOM      7  F   UNL d   1       3.408   0.248  -2.121  0.00  0.00    -0.097 F 
ATOM      8  F1  UNL d   1       2.343   2.257  -0.648  0.00  0.00    -0.096 F 
ATOM      9  I   UNL d   1      -0.550   2.627   0.666  0.00  0.00    -0.060 I 
ATOM     10  F2  UNL d   1      -1.740  -0.166  -0.349  0.00  0.00    -0.096 F 
ATOM     11  F3  UNL d   1      -0.647  -2.158  -1.823  0.00  0.00    -0.097 F 
ATOM     12  F4  UNL d   1       1.924  -1.963  -2.715  0.00  0.00    -0.092 F 
ENDROOT
TORSDOF 0
ENDMDL
