MODEL 1
REMARK minimizedAffinity 13.1255932
REMARK minimizedRMSD -1
REMARK  0 active torsions:
REMARK  status: ('A' for Active; 'I' for Inactive)
ROOT
ATOM      1  C   UNL d   1       2.693   0.140  -1.890  0.00  0.00     0.124 A 
ATOM      2  C1  UNL d   1       2.332  -1.132  -1.469  0.00  0.00     0.062 A 
ATOM      3  C2  UNL d   1       1.067  -1.361  -0.936  0.00  0.00     0.162 A 
ATOM      4  C3  UNL d   1       0.152  -0.314  -0.821  0.00  0.00    -0.034 A 
ATOM      5  C4  UNL d   1       0.522   0.963  -1.245  0.00  0.00     0.162 A 
ATOM      6  C5  UNL d   1       1.788   1.186  -1.778  0.00  0.00     0.062 A 
ATOM      7  F   UNL d   1       2.135   2.417  -2.183  0.00  0.00    -0.097 F 
ATOM      8  F1  UNL d   1      -0.333   1.992  -1.149  0.00  0.00    -0.096 F 
ATOM      9  I   UNL d   1      -1.741  -0.652  -0.024  0.00  0.00    -0.060 I 
ATOM     10  F2  UNL d   1       0.745  -2.601  -0.538  0.00  0.00    -0.096 F 
ATOM     11  F3  UNL d   1       3.204  -2.145  -1.576  0.00  0.00    -0.097 F 
ATOM     12  F4  UNL d   1       3.911   0.357  -2.402  0.00  0.00    -0.092 F 
ENDROOT
TORSDOF 0
ENDMDL
