MODEL 1
REMARK minimizedAffinity -5.02650738
REMARK minimizedRMSD -1
REMARK  1 active torsions:
REMARK  status: ('A' for Active; 'I' for Inactive)
REMARK    1  A    between atoms: C1_2  and  C2_3 
ROOT
ATOM      1  C2  UNL d   1       0.361  -0.121  -0.197  0.00  0.00    -0.077 A 
ATOM      2  C3  UNL d   1       0.475  -1.029  -1.259  0.00  0.00     0.002 A 
ATOM      3  C4  UNL d   1       1.156  -0.671  -2.424  0.00  0.00     0.002 A 
ATOM      4  C5  UNL d   1       1.732   0.593  -2.536  0.00  0.00    -0.004 A 
ATOM      5  C6  UNL d   1       1.622   1.504  -1.486  0.00  0.00     0.002 A 
ATOM      6  C7  UNL d   1       0.940   1.148  -0.321  0.00  0.00     0.002 A 
ENDROOT
BRANCH   1   7
ATOM      7  C1  UNL d   1      -0.331  -0.523   1.079  0.00  0.00     0.055 C 
ATOM      8  C   UNL d   1      -1.509   0.392   1.382  0.00  0.00     0.019 C 
ENDBRANCH   1   7
TORSDOF 1
ENDMDL
