MODEL 1
REMARK minimizedAffinity -3.22900462
REMARK minimizedRMSD -1
REMARK  1 active torsions:
REMARK  status: ('A' for Active; 'I' for Inactive)
REMARK    1  A    between atoms: C1_2  and  C2_3 
ROOT
ATOM      1  C2  UNL d   1       0.821  -0.200  -0.524  0.00  0.00    -0.077 A 
ATOM      2  C3  UNL d   1       0.826  -1.600  -0.597  0.00  0.00     0.002 A 
ATOM      3  C4  UNL d   1       1.581  -2.253  -1.573  0.00  0.00     0.002 A 
ATOM      4  C5  UNL d   1       2.339  -1.515  -2.480  0.00  0.00    -0.004 A 
ATOM      5  C6  UNL d   1       2.339  -0.122  -2.416  0.00  0.00     0.002 A 
ATOM      6  C7  UNL d   1       1.584   0.532  -1.442  0.00  0.00     0.002 A 
ENDROOT
BRANCH   1   7
ATOM      7  C1  UNL d   1       0.046   0.505   0.559  0.00  0.00     0.055 C 
ATOM      8  C   UNL d   1       0.977   1.183   1.554  0.00  0.00     0.019 C 
ENDBRANCH   1   7
TORSDOF 1
ENDMDL
