MODEL 1
REMARK minimizedAffinity -4.63995075
REMARK minimizedRMSD -1
REMARK  1 active torsions:
REMARK  status: ('A' for Active; 'I' for Inactive)
REMARK    1  A    between atoms: C1_2  and  C2_3 
ROOT
ATOM      1  C2  UNL d   1       0.803   0.195  -0.314  0.00  0.00    -0.077 A 
ATOM      2  C3  UNL d   1       0.490  -0.767  -1.285  0.00  0.00     0.002 A 
ATOM      3  C4  UNL d   1       1.385  -1.042  -2.320  0.00  0.00     0.002 A 
ATOM      4  C5  UNL d   1       2.600  -0.364  -2.392  0.00  0.00    -0.004 A 
ATOM      5  C6  UNL d   1       2.919   0.596  -1.433  0.00  0.00     0.002 A 
ATOM      6  C7  UNL d   1       2.025   0.873  -0.398  0.00  0.00     0.002 A 
ENDROOT
BRANCH   1   7
ATOM      7  C1  UNL d   1      -0.140   0.458   0.831  0.00  0.00     0.055 C 
ATOM      8  C   UNL d   1       0.070  -0.538   1.962  0.00  0.00     0.019 C 
ENDBRANCH   1   7
TORSDOF 1
ENDMDL
