MODEL 1
REMARK minimizedAffinity -3.10940099
REMARK minimizedRMSD -1
REMARK  1 active torsions:
REMARK  status: ('A' for Active; 'I' for Inactive)
REMARK    1  A    between atoms: C1_2  and  C2_3 
ROOT
ATOM      1  C2  UNL d   1      -2.260   0.573   0.301  0.00  0.00    -0.077 A 
ATOM      2  C3  UNL d   1      -1.784  -0.187   1.378  0.00  0.00     0.002 A 
ATOM      3  C4  UNL d   1      -0.533  -0.803   1.310  0.00  0.00     0.002 A 
ATOM      4  C5  UNL d   1       0.254  -0.662   0.169  0.00  0.00    -0.004 A 
ATOM      5  C6  UNL d   1      -0.212   0.090  -0.909  0.00  0.00     0.002 A 
ATOM      6  C7  UNL d   1      -1.463   0.705  -0.843  0.00  0.00     0.002 A 
ENDROOT
BRANCH   1   7
ATOM      7  C1  UNL d   1      -3.588   1.279   0.392  0.00  0.00     0.055 C 
ATOM      8  C   UNL d   1      -4.672   0.352   0.923  0.00  0.00     0.019 C 
ENDBRANCH   1   7
TORSDOF 1
ENDMDL
