MODEL 1
REMARK minimizedAffinity -1.36031735
REMARK minimizedRMSD -1
REMARK  1 active torsions:
REMARK  status: ('A' for Active; 'I' for Inactive)
REMARK    1  A    between atoms: C1_2  and  C2_3 
ROOT
ATOM      1  C2  UNL d   1      -3.161   2.810   2.903  0.00  0.00    -0.077 A 
ATOM      2  C3  UNL d   1      -4.238   2.315   2.155  0.00  0.00     0.002 A 
ATOM      3  C4  UNL d   1      -4.105   1.134   1.422  0.00  0.00     0.002 A 
ATOM      4  C5  UNL d   1      -2.899   0.437   1.434  0.00  0.00    -0.004 A 
ATOM      5  C6  UNL d   1      -1.821   0.922   2.173  0.00  0.00     0.002 A 
ATOM      6  C7  UNL d   1      -1.951   2.103   2.906  0.00  0.00     0.002 A 
ENDROOT
BRANCH   1   7
ATOM      7  C1  UNL d   1      -3.317   4.057   3.734  0.00  0.00     0.055 C 
ATOM      8  C   UNL d   1      -2.353   4.063   4.911  0.00  0.00     0.019 C 
ENDBRANCH   1   7
TORSDOF 1
ENDMDL
