MODEL 1
REMARK minimizedAffinity -4.23326445
REMARK minimizedRMSD -1
REMARK  1 active torsions:
REMARK  status: ('A' for Active; 'I' for Inactive)
REMARK    1  A    between atoms: C1_2  and  C2_3 
ROOT
ATOM      1  C2  UNL d   1      -3.342   2.595   3.208  0.00  0.00    -0.077 A 
ATOM      2  C3  UNL d   1      -4.396   2.140   2.404  0.00  0.00     0.002 A 
ATOM      3  C4  UNL d   1      -4.303   0.912   1.746  0.00  0.00     0.002 A 
ATOM      4  C5  UNL d   1      -3.160   0.129   1.888  0.00  0.00    -0.004 A 
ATOM      5  C6  UNL d   1      -2.105   0.574   2.683  0.00  0.00     0.002 A 
ATOM      6  C7  UNL d   1      -2.196   1.801   3.341  0.00  0.00     0.002 A 
ENDROOT
BRANCH   1   7
ATOM      7  C1  UNL d   1      -3.461   3.896   3.958  0.00  0.00     0.055 C 
ATOM      8  C   UNL d   1      -2.636   3.876   5.236  0.00  0.00     0.019 C 
ENDBRANCH   1   7
TORSDOF 1
ENDMDL
