MODEL 1
REMARK minimizedAffinity -5.32267618
REMARK minimizedRMSD -1
REMARK  1 active torsions:
REMARK  status: ('A' for Active; 'I' for Inactive)
REMARK    1  A    between atoms: C1_2  and  C2_3 
ROOT
ATOM      1  C2  UNL d   1      -3.044   2.649   2.704  0.00  0.00    -0.077 A 
ATOM      2  C3  UNL d   1      -4.248   2.112   2.228  0.00  0.00     0.002 A 
ATOM      3  C4  UNL d   1      -4.295   0.805   1.741  0.00  0.00     0.002 A 
ATOM      4  C5  UNL d   1      -3.142   0.022   1.729  0.00  0.00    -0.004 A 
ATOM      5  C6  UNL d   1      -1.939   0.548   2.198  0.00  0.00     0.002 A 
ATOM      6  C7  UNL d   1      -1.890   1.855   2.685  0.00  0.00     0.002 A 
ENDROOT
BRANCH   1   7
ATOM      7  C1  UNL d   1      -3.002   4.042   3.276  0.00  0.00     0.055 C 
ATOM      8  C   UNL d   1      -2.056   4.124   4.465  0.00  0.00     0.019 C 
ENDBRANCH   1   7
TORSDOF 1
ENDMDL
