MODEL 1
REMARK minimizedAffinity -5.54746866
REMARK minimizedRMSD -1
REMARK  1 active torsions:
REMARK  status: ('A' for Active; 'I' for Inactive)
REMARK    1  A    between atoms: C1_2  and  C2_3 
ROOT
ATOM      1  C2  UNL d   1       0.766  -0.486  -1.342  0.00  0.00    -0.077 A 
ATOM      2  C3  UNL d   1       0.815   0.535  -0.383  0.00  0.00     0.002 A 
ATOM      3  C4  UNL d   1       0.531   0.259   0.956  0.00  0.00     0.002 A 
ATOM      4  C5  UNL d   1       0.201  -1.036   1.348  0.00  0.00    -0.004 A 
ATOM      5  C6  UNL d   1       0.148  -2.058   0.401  0.00  0.00     0.002 A 
ATOM      6  C7  UNL d   1       0.430  -1.784  -0.938  0.00  0.00     0.002 A 
ENDROOT
BRANCH   1   7
ATOM      7  C1  UNL d   1       1.121  -0.201  -2.778  0.00  0.00     0.055 C 
ATOM      8  C   UNL d   1       2.527   0.366  -2.900  0.00  0.00     0.019 C 
ENDBRANCH   1   7
TORSDOF 1
ENDMDL
