MODEL 1
REMARK minimizedAffinity -1.13495231
REMARK minimizedRMSD -1
REMARK  1 active torsions:
REMARK  status: ('A' for Active; 'I' for Inactive)
REMARK    1  A    between atoms: C1_2  and  C2_3 
ROOT
ATOM      1  C2  UNL d   1      -0.984   0.224   0.260  0.00  0.00    -0.077 A 
ATOM      2  C3  UNL d   1      -0.513  -1.083   0.445  0.00  0.00     0.002 A 
ATOM      3  C4  UNL d   1       0.791  -1.422   0.076  0.00  0.00     0.002 A 
ATOM      4  C5  UNL d   1       1.633  -0.460  -0.476  0.00  0.00    -0.004 A 
ATOM      5  C6  UNL d   1       1.173   0.843  -0.665  0.00  0.00     0.002 A 
ATOM      6  C7  UNL d   1      -0.130   1.183  -0.298  0.00  0.00     0.002 A 
ENDROOT
BRANCH   1   7
ATOM      7  C1  UNL d   1      -2.373   0.604   0.703  0.00  0.00     0.055 C 
ATOM      8  C   UNL d   1      -2.336   1.517   1.920  0.00  0.00     0.019 C 
ENDBRANCH   1   7
TORSDOF 1
ENDMDL
