MODEL 1
REMARK minimizedAffinity 17.7374516
REMARK minimizedRMSD -1
REMARK  0 active torsions:
REMARK  status: ('A' for Active; 'I' for Inactive)
ROOT
ATOM      1  C   UNL d   1      -2.361  -1.799   2.240  0.00  0.00     0.124 A 
ATOM      2  C1  UNL d   1      -2.144  -1.142   3.443  0.00  0.00     0.062 A 
ATOM      3  C2  UNL d   1      -0.899  -1.206   4.061  0.00  0.00     0.162 A 
ATOM      4  C3  UNL d   1       0.141  -1.929   3.475  0.00  0.00    -0.034 A 
ATOM      5  C4  UNL d   1      -0.086  -2.588   2.265  0.00  0.00     0.162 A 
ATOM      6  C5  UNL d   1      -1.332  -2.521   1.652  0.00  0.00     0.062 A 
ATOM      7  F   UNL d   1      -1.540  -3.156   0.489  0.00  0.00    -0.097 F 
ATOM      8  F1  UNL d   1       0.892  -3.292   1.675  0.00  0.00    -0.096 F 
ATOM      9  I   UNL d   1       2.005  -2.028   4.396  0.00  0.00    -0.060 I 
ATOM     10  F2  UNL d   1      -0.717  -0.562   5.223  0.00  0.00    -0.096 F 
ATOM     11  F3  UNL d   1      -3.137  -0.445   4.013  0.00  0.00    -0.097 F 
ATOM     12  F4  UNL d   1      -3.561  -1.736   1.648  0.00  0.00    -0.092 F 
ENDROOT
TORSDOF 0
ENDMDL
