MODEL 1
REMARK minimizedAffinity 10.8029203
REMARK minimizedRMSD -1
REMARK  0 active torsions:
REMARK  status: ('A' for Active; 'I' for Inactive)
ROOT
ATOM      1  C   UNL d   1       4.183  -0.012   3.126  0.00  0.00     0.124 A 
ATOM      2  C1  UNL d   1       4.039   1.068   2.266  0.00  0.00     0.062 A 
ATOM      3  C2  UNL d   1       4.556   2.313   2.612  0.00  0.00     0.162 A 
ATOM      4  C3  UNL d   1       5.223   2.485   3.825  0.00  0.00    -0.034 A 
ATOM      5  C4  UNL d   1       5.363   1.394   4.686  0.00  0.00     0.162 A 
ATOM      6  C5  UNL d   1       4.844   0.152   4.334  0.00  0.00     0.062 A 
ATOM      7  F   UNL d   1       4.984  -0.890   5.167  0.00  0.00    -0.097 F 
ATOM      8  F1  UNL d   1       5.999   1.524   5.859  0.00  0.00    -0.096 F 
ATOM      9  I   UNL d   1       5.998   4.344   4.347  0.00  0.00    -0.060 I 
ATOM     10  F2  UNL d   1       4.403   3.338   1.762  0.00  0.00    -0.096 F 
ATOM     11  F3  UNL d   1       3.399   0.912   1.098  0.00  0.00    -0.097 F 
ATOM     12  F4  UNL d   1       3.683  -1.208   2.790  0.00  0.00    -0.092 F 
ENDROOT
TORSDOF 0
ENDMDL
