MODEL 1
REMARK minimizedAffinity 8.46083069
REMARK minimizedRMSD -1
REMARK  0 active torsions:
REMARK  status: ('A' for Active; 'I' for Inactive)
ROOT
ATOM      1  C   UNL d   1       4.498   2.521   2.342  0.00  0.00     0.124 A 
ATOM      2  C1  UNL d   1       4.320   1.148   2.240  0.00  0.00     0.062 A 
ATOM      3  C2  UNL d   1       4.708   0.313   3.283  0.00  0.00     0.162 A 
ATOM      4  C3  UNL d   1       5.278   0.847   4.438  0.00  0.00    -0.034 A 
ATOM      5  C4  UNL d   1       5.455   2.229   4.533  0.00  0.00     0.162 A 
ATOM      6  C5  UNL d   1       5.065   3.060   3.488  0.00  0.00     0.062 A 
ATOM      7  F   UNL d   1       5.238   4.386   3.589  0.00  0.00    -0.097 F 
ATOM      8  F1  UNL d   1       6.000   2.776   5.630  0.00  0.00    -0.096 F 
ATOM      9  I   UNL d   1       5.861  -0.399   6.000  0.00  0.00    -0.060 I 
ATOM     10  F2  UNL d   1       4.524  -1.010   3.156  0.00  0.00    -0.096 F 
ATOM     11  F3  UNL d   1       3.773   0.625   1.133  0.00  0.00    -0.097 F 
ATOM     12  F4  UNL d   1       4.124   3.323   1.337  0.00  0.00    -0.092 F 
ENDROOT
TORSDOF 0
ENDMDL
