MODEL 1
REMARK minimizedAffinity 9.99619579
REMARK minimizedRMSD -1
REMARK  0 active torsions:
REMARK  status: ('A' for Active; 'I' for Inactive)
ROOT
ATOM      1  C   UNL d   1      -0.435   1.931  -1.276  0.00  0.00     0.124 A 
ATOM      2  C1  UNL d   1      -0.030   3.084  -0.616  0.00  0.00     0.062 A 
ATOM      3  C2  UNL d   1       0.960   3.894  -1.164  0.00  0.00     0.162 A 
ATOM      4  C3  UNL d   1       1.552   3.555  -2.381  0.00  0.00    -0.034 A 
ATOM      5  C4  UNL d   1       1.141   2.394  -3.039  0.00  0.00     0.162 A 
ATOM      6  C5  UNL d   1       0.151   1.588  -2.486  0.00  0.00     0.062 A 
ATOM      7  F   UNL d   1      -0.239   0.475  -3.125  0.00  0.00    -0.097 F 
ATOM      8  F1  UNL d   1       1.689   2.039  -4.210  0.00  0.00    -0.096 F 
ATOM      9  I   UNL d   1       3.033   4.764  -3.205  0.00  0.00    -0.060 I 
ATOM     10  F2  UNL d   1       1.331   5.001  -0.505  0.00  0.00    -0.096 F 
ATOM     11  F3  UNL d   1      -0.594   3.417   0.554  0.00  0.00    -0.097 F 
ATOM     12  F4  UNL d   1      -1.387   1.153  -0.745  0.00  0.00    -0.092 F 
ENDROOT
TORSDOF 0
ENDMDL
