MODEL 1
REMARK minimizedAffinity 15.8775482
REMARK minimizedRMSD -1
REMARK  0 active torsions:
REMARK  status: ('A' for Active; 'I' for Inactive)
ROOT
ATOM      1  C   UNL d   1      -3.237   1.732  -0.365  0.00  0.00     0.124 A 
ATOM      2  C1  UNL d   1      -2.911   2.654   0.620  0.00  0.00     0.062 A 
ATOM      3  C2  UNL d   1      -2.661   2.228   1.922  0.00  0.00     0.162 A 
ATOM      4  C3  UNL d   1      -2.733   0.873   2.245  0.00  0.00    -0.034 A 
ATOM      5  C4  UNL d   1      -3.063  -0.048   1.249  0.00  0.00     0.162 A 
ATOM      6  C5  UNL d   1      -3.312   0.382  -0.050  0.00  0.00     0.062 A 
ATOM      7  F   UNL d   1      -3.627  -0.510  -1.000  0.00  0.00    -0.097 F 
ATOM      8  F1  UNL d   1      -3.141  -1.358   1.526  0.00  0.00    -0.096 F 
ATOM      9  I   UNL d   1      -2.359   0.233   4.190  0.00  0.00    -0.060 I 
ATOM     10  F2  UNL d   1      -2.348   3.141   2.854  0.00  0.00    -0.096 F 
ATOM     11  F3  UNL d   1      -2.839   3.958   0.319  0.00  0.00    -0.097 F 
ATOM     12  F4  UNL d   1      -3.479   2.144  -1.616  0.00  0.00    -0.092 F 
ENDROOT
TORSDOF 0
ENDMDL
