MODEL 1
REMARK minimizedAffinity 4.04806614
REMARK minimizedRMSD -1
REMARK  0 active torsions:
REMARK  status: ('A' for Active; 'I' for Inactive)
ROOT
ATOM      1  C   UNL d   1      -2.709  -0.512   1.622  0.00  0.00     0.124 A 
ATOM      2  C1  UNL d   1      -2.928  -0.264   0.274  0.00  0.00     0.062 A 
ATOM      3  C2  UNL d   1      -2.992   1.044  -0.196  0.00  0.00     0.162 A 
ATOM      4  C3  UNL d   1      -2.835   2.116   0.683  0.00  0.00    -0.034 A 
ATOM      5  C4  UNL d   1      -2.615   1.860   2.037  0.00  0.00     0.162 A 
ATOM      6  C5  UNL d   1      -2.553   0.550   2.502  0.00  0.00     0.062 A 
ATOM      7  F   UNL d   1      -2.341   0.313   3.805  0.00  0.00    -0.097 F 
ATOM      8  F1  UNL d   1      -2.460   2.867   2.909  0.00  0.00    -0.096 F 
ATOM      9  I   UNL d   1      -2.929   4.074  -0.017  0.00  0.00    -0.060 I 
ATOM     10  F2  UNL d   1      -3.204   1.254  -1.504  0.00  0.00    -0.096 F 
ATOM     11  F3  UNL d   1      -3.080  -1.288  -0.578  0.00  0.00    -0.097 F 
ATOM     12  F4  UNL d   1      -2.649  -1.772   2.072  0.00  0.00    -0.092 F 
ENDROOT
TORSDOF 0
ENDMDL
