MODEL 1
REMARK minimizedAffinity 4.37976217
REMARK minimizedRMSD -1
REMARK  0 active torsions:
REMARK  status: ('A' for Active; 'I' for Inactive)
ROOT
ATOM      1  C   UNL d   1       5.235   1.603   4.127  0.00  0.00     0.124 A 
ATOM      2  C1  UNL d   1       5.230   0.310   4.632  0.00  0.00     0.062 A 
ATOM      3  C2  UNL d   1       4.435  -0.669   4.043  0.00  0.00     0.162 A 
ATOM      4  C3  UNL d   1       3.638  -0.359   2.941  0.00  0.00    -0.034 A 
ATOM      5  C4  UNL d   1       3.647   0.944   2.440  0.00  0.00     0.162 A 
ATOM      6  C5  UNL d   1       4.443   1.918   3.032  0.00  0.00     0.062 A 
ATOM      7  F   UNL d   1       4.446   3.167   2.543  0.00  0.00    -0.097 F 
ATOM      8  F1  UNL d   1       2.892   1.276   1.382  0.00  0.00    -0.096 F 
ATOM      9  I   UNL d   1       2.448  -1.820   2.057  0.00  0.00    -0.060 I 
ATOM     10  F2  UNL d   1       4.451  -1.910   4.551  0.00  0.00    -0.096 F 
ATOM     11  F3  UNL d   1       5.994   0.002   5.691  0.00  0.00    -0.097 F 
ATOM     12  F4  UNL d   1       6.000   2.543   4.697  0.00  0.00    -0.092 F 
ENDROOT
TORSDOF 0
ENDMDL
