MODEL 1
REMARK minimizedAffinity 13.5931215
REMARK minimizedRMSD -1
REMARK  0 active torsions:
REMARK  status: ('A' for Active; 'I' for Inactive)
ROOT
ATOM      1  C   UNL d   1       3.512   0.345   1.730  0.00  0.00     0.124 A 
ATOM      2  C1  UNL d   1       3.768   1.639   2.161  0.00  0.00     0.062 A 
ATOM      3  C2  UNL d   1       4.474   1.859   3.339  0.00  0.00     0.162 A 
ATOM      4  C3  UNL d   1       4.933   0.780   4.096  0.00  0.00    -0.034 A 
ATOM      5  C4  UNL d   1       4.671  -0.519   3.657  0.00  0.00     0.162 A 
ATOM      6  C5  UNL d   1       3.964  -0.733   2.478  0.00  0.00     0.062 A 
ATOM      7  F   UNL d   1       3.719  -1.984   2.064  0.00  0.00    -0.097 F 
ATOM      8  F1  UNL d   1       5.097  -1.579   4.361  0.00  0.00    -0.096 F 
ATOM      9  I   UNL d   1       5.990   1.103   5.859  0.00  0.00    -0.060 I 
ATOM     10  F2  UNL d   1       4.707   3.120   3.731  0.00  0.00    -0.096 F 
ATOM     11  F3  UNL d   1       3.331   2.682   1.440  0.00  0.00    -0.097 F 
ATOM     12  F4  UNL d   1       2.831   0.137   0.596  0.00  0.00    -0.092 F 
ENDROOT
TORSDOF 0
ENDMDL
