MODEL 1
REMARK minimizedAffinity -1.03216779
REMARK minimizedRMSD -1
REMARK  0 active torsions:
REMARK  status: ('A' for Active; 'I' for Inactive)
ROOT
ATOM      1  C   UNL d   1       5.126   1.478   4.554  0.00  0.00     0.124 A 
ATOM      2  C1  UNL d   1       5.070   0.122   4.847  0.00  0.00     0.062 A 
ATOM      3  C2  UNL d   1       4.380  -0.747   4.007  0.00  0.00     0.162 A 
ATOM      4  C3  UNL d   1       3.741  -0.264   2.865  0.00  0.00    -0.034 A 
ATOM      5  C4  UNL d   1       3.801   1.100   2.577  0.00  0.00     0.162 A 
ATOM      6  C5  UNL d   1       4.492   1.966   3.420  0.00  0.00     0.062 A 
ATOM      7  F   UNL d   1       4.545   3.275   3.135  0.00  0.00    -0.097 F 
ATOM      8  F1  UNL d   1       3.198   1.598   1.488  0.00  0.00    -0.096 F 
ATOM      9  I   UNL d   1       2.709  -1.562   1.607  0.00  0.00    -0.060 I 
ATOM     10  F2  UNL d   1       4.343  -2.052   4.315  0.00  0.00    -0.096 F 
ATOM     11  F3  UNL d   1       5.682  -0.351   5.942  0.00  0.00    -0.097 F 
ATOM     12  F4  UNL d   1       5.790   2.313   5.364  0.00  0.00    -0.092 F 
ENDROOT
TORSDOF 0
ENDMDL
