MODEL 1
REMARK minimizedAffinity 9.86455727
REMARK minimizedRMSD -1
REMARK  0 active torsions:
REMARK  status: ('A' for Active; 'I' for Inactive)
ROOT
ATOM      1  C   UNL d   1       3.940   0.360   2.983  0.00  0.00     0.124 A 
ATOM      2  C1  UNL d   1       3.778   1.534   2.260  0.00  0.00     0.062 A 
ATOM      3  C2  UNL d   1       4.365   2.715   2.703  0.00  0.00     0.162 A 
ATOM      4  C3  UNL d   1       5.121   2.729   3.876  0.00  0.00    -0.034 A 
ATOM      5  C4  UNL d   1       5.279   1.545   4.598  0.00  0.00     0.162 A 
ATOM      6  C5  UNL d   1       4.690   0.367   4.151  0.00  0.00     0.062 A 
ATOM      7  F   UNL d   1       4.848  -0.766   4.850  0.00  0.00    -0.097 F 
ATOM      8  F1  UNL d   1       5.999   1.523   5.729  0.00  0.00    -0.096 F 
ATOM      9  I   UNL d   1       5.999   4.494   4.542  0.00  0.00    -0.060 I 
ATOM     10  F2  UNL d   1       4.191   3.835   1.985  0.00  0.00    -0.096 F 
ATOM     11  F3  UNL d   1       3.053   1.530   1.132  0.00  0.00    -0.097 F 
ATOM     12  F4  UNL d   1       3.374  -0.776   2.555  0.00  0.00    -0.092 F 
ENDROOT
TORSDOF 0
ENDMDL
