MODEL 1
REMARK minimizedAffinity 10.2623262
REMARK minimizedRMSD -1
REMARK  0 active torsions:
REMARK  status: ('A' for Active; 'I' for Inactive)
ROOT
ATOM      1  C   UNL d   1      -2.721   0.385   1.878  0.00  0.00     0.124 A 
ATOM      2  C1  UNL d   1      -2.465   1.012   0.666  0.00  0.00     0.062 A 
ATOM      3  C2  UNL d   1      -3.399   0.950  -0.365  0.00  0.00     0.162 A 
ATOM      4  C3  UNL d   1      -4.598   0.260  -0.188  0.00  0.00    -0.034 A 
ATOM      5  C4  UNL d   1      -4.848  -0.369   1.033  0.00  0.00     0.162 A 
ATOM      6  C5  UNL d   1      -3.912  -0.304   2.060  0.00  0.00     0.062 A 
ATOM      7  F   UNL d   1      -4.161  -0.910   3.230  0.00  0.00    -0.097 F 
ATOM      8  F1  UNL d   1      -5.990  -1.041   1.236  0.00  0.00    -0.096 F 
ATOM      9  I   UNL d   1      -5.996   0.165  -1.727  0.00  0.00    -0.060 I 
ATOM     10  F2  UNL d   1      -3.125   1.565  -1.525  0.00  0.00    -0.096 F 
ATOM     11  F3  UNL d   1      -1.316   1.678   0.487  0.00  0.00    -0.097 F 
ATOM     12  F4  UNL d   1      -1.821   0.446   2.867  0.00  0.00    -0.092 F 
ENDROOT
TORSDOF 0
ENDMDL
