MODEL 1
REMARK minimizedAffinity 4.20895767
REMARK minimizedRMSD -1
REMARK  0 active torsions:
REMARK  status: ('A' for Active; 'I' for Inactive)
ROOT
ATOM      1  C   UNL d   1       4.703   1.471   3.688  0.00  0.00     0.124 A 
ATOM      2  C1  UNL d   1       4.079   1.577   2.453  0.00  0.00     0.062 A 
ATOM      3  C2  UNL d   1       3.360   0.503   1.937  0.00  0.00     0.162 A 
ATOM      4  C3  UNL d   1       3.260  -0.687   2.658  0.00  0.00    -0.034 A 
ATOM      5  C4  UNL d   1       3.891  -0.787   3.899  0.00  0.00     0.162 A 
ATOM      6  C5  UNL d   1       4.609   0.290   4.410  0.00  0.00     0.062 A 
ATOM      7  F   UNL d   1       5.211   0.186   5.603  0.00  0.00    -0.097 F 
ATOM      8  F1  UNL d   1       3.815  -1.917   4.618  0.00  0.00    -0.096 F 
ATOM      9  I   UNL d   1       2.186  -2.296   1.891  0.00  0.00    -0.060 I 
ATOM     10  F2  UNL d   1       2.767   0.633   0.741  0.00  0.00    -0.096 F 
ATOM     11  F3  UNL d   1       4.170   2.717   1.753  0.00  0.00    -0.097 F 
ATOM     12  F4  UNL d   1       5.395   2.506   4.181  0.00  0.00    -0.092 F 
ENDROOT
TORSDOF 0
ENDMDL
