MODEL 1
REMARK minimizedAffinity 18.0183792
REMARK minimizedRMSD -1
REMARK  0 active torsions:
REMARK  status: ('A' for Active; 'I' for Inactive)
ROOT
ATOM      1  C   UNL d   1      -0.363  -3.977  -1.223  0.00  0.00     0.124 A 
ATOM      2  C1  UNL d   1      -1.625  -3.848  -1.786  0.00  0.00     0.062 A 
ATOM      3  C2  UNL d   1      -2.748  -4.303  -1.101  0.00  0.00     0.162 A 
ATOM      4  C3  UNL d   1      -2.614  -4.890   0.157  0.00  0.00    -0.034 A 
ATOM      5  C4  UNL d   1      -1.342  -5.018   0.717  0.00  0.00     0.162 A 
ATOM      6  C5  UNL d   1      -0.223  -4.562   0.028  0.00  0.00     0.062 A 
ATOM      7  F   UNL d   1       0.996  -4.688   0.574  0.00  0.00    -0.097 F 
ATOM      8  F1  UNL d   1      -1.177  -5.578   1.925  0.00  0.00    -0.096 F 
ATOM      9  I   UNL d   1      -4.290  -5.572   1.186  0.00  0.00    -0.060 I 
ATOM     10  F2  UNL d   1      -3.955  -4.165  -1.669  0.00  0.00    -0.096 F 
ATOM     11  F3  UNL d   1      -1.764  -3.284  -2.995  0.00  0.00    -0.097 F 
ATOM     12  F4  UNL d   1       0.715  -3.539  -1.885  0.00  0.00    -0.092 F 
ENDROOT
TORSDOF 0
ENDMDL
