MODEL 1
REMARK minimizedAffinity 15.7692003
REMARK minimizedRMSD -1
REMARK  0 active torsions:
REMARK  status: ('A' for Active; 'I' for Inactive)
ROOT
ATOM      1  C   UNL d   1      -4.183  -0.469   4.467  0.00  0.00     0.124 A 
ATOM      2  C1  UNL d   1      -5.013  -1.043   3.514  0.00  0.00     0.062 A 
ATOM      3  C2  UNL d   1      -4.826  -0.764   2.163  0.00  0.00     0.162 A 
ATOM      4  C3  UNL d   1      -3.803   0.094   1.757  0.00  0.00    -0.034 A 
ATOM      5  C4  UNL d   1      -2.973   0.668   2.721  0.00  0.00     0.162 A 
ATOM      6  C5  UNL d   1      -3.164   0.386   4.070  0.00  0.00     0.062 A 
ATOM      7  F   UNL d   1      -2.362   0.942   4.989  0.00  0.00    -0.097 F 
ATOM      8  F1  UNL d   1      -1.981   1.498   2.366  0.00  0.00    -0.096 F 
ATOM      9  I   UNL d   1      -3.521   0.515  -0.262  0.00  0.00    -0.060 I 
ATOM     10  F2  UNL d   1      -5.643  -1.333   1.264  0.00  0.00    -0.096 F 
ATOM     11  F3  UNL d   1      -5.998  -1.869   3.895  0.00  0.00    -0.097 F 
ATOM     12  F4  UNL d   1      -4.366  -0.739   5.766  0.00  0.00    -0.092 F 
ENDROOT
TORSDOF 0
ENDMDL
