MODEL 1
REMARK minimizedAffinity -1.42774057
REMARK minimizedRMSD -1
REMARK  0 active torsions:
REMARK  status: ('A' for Active; 'I' for Inactive)
ROOT
ATOM      1  C   UNL d   1       4.941   0.483   3.814  0.00  0.00     0.124 A 
ATOM      2  C1  UNL d   1       4.031   0.961   2.882  0.00  0.00     0.062 A 
ATOM      3  C2  UNL d   1       3.299   0.074   2.099  0.00  0.00     0.162 A 
ATOM      4  C3  UNL d   1       3.473  -1.303   2.246  0.00  0.00    -0.034 A 
ATOM      5  C4  UNL d   1       4.390  -1.776   3.185  0.00  0.00     0.162 A 
ATOM      6  C5  UNL d   1       5.120  -0.885   3.965  0.00  0.00     0.062 A 
ATOM      7  F   UNL d   1       5.998  -1.349   4.866  0.00  0.00    -0.097 F 
ATOM      8  F1  UNL d   1       4.582  -3.093   3.352  0.00  0.00    -0.096 F 
ATOM      9  I   UNL d   1       2.380  -2.633   1.077  0.00  0.00    -0.060 I 
ATOM     10  F2  UNL d   1       2.427   0.564   1.206  0.00  0.00    -0.096 F 
ATOM     11  F3  UNL d   1       3.858   2.283   2.734  0.00  0.00    -0.097 F 
ATOM     12  F4  UNL d   1       5.645   1.339   4.566  0.00  0.00    -0.092 F 
ENDROOT
TORSDOF 0
ENDMDL
