MODEL 1
REMARK minimizedAffinity -1.41492403
REMARK minimizedRMSD -1
REMARK  0 active torsions:
REMARK  status: ('A' for Active; 'I' for Inactive)
ROOT
ATOM      1  C   UNL d   1      -3.430  -0.201   0.896  0.00  0.00     0.124 A 
ATOM      2  C1  UNL d   1      -3.922   0.775   0.041  0.00  0.00     0.062 A 
ATOM      3  C2  UNL d   1      -3.820   2.121   0.383  0.00  0.00     0.162 A 
ATOM      4  C3  UNL d   1      -3.220   2.498   1.585  0.00  0.00    -0.034 A 
ATOM      5  C4  UNL d   1      -2.728   1.510   2.439  0.00  0.00     0.162 A 
ATOM      6  C5  UNL d   1      -2.833   0.167   2.094  0.00  0.00     0.062 A 
ATOM      7  F   UNL d   1      -2.357  -0.775   2.920  0.00  0.00    -0.097 F 
ATOM      8  F1  UNL d   1      -2.146   1.838   3.603  0.00  0.00    -0.096 F 
ATOM      9  I   UNL d   1      -3.065   4.509   2.099  0.00  0.00    -0.060 I 
ATOM     10  F2  UNL d   1      -4.304   3.043  -0.462  0.00  0.00    -0.096 F 
ATOM     11  F3  UNL d   1      -4.500   0.422  -1.116  0.00  0.00    -0.097 F 
ATOM     12  F4  UNL d   1      -3.531  -1.495   0.565  0.00  0.00    -0.092 F 
ENDROOT
TORSDOF 0
ENDMDL
