MODEL 1
REMARK minimizedAffinity -0.296814948
REMARK minimizedRMSD -1
REMARK  2 active torsions:
REMARK  status: ('A' for Active; 'I' for Inactive)
REMARK    1  A    between atoms: C1_2  and  C2_3 
REMARK    2  A    between atoms: C2_3  and  C3_4 
ROOT
ATOM      1  C3  UNL d   1      -0.330   0.266   0.992  0.00  0.00    -0.075 A 
ATOM      2  C4  UNL d   1      -0.688   1.119   2.046  0.00  0.00     0.002 A 
ATOM      3  C5  UNL d   1      -1.335   2.328   1.791  0.00  0.00     0.002 A 
ATOM      4  C6  UNL d   1      -1.624   2.704   0.481  0.00  0.00    -0.004 A 
ATOM      5  C7  UNL d   1      -1.259   1.872  -0.575  0.00  0.00     0.002 A 
ATOM      6  C8  UNL d   1      -0.615   0.659  -0.322  0.00  0.00     0.002 A 
ENDROOT
BRANCH   1   7
ATOM      7  C2  UNL d   1       0.344  -1.057   1.264  0.00  0.00     0.056 C 
BRANCH   7   8
ATOM      8  C1  UNL d   1       1.023  -1.142   2.635  0.00  0.00     0.007 C 
ATOM      9  C   UNL d   1       0.376  -2.161   3.564  0.00  0.00     0.009 C 
ENDBRANCH   7   8
ENDBRANCH   1   7
TORSDOF 2
ENDMDL
