MODEL 1
REMARK minimizedAffinity -0.932762086
REMARK minimizedRMSD -1
REMARK  2 active torsions:
REMARK  status: ('A' for Active; 'I' for Inactive)
REMARK    1  A    between atoms: C1_2  and  C2_3 
REMARK    2  A    between atoms: C2_3  and  C3_4 
ROOT
ATOM      1  C3  UNL d   1       0.760  -0.794  -0.343  0.00  0.00    -0.075 A 
ATOM      2  C4  UNL d   1       0.722  -1.160   1.011  0.00  0.00     0.002 A 
ATOM      3  C5  UNL d   1      -0.109  -0.484   1.904  0.00  0.00     0.002 A 
ATOM      4  C6  UNL d   1      -0.903   0.571   1.460  0.00  0.00    -0.004 A 
ATOM      5  C7  UNL d   1      -0.861   0.954   0.121  0.00  0.00     0.002 A 
ATOM      6  C8  UNL d   1      -0.034   0.276  -0.776  0.00  0.00     0.002 A 
ENDROOT
BRANCH   1   7
ATOM      7  C2  UNL d   1       1.635  -1.541  -1.321  0.00  0.00     0.056 C 
BRANCH   7   8
ATOM      8  C1  UNL d   1       1.168  -2.972  -1.609  0.00  0.00     0.007 C 
ATOM      9  C   UNL d   1       0.421  -3.105  -2.930  0.00  0.00     0.009 C 
ENDBRANCH   7   8
ENDBRANCH   1   7
TORSDOF 2
ENDMDL
