MODEL 1
REMARK minimizedAffinity -4.40134573
REMARK minimizedRMSD -1
REMARK  2 active torsions:
REMARK  status: ('A' for Active; 'I' for Inactive)
REMARK    1  A    between atoms: C1_2  and  C2_3 
REMARK    2  A    between atoms: C2_3  and  C3_4 
ROOT
ATOM      1  C3  UNL d   1       0.242  -0.318   0.151  0.00  0.00    -0.075 A 
ATOM      2  C4  UNL d   1       0.006  -0.722   1.473  0.00  0.00     0.002 A 
ATOM      3  C5  UNL d   1      -0.867  -0.001   2.288  0.00  0.00     0.002 A 
ATOM      4  C6  UNL d   1      -1.506   1.135   1.797  0.00  0.00    -0.004 A 
ATOM      5  C7  UNL d   1      -1.266   1.555   0.490  0.00  0.00     0.002 A 
ATOM      6  C8  UNL d   1      -0.397   0.833  -0.329  0.00  0.00     0.002 A 
ENDROOT
BRANCH   1   7
ATOM      7  C2  UNL d   1       1.163  -1.111  -0.746  0.00  0.00     0.056 C 
BRANCH   7   8
ATOM      8  C1  UNL d   1       0.445  -2.148  -1.617  0.00  0.00     0.007 C 
ATOM      9  C   UNL d   1       1.118  -3.514  -1.600  0.00  0.00     0.009 C 
ENDBRANCH   7   8
ENDBRANCH   1   7
TORSDOF 2
ENDMDL
