MODEL 1
REMARK minimizedAffinity -4.6985178
REMARK minimizedRMSD -1
REMARK  2 active torsions:
REMARK  status: ('A' for Active; 'I' for Inactive)
REMARK    1  A    between atoms: C1_2  and  C2_3 
REMARK    2  A    between atoms: C2_3  and  C3_4 
ROOT
ATOM      1  C3  UNL d   1       0.224   0.147   0.146  0.00  0.00    -0.075 A 
ATOM      2  C4  UNL d   1      -0.106   1.263  -0.637  0.00  0.00     0.002 A 
ATOM      3  C5  UNL d   1      -0.924   2.271  -0.124  0.00  0.00     0.002 A 
ATOM      4  C6  UNL d   1      -1.429   2.171   1.170  0.00  0.00    -0.004 A 
ATOM      5  C7  UNL d   1      -1.121   1.059   1.951  0.00  0.00     0.002 A 
ATOM      6  C8  UNL d   1      -0.299   0.051   1.442  0.00  0.00     0.002 A 
ENDROOT
BRANCH   1   7
ATOM      7  C2  UNL d   1       1.132  -0.933  -0.393  0.00  0.00     0.056 C 
BRANCH   7   8
ATOM      8  C1  UNL d   1       0.409  -2.001  -1.220  0.00  0.00     0.007 C 
ATOM      9  C   UNL d   1       1.310  -3.161  -1.621  0.00  0.00     0.009 C 
ENDBRANCH   7   8
ENDBRANCH   1   7
TORSDOF 2
ENDMDL
