MODEL 1
REMARK minimizedAffinity -3.6641767
REMARK minimizedRMSD -1
REMARK  2 active torsions:
REMARK  status: ('A' for Active; 'I' for Inactive)
REMARK    1  A    between atoms: C1_2  and  C2_3 
REMARK    2  A    between atoms: C2_3  and  C3_4 
ROOT
ATOM      1  C3  UNL d   1       0.391  -1.062  -1.109  0.00  0.00    -0.075 A 
ATOM      2  C4  UNL d   1       0.054  -0.939  -2.464  0.00  0.00     0.002 A 
ATOM      3  C5  UNL d   1       0.213  -2.018  -3.334  0.00  0.00     0.002 A 
ATOM      4  C6  UNL d   1       0.720  -3.228  -2.864  0.00  0.00    -0.004 A 
ATOM      5  C7  UNL d   1       1.074  -3.356  -1.522  0.00  0.00     0.002 A 
ATOM      6  C8  UNL d   1       0.911  -2.279  -0.648  0.00  0.00     0.002 A 
ENDROOT
BRANCH   1   7
ATOM      7  C2  UNL d   1       0.193   0.093  -0.156  0.00  0.00     0.056 C 
BRANCH   7   8
ATOM      8  C1  UNL d   1      -0.708  -0.233   1.040  0.00  0.00     0.007 C 
ATOM      9  C   UNL d   1      -1.189   1.006   1.784  0.00  0.00     0.009 C 
ENDBRANCH   7   8
ENDBRANCH   1   7
TORSDOF 2
ENDMDL
