MODEL 1
REMARK minimizedAffinity -1.20503044
REMARK minimizedRMSD -1
REMARK  2 active torsions:
REMARK  status: ('A' for Active; 'I' for Inactive)
REMARK    1  A    between atoms: C1_2  and  C2_3 
REMARK    2  A    between atoms: C2_3  and  C3_4 
ROOT
ATOM      1  C3  UNL d   1      -0.009  -0.164  -0.448  0.00  0.00    -0.075 A 
ATOM      2  C4  UNL d   1       1.039   0.488  -1.114  0.00  0.00     0.002 A 
ATOM      3  C5  UNL d   1       0.894   1.810  -1.538  0.00  0.00     0.002 A 
ATOM      4  C6  UNL d   1      -0.300   2.491  -1.311  0.00  0.00    -0.004 A 
ATOM      5  C7  UNL d   1      -1.353   1.847  -0.665  0.00  0.00     0.002 A 
ATOM      6  C8  UNL d   1      -1.210   0.526  -0.236  0.00  0.00     0.002 A 
ENDROOT
BRANCH   1   7
ATOM      7  C2  UNL d   1       0.151  -1.584   0.040  0.00  0.00     0.056 C 
BRANCH   7   8
ATOM      8  C1  UNL d   1       1.163  -2.409  -0.763  0.00  0.00     0.007 C 
ATOM      9  C   UNL d   1       0.513  -3.312  -1.802  0.00  0.00     0.009 C 
ENDBRANCH   7   8
ENDBRANCH   1   7
TORSDOF 2
ENDMDL
