MODEL 1
REMARK minimizedAffinity -2.53460264
REMARK minimizedRMSD -1
REMARK  2 active torsions:
REMARK  status: ('A' for Active; 'I' for Inactive)
REMARK    1  A    between atoms: C1_2  and  C2_3 
REMARK    2  A    between atoms: C2_3  and  C3_4 
ROOT
ATOM      1  C3  UNL d   1       0.415  -0.469  -0.933  0.00  0.00    -0.075 A 
ATOM      2  C4  UNL d   1      -0.577  -0.000  -0.060  0.00  0.00     0.002 A 
ATOM      3  C5  UNL d   1      -0.866   1.363   0.017  0.00  0.00     0.002 A 
ATOM      4  C6  UNL d   1      -0.162   2.273  -0.768  0.00  0.00    -0.004 A 
ATOM      5  C7  UNL d   1       0.837   1.819  -1.627  0.00  0.00     0.002 A 
ATOM      6  C8  UNL d   1       1.126   0.456  -1.709  0.00  0.00     0.002 A 
ENDROOT
BRANCH   1   7
ATOM      7  C2  UNL d   1       0.713  -1.946  -1.043  0.00  0.00     0.056 C 
BRANCH   7   8
ATOM      8  C1  UNL d   1       0.229  -2.584  -2.348  0.00  0.00     0.007 C 
ATOM      9  C   UNL d   1      -0.152  -4.051  -2.194  0.00  0.00     0.009 C 
ENDBRANCH   7   8
ENDBRANCH   1   7
TORSDOF 2
ENDMDL
