MODEL 1
REMARK minimizedAffinity -3.24657416
REMARK minimizedRMSD -1
REMARK  2 active torsions:
REMARK  status: ('A' for Active; 'I' for Inactive)
REMARK    1  A    between atoms: C1_2  and  C2_3 
REMARK    2  A    between atoms: C2_3  and  C3_4 
ROOT
ATOM      1  C3  UNL d   1      -0.249  -0.052   0.058  0.00  0.00    -0.075 A 
ATOM      2  C4  UNL d   1       0.395   1.123  -0.358  0.00  0.00     0.002 A 
ATOM      3  C5  UNL d   1       1.435   1.070  -1.286  0.00  0.00     0.002 A 
ATOM      4  C6  UNL d   1       1.852  -0.155  -1.801  0.00  0.00    -0.004 A 
ATOM      5  C7  UNL d   1       1.230  -1.330  -1.382  0.00  0.00     0.002 A 
ATOM      6  C8  UNL d   1       0.186  -1.280  -0.457  0.00  0.00     0.002 A 
ENDROOT
BRANCH   1   7
ATOM      7  C2  UNL d   1      -1.395   0.002   1.040  0.00  0.00     0.056 C 
BRANCH   7   8
ATOM      8  C1  UNL d   1      -1.133   0.896   2.256  0.00  0.00     0.007 C 
ATOM      9  C   UNL d   1      -1.984   2.159   2.267  0.00  0.00     0.009 C 
ENDBRANCH   7   8
ENDBRANCH   1   7
TORSDOF 2
ENDMDL
