MODEL 1
REMARK minimizedAffinity -2.94340062
REMARK minimizedRMSD -1
REMARK  2 active torsions:
REMARK  status: ('A' for Active; 'I' for Inactive)
REMARK    1  A    between atoms: C1_2  and  C2_3 
REMARK    2  A    between atoms: C2_3  and  C3_4 
ROOT
ATOM      1  C3  UNL d   1       0.269  -0.266   0.325  0.00  0.00    -0.075 A 
ATOM      2  C4  UNL d   1      -0.027  -0.834   1.572  0.00  0.00     0.002 A 
ATOM      3  C5  UNL d   1      -0.772  -0.125   2.515  0.00  0.00     0.002 A 
ATOM      4  C6  UNL d   1      -1.221   1.163   2.227  0.00  0.00    -0.004 A 
ATOM      5  C7  UNL d   1      -0.918   1.743   0.997  0.00  0.00     0.002 A 
ATOM      6  C8  UNL d   1      -0.177   1.034   0.051  0.00  0.00     0.002 A 
ENDROOT
BRANCH   1   7
ATOM      7  C2  UNL d   1       1.049  -1.040  -0.711  0.00  0.00     0.056 C 
BRANCH   7   8
ATOM      8  C1  UNL d   1       0.227  -2.103  -1.445  0.00  0.00     0.007 C 
ATOM      9  C   UNL d   1       1.024  -3.359  -1.772  0.00  0.00     0.009 C 
ENDBRANCH   7   8
ENDBRANCH   1   7
TORSDOF 2
ENDMDL
