MODEL 1
REMARK minimizedAffinity -4.89233828
REMARK minimizedRMSD -1
REMARK  2 active torsions:
REMARK  status: ('A' for Active; 'I' for Inactive)
REMARK    1  A    between atoms: C1_2  and  C2_3 
REMARK    2  A    between atoms: C2_3  and  C3_4 
ROOT
ATOM      1  C3  UNL d   1      -0.828   0.608   0.470  0.00  0.00    -0.075 A 
ATOM      2  C4  UNL d   1      -1.609   0.888   1.601  0.00  0.00     0.002 A 
ATOM      3  C5  UNL d   1      -1.998   2.197   1.887  0.00  0.00     0.002 A 
ATOM      4  C6  UNL d   1      -1.602   3.242   1.055  0.00  0.00    -0.004 A 
ATOM      5  C7  UNL d   1      -0.812   2.978  -0.061  0.00  0.00     0.002 A 
ATOM      6  C8  UNL d   1      -0.425   1.668  -0.353  0.00  0.00     0.002 A 
ENDROOT
BRANCH   1   7
ATOM      7  C2  UNL d   1      -0.429  -0.810   0.138  0.00  0.00     0.056 C 
BRANCH   7   8
ATOM      8  C1  UNL d   1       0.915  -0.926  -0.588  0.00  0.00     0.007 C 
ATOM      9  C   UNL d   1       1.035  -2.189  -1.431  0.00  0.00     0.009 C 
ENDBRANCH   7   8
ENDBRANCH   1   7
TORSDOF 2
ENDMDL
