MODEL 1
REMARK minimizedAffinity -5.39498949
REMARK minimizedRMSD -1
REMARK  2 active torsions:
REMARK  status: ('A' for Active; 'I' for Inactive)
REMARK    1  A    between atoms: C1_2  and  C2_3 
REMARK    2  A    between atoms: C2_3  and  C3_4 
ROOT
ATOM      1  C3  UNL d   1      -0.491   0.723   0.375  0.00  0.00    -0.075 A 
ATOM      2  C4  UNL d   1      -1.315   1.118   1.438  0.00  0.00     0.002 A 
ATOM      3  C5  UNL d   1      -1.674   2.457   1.596  0.00  0.00     0.002 A 
ATOM      4  C6  UNL d   1      -1.207   3.417   0.701  0.00  0.00    -0.004 A 
ATOM      5  C7  UNL d   1      -0.374   3.038  -0.349  0.00  0.00     0.002 A 
ATOM      6  C8  UNL d   1      -0.017   1.698  -0.512  0.00  0.00     0.002 A 
ENDROOT
BRANCH   1   7
ATOM      7  C2  UNL d   1      -0.123  -0.729   0.181  0.00  0.00     0.056 C 
BRANCH   7   8
ATOM      8  C1  UNL d   1      -0.749  -1.370  -1.062  0.00  0.00     0.007 C 
ATOM      9  C   UNL d   1       0.158  -2.397  -1.728  0.00  0.00     0.009 C 
ENDBRANCH   7   8
ENDBRANCH   1   7
TORSDOF 2
ENDMDL
