MODEL 1
REMARK minimizedAffinity -3.62133288
REMARK minimizedRMSD -1
REMARK  2 active torsions:
REMARK  status: ('A' for Active; 'I' for Inactive)
REMARK    1  A    between atoms: C1_2  and  C2_3 
REMARK    2  A    between atoms: C2_3  and  C3_4 
ROOT
ATOM      1  C3  UNL d   1      -1.463   1.066   0.624  0.00  0.00    -0.075 A 
ATOM      2  C4  UNL d   1      -0.667   1.044   1.778  0.00  0.00     0.002 A 
ATOM      3  C5  UNL d   1       0.138  -0.060   2.063  0.00  0.00     0.002 A 
ATOM      4  C6  UNL d   1       0.148  -1.157   1.205  0.00  0.00    -0.004 A 
ATOM      5  C7  UNL d   1      -0.652  -1.154   0.065  0.00  0.00     0.002 A 
ATOM      6  C8  UNL d   1      -1.455  -0.049  -0.225  0.00  0.00     0.002 A 
ENDROOT
BRANCH   1   7
ATOM      7  C2  UNL d   1      -2.314   2.270   0.295  0.00  0.00     0.056 C 
BRANCH   7   8
ATOM      8  C1  UNL d   1      -1.515   3.563   0.100  0.00  0.00     0.007 C 
ATOM      9  C   UNL d   1      -0.297   3.387  -0.796  0.00  0.00     0.009 C 
ENDBRANCH   7   8
ENDBRANCH   1   7
TORSDOF 2
ENDMDL
