MODEL 1
REMARK minimizedAffinity -5.48263645
REMARK minimizedRMSD -1
REMARK  2 active torsions:
REMARK  status: ('A' for Active; 'I' for Inactive)
REMARK    1  A    between atoms: C1_2  and  C2_3 
REMARK    2  A    between atoms: C2_3  and  C3_4 
ROOT
ATOM      1  C3  UNL d   1       0.027   0.388   0.006  0.00  0.00    -0.075 A 
ATOM      2  C4  UNL d   1      -0.544  -0.088   1.195  0.00  0.00     0.002 A 
ATOM      3  C5  UNL d   1      -1.439   0.703   1.917  0.00  0.00     0.002 A 
ATOM      4  C6  UNL d   1      -1.766   1.979   1.466  0.00  0.00    -0.004 A 
ATOM      5  C7  UNL d   1      -1.192   2.469   0.294  0.00  0.00     0.002 A 
ATOM      6  C8  UNL d   1      -0.299   1.678  -0.432  0.00  0.00     0.002 A 
ENDROOT
BRANCH   1   7
ATOM      7  C2  UNL d   1       0.973  -0.474  -0.795  0.00  0.00     0.056 C 
BRANCH   7   8
ATOM      8  C1  UNL d   1       0.274  -1.457  -1.739  0.00  0.00     0.007 C 
ATOM      9  C   UNL d   1       1.009  -2.784  -1.877  0.00  0.00     0.009 C 
ENDBRANCH   7   8
ENDBRANCH   1   7
TORSDOF 2
ENDMDL
