MODEL 1
REMARK minimizedAffinity -3.78619337
REMARK minimizedRMSD -1
REMARK  2 active torsions:
REMARK  status: ('A' for Active; 'I' for Inactive)
REMARK    1  A    between atoms: C1_2  and  C2_3 
REMARK    2  A    between atoms: C2_3  and  C3_4 
ROOT
ATOM      1  C3  UNL d   1      -0.806  -0.187   0.549  0.00  0.00    -0.075 A 
ATOM      2  C4  UNL d   1      -1.943   0.613   0.732  0.00  0.00     0.002 A 
ATOM      3  C5  UNL d   1      -2.023   1.494   1.812  0.00  0.00     0.002 A 
ATOM      4  C6  UNL d   1      -0.975   1.578   2.725  0.00  0.00    -0.004 A 
ATOM      5  C7  UNL d   1       0.153   0.775   2.562  0.00  0.00     0.002 A 
ATOM      6  C8  UNL d   1       0.237  -0.103   1.481  0.00  0.00     0.002 A 
ENDROOT
BRANCH   1   7
ATOM      7  C2  UNL d   1      -0.701  -1.121  -0.633  0.00  0.00     0.056 C 
BRANCH   7   8
ATOM      8  C1  UNL d   1       0.736  -1.514  -0.992  0.00  0.00     0.007 C 
ATOM      9  C   UNL d   1       0.966  -3.019  -0.983  0.00  0.00     0.009 C 
ENDBRANCH   7   8
ENDBRANCH   1   7
TORSDOF 2
ENDMDL
