MODEL 1
REMARK minimizedAffinity -4.67584991
REMARK minimizedRMSD -1
REMARK  2 active torsions:
REMARK  status: ('A' for Active; 'I' for Inactive)
REMARK    1  A    between atoms: C1_2  and  C2_3 
REMARK    2  A    between atoms: C2_3  and  C3_4 
ROOT
ATOM      1  C3  UNL d   1      -0.075  -0.245  -0.391  0.00  0.00    -0.075 A 
ATOM      2  C4  UNL d   1       0.227   1.040   0.082  0.00  0.00     0.002 A 
ATOM      3  C5  UNL d   1      -0.680   1.729   0.889  0.00  0.00     0.002 A 
ATOM      4  C6  UNL d   1      -1.901   1.147   1.223  0.00  0.00    -0.004 A 
ATOM      5  C7  UNL d   1      -2.218  -0.122   0.745  0.00  0.00     0.002 A 
ATOM      6  C8  UNL d   1      -1.311  -0.815  -0.058  0.00  0.00     0.002 A 
ENDROOT
BRANCH   1   7
ATOM      7  C2  UNL d   1       0.914  -1.008  -1.240  0.00  0.00     0.056 C 
BRANCH   7   8
ATOM      8  C1  UNL d   1       0.460  -2.426  -1.604  0.00  0.00     0.007 C 
ATOM      9  C   UNL d   1       0.422  -2.676  -3.106  0.00  0.00     0.009 C 
ENDBRANCH   7   8
ENDBRANCH   1   7
TORSDOF 2
ENDMDL
