MODEL 1
REMARK minimizedAffinity 3.19947648
REMARK minimizedRMSD -1
REMARK  0 active torsions:
REMARK  status: ('A' for Active; 'I' for Inactive)
ROOT
ATOM      1  C   UNL d   1      -0.901   2.125   0.834  0.00  0.00     0.078 C 
ATOM      2  C1  UNL d   1      -0.496   0.739   1.238  0.00  0.00    -0.077 A 
ATOM      3  C2  UNL d   1      -1.442  -0.290   1.334  0.00  0.00    -0.001 A 
ATOM      4  C3  UNL d   1      -1.053  -1.573   1.721  0.00  0.00     0.003 A 
ATOM      5  C4  UNL d   1       0.282  -1.840   2.017  0.00  0.00    -0.005 A 
ATOM      6  C5  UNL d   1       1.230  -0.822   1.927  0.00  0.00     0.003 A 
ATOM      7  C6  UNL d   1       0.843   0.461   1.540  0.00  0.00    -0.001 A 
ENDROOT
TORSDOF 0
ENDMDL
