MODEL 1
REMARK minimizedAffinity 6.65979528
REMARK minimizedRMSD -1
REMARK  0 active torsions:
REMARK  status: ('A' for Active; 'I' for Inactive)
ROOT
ATOM      1  C   UNL d   1       1.296  -2.611   5.496  0.00  0.00     0.078 C 
ATOM      2  C1  UNL d   1       1.492  -1.488   4.521  0.00  0.00    -0.077 A 
ATOM      3  C2  UNL d   1       1.674  -0.172   4.963  0.00  0.00    -0.001 A 
ATOM      4  C3  UNL d   1       1.845   0.864   4.044  0.00  0.00     0.003 A 
ATOM      5  C4  UNL d   1       1.834   0.596   2.677  0.00  0.00    -0.005 A 
ATOM      6  C5  UNL d   1       1.652  -0.710   2.227  0.00  0.00     0.003 A 
ATOM      7  C6  UNL d   1       1.480  -1.748   3.145  0.00  0.00    -0.001 A 
ENDROOT
TORSDOF 0
ENDMDL
