MODEL 1
REMARK minimizedAffinity 1.43517768
REMARK minimizedRMSD -1
REMARK  0 active torsions:
REMARK  status: ('A' for Active; 'I' for Inactive)
ROOT
ATOM      1  C   UNL d   1      -2.075  -3.393   0.216  0.00  0.00     0.078 C 
ATOM      2  C1  UNL d   1      -0.938  -2.551   0.713  0.00  0.00    -0.077 A 
ATOM      3  C2  UNL d   1      -1.153  -1.244   1.167  0.00  0.00    -0.001 A 
ATOM      4  C3  UNL d   1      -0.084  -0.468   1.617  0.00  0.00     0.003 A 
ATOM      5  C4  UNL d   1       1.208  -0.990   1.616  0.00  0.00    -0.005 A 
ATOM      6  C5  UNL d   1       1.432  -2.289   1.164  0.00  0.00     0.003 A 
ATOM      7  C6  UNL d   1       0.364  -3.066   0.714  0.00  0.00    -0.001 A 
ENDROOT
TORSDOF 0
ENDMDL
