MODEL 1
REMARK minimizedAffinity 7.76603603
REMARK minimizedRMSD -1
REMARK  0 active torsions:
REMARK  status: ('A' for Active; 'I' for Inactive)
ROOT
ATOM      1  C   UNL d   1       1.811  -2.996   5.958  0.00  0.00     0.078 C 
ATOM      2  C1  UNL d   1       1.848  -2.305   4.627  0.00  0.00    -0.077 A 
ATOM      3  C2  UNL d   1       1.461  -0.965   4.499  0.00  0.00    -0.001 A 
ATOM      4  C3  UNL d   1       1.492  -0.337   3.253  0.00  0.00     0.003 A 
ATOM      5  C4  UNL d   1       1.907  -1.042   2.125  0.00  0.00    -0.005 A 
ATOM      6  C5  UNL d   1       2.292  -2.376   2.242  0.00  0.00     0.003 A 
ATOM      7  C6  UNL d   1       2.262  -3.005   3.487  0.00  0.00    -0.001 A 
ENDROOT
TORSDOF 0
ENDMDL
