MODEL 1
REMARK minimizedAffinity 1.99512339
REMARK minimizedRMSD -1
REMARK  0 active torsions:
REMARK  status: ('A' for Active; 'I' for Inactive)
ROOT
ATOM      1  C   UNL d   1       1.186  -2.030   1.047  0.00  0.00     0.078 C 
ATOM      2  C1  UNL d   1      -0.201  -1.598   0.675  0.00  0.00    -0.077 A 
ATOM      3  C2  UNL d   1      -0.695  -0.347   1.062  0.00  0.00    -0.001 A 
ATOM      4  C3  UNL d   1      -1.991   0.038   0.717  0.00  0.00     0.003 A 
ATOM      5  C4  UNL d   1      -2.805  -0.823  -0.016  0.00  0.00    -0.005 A 
ATOM      6  C5  UNL d   1      -2.323  -2.072  -0.404  0.00  0.00     0.003 A 
ATOM      7  C6  UNL d   1      -1.027  -2.458  -0.059  0.00  0.00    -0.001 A 
ENDROOT
TORSDOF 0
ENDMDL
