MODEL 1
REMARK minimizedAffinity 2.99217868
REMARK minimizedRMSD -1
REMARK  0 active torsions:
REMARK  status: ('A' for Active; 'I' for Inactive)
ROOT
ATOM      1  C   UNL d   1      -0.717   2.282   0.258  0.00  0.00     0.078 C 
ATOM      2  C1  UNL d   1      -0.655   0.807   0.521  0.00  0.00    -0.077 A 
ATOM      3  C2  UNL d   1      -1.804   0.011   0.436  0.00  0.00    -0.001 A 
ATOM      4  C3  UNL d   1      -1.734  -1.359   0.693  0.00  0.00     0.003 A 
ATOM      5  C4  UNL d   1      -0.517  -1.945   1.037  0.00  0.00    -0.005 A 
ATOM      6  C5  UNL d   1       0.631  -1.161   1.125  0.00  0.00     0.003 A 
ATOM      7  C6  UNL d   1       0.562   0.210   0.869  0.00  0.00    -0.001 A 
ENDROOT
TORSDOF 0
ENDMDL
