MODEL 1
REMARK minimizedAffinity 4.42643785
REMARK minimizedRMSD -1
REMARK  0 active torsions:
REMARK  status: ('A' for Active; 'I' for Inactive)
ROOT
ATOM      1  C   UNL d   1      -5.517   4.850   0.320  0.00  0.00     0.078 C 
ATOM      2  C1  UNL d   1      -5.538   4.866  -1.179  0.00  0.00    -0.077 A 
ATOM      3  C2  UNL d   1      -5.973   5.996  -1.882  0.00  0.00    -0.001 A 
ATOM      4  C3  UNL d   1      -5.997   5.993  -3.278  0.00  0.00     0.003 A 
ATOM      5  C4  UNL d   1      -5.589   4.862  -3.982  0.00  0.00    -0.005 A 
ATOM      6  C5  UNL d   1      -5.157   3.732  -3.291  0.00  0.00     0.003 A 
ATOM      7  C6  UNL d   1      -5.133   3.733  -1.895  0.00  0.00    -0.001 A 
ENDROOT
TORSDOF 0
ENDMDL
