MODEL 1
REMARK minimizedAffinity -0.57891655
REMARK minimizedRMSD -1
REMARK  0 active torsions:
REMARK  status: ('A' for Active; 'I' for Inactive)
ROOT
ATOM      1  C   UNL d   1      -1.510  -1.177   1.369  0.00  0.00     0.078 C 
ATOM      2  C1  UNL d   1      -0.279  -1.729   0.716  0.00  0.00    -0.077 A 
ATOM      3  C2  UNL d   1       0.987  -1.540   1.285  0.00  0.00    -0.001 A 
ATOM      4  C3  UNL d   1       2.125  -2.052   0.660  0.00  0.00     0.003 A 
ATOM      5  C4  UNL d   1       2.010  -2.755  -0.537  0.00  0.00    -0.005 A 
ATOM      6  C5  UNL d   1       0.755  -2.946  -1.113  0.00  0.00     0.003 A 
ATOM      7  C6  UNL d   1      -0.384  -2.435  -0.490  0.00  0.00    -0.001 A 
ENDROOT
TORSDOF 0
ENDMDL
