MODEL 1
REMARK minimizedAffinity 0.547288001
REMARK minimizedRMSD -1
REMARK  0 active torsions:
REMARK  status: ('A' for Active; 'I' for Inactive)
ROOT
ATOM      1  C   UNL d   1       4.506   4.136  -0.543  0.00  0.00     0.078 C 
ATOM      2  C1  UNL d   1       4.642   3.764  -1.989  0.00  0.00    -0.077 A 
ATOM      3  C2  UNL d   1       5.890   3.778  -2.623  0.00  0.00    -0.001 A 
ATOM      4  C3  UNL d   1       6.000   3.439  -3.973  0.00  0.00     0.003 A 
ATOM      5  C4  UNL d   1       4.865   3.085  -4.700  0.00  0.00    -0.005 A 
ATOM      6  C5  UNL d   1       3.618   3.071  -4.078  0.00  0.00     0.003 A 
ATOM      7  C6  UNL d   1       3.507   3.409  -2.728  0.00  0.00    -0.001 A 
ENDROOT
TORSDOF 0
ENDMDL
