MODEL 1
REMARK minimizedAffinity -2.39626002
REMARK minimizedRMSD -1
REMARK  0 active torsions:
REMARK  status: ('A' for Active; 'I' for Inactive)
ROOT
ATOM      1  C   UNL d   1       4.695   0.467  -5.991  0.00  0.00     0.078 C 
ATOM      2  C1  UNL d   1       4.612  -1.030  -5.987  0.00  0.00    -0.077 A 
ATOM      3  C2  UNL d   1       5.771  -1.816  -5.989  0.00  0.00    -0.001 A 
ATOM      4  C3  UNL d   1       5.679  -3.209  -5.995  0.00  0.00     0.003 A 
ATOM      5  C4  UNL d   1       4.430  -3.828  -6.000  0.00  0.00    -0.005 A 
ATOM      6  C5  UNL d   1       3.272  -3.053  -6.000  0.00  0.00     0.003 A 
ATOM      7  C6  UNL d   1       3.362  -1.660  -5.994  0.00  0.00    -0.001 A 
ENDROOT
TORSDOF 0
ENDMDL
