MODEL 1
REMARK minimizedAffinity 2.12778544
REMARK minimizedRMSD -1
REMARK  1 active torsions:
REMARK  status: ('A' for Active; 'I' for Inactive)
REMARK    1  A    between atoms: C1_2  and  C2_3 
ROOT
ATOM      1  C2  UNL d   1       0.036  -0.039   0.006  0.00  0.00    -0.077 A 
ATOM      2  C3  UNL d   1       0.825  -0.863   0.822  0.00  0.00     0.002 A 
ATOM      3  C4  UNL d   1       2.212  -0.707   0.853  0.00  0.00     0.002 A 
ATOM      4  C5  UNL d   1       2.822   0.273   0.073  0.00  0.00    -0.004 A 
ATOM      5  C6  UNL d   1       2.047   1.095  -0.744  0.00  0.00     0.002 A 
ATOM      6  C7  UNL d   1       0.660   0.941  -0.777  0.00  0.00     0.002 A 
ENDROOT
BRANCH   1   7
ATOM      7  C1  UNL d   1      -1.464  -0.173   0.009  0.00  0.00     0.055 C 
ATOM      8  C   UNL d   1      -2.036   0.041   1.403  0.00  0.00     0.019 C 
ENDBRANCH   1   7
TORSDOF 1
ENDMDL
