MODEL 1
REMARK minimizedAffinity 1.26012659
REMARK minimizedRMSD -1
REMARK  1 active torsions:
REMARK  status: ('A' for Active; 'I' for Inactive)
REMARK    1  A    between atoms: C1_2  and  C2_3 
ROOT
ATOM      1  C2  UNL d   1       0.381   0.029   0.169  0.00  0.00    -0.077 A 
ATOM      2  C3  UNL d   1      -0.343  -0.479  -0.919  0.00  0.00     0.002 A 
ATOM      3  C4  UNL d   1      -1.736  -0.388  -0.944  0.00  0.00     0.002 A 
ATOM      4  C5  UNL d   1      -2.416   0.213   0.113  0.00  0.00    -0.004 A 
ATOM      5  C6  UNL d   1      -1.704   0.719   1.201  0.00  0.00     0.002 A 
ATOM      6  C7  UNL d   1      -0.312   0.628   1.228  0.00  0.00     0.002 A 
ENDROOT
BRANCH   1   7
ATOM      7  C1  UNL d   1       1.887  -0.024   0.174  0.00  0.00     0.055 C 
ATOM      8  C   UNL d   1       2.483   1.101  -0.659  0.00  0.00     0.019 C 
ENDBRANCH   1   7
TORSDOF 1
ENDMDL
