MODEL 1
REMARK minimizedAffinity -1.95740914
REMARK minimizedRMSD -1
REMARK  1 active torsions:
REMARK  status: ('A' for Active; 'I' for Inactive)
REMARK    1  A    between atoms: C1_2  and  C2_3 
ROOT
ATOM      1  C2  UNL d   1       0.276  -0.154   1.263  0.00  0.00    -0.077 A 
ATOM      2  C3  UNL d   1      -0.840   0.197   0.491  0.00  0.00     0.002 A 
ATOM      3  C4  UNL d   1      -1.938   0.826   1.081  0.00  0.00     0.002 A 
ATOM      4  C5  UNL d   1      -1.928   1.114   2.444  0.00  0.00    -0.004 A 
ATOM      5  C6  UNL d   1      -0.824   0.767   3.221  0.00  0.00     0.002 A 
ATOM      6  C7  UNL d   1       0.273   0.136   2.634  0.00  0.00     0.002 A 
ENDROOT
BRANCH   1   7
ATOM      7  C1  UNL d   1       1.481  -0.788   0.620  0.00  0.00     0.055 C 
ATOM      8  C   UNL d   1       2.668  -0.814   1.572  0.00  0.00     0.019 C 
ENDBRANCH   1   7
TORSDOF 1
ENDMDL
