MODEL 1
REMARK minimizedAffinity -3.95307755
REMARK minimizedRMSD -1
REMARK  1 active torsions:
REMARK  status: ('A' for Active; 'I' for Inactive)
REMARK    1  A    between atoms: C1_2  and  C2_3 
ROOT
ATOM      1  C2  UNL d   1       2.193  -0.079  -1.008  0.00  0.00    -0.077 A 
ATOM      2  C3  UNL d   1       0.908  -0.574  -1.273  0.00  0.00     0.002 A 
ATOM      3  C4  UNL d   1       0.376  -0.502  -2.562  0.00  0.00     0.002 A 
ATOM      4  C5  UNL d   1       1.122   0.060  -3.596  0.00  0.00    -0.004 A 
ATOM      5  C6  UNL d   1       2.399   0.557  -3.342  0.00  0.00     0.002 A 
ATOM      6  C7  UNL d   1       2.933   0.487  -2.054  0.00  0.00     0.002 A 
ENDROOT
BRANCH   1   7
ATOM      7  C1  UNL d   1       2.789  -0.201   0.370  0.00  0.00     0.055 C 
ATOM      8  C   UNL d   1       1.802   0.241   1.441  0.00  0.00     0.019 C 
ENDBRANCH   1   7
TORSDOF 1
ENDMDL
