MODEL 1
REMARK minimizedAffinity -4.91462326
REMARK minimizedRMSD -1
REMARK  1 active torsions:
REMARK  status: ('A' for Active; 'I' for Inactive)
REMARK    1  A    between atoms: C1_2  and  C2_3 
ROOT
ATOM      1  C2  UNL d   1      -0.012   0.187   0.478  0.00  0.00    -0.077 A 
ATOM      2  C3  UNL d   1       1.164   0.055   1.229  0.00  0.00     0.002 A 
ATOM      3  C4  UNL d   1       1.225   0.543   2.536  0.00  0.00     0.002 A 
ATOM      4  C5  UNL d   1       0.114   1.162   3.103  0.00  0.00    -0.004 A 
ATOM      5  C6  UNL d   1      -1.060   1.300   2.363  0.00  0.00     0.002 A 
ATOM      6  C7  UNL d   1      -1.123   0.814   1.057  0.00  0.00     0.002 A 
ENDROOT
BRANCH   1   7
ATOM      7  C1  UNL d   1      -0.097  -0.383  -0.914  0.00  0.00     0.055 C 
ATOM      8  C   UNL d   1       1.266  -0.395  -1.591  0.00  0.00     0.019 C 
ENDBRANCH   1   7
TORSDOF 1
ENDMDL
