MODEL 1
REMARK minimizedAffinity -0.372491568
REMARK minimizedRMSD -1
REMARK  1 active torsions:
REMARK  status: ('A' for Active; 'I' for Inactive)
REMARK    1  A    between atoms: C1_2  and  C2_3 
ROOT
ATOM      1  C2  UNL d   1       1.255   0.460  -1.794  0.00  0.00    -0.077 A 
ATOM      2  C3  UNL d   1      -0.035   0.841  -1.401  0.00  0.00     0.002 A 
ATOM      3  C4  UNL d   1      -0.514   0.512  -0.132  0.00  0.00     0.002 A 
ATOM      4  C5  UNL d   1       0.293  -0.196   0.756  0.00  0.00    -0.004 A 
ATOM      5  C6  UNL d   1       1.578  -0.582   0.375  0.00  0.00     0.002 A 
ATOM      6  C7  UNL d   1       2.057  -0.254  -0.894  0.00  0.00     0.002 A 
ENDROOT
BRANCH   1   7
ATOM      7  C1  UNL d   1       1.791   0.857  -3.145  0.00  0.00     0.055 C 
ATOM      8  C   UNL d   1       0.664   1.199  -4.109  0.00  0.00     0.019 C 
ENDBRANCH   1   7
TORSDOF 1
ENDMDL
