MODEL 1
REMARK minimizedAffinity -4.91619158
REMARK minimizedRMSD -1
REMARK  1 active torsions:
REMARK  status: ('A' for Active; 'I' for Inactive)
REMARK    1  A    between atoms: C1_2  and  C2_3 
ROOT
ATOM      1  C2  UNL d   1       0.063   0.274   0.280  0.00  0.00    -0.077 A 
ATOM      2  C3  UNL d   1       1.244   0.123   1.019  0.00  0.00     0.002 A 
ATOM      3  C4  UNL d   1       1.256   0.376   2.392  0.00  0.00     0.002 A 
ATOM      4  C5  UNL d   1       0.089   0.778   3.038  0.00  0.00    -0.004 A 
ATOM      5  C6  UNL d   1      -1.091   0.934   2.311  0.00  0.00     0.002 A 
ATOM      6  C7  UNL d   1      -1.104   0.682   0.938  0.00  0.00     0.002 A 
ENDROOT
BRANCH   1   7
ATOM      7  C1  UNL d   1       0.036  -0.046  -1.192  0.00  0.00     0.055 C 
ATOM      8  C   UNL d   1       0.857   0.956  -1.991  0.00  0.00     0.019 C 
ENDBRANCH   1   7
TORSDOF 1
ENDMDL
