MODEL 1
REMARK minimizedAffinity -5.83585787
REMARK minimizedRMSD -1
REMARK  1 active torsions:
REMARK  status: ('A' for Active; 'I' for Inactive)
REMARK    1  A    between atoms: C1_2  and  C2_3 
ROOT
ATOM      1  C2  UNL d   1      -0.008  -0.063   0.060  0.00  0.00    -0.077 A 
ATOM      2  C3  UNL d   1       0.921   0.226   1.069  0.00  0.00     0.002 A 
ATOM      3  C4  UNL d   1       0.518   0.887   2.231  0.00  0.00     0.002 A 
ATOM      4  C5  UNL d   1      -0.814   1.261   2.396  0.00  0.00    -0.004 A 
ATOM      5  C6  UNL d   1      -1.745   0.980   1.397  0.00  0.00     0.002 A 
ATOM      6  C7  UNL d   1      -1.344   0.320   0.234  0.00  0.00     0.002 A 
ENDROOT
BRANCH   1   7
ATOM      7  C1  UNL d   1       0.414  -0.821  -1.172  0.00  0.00     0.055 C 
ATOM      8  C   UNL d   1       0.814   0.126  -2.294  0.00  0.00     0.019 C 
ENDBRANCH   1   7
TORSDOF 1
ENDMDL
