MODEL 1
REMARK minimizedAffinity -2.53245068
REMARK minimizedRMSD -1
REMARK  1 active torsions:
REMARK  status: ('A' for Active; 'I' for Inactive)
REMARK    1  A    between atoms: C1_2  and  C2_3 
ROOT
ATOM      1  C2  UNL d   1      -0.566   0.458   1.017  0.00  0.00    -0.077 A 
ATOM      2  C3  UNL d   1      -1.635   0.141   0.167  0.00  0.00     0.002 A 
ATOM      3  C4  UNL d   1      -1.433  -0.675  -0.948  0.00  0.00     0.002 A 
ATOM      4  C5  UNL d   1      -0.165  -1.184  -1.220  0.00  0.00    -0.004 A 
ATOM      5  C6  UNL d   1       0.905  -0.873  -0.382  0.00  0.00     0.002 A 
ATOM      6  C7  UNL d   1       0.705  -0.057   0.732  0.00  0.00     0.002 A 
ENDROOT
BRANCH   1   7
ATOM      7  C1  UNL d   1      -0.792   1.297   2.247  0.00  0.00     0.055 C 
ATOM      8  C   UNL d   1      -0.147   0.668   3.473  0.00  0.00     0.019 C 
ENDBRANCH   1   7
TORSDOF 1
ENDMDL
