MODEL 1
REMARK minimizedAffinity -3.89079762
REMARK minimizedRMSD -1
REMARK  1 active torsions:
REMARK  status: ('A' for Active; 'I' for Inactive)
REMARK    1  A    between atoms: C1_2  and  C2_3 
ROOT
ATOM      1  C2  UNL d   1       0.342  -0.788   0.177  0.00  0.00    -0.077 A 
ATOM      2  C3  UNL d   1       1.223  -1.081   1.227  0.00  0.00     0.002 A 
ATOM      3  C4  UNL d   1       0.864  -0.806   2.548  0.00  0.00     0.002 A 
ATOM      4  C5  UNL d   1      -0.377  -0.240   2.831  0.00  0.00    -0.004 A 
ATOM      5  C6  UNL d   1      -1.260   0.057   1.793  0.00  0.00     0.002 A 
ATOM      6  C7  UNL d   1      -0.902  -0.217   0.472  0.00  0.00     0.002 A 
ENDROOT
BRANCH   1   7
ATOM      7  C1  UNL d   1       0.707  -1.130  -1.244  0.00  0.00     0.055 C 
ATOM      8  C   UNL d   1       0.843   0.123  -2.097  0.00  0.00     0.019 C 
ENDBRANCH   1   7
TORSDOF 1
ENDMDL
