MODEL 1
REMARK minimizedAffinity 17.2051659
REMARK minimizedRMSD -1
REMARK  2 active torsions:
REMARK  status: ('A' for Active; 'I' for Inactive)
REMARK    1  A    between atoms: C2'_3  and  C1'_4 
REMARK    2  A    between atoms: C1'_4  and  C1_5 
ROOT
ATOM      1  C1  I4B d   1       2.751   0.493  -2.377  0.00  0.00    -0.075 A 
ATOM      2  C2  I4B d   1       2.631  -0.652  -1.630  0.00  0.00     0.003 A 
ATOM      3  C3  I4B d   1       3.264  -0.749  -0.367  0.00  0.00     0.002 A 
ATOM      4  C4  I4B d   1       4.044   0.296   0.084  0.00  0.00    -0.004 A 
ATOM      5  C5  I4B d   1       4.146   1.465  -0.665  0.00  0.00     0.002 A 
ATOM      6  C6  I4B d   1       3.486   1.570  -1.897  0.00  0.00     0.003 A 
ENDROOT
BRANCH   1   7
ATOM      7  C1' I4B d   1       2.095   0.550  -3.720  0.00  0.00     0.060 C 
BRANCH   7   8
ATOM      8  C2' I4B d   1       2.205  -0.824  -4.351  0.00  0.00    -0.013 C 
ATOM      9  C4' I4B d   1       0.949  -1.626  -4.133  0.00  0.00     0.013 C 
ATOM     10  C3' I4B d   1       2.484  -0.641  -5.813  0.00  0.00     0.013 C 
ENDBRANCH   7   8
ENDBRANCH   1   7
TORSDOF 2
ENDMDL
