MODEL 1
REMARK minimizedAffinity 15.1295643
REMARK minimizedRMSD -1
REMARK  2 active torsions:
REMARK  status: ('A' for Active; 'I' for Inactive)
REMARK    1  A    between atoms: C2'_3  and  C1'_4 
REMARK    2  A    between atoms: C1'_4  and  C1_5 
ROOT
ATOM      1  C1  I4B d   1       0.521  -2.996  -2.575  0.00  0.00    -0.075 A 
ATOM      2  C2  I4B d   1       1.268  -3.514  -1.547  0.00  0.00     0.003 A 
ATOM      3  C3  I4B d   1       1.999  -2.654  -0.692  0.00  0.00     0.002 A 
ATOM      4  C4  I4B d   1       1.995  -1.295  -0.931  0.00  0.00    -0.004 A 
ATOM      5  C5  I4B d   1       1.219  -0.769  -1.960  0.00  0.00     0.002 A 
ATOM      6  C6  I4B d   1       0.467  -1.623  -2.779  0.00  0.00     0.003 A 
ENDROOT
BRANCH   1   7
ATOM      7  C1' I4B d   1      -0.213  -3.935  -3.478  0.00  0.00     0.060 C 
BRANCH   7   8
ATOM      8  C2' I4B d   1      -1.660  -3.979  -3.031  0.00  0.00    -0.013 C 
ATOM      9  C4' I4B d   1      -2.582  -3.501  -4.122  0.00  0.00     0.013 C 
ATOM     10  C3' I4B d   1      -1.979  -5.388  -2.631  0.00  0.00     0.013 C 
ENDBRANCH   7   8
ENDBRANCH   1   7
TORSDOF 2
ENDMDL
