MODEL 1
REMARK minimizedAffinity 16.7913609
REMARK minimizedRMSD -1
REMARK  2 active torsions:
REMARK  status: ('A' for Active; 'I' for Inactive)
REMARK    1  A    between atoms: C2'_3  and  C1'_4 
REMARK    2  A    between atoms: C1'_4  and  C1_5 
ROOT
ATOM      1  C1  I4B d   1      -3.317  -4.050  -3.427  0.00  0.00    -0.075 A 
ATOM      2  C2  I4B d   1      -2.555  -2.950  -3.733  0.00  0.00     0.003 A 
ATOM      3  C3  I4B d   1      -1.227  -2.846  -3.253  0.00  0.00     0.002 A 
ATOM      4  C4  I4B d   1      -0.722  -3.835  -2.432  0.00  0.00    -0.004 A 
ATOM      5  C5  I4B d   1      -1.489  -4.960  -2.141  0.00  0.00     0.002 A 
ATOM      6  C6  I4B d   1      -2.790  -5.074  -2.651  0.00  0.00     0.003 A 
ENDROOT
BRANCH   1   7
ATOM      7  C1' I4B d   1      -4.727  -4.111  -3.924  0.00  0.00     0.060 C 
BRANCH   7   8
ATOM      8  C2' I4B d   1      -4.685  -4.389  -5.412  0.00  0.00    -0.013 C 
ATOM      9  C4' I4B d   1      -4.409  -5.844  -5.688  0.00  0.00     0.013 C 
ATOM     10  C3' I4B d   1      -5.999  -3.967  -5.999  0.00  0.00     0.013 C 
ENDBRANCH   7   8
ENDBRANCH   1   7
TORSDOF 2
ENDMDL
