MODEL 1
REMARK minimizedAffinity 15.1675177
REMARK minimizedRMSD -1
REMARK  2 active torsions:
REMARK  status: ('A' for Active; 'I' for Inactive)
REMARK    1  A    between atoms: C2'_3  and  C1'_4 
REMARK    2  A    between atoms: C1'_4  and  C1_5 
ROOT
ATOM      1  C1  I4B d   1       2.826  -0.358  -0.666  0.00  0.00    -0.075 A 
ATOM      2  C2  I4B d   1       1.592  -0.888  -0.950  0.00  0.00     0.003 A 
ATOM      3  C3  I4B d   1       1.309  -2.240  -0.639  0.00  0.00     0.002 A 
ATOM      4  C4  I4B d   1       2.298  -3.034  -0.095  0.00  0.00    -0.004 A 
ATOM      5  C5  I4B d   1       3.541  -2.488   0.214  0.00  0.00     0.002 A 
ATOM      6  C6  I4B d   1       3.803  -1.139  -0.062  0.00  0.00     0.003 A 
ENDROOT
BRANCH   1   7
ATOM      7  C1' I4B d   1       3.102   1.065  -1.038  0.00  0.00     0.060 C 
BRANCH   7   8
ATOM      8  C2' I4B d   1       4.191   1.584  -0.122  0.00  0.00    -0.013 C 
ATOM      9  C4' I4B d   1       5.253   2.318  -0.898  0.00  0.00     0.013 C 
ATOM     10  C3' I4B d   1       3.551   2.478   0.899  0.00  0.00     0.013 C 
ENDBRANCH   7   8
ENDBRANCH   1   7
TORSDOF 2
ENDMDL
