MODEL 1
REMARK minimizedAffinity 16.5891304
REMARK minimizedRMSD -1
REMARK  2 active torsions:
REMARK  status: ('A' for Active; 'I' for Inactive)
REMARK    1  A    between atoms: C2'_3  and  C1'_4 
REMARK    2  A    between atoms: C1'_4  and  C1_5 
ROOT
ATOM      1  C1  I4B d   1      -3.663   3.651  -5.646  0.00  0.00    -0.075 A 
ATOM      2  C2  I4B d   1      -3.275   4.967  -5.624  0.00  0.00     0.003 A 
ATOM      3  C3  I4B d   1      -4.236   5.996  -5.778  0.00  0.00     0.002 A 
ATOM      4  C4  I4B d   1      -5.558   5.664  -5.999  0.00  0.00    -0.004 A 
ATOM      5  C5  I4B d   1      -5.952   4.329  -5.997  0.00  0.00     0.002 A 
ATOM      6  C6  I4B d   1      -5.001   3.316  -5.807  0.00  0.00     0.003 A 
ENDROOT
BRANCH   1   7
ATOM      7  C1' I4B d   1      -2.617   2.589  -5.513  0.00  0.00     0.060 C 
BRANCH   7   8
ATOM      8  C2' I4B d   1      -1.951   2.756  -4.163  0.00  0.00    -0.013 C 
ATOM      9  C4' I4B d   1      -2.502   1.778  -3.159  0.00  0.00     0.013 C 
ATOM     10  C3' I4B d   1      -0.475   2.567  -4.348  0.00  0.00     0.013 C 
ENDBRANCH   7   8
ENDBRANCH   1   7
TORSDOF 2
ENDMDL
