MODEL 1
REMARK minimizedAffinity 16.3774967
REMARK minimizedRMSD -1
REMARK  2 active torsions:
REMARK  status: ('A' for Active; 'I' for Inactive)
REMARK    1  A    between atoms: C2'_3  and  C1'_4 
REMARK    2  A    between atoms: C1'_4  and  C1_5 
ROOT
ATOM      1  C1  I4B d   1       1.866   1.510   1.283  0.00  0.00    -0.075 A 
ATOM      2  C2  I4B d   1       0.531   1.326   1.542  0.00  0.00     0.003 A 
ATOM      3  C3  I4B d   1       0.037   1.449   2.863  0.00  0.00     0.002 A 
ATOM      4  C4  I4B d   1       0.916   1.706   3.896  0.00  0.00    -0.004 A 
ATOM      5  C5  I4B d   1       2.266   1.915   3.629  0.00  0.00     0.002 A 
ATOM      6  C6  I4B d   1       2.743   1.829   2.313  0.00  0.00     0.003 A 
ENDROOT
BRANCH   1   7
ATOM      7  C1' I4B d   1       2.359   1.340  -0.119  0.00  0.00     0.060 C 
BRANCH   7   8
ATOM      8  C2' I4B d   1       2.315  -0.137  -0.453  0.00  0.00    -0.013 C 
ATOM      9  C4' I4B d   1       1.804  -0.365  -1.851  0.00  0.00     0.013 C 
ATOM     10  C3' I4B d   1       3.699  -0.691  -0.286  0.00  0.00     0.013 C 
ENDBRANCH   7   8
ENDBRANCH   1   7
TORSDOF 2
ENDMDL
