MODEL 1
REMARK minimizedAffinity 27.0499878
REMARK minimizedRMSD -1
REMARK  2 active torsions:
REMARK  status: ('A' for Active; 'I' for Inactive)
REMARK    1  A    between atoms: C2'_3  and  C1'_4 
REMARK    2  A    between atoms: C1'_4  and  C1_5 
ROOT
ATOM      1  C1  I4B d   1       1.754  -0.338  -1.331  0.00  0.00    -0.075 A 
ATOM      2  C2  I4B d   1       1.553  -1.146  -0.240  0.00  0.00     0.003 A 
ATOM      3  C3  I4B d   1       0.772  -2.321  -0.358  0.00  0.00     0.002 A 
ATOM      4  C4  I4B d   1       0.174  -2.622  -1.564  0.00  0.00    -0.004 A 
ATOM      5  C5  I4B d   1       0.398  -1.814  -2.675  0.00  0.00     0.002 A 
ATOM      6  C6  I4B d   1       1.203  -0.671  -2.561  0.00  0.00     0.003 A 
ENDROOT
BRANCH   1   7
ATOM      7  C1' I4B d   1       2.556   0.914  -1.163  0.00  0.00     0.060 C 
BRANCH   7   8
ATOM      8  C2' I4B d   1       3.477   0.722   0.025  0.00  0.00    -0.013 C 
ATOM      9  C4' I4B d   1       4.921   0.885  -0.372  0.00  0.00     0.013 C 
ATOM     10  C3' I4B d   1       3.089   1.718   1.077  0.00  0.00     0.013 C 
ENDBRANCH   7   8
ENDBRANCH   1   7
TORSDOF 2
ENDMDL
