MODEL 1
REMARK minimizedAffinity -0.0867759436
REMARK minimizedRMSD -1
REMARK  2 active torsions:
REMARK  status: ('A' for Active; 'I' for Inactive)
REMARK    1  A    between atoms: C2'_3  and  C1'_4 
REMARK    2  A    between atoms: C1'_4  and  C1_5 
ROOT
ATOM      1  C1  I4B d   1      -3.095  -5.450  -5.241  0.00  0.00    -0.075 A 
ATOM      2  C2  I4B d   1      -1.986  -5.730  -5.999  0.00  0.00     0.003 A 
ATOM      3  C3  I4B d   1      -0.745  -6.000  -5.373  0.00  0.00     0.002 A 
ATOM      4  C4  I4B d   1      -0.647  -5.931  -3.998  0.00  0.00    -0.004 A 
ATOM      5  C5  I4B d   1      -1.778  -5.670  -3.230  0.00  0.00     0.002 A 
ATOM      6  C6  I4B d   1      -3.013  -5.440  -3.854  0.00  0.00     0.003 A 
ENDROOT
BRANCH   1   7
ATOM      7  C1' I4B d   1      -4.383  -5.137  -5.935  0.00  0.00     0.060 C 
BRANCH   7   8
ATOM      8  C2' I4B d   1      -4.524  -3.630  -5.999  0.00  0.00    -0.013 C 
ATOM      9  C4' I4B d   1      -5.971  -3.215  -5.955  0.00  0.00     0.013 C 
ATOM     10  C3' I4B d   1      -3.758  -3.044  -4.851  0.00  0.00     0.013 C 
ENDBRANCH   7   8
ENDBRANCH   1   7
TORSDOF 2
ENDMDL
