MODEL 1
REMARK minimizedAffinity 14.5992498
REMARK minimizedRMSD -1
REMARK  2 active torsions:
REMARK  status: ('A' for Active; 'I' for Inactive)
REMARK    1  A    between atoms: C2'_3  and  C1'_4 
REMARK    2  A    between atoms: C1'_4  and  C1_5 
ROOT
ATOM      1  C1  I4B d   1      -2.332  -3.998  -3.895  0.00  0.00    -0.075 A 
ATOM      2  C2  I4B d   1      -2.241  -4.859  -4.960  0.00  0.00     0.003 A 
ATOM      3  C3  I4B d   1      -1.275  -5.893  -4.961  0.00  0.00     0.002 A 
ATOM      4  C4  I4B d   1      -0.391  -5.999  -3.906  0.00  0.00    -0.004 A 
ATOM      5  C5  I4B d   1      -0.500  -5.140  -2.816  0.00  0.00     0.002 A 
ATOM      6  C6  I4B d   1      -1.484  -4.141  -2.804  0.00  0.00     0.003 A 
ENDROOT
BRANCH   1   7
ATOM      7  C1' I4B d   1      -3.342  -2.896  -3.942  0.00  0.00     0.060 C 
BRANCH   7   8
ATOM      8  C2' I4B d   1      -3.759  -2.706  -5.386  0.00  0.00    -0.013 C 
ATOM      9  C4' I4B d   1      -5.249  -2.525  -5.505  0.00  0.00     0.013 C 
ATOM     10  C3' I4B d   1      -3.024  -1.516  -5.927  0.00  0.00     0.013 C 
ENDBRANCH   7   8
ENDBRANCH   1   7
TORSDOF 2
ENDMDL
