MODEL 1
REMARK minimizedAffinity 4.4462409
REMARK minimizedRMSD -1
REMARK  2 active torsions:
REMARK  status: ('A' for Active; 'I' for Inactive)
REMARK    1  A    between atoms: C2'_3  and  C1'_4 
REMARK    2  A    between atoms: C1'_4  and  C1_5 
ROOT
ATOM      1  C1  I4B d   1      -2.845  -3.985  -4.059  0.00  0.00    -0.075 A 
ATOM      2  C2  I4B d   1      -2.745  -5.287  -4.481  0.00  0.00     0.003 A 
ATOM      3  C3  I4B d   1      -1.533  -6.000  -4.313  0.00  0.00     0.002 A 
ATOM      4  C4  I4B d   1      -0.438  -5.360  -3.769  0.00  0.00    -0.004 A 
ATOM      5  C5  I4B d   1      -0.548  -4.047  -3.320  0.00  0.00     0.002 A 
ATOM      6  C6  I4B d   1      -1.763  -3.359  -3.455  0.00  0.00     0.003 A 
ENDROOT
BRANCH   1   7
ATOM      7  C1' I4B d   1      -4.130  -3.251  -4.281  0.00  0.00     0.060 C 
BRANCH   7   8
ATOM      8  C2' I4B d   1      -4.548  -3.470  -5.721  0.00  0.00    -0.013 C 
ATOM      9  C4' I4B d   1      -4.882  -4.915  -5.979  0.00  0.00     0.013 C 
ATOM     10  C3' I4B d   1      -5.726  -2.584  -6.000  0.00  0.00     0.013 C 
ENDBRANCH   7   8
ENDBRANCH   1   7
TORSDOF 2
ENDMDL
