MODEL 1
REMARK minimizedAffinity -0.387346089
REMARK minimizedRMSD -1
REMARK  2 active torsions:
REMARK  status: ('A' for Active; 'I' for Inactive)
REMARK    1  A    between atoms: C2'_3  and  C1'_4 
REMARK    2  A    between atoms: C1'_4  and  C1_5 
ROOT
ATOM      1  C1  I4B d   1      -3.091  -5.117  -4.446  0.00  0.00    -0.075 A 
ATOM      2  C2  I4B d   1      -4.080  -5.709  -5.191  0.00  0.00     0.003 A 
ATOM      3  C3  I4B d   1      -4.933  -4.920  -6.000  0.00  0.00     0.002 A 
ATOM      4  C4  I4B d   1      -4.795  -3.547  -5.995  0.00  0.00    -0.004 A 
ATOM      5  C5  I4B d   1      -3.777  -2.950  -5.257  0.00  0.00     0.002 A 
ATOM      6  C6  I4B d   1      -2.911  -3.740  -4.487  0.00  0.00     0.003 A 
ENDROOT
BRANCH   1   7
ATOM      7  C1' I4B d   1      -2.229  -5.978  -3.578  0.00  0.00     0.060 C 
BRANCH   7   8
ATOM      8  C2' I4B d   1      -0.785  -5.586  -3.819  0.00  0.00    -0.013 C 
ATOM      9  C4' I4B d   1      -0.338  -5.978  -5.202  0.00  0.00     0.013 C 
ATOM     10  C3' I4B d   1      -0.666  -4.106  -3.610  0.00  0.00     0.013 C 
ENDBRANCH   7   8
ENDBRANCH   1   7
TORSDOF 2
ENDMDL
