MODEL 1
REMARK minimizedAffinity 12.2998447
REMARK minimizedRMSD -1
REMARK  2 active torsions:
REMARK  status: ('A' for Active; 'I' for Inactive)
REMARK    1  A    between atoms: C2'_3  and  C1'_4 
REMARK    2  A    between atoms: C1'_4  and  C1_5 
ROOT
ATOM      1  C1  I4B d   1       0.670  -2.367  -1.930  0.00  0.00    -0.075 A 
ATOM      2  C2  I4B d   1       0.922  -1.027  -2.079  0.00  0.00     0.003 A 
ATOM      3  C3  I4B d   1       1.969  -0.413  -1.350  0.00  0.00     0.002 A 
ATOM      4  C4  I4B d   1       2.701  -1.162  -0.451  0.00  0.00    -0.004 A 
ATOM      5  C5  I4B d   1       2.459  -2.526  -0.318  0.00  0.00     0.002 A 
ATOM      6  C6  I4B d   1       1.445  -3.136  -1.071  0.00  0.00     0.003 A 
ENDROOT
BRANCH   1   7
ATOM      7  C1' I4B d   1      -0.465  -2.976  -2.691  0.00  0.00     0.060 C 
BRANCH   7   8
ATOM      8  C2' I4B d   1      -0.671  -4.386  -2.174  0.00  0.00    -0.013 C 
ATOM      9  C4' I4B d   1      -2.004  -4.525  -1.487  0.00  0.00     0.013 C 
ATOM     10  C3' I4B d   1      -0.560  -5.326  -3.336  0.00  0.00     0.013 C 
ENDBRANCH   7   8
ENDBRANCH   1   7
TORSDOF 2
ENDMDL
