MODEL 1
REMARK minimizedAffinity 17.6116238
REMARK minimizedRMSD -1
REMARK  2 active torsions:
REMARK  status: ('A' for Active; 'I' for Inactive)
REMARK    1  A    between atoms: C2'_3  and  C1'_4 
REMARK    2  A    between atoms: C1'_4  and  C1_5 
ROOT
ATOM      1  C1  I4B d   1      -3.780   1.348   3.777  0.00  0.00    -0.075 A 
ATOM      2  C2  I4B d   1      -3.406   1.396   5.097  0.00  0.00     0.003 A 
ATOM      3  C3  I4B d   1      -4.086   2.249   6.000  0.00  0.00     0.002 A 
ATOM      4  C4  I4B d   1      -5.094   3.068   5.533  0.00  0.00    -0.004 A 
ATOM      5  C5  I4B d   1      -5.487   3.001   4.200  0.00  0.00     0.002 A 
ATOM      6  C6  I4B d   1      -4.835   2.127   3.318  0.00  0.00     0.003 A 
ENDROOT
BRANCH   1   7
ATOM      7  C1' I4B d   1      -3.019   0.461   2.844  0.00  0.00     0.060 C 
BRANCH   7   8
ATOM      8  C2' I4B d   1      -3.532  -0.954   3.023  0.00  0.00    -0.013 C 
ATOM      9  C4' I4B d   1      -3.489  -1.370   4.470  0.00  0.00     0.013 C 
ATOM     10  C3' I4B d   1      -4.929  -1.012   2.484  0.00  0.00     0.013 C 
ENDBRANCH   7   8
ENDBRANCH   1   7
TORSDOF 2
ENDMDL
