MODEL 1
REMARK minimizedAffinity 14.8655262
REMARK minimizedRMSD -1
REMARK  0 active torsions:
REMARK  status: ('A' for Active; 'I' for Inactive)
ROOT
ATOM      1  O1  BZF d   1       1.964  -3.241   0.008  0.00  0.00    -0.204 OA
ATOM      2  C2  BZF d   1       1.993  -1.860  -0.007  0.00  0.00     0.174 A 
ATOM      3  C3  BZF d   1       1.148  -1.373  -0.939  0.00  0.00    -0.012 A 
ATOM      4  C3A BZF d   1       0.485  -2.520  -1.480  0.00  0.00    -0.107 A 
ATOM      5  C4  BZF d   1      -0.480  -2.684  -2.433  0.00  0.00     0.055 A 
ATOM      6  C5  BZF d   1      -0.857  -3.942  -2.781  0.00  0.00    -0.016 A 
ATOM      7  C6  BZF d   1      -0.288  -5.057  -2.202  0.00  0.00     0.022 A 
ATOM      8  C7  BZF d   1       0.669  -4.945  -1.249  0.00  0.00     0.029 A 
ATOM      9  C7A BZF d   1       1.029  -3.674  -0.871  0.00  0.00     0.058 A 
ENDROOT
TORSDOF 0
ENDMDL
