MODEL 1
REMARK minimizedAffinity 12.0061131
REMARK minimizedRMSD -1
REMARK  0 active torsions:
REMARK  status: ('A' for Active; 'I' for Inactive)
ROOT
ATOM      1  O1  BZF d   1       0.318   5.037  -2.743  0.00  0.00    -0.204 OA
ATOM      2  C2  BZF d   1      -0.631   6.000  -3.026  0.00  0.00     0.174 A 
ATOM      3  C3  BZF d   1      -1.606   6.000  -2.093  0.00  0.00    -0.012 A 
ATOM      4  C3A BZF d   1      -1.195   5.035  -1.120  0.00  0.00    -0.107 A 
ATOM      5  C4  BZF d   1      -1.738   4.595   0.053  0.00  0.00     0.055 A 
ATOM      6  C5  BZF d   1      -1.123   3.591   0.730  0.00  0.00    -0.016 A 
ATOM      7  C6  BZF d   1       0.032   3.000   0.262  0.00  0.00     0.022 A 
ATOM      8  C7  BZF d   1       0.612   3.406  -0.894  0.00  0.00     0.029 A 
ATOM      9  C7A BZF d   1       0.010   4.444  -1.564  0.00  0.00     0.058 A 
ENDROOT
TORSDOF 0
ENDMDL
