MODEL 1
REMARK minimizedAffinity -0.117661916
REMARK minimizedRMSD -1
REMARK  0 active torsions:
REMARK  status: ('A' for Active; 'I' for Inactive)
ROOT
ATOM      1  O1  BZF d   1       0.343   4.011  -2.039  0.00  0.00    -0.204 OA
ATOM      2  C2  BZF d   1      -0.588   4.933  -2.477  0.00  0.00     0.174 A 
ATOM      3  C3  BZF d   1      -1.507   5.177  -1.521  0.00  0.00    -0.012 A 
ATOM      4  C3A BZF d   1      -1.074   4.425  -0.383  0.00  0.00    -0.107 A 
ATOM      5  C4  BZF d   1      -1.564   4.271   0.883  0.00  0.00     0.055 A 
ATOM      6  C5  BZF d   1      -0.944   3.408   1.730  0.00  0.00    -0.016 A 
ATOM      7  C6  BZF d   1       0.162   2.680   1.344  0.00  0.00     0.022 A 
ATOM      8  C7  BZF d   1       0.687   2.802   0.101  0.00  0.00     0.029 A 
ATOM      9  C7A BZF d   1       0.084   3.699  -0.747  0.00  0.00     0.058 A 
ENDROOT
TORSDOF 0
ENDMDL
