MODEL 1
REMARK minimizedAffinity 7.73790073
REMARK minimizedRMSD -1
REMARK  0 active torsions:
REMARK  status: ('A' for Active; 'I' for Inactive)
ROOT
ATOM      1  O1  BZF d   1      -1.226  -3.746  -2.607  0.00  0.00    -0.204 OA
ATOM      2  C2  BZF d   1      -1.367  -4.278  -3.874  0.00  0.00     0.174 A 
ATOM      3  C3  BZF d   1      -0.388  -5.169  -4.131  0.00  0.00    -0.012 A 
ATOM      4  C3A BZF d   1       0.362  -5.264  -2.916  0.00  0.00    -0.107 A 
ATOM      5  C4  BZF d   1       1.450  -5.999  -2.539  0.00  0.00     0.055 A 
ATOM      6  C5  BZF d   1       1.983  -5.804  -1.305  0.00  0.00    -0.016 A 
ATOM      7  C6  BZF d   1       1.457  -4.881  -0.424  0.00  0.00     0.022 A 
ATOM      8  C7  BZF d   1       0.376  -4.133  -0.751  0.00  0.00     0.029 A 
ATOM      9  C7A BZF d   1      -0.185  -4.351  -1.986  0.00  0.00     0.058 A 
ENDROOT
TORSDOF 0
ENDMDL
