MODEL 1
REMARK minimizedAffinity 7.63332558
REMARK minimizedRMSD -1
REMARK  0 active torsions:
REMARK  status: ('A' for Active; 'I' for Inactive)
ROOT
ATOM      1  O1  BZF d   1       1.926   4.835   0.616  0.00  0.00    -0.204 OA
ATOM      2  C2  BZF d   1       0.966   4.972  -0.368  0.00  0.00     0.174 A 
ATOM      3  C3  BZF d   1      -0.053   4.111  -0.166  0.00  0.00    -0.012 A 
ATOM      4  C3A BZF d   1       0.248   3.456   1.070  0.00  0.00    -0.107 A 
ATOM      5  C4  BZF d   1      -0.396   2.505   1.809  0.00  0.00     0.055 A 
ATOM      6  C5  BZF d   1       0.201   2.025   2.932  0.00  0.00    -0.016 A 
ATOM      7  C6  BZF d   1       1.441   2.470   3.341  0.00  0.00     0.022 A 
ATOM      8  C7  BZF d   1       2.115   3.416   2.644  0.00  0.00     0.029 A 
ATOM      9  C7A BZF d   1       1.500   3.927   1.527  0.00  0.00     0.058 A 
ENDROOT
TORSDOF 0
ENDMDL
