MODEL 1
REMARK minimizedAffinity 4.40392733
REMARK minimizedRMSD -1
REMARK  0 active torsions:
REMARK  status: ('A' for Active; 'I' for Inactive)
ROOT
ATOM      1  O1  BZF d   1       0.095   2.927  -0.543  0.00  0.00    -0.204 OA
ATOM      2  C2  BZF d   1      -0.146   3.322   0.759  0.00  0.00     0.174 A 
ATOM      3  C3  BZF d   1      -0.750   4.528   0.789  0.00  0.00    -0.012 A 
ATOM      4  C3A BZF d   1      -0.979   4.868  -0.582  0.00  0.00    -0.107 A 
ATOM      5  C4  BZF d   1      -1.559   5.939  -1.199  0.00  0.00     0.055 A 
ATOM      6  C5  BZF d   1      -1.557   5.999  -2.557  0.00  0.00    -0.016 A 
ATOM      7  C6  BZF d   1      -0.981   5.011  -3.327  0.00  0.00     0.022 A 
ATOM      8  C7  BZF d   1      -0.398   3.926  -2.760  0.00  0.00     0.029 A 
ATOM      9  C7A BZF d   1      -0.427   3.846  -1.389  0.00  0.00     0.058 A 
ENDROOT
TORSDOF 0
ENDMDL
