MODEL 1
REMARK minimizedAffinity 10.0057592
REMARK minimizedRMSD -1
REMARK  0 active torsions:
REMARK  status: ('A' for Active; 'I' for Inactive)
ROOT
ATOM      1  O1  BZF d   1      -5.999   6.000  -4.697  0.00  0.00    -0.204 OA
ATOM      2  C2  BZF d   1      -5.260   5.839  -5.853  0.00  0.00     0.174 A 
ATOM      3  C3  BZF d   1      -4.328   4.877  -5.694  0.00  0.00    -0.012 A 
ATOM      4  C3A BZF d   1      -4.556   4.343  -4.386  0.00  0.00    -0.107 A 
ATOM      5  C4  BZF d   1      -3.962   3.351  -3.660  0.00  0.00     0.055 A 
ATOM      6  C5  BZF d   1      -4.376   3.128  -2.385  0.00  0.00    -0.016 A 
ATOM      7  C6  BZF d   1      -5.376   3.880  -1.803  0.00  0.00     0.022 A 
ATOM      8  C7  BZF d   1      -5.998   4.872  -2.486  0.00  0.00     0.029 A 
ATOM      9  C7A BZF d   1      -5.605   5.078  -3.786  0.00  0.00     0.058 A 
ENDROOT
TORSDOF 0
ENDMDL
