MODEL 1
REMARK minimizedAffinity 11.4629993
REMARK minimizedRMSD -1
REMARK  0 active torsions:
REMARK  status: ('A' for Active; 'I' for Inactive)
ROOT
ATOM      1  O1  BZF d   1      -0.376   2.206  -0.789  0.00  0.00    -0.204 OA
ATOM      2  C2  BZF d   1       0.160   2.428   0.465  0.00  0.00     0.174 A 
ATOM      3  C3  BZF d   1       0.327   3.747   0.687  0.00  0.00    -0.012 A 
ATOM      4  C3A BZF d   1      -0.220   4.396  -0.465  0.00  0.00    -0.107 A 
ATOM      5  C4  BZF d   1      -0.362   5.705  -0.826  0.00  0.00     0.055 A 
ATOM      6  C5  BZF d   1      -0.872   6.000  -2.051  0.00  0.00    -0.016 A 
ATOM      7  C6  BZF d   1      -1.244   5.013  -2.940  0.00  0.00     0.022 A 
ATOM      8  C7  BZF d   1      -1.127   3.700  -2.624  0.00  0.00     0.029 A 
ATOM      9  C7A BZF d   1      -0.643   3.399  -1.374  0.00  0.00     0.058 A 
ENDROOT
TORSDOF 0
ENDMDL
