MODEL 1
REMARK minimizedAffinity 9.24185467
REMARK minimizedRMSD -1
REMARK  0 active torsions:
REMARK  status: ('A' for Active; 'I' for Inactive)
ROOT
ATOM      1  O1  BZF d   1      -2.450   4.771  -3.687  0.00  0.00    -0.204 OA
ATOM      2  C2  BZF d   1      -1.643   4.839  -2.567  0.00  0.00     0.174 A 
ATOM      3  C3  BZF d   1      -2.327   4.476  -1.463  0.00  0.00    -0.012 A 
ATOM      4  C3A BZF d   1      -3.616   4.072  -1.934  0.00  0.00    -0.107 A 
ATOM      5  C4  BZF d   1      -4.734   3.592  -1.314  0.00  0.00     0.055 A 
ATOM      6  C5  BZF d   1      -5.852   3.363  -2.052  0.00  0.00    -0.016 A 
ATOM      7  C6  BZF d   1      -5.888   3.607  -3.409  0.00  0.00     0.022 A 
ATOM      8  C7  BZF d   1      -4.802   4.079  -4.069  0.00  0.00     0.029 A 
ATOM      9  C7A BZF d   1      -3.661   4.280  -3.332  0.00  0.00     0.058 A 
ENDROOT
TORSDOF 0
ENDMDL
