MODEL 1
REMARK minimizedAffinity -4.47768831
REMARK minimizedRMSD -1
REMARK  0 active torsions:
REMARK  status: ('A' for Active; 'I' for Inactive)
ROOT
ATOM      1  C1  BNZ d   1      -0.857  -0.475   1.186  0.00  0.00     0.000 A 
ATOM      2  C2  BNZ d   1      -0.251  -1.082   2.254  0.00  0.00     0.000 A 
ATOM      3  C3  BNZ d   1       1.064  -0.846   2.540  0.00  0.00     0.000 A 
ATOM      4  C4  BNZ d   1       1.783  -0.036   1.735  0.00  0.00     0.000 A 
ATOM      5  C5  BNZ d   1       1.190   0.576   0.649  0.00  0.00     0.000 A 
ATOM      6  C6  BNZ d   1      -0.145   0.367   0.387  0.00  0.00     0.000 A 
ENDROOT
TORSDOF 0
ENDMDL
