MODEL 1
REMARK minimizedAffinity -3.5081315
REMARK minimizedRMSD -1
REMARK  0 active torsions:
REMARK  status: ('A' for Active; 'I' for Inactive)
ROOT
ATOM      1  C1  BNZ d   1      -0.226   0.057   1.241  0.00  0.00     0.000 A 
ATOM      2  C2  BNZ d   1       0.253  -0.575   2.358  0.00  0.00     0.000 A 
ATOM      3  C3  BNZ d   1       1.369  -1.360   2.293  0.00  0.00     0.000 A 
ATOM      4  C4  BNZ d   1       1.981  -1.546   1.105  0.00  0.00     0.000 A 
ATOM      5  C5  BNZ d   1       1.505  -0.923  -0.031  0.00  0.00     0.000 A 
ATOM      6  C6  BNZ d   1       0.404  -0.102   0.045  0.00  0.00     0.000 A 
ENDROOT
TORSDOF 0
ENDMDL
