MODEL 1
REMARK minimizedAffinity -3.59779334
REMARK minimizedRMSD -1
REMARK  0 active torsions:
REMARK  status: ('A' for Active; 'I' for Inactive)
ROOT
ATOM      1  C1  BNZ d   1       1.592  -0.720   1.234  0.00  0.00     0.000 A 
ATOM      2  C2  BNZ d   1       1.079  -0.173   0.088  0.00  0.00     0.000 A 
ATOM      3  C3  BNZ d   1      -0.267   0.016  -0.055  0.00  0.00     0.000 A 
ATOM      4  C4  BNZ d   1      -1.101  -0.378   0.929  0.00  0.00     0.000 A 
ATOM      5  C5  BNZ d   1      -0.600  -0.939   2.086  0.00  0.00     0.000 A 
ATOM      6  C6  BNZ d   1       0.758  -1.093   2.243  0.00  0.00     0.000 A 
ENDROOT
TORSDOF 0
ENDMDL
