MODEL 1
REMARK minimizedAffinity -4.21384096
REMARK minimizedRMSD -1
REMARK  0 active torsions:
REMARK  status: ('A' for Active; 'I' for Inactive)
ROOT
ATOM      1  C1  BNZ d   1       0.840  -1.321   2.247  0.00  0.00     0.000 A 
ATOM      2  C2  BNZ d   1      -0.252  -0.501   2.346  0.00  0.00     0.000 A 
ATOM      3  C3  BNZ d   1      -0.830   0.032   1.227  0.00  0.00     0.000 A 
ATOM      4  C4  BNZ d   1      -0.292  -0.223   0.017  0.00  0.00     0.000 A 
ATOM      5  C5  BNZ d   1       0.815  -1.041  -0.097  0.00  0.00     0.000 A 
ATOM      6  C6  BNZ d   1       1.371  -1.606   1.027  0.00  0.00     0.000 A 
ENDROOT
TORSDOF 0
ENDMDL
