MODEL 1
REMARK minimizedAffinity -4.49699211
REMARK minimizedRMSD -1
REMARK  0 active torsions:
REMARK  status: ('A' for Active; 'I' for Inactive)
ROOT
ATOM      1  C1  BNZ d   1       2.386  -2.108   1.033  0.00  0.00     0.000 A 
ATOM      2  C2  BNZ d   1       1.773  -1.480  -0.018  0.00  0.00     0.000 A 
ATOM      3  C3  BNZ d   1       0.745  -0.604   0.193  0.00  0.00     0.000 A 
ATOM      4  C4  BNZ d   1       0.305  -0.389   1.450  0.00  0.00     0.000 A 
ATOM      5  C5  BNZ d   1       0.906  -1.022   2.519  0.00  0.00     0.000 A 
ATOM      6  C6  BNZ d   1       1.967  -1.873   2.306  0.00  0.00     0.000 A 
ENDROOT
TORSDOF 0
ENDMDL
