MODEL 1
REMARK minimizedAffinity -3.9830873
REMARK minimizedRMSD -1
REMARK  0 active torsions:
REMARK  status: ('A' for Active; 'I' for Inactive)
ROOT
ATOM      1  C1  BNZ d   1       1.967  -1.206   0.780  0.00  0.00     0.000 A 
ATOM      2  C2  BNZ d   1       1.224  -0.529  -0.150  0.00  0.00     0.000 A 
ATOM      3  C3  BNZ d   1      -0.120  -0.351   0.024  0.00  0.00     0.000 A 
ATOM      4  C4  BNZ d   1      -0.725  -0.883   1.106  0.00  0.00     0.000 A 
ATOM      5  C5  BNZ d   1       0.009  -1.577   2.047  0.00  0.00     0.000 A 
ATOM      6  C6  BNZ d   1       1.368  -1.721   1.888  0.00  0.00     0.000 A 
ENDROOT
TORSDOF 0
ENDMDL
