MODEL 1
REMARK minimizedAffinity -3.80276895
REMARK minimizedRMSD -1
REMARK  0 active torsions:
REMARK  status: ('A' for Active; 'I' for Inactive)
ROOT
ATOM      1  C1  BNZ d   1      -0.926  -1.180   1.258  0.00  0.00     0.000 A 
ATOM      2  C2  BNZ d   1      -0.192  -1.362   2.400  0.00  0.00     0.000 A 
ATOM      3  C3  BNZ d   1       1.153  -1.121   2.413  0.00  0.00     0.000 A 
ATOM      4  C4  BNZ d   1       1.769  -0.739   1.275  0.00  0.00     0.000 A 
ATOM      5  C5  BNZ d   1       1.045  -0.560   0.114  0.00  0.00     0.000 A 
ATOM      6  C6  BNZ d   1      -0.316  -0.766   0.114  0.00  0.00     0.000 A 
ENDROOT
TORSDOF 0
ENDMDL
