MODEL 1
REMARK minimizedAffinity 13.1484737
REMARK minimizedRMSD -1
REMARK  1 active torsions:
REMARK  status: ('A' for Active; 'I' for Inactive)
REMARK    1  A    between atoms: C1_2  and  C2_3 
ROOT
ATOM      1  C2  UNL d   1      -1.988  -2.308   3.509  0.00  0.00    -0.073 A 
ATOM      2  C3  UNL d   1      -1.607  -1.875   4.784  0.00  0.00    -0.002 A 
ATOM      3  C4  UNL d   1      -0.469  -1.085   4.949  0.00  0.00     0.004 A 
ATOM      4  C5  UNL d   1       0.295  -0.714   3.843  0.00  0.00    -0.004 A 
ATOM      5  C6  UNL d   1      -0.077  -1.126   2.559  0.00  0.00    -0.075 A 
ATOM      6  C7  UNL d   1       0.736  -0.738   1.359  0.00  0.00     0.076 C 
ATOM      7  C8  UNL d   1      -1.219  -1.922   2.401  0.00  0.00     0.001 A 
ENDROOT
BRANCH   1   8
ATOM      8  C1  UNL d   1      -3.220  -3.156   3.324  0.00  0.00     0.053 C 
ATOM      9  C   UNL d   1      -4.186  -2.548   2.320  0.00  0.00     0.018 C 
ENDBRANCH   1   8
TORSDOF 1
ENDMDL
