MODEL 1
REMARK minimizedAffinity 14.3769579
REMARK minimizedRMSD -1
REMARK  1 active torsions:
REMARK  status: ('A' for Active; 'I' for Inactive)
REMARK    1  A    between atoms: C1_2  and  C2_3 
ROOT
ATOM      1  C2  UNL d   1       2.402  -0.859   2.458  0.00  0.00    -0.073 A 
ATOM      2  C3  UNL d   1       2.340  -0.132   3.652  0.00  0.00    -0.002 A 
ATOM      3  C4  UNL d   1       1.187  -0.163   4.437  0.00  0.00     0.004 A 
ATOM      4  C5  UNL d   1       0.088  -0.925   4.041  0.00  0.00    -0.004 A 
ATOM      5  C6  UNL d   1       0.135  -1.668   2.857  0.00  0.00    -0.075 A 
ATOM      6  C7  UNL d   1      -1.040  -2.491   2.415  0.00  0.00     0.076 C 
ATOM      7  C8  UNL d   1       1.295  -1.629   2.072  0.00  0.00     0.001 A 
ENDROOT
BRANCH   1   8
ATOM      8  C1  UNL d   1       3.647  -0.834   1.610  0.00  0.00     0.053 C 
ATOM      9  C   UNL d   1       4.288   0.545   1.579  0.00  0.00     0.018 C 
ENDBRANCH   1   8
TORSDOF 1
ENDMDL
