MODEL 1
REMARK minimizedAffinity 7.63011932
REMARK minimizedRMSD -1
REMARK  1 active torsions:
REMARK  status: ('A' for Active; 'I' for Inactive)
REMARK    1  A    between atoms: C1_2  and  C2_3 
ROOT
ATOM      1  C2  UNL d   1      -4.297  -5.156   3.018  0.00  0.00    -0.073 A 
ATOM      2  C3  UNL d   1      -4.125  -3.772   3.126  0.00  0.00    -0.002 A 
ATOM      3  C4  UNL d   1      -3.939  -2.994   1.983  0.00  0.00     0.004 A 
ATOM      4  C5  UNL d   1      -3.930  -3.590   0.722  0.00  0.00    -0.004 A 
ATOM      5  C6  UNL d   1      -4.113  -4.970   0.593  0.00  0.00    -0.075 A 
ATOM      6  C7  UNL d   1      -4.103  -5.627  -0.756  0.00  0.00     0.076 C 
ATOM      7  C8  UNL d   1      -4.296  -5.745   1.746  0.00  0.00     0.001 A 
ENDROOT
BRANCH   1   8
ATOM      8  C1  UNL d   1      -4.505  -6.000   4.250  0.00  0.00     0.053 C 
ATOM      9  C   UNL d   1      -5.956  -5.998   4.704  0.00  0.00     0.018 C 
ENDBRANCH   1   8
TORSDOF 1
ENDMDL
