MODEL 1
REMARK minimizedAffinity 11.7238064
REMARK minimizedRMSD -1
REMARK  1 active torsions:
REMARK  status: ('A' for Active; 'I' for Inactive)
REMARK    1  A    between atoms: C1_2  and  C2_3 
ROOT
ATOM      1  C2  UNL d   1      -4.632   2.502  -4.193  0.00  0.00    -0.073 A 
ATOM      2  C3  UNL d   1      -4.550   2.989  -5.503  0.00  0.00    -0.002 A 
ATOM      3  C4  UNL d   1      -3.340   3.476  -5.999  0.00  0.00     0.004 A 
ATOM      4  C5  UNL d   1      -2.200   3.473  -5.196  0.00  0.00    -0.004 A 
ATOM      5  C6  UNL d   1      -2.259   2.979  -3.889  0.00  0.00    -0.075 A 
ATOM      6  C7  UNL d   1      -1.042   2.971  -3.011  0.00  0.00     0.076 C 
ATOM      7  C8  UNL d   1      -3.478   2.495  -3.396  0.00  0.00     0.001 A 
ENDROOT
BRANCH   1   8
ATOM      8  C1  UNL d   1      -5.935   1.970  -3.655  0.00  0.00     0.053 C 
ATOM      9  C   UNL d   1      -5.966   0.450  -3.637  0.00  0.00     0.018 C 
ENDBRANCH   1   8
TORSDOF 1
ENDMDL
