MODEL 1
REMARK minimizedAffinity 18.8072548
REMARK minimizedRMSD -1
REMARK  1 active torsions:
REMARK  status: ('A' for Active; 'I' for Inactive)
REMARK    1  A    between atoms: C1_2  and  C2_3 
ROOT
ATOM      1  C2  UNL d   1      -1.613  -2.274   2.301  0.00  0.00    -0.073 A 
ATOM      2  C3  UNL d   1      -1.286  -1.086   2.965  0.00  0.00    -0.002 A 
ATOM      3  C4  UNL d   1      -0.011  -0.533   2.835  0.00  0.00     0.004 A 
ATOM      4  C5  UNL d   1       0.946  -1.157   2.036  0.00  0.00    -0.004 A 
ATOM      5  C6  UNL d   1       0.635  -2.338   1.355  0.00  0.00    -0.075 A 
ATOM      6  C7  UNL d   1       1.655  -3.023   0.492  0.00  0.00     0.076 C 
ATOM      7  C8  UNL d   1      -0.646  -2.889   1.492  0.00  0.00     0.001 A 
ENDROOT
BRANCH   1   8
ATOM      8  C1  UNL d   1      -2.990  -2.871   2.433  0.00  0.00     0.053 C 
ATOM      9  C   UNL d   1      -3.534  -3.349   1.096  0.00  0.00     0.018 C 
ENDBRANCH   1   8
TORSDOF 1
ENDMDL
