MODEL 1
REMARK minimizedAffinity 13.0335617
REMARK minimizedRMSD -1
REMARK  1 active torsions:
REMARK  status: ('A' for Active; 'I' for Inactive)
REMARK    1  A    between atoms: C1_2  and  C2_3 
ROOT
ATOM      1  C2  UNL d   1      -1.304  -2.072   2.599  0.00  0.00    -0.073 A 
ATOM      2  C3  UNL d   1      -0.874  -0.821   3.056  0.00  0.00    -0.002 A 
ATOM      3  C4  UNL d   1       0.303  -0.257   2.562  0.00  0.00     0.004 A 
ATOM      4  C5  UNL d   1       1.057  -0.934   1.603  0.00  0.00    -0.004 A 
ATOM      5  C6  UNL d   1       0.637  -2.180   1.126  0.00  0.00    -0.075 A 
ATOM      6  C7  UNL d   1       1.438  -2.922   0.097  0.00  0.00     0.076 C 
ATOM      7  C8  UNL d   1      -0.545  -2.740   1.629  0.00  0.00     0.001 A 
ENDROOT
BRANCH   1   8
ATOM      8  C1  UNL d   1      -2.578  -2.681   3.125  0.00  0.00     0.053 C 
ATOM      9  C   UNL d   1      -3.546  -3.032   2.006  0.00  0.00     0.018 C 
ENDBRANCH   1   8
TORSDOF 1
ENDMDL
