MODEL 1
REMARK minimizedAffinity 11.6741877
REMARK minimizedRMSD -1
REMARK  1 active torsions:
REMARK  status: ('A' for Active; 'I' for Inactive)
REMARK    1  A    between atoms: C1_2  and  C2_3 
ROOT
ATOM      1  C2  UNL d   1       1.787  -0.304   1.214  0.00  0.00    -0.073 A 
ATOM      2  C3  UNL d   1       1.935   0.953   0.617  0.00  0.00    -0.002 A 
ATOM      3  C4  UNL d   1       3.158   1.623   0.677  0.00  0.00     0.004 A 
ATOM      4  C5  UNL d   1       4.246   1.041   1.328  0.00  0.00    -0.004 A 
ATOM      5  C6  UNL d   1       4.121  -0.220   1.921  0.00  0.00    -0.075 A 
ATOM      6  C7  UNL d   1       5.281  -0.859   2.627  0.00  0.00     0.076 C 
ATOM      7  C8  UNL d   1       2.889  -0.885   1.859  0.00  0.00     0.001 A 
ENDROOT
BRANCH   1   8
ATOM      8  C1  UNL d   1       0.470  -1.033   1.146  0.00  0.00     0.053 C 
ATOM      9  C   UNL d   1       0.594  -2.477   1.607  0.00  0.00     0.018 C 
ENDBRANCH   1   8
TORSDOF 1
ENDMDL
