MODEL 1
REMARK minimizedAffinity 6.54426575
REMARK minimizedRMSD -1
REMARK  1 active torsions:
REMARK  status: ('A' for Active; 'I' for Inactive)
REMARK    1  A    between atoms: C1_2  and  C2_3 
ROOT
ATOM      1  C2  UNL d   1      -4.265  -4.338   0.976  0.00  0.00    -0.073 A 
ATOM      2  C3  UNL d   1      -3.077  -3.787   1.468  0.00  0.00    -0.002 A 
ATOM      3  C4  UNL d   1      -2.839  -3.737   2.843  0.00  0.00     0.004 A 
ATOM      4  C5  UNL d   1      -3.782  -4.244   3.737  0.00  0.00    -0.004 A 
ATOM      5  C6  UNL d   1      -4.970  -4.809   3.264  0.00  0.00    -0.075 A 
ATOM      6  C7  UNL d   1      -5.996  -5.356   4.213  0.00  0.00     0.076 C 
ATOM      7  C8  UNL d   1      -5.203  -4.853   1.882  0.00  0.00     0.001 A 
ENDROOT
BRANCH   1   8
ATOM      8  C1  UNL d   1      -4.523  -4.399  -0.507  0.00  0.00     0.053 C 
ATOM      9  C   UNL d   1      -3.782  -5.550  -1.168  0.00  0.00     0.018 C 
ENDBRANCH   1   8
TORSDOF 1
ENDMDL
