MODEL 1
REMARK minimizedAffinity 16.5883102
REMARK minimizedRMSD -1
REMARK  1 active torsions:
REMARK  status: ('A' for Active; 'I' for Inactive)
REMARK    1  A    between atoms: C1_2  and  C2_3 
ROOT
ATOM      1  C2  UNL d   1      -0.061   3.070  -1.501  0.00  0.00    -0.073 A 
ATOM      2  C3  UNL d   1      -0.871   1.970  -1.806  0.00  0.00    -0.002 A 
ATOM      3  C4  UNL d   1      -1.897   2.089  -2.745  0.00  0.00     0.004 A 
ATOM      4  C5  UNL d   1      -2.119   3.304  -3.391  0.00  0.00    -0.004 A 
ATOM      5  C6  UNL d   1      -1.313   4.412  -3.108  0.00  0.00    -0.075 A 
ATOM      6  C7  UNL d   1      -1.540   5.727  -3.794  0.00  0.00     0.076 C 
ATOM      7  C8  UNL d   1      -0.286   4.285  -2.163  0.00  0.00     0.001 A 
ENDROOT
BRANCH   1   8
ATOM      8  C1  UNL d   1       1.052   2.944  -0.493  0.00  0.00     0.053 C 
ATOM      9  C   UNL d   1       1.442   4.291   0.096  0.00  0.00     0.018 C 
ENDBRANCH   1   8
TORSDOF 1
ENDMDL
