MODEL 1
REMARK minimizedAffinity 17.1800995
REMARK minimizedRMSD -1
REMARK  1 active torsions:
REMARK  status: ('A' for Active; 'I' for Inactive)
REMARK    1  A    between atoms: C1_2  and  C2_3 
ROOT
ATOM      1  C2  UNL d   1       3.001  -3.202  -4.452  0.00  0.00    -0.073 A 
ATOM      2  C3  UNL d   1       2.528  -3.201  -3.134  0.00  0.00    -0.002 A 
ATOM      3  C4  UNL d   1       1.530  -4.094  -2.743  0.00  0.00     0.004 A 
ATOM      4  C5  UNL d   1       0.999  -5.001  -3.662  0.00  0.00    -0.004 A 
ATOM      5  C6  UNL d   1       1.467  -5.025  -4.979  0.00  0.00    -0.075 A 
ATOM      6  C7  UNL d   1       0.906  -5.992  -5.980  0.00  0.00     0.076 C 
ATOM      7  C8  UNL d   1       2.468  -4.123  -5.365  0.00  0.00     0.001 A 
ENDROOT
BRANCH   1   8
ATOM      8  C1  UNL d   1       4.084  -2.244  -4.877  0.00  0.00     0.053 C 
ATOM      9  C   UNL d   1       4.652  -1.468  -3.700  0.00  0.00     0.018 C 
ENDBRANCH   1   8
TORSDOF 1
ENDMDL
