MODEL 1
REMARK minimizedAffinity -1.38057971
REMARK minimizedRMSD -1
REMARK  2 active torsions:
REMARK  status: ('A' for Active; 'I' for Inactive)
REMARK    1  A    between atoms: C1_2  and  C2_3 
REMARK    2  A    between atoms: C2_3  and  C3_4 
ROOT
ATOM      1  C3  UNL d   1      -0.719  -0.762   2.871  0.00  0.00    -0.075 A 
ATOM      2  C4  UNL d   1      -0.588  -1.259   4.176  0.00  0.00     0.002 A 
ATOM      3  C5  UNL d   1       0.665  -1.613   4.677  0.00  0.00     0.002 A 
ATOM      4  C6  UNL d   1       1.800  -1.485   3.879  0.00  0.00    -0.004 A 
ATOM      5  C7  UNL d   1       1.679  -1.007   2.575  0.00  0.00     0.002 A 
ATOM      6  C8  UNL d   1       0.427  -0.648   2.073  0.00  0.00     0.002 A 
ENDROOT
BRANCH   1   7
ATOM      7  C2  UNL d   1      -2.068  -0.349   2.333  0.00  0.00     0.056 C 
BRANCH   7   8
ATOM      8  C1  UNL d   1      -2.016   0.283   0.938  0.00  0.00     0.007 C 
ATOM      9  C   UNL d   1      -2.376  -0.691  -0.176  0.00  0.00     0.009 C 
ENDBRANCH   7   8
ENDBRANCH   1   7
TORSDOF 2
ENDMDL
