MODEL 1
REMARK minimizedAffinity -1.74297583
REMARK minimizedRMSD -1
REMARK  2 active torsions:
REMARK  status: ('A' for Active; 'I' for Inactive)
REMARK    1  A    between atoms: C1_2  and  C2_3 
REMARK    2  A    between atoms: C2_3  and  C3_4 
ROOT
ATOM      1  C3  UNL d   1       0.002  -0.619   1.506  0.00  0.00    -0.075 A 
ATOM      2  C4  UNL d   1      -1.200  -0.115   2.025  0.00  0.00     0.002 A 
ATOM      3  C5  UNL d   1      -2.302   0.085   1.193  0.00  0.00     0.002 A 
ATOM      4  C6  UNL d   1      -2.214  -0.206  -0.166  0.00  0.00    -0.004 A 
ATOM      5  C7  UNL d   1      -1.021  -0.691  -0.696  0.00  0.00     0.002 A 
ATOM      6  C8  UNL d   1       0.082  -0.896   0.135  0.00  0.00     0.002 A 
ENDROOT
BRANCH   1   7
ATOM      7  C2  UNL d   1       1.189  -0.865   2.406  0.00  0.00     0.056 C 
BRANCH   7   8
ATOM      8  C1  UNL d   1       0.815  -1.202   3.853  0.00  0.00     0.007 C 
ATOM      9  C   UNL d   1       2.021  -1.533   4.723  0.00  0.00     0.009 C 
ENDBRANCH   7   8
ENDBRANCH   1   7
TORSDOF 2
ENDMDL
