MODEL 1
REMARK minimizedAffinity -2.18118215
REMARK minimizedRMSD -1
REMARK  2 active torsions:
REMARK  status: ('A' for Active; 'I' for Inactive)
REMARK    1  A    between atoms: C1_2  and  C2_3 
REMARK    2  A    between atoms: C2_3  and  C3_4 
ROOT
ATOM      1  C3  UNL d   1      -0.102  -0.428   2.745  0.00  0.00    -0.075 A 
ATOM      2  C4  UNL d   1      -1.393   0.112   2.651  0.00  0.00     0.002 A 
ATOM      3  C5  UNL d   1      -1.915   0.487   1.412  0.00  0.00     0.002 A 
ATOM      4  C6  UNL d   1      -1.152   0.335   0.257  0.00  0.00    -0.004 A 
ATOM      5  C7  UNL d   1       0.138  -0.186   0.341  0.00  0.00     0.002 A 
ATOM      6  C8  UNL d   1       0.661  -0.565   1.578  0.00  0.00     0.002 A 
ENDROOT
BRANCH   1   7
ATOM      7  C2  UNL d   1       0.458  -0.863   4.079  0.00  0.00     0.056 C 
BRANCH   7   8
ATOM      8  C1  UNL d   1       1.886  -1.413   4.006  0.00  0.00     0.007 C 
ATOM      9  C   UNL d   1       2.761  -0.966   5.170  0.00  0.00     0.009 C 
ENDBRANCH   7   8
ENDBRANCH   1   7
TORSDOF 2
ENDMDL
