MODEL 1
REMARK minimizedAffinity 1.42726314
REMARK minimizedRMSD -1
REMARK  2 active torsions:
REMARK  status: ('A' for Active; 'I' for Inactive)
REMARK    1  A    between atoms: C1_2  and  C2_3 
REMARK    2  A    between atoms: C2_3  and  C3_4 
ROOT
ATOM      1  C3  UNL d   1       0.042  -0.039   0.552  0.00  0.00    -0.075 A 
ATOM      2  C4  UNL d   1      -0.601  -0.448  -0.625  0.00  0.00     0.002 A 
ATOM      3  C5  UNL d   1      -1.991  -0.386  -0.731  0.00  0.00     0.002 A 
ATOM      4  C6  UNL d   1      -2.754   0.075   0.339  0.00  0.00    -0.004 A 
ATOM      5  C7  UNL d   1      -2.127   0.469   1.519  0.00  0.00     0.002 A 
ATOM      6  C8  UNL d   1      -0.736   0.412   1.626  0.00  0.00     0.002 A 
ENDROOT
BRANCH   1   7
ATOM      7  C2  UNL d   1       1.548  -0.076   0.662  0.00  0.00     0.056 C 
BRANCH   7   8
ATOM      8  C1  UNL d   1       2.197   1.305   0.801  0.00  0.00     0.007 C 
ATOM      9  C   UNL d   1       3.313   1.547  -0.207  0.00  0.00     0.009 C 
ENDBRANCH   7   8
ENDBRANCH   1   7
TORSDOF 2
ENDMDL
