MODEL 1
REMARK minimizedAffinity 5.42361259
REMARK minimizedRMSD -1
REMARK  2 active torsions:
REMARK  status: ('A' for Active; 'I' for Inactive)
REMARK    1  A    between atoms: C1_2  and  C2_3 
REMARK    2  A    between atoms: C2_3  and  C3_4 
ROOT
ATOM      1  C3  UNL d   1      -2.552  -0.487   0.193  0.00  0.00    -0.075 A 
ATOM      2  C4  UNL d   1      -3.227  -1.710   0.319  0.00  0.00     0.002 A 
ATOM      3  C5  UNL d   1      -3.578  -2.199   1.578  0.00  0.00     0.002 A 
ATOM      4  C6  UNL d   1      -3.250  -1.478   2.724  0.00  0.00    -0.004 A 
ATOM      5  C7  UNL d   1      -2.564  -0.271   2.612  0.00  0.00     0.002 A 
ATOM      6  C8  UNL d   1      -2.216   0.223   1.353  0.00  0.00     0.002 A 
ENDROOT
BRANCH   1   7
ATOM      7  C2  UNL d   1      -2.195   0.061  -1.168  0.00  0.00     0.056 C 
BRANCH   7   8
ATOM      8  C1  UNL d   1      -1.201  -0.805  -1.949  0.00  0.00     0.007 C 
ATOM      9  C   UNL d   1      -0.957  -0.308  -3.368  0.00  0.00     0.009 C 
ENDBRANCH   7   8
ENDBRANCH   1   7
TORSDOF 2
ENDMDL
