MODEL 1
REMARK minimizedAffinity -1.54282761
REMARK minimizedRMSD -1
REMARK  2 active torsions:
REMARK  status: ('A' for Active; 'I' for Inactive)
REMARK    1  A    between atoms: C1_2  and  C2_3 
REMARK    2  A    between atoms: C2_3  and  C3_4 
ROOT
ATOM      1  C3  UNL d   1      -0.230  -0.424   1.547  0.00  0.00    -0.075 A 
ATOM      2  C4  UNL d   1      -1.360   0.097   2.195  0.00  0.00     0.002 A 
ATOM      3  C5  UNL d   1      -2.532   0.350   1.481  0.00  0.00     0.002 A 
ATOM      4  C6  UNL d   1      -2.586   0.095   0.113  0.00  0.00    -0.004 A 
ATOM      5  C7  UNL d   1      -1.465  -0.408  -0.544  0.00  0.00     0.002 A 
ATOM      6  C8  UNL d   1      -0.292  -0.666   0.168  0.00  0.00     0.002 A 
ENDROOT
BRANCH   1   7
ATOM      7  C2  UNL d   1       1.031  -0.728   2.319  0.00  0.00     0.056 C 
BRANCH   7   8
ATOM      8  C1  UNL d   1       0.784  -1.248   3.739  0.00  0.00     0.007 C 
ATOM      9  C   UNL d   1       2.024  -1.854   4.382  0.00  0.00     0.009 C 
ENDBRANCH   7   8
ENDBRANCH   1   7
TORSDOF 2
ENDMDL
