MODEL 1
REMARK minimizedAffinity 0.916433096
REMARK minimizedRMSD -1
REMARK  2 active torsions:
REMARK  status: ('A' for Active; 'I' for Inactive)
REMARK    1  A    between atoms: C1_2  and  C2_3 
REMARK    2  A    between atoms: C2_3  and  C3_4 
ROOT
ATOM      1  C3  UNL d   1      -1.151  -0.052   0.976  0.00  0.00    -0.075 A 
ATOM      2  C4  UNL d   1      -1.281  -0.573  -0.320  0.00  0.00     0.002 A 
ATOM      3  C5  UNL d   1      -2.456  -0.379  -1.047  0.00  0.00     0.002 A 
ATOM      4  C6  UNL d   1      -3.518   0.326  -0.484  0.00  0.00    -0.004 A 
ATOM      5  C7  UNL d   1      -3.407   0.833   0.808  0.00  0.00     0.002 A 
ATOM      6  C8  UNL d   1      -2.230   0.645   1.536  0.00  0.00     0.002 A 
ENDROOT
BRANCH   1   7
ATOM      7  C2  UNL d   1       0.129  -0.233   1.756  0.00  0.00     0.056 C 
BRANCH   7   8
ATOM      8  C1  UNL d   1       1.386  -0.313   0.883  0.00  0.00     0.007 C 
ATOM      9  C   UNL d   1       2.671  -0.043   1.654  0.00  0.00     0.009 C 
ENDBRANCH   7   8
ENDBRANCH   1   7
TORSDOF 2
ENDMDL
