MODEL 1
REMARK minimizedAffinity -5.66129589
REMARK minimizedRMSD -1
REMARK  2 active torsions:
REMARK  status: ('A' for Active; 'I' for Inactive)
REMARK    1  A    between atoms: C2'_3  and  C1'_4 
REMARK    2  A    between atoms: C1'_4  and  C1_5 
ROOT
ATOM      1  C1  I4B d   1      -0.401   0.055   0.823  0.00  0.00    -0.075 A 
ATOM      2  C2  I4B d   1      -1.509   0.359   1.574  0.00  0.00     0.003 A 
ATOM      3  C3  I4B d   1      -1.364   0.809   2.909  0.00  0.00     0.002 A 
ATOM      4  C4  I4B d   1      -0.103   0.892   3.465  0.00  0.00    -0.004 A 
ATOM      5  C5  I4B d   1       1.020   0.606   2.694  0.00  0.00     0.002 A 
ATOM      6  C6  I4B d   1       0.872   0.196   1.361  0.00  0.00     0.003 A 
ENDROOT
BRANCH   1   7
ATOM      7  C1' I4B d   1      -0.592  -0.449  -0.572  0.00  0.00     0.060 C 
BRANCH   7   8
ATOM      8  C2' I4B d   1       0.778  -0.663  -1.183  0.00  0.00    -0.013 C 
ATOM      9  C4' I4B d   1       1.369  -1.979  -0.750  0.00  0.00     0.013 C 
ATOM     10  C3' I4B d   1       0.635  -0.598  -2.675  0.00  0.00     0.013 C 
ENDBRANCH   7   8
ENDBRANCH   1   7
TORSDOF 2
ENDMDL
