MODEL 1
REMARK minimizedAffinity -4.19536686
REMARK minimizedRMSD -1
REMARK  2 active torsions:
REMARK  status: ('A' for Active; 'I' for Inactive)
REMARK    1  A    between atoms: C2'_3  and  C1'_4 
REMARK    2  A    between atoms: C1'_4  and  C1_5 
ROOT
ATOM      1  C1  I4B d   1      -0.068  -0.404  -1.048  0.00  0.00    -0.075 A 
ATOM      2  C2  I4B d   1       0.763  -0.681   0.009  0.00  0.00     0.003 A 
ATOM      3  C3  I4B d   1       0.354  -0.390   1.333  0.00  0.00     0.002 A 
ATOM      4  C4  I4B d   1      -0.866   0.219   1.549  0.00  0.00    -0.004 A 
ATOM      5  C5  I4B d   1      -1.716   0.478   0.478  0.00  0.00     0.002 A 
ATOM      6  C6  I4B d   1      -1.320   0.154  -0.828  0.00  0.00     0.003 A 
ENDROOT
BRANCH   1   7
ATOM      7  C1' I4B d   1       0.410  -0.693  -2.436  0.00  0.00     0.060 C 
BRANCH   7   8
ATOM      8  C2' I4B d   1       0.986   0.587  -3.008  0.00  0.00    -0.013 C 
ATOM      9  C4' I4B d   1       2.481   0.489  -3.166  0.00  0.00     0.013 C 
ATOM     10  C3' I4B d   1       0.318   0.847  -4.325  0.00  0.00     0.013 C 
ENDBRANCH   7   8
ENDBRANCH   1   7
TORSDOF 2
ENDMDL
