MODEL 1
REMARK minimizedAffinity -3.49144888
REMARK minimizedRMSD -1
REMARK  2 active torsions:
REMARK  status: ('A' for Active; 'I' for Inactive)
REMARK    1  A    between atoms: C2'_3  and  C1'_4 
REMARK    2  A    between atoms: C1'_4  and  C1_5 
ROOT
ATOM      1  C1  I4B d   1       0.080   0.062   0.336  0.00  0.00    -0.075 A 
ATOM      2  C2  I4B d   1       1.096  -0.839   0.535  0.00  0.00     0.003 A 
ATOM      3  C3  I4B d   1       1.807  -0.854   1.760  0.00  0.00     0.002 A 
ATOM      4  C4  I4B d   1       1.504   0.077   2.732  0.00  0.00    -0.004 A 
ATOM      5  C5  I4B d   1       0.459   0.975   2.538  0.00  0.00     0.002 A 
ATOM      6  C6  I4B d   1      -0.266   0.960   1.338  0.00  0.00     0.003 A 
ENDROOT
BRANCH   1   7
ATOM      7  C1' I4B d   1      -0.627   0.072  -0.982  0.00  0.00     0.060 C 
BRANCH   7   8
ATOM      8  C2' I4B d   1       0.404  -0.158  -2.067  0.00  0.00    -0.013 C 
ATOM      9  C4' I4B d   1      -0.240  -0.650  -3.336  0.00  0.00     0.013 C 
ATOM     10  C3' I4B d   1       1.132   1.133  -2.295  0.00  0.00     0.013 C 
ENDBRANCH   7   8
ENDBRANCH   1   7
TORSDOF 2
ENDMDL
