MODEL 1
REMARK minimizedAffinity -2.16261363
REMARK minimizedRMSD -1
REMARK  2 active torsions:
REMARK  status: ('A' for Active; 'I' for Inactive)
REMARK    1  A    between atoms: C2'_3  and  C1'_4 
REMARK    2  A    between atoms: C1'_4  and  C1_5 
ROOT
ATOM      1  C1  I4B d   1      -0.270  -0.145  -1.256  0.00  0.00    -0.075 A 
ATOM      2  C2  I4B d   1       0.194  -1.006  -2.220  0.00  0.00     0.003 A 
ATOM      3  C3  I4B d   1       0.776  -0.500  -3.407  0.00  0.00     0.002 A 
ATOM      4  C4  I4B d   1       0.828   0.864  -3.610  0.00  0.00    -0.004 A 
ATOM      5  C5  I4B d   1       0.379   1.736  -2.622  0.00  0.00     0.002 A 
ATOM      6  C6  I4B d   1      -0.162   1.228  -1.432  0.00  0.00     0.003 A 
ENDROOT
BRANCH   1   7
ATOM      7  C1' I4B d   1      -0.908  -0.714  -0.029  0.00  0.00     0.060 C 
BRANCH   7   8
ATOM      8  C2' I4B d   1      -0.325  -0.000   1.174  0.00  0.00    -0.013 C 
ATOM      9  C4' I4B d   1      -1.328   0.089   2.294  0.00  0.00     0.013 C 
ATOM     10  C3' I4B d   1       0.902  -0.747   1.605  0.00  0.00     0.013 C 
ENDBRANCH   7   8
ENDBRANCH   1   7
TORSDOF 2
ENDMDL
