MODEL 1
REMARK minimizedAffinity -4.18322515
REMARK minimizedRMSD -1
REMARK  2 active torsions:
REMARK  status: ('A' for Active; 'I' for Inactive)
REMARK    1  A    between atoms: C2'_3  and  C1'_4 
REMARK    2  A    between atoms: C1'_4  and  C1_5 
ROOT
ATOM      1  C1  I4B d   1      -0.046  -0.467   0.315  0.00  0.00    -0.075 A 
ATOM      2  C2  I4B d   1       1.030  -0.759   1.117  0.00  0.00     0.003 A 
ATOM      3  C3  I4B d   1       0.996  -0.446   2.497  0.00  0.00     0.002 A 
ATOM      4  C4  I4B d   1      -0.106   0.201   3.020  0.00  0.00    -0.004 A 
ATOM      5  C5  I4B d   1      -1.204   0.475   2.211  0.00  0.00     0.002 A 
ATOM      6  C6  I4B d   1      -1.180   0.129   0.852  0.00  0.00     0.003 A 
ENDROOT
BRANCH   1   7
ATOM      7  C1' I4B d   1       0.037  -0.781  -1.145  0.00  0.00     0.060 C 
BRANCH   7   8
ATOM      8  C2' I4B d   1       0.756   0.363  -1.829  0.00  0.00    -0.013 C 
ATOM      9  C4' I4B d   1       1.021   0.052  -3.278  0.00  0.00     0.013 C 
ATOM     10  C3' I4B d   1      -0.090   1.593  -1.686  0.00  0.00     0.013 C 
ENDBRANCH   7   8
ENDBRANCH   1   7
TORSDOF 2
ENDMDL
