MODEL 1
REMARK minimizedAffinity -4.50410986
REMARK minimizedRMSD -1
REMARK  2 active torsions:
REMARK  status: ('A' for Active; 'I' for Inactive)
REMARK    1  A    between atoms: C2'_3  and  C1'_4 
REMARK    2  A    between atoms: C1'_4  and  C1_5 
ROOT
ATOM      1  C1  I4B d   1      -0.292   0.612   1.718  0.00  0.00    -0.075 A 
ATOM      2  C2  I4B d   1       0.772   0.347   0.894  0.00  0.00     0.003 A 
ATOM      3  C3  I4B d   1       0.581  -0.383  -0.305  0.00  0.00     0.002 A 
ATOM      4  C4  I4B d   1      -0.674  -0.868  -0.612  0.00  0.00    -0.004 A 
ATOM      5  C5  I4B d   1      -1.756  -0.579   0.214  0.00  0.00     0.002 A 
ATOM      6  C6  I4B d   1      -1.567   0.177   1.381  0.00  0.00     0.003 A 
ENDROOT
BRANCH   1   7
ATOM      7  C1' I4B d   1      -0.049   1.357   2.993  0.00  0.00     0.060 C 
BRANCH   7   8
ATOM      8  C2' I4B d   1       0.872   0.518   3.855  0.00  0.00    -0.013 C 
ATOM      9  C4' I4B d   1       0.432  -0.922   3.881  0.00  0.00     0.013 C 
ATOM     10  C3' I4B d   1       2.263   0.650   3.311  0.00  0.00     0.013 C 
ENDBRANCH   7   8
ENDBRANCH   1   7
TORSDOF 2
ENDMDL
