MODEL 1
REMARK minimizedAffinity -4.36886883
REMARK minimizedRMSD -1
REMARK  2 active torsions:
REMARK  status: ('A' for Active; 'I' for Inactive)
REMARK    1  A    between atoms: C2'_3  and  C1'_4 
REMARK    2  A    between atoms: C1'_4  and  C1_5 
ROOT
ATOM      1  C1  I4B d   1       1.926   0.580   2.332  0.00  0.00    -0.075 A 
ATOM      2  C2  I4B d   1       1.783   0.202   3.644  0.00  0.00     0.003 A 
ATOM      3  C3  I4B d   1       0.510  -0.162   4.147  0.00  0.00     0.002 A 
ATOM      4  C4  I4B d   1      -0.593  -0.087   3.321  0.00  0.00    -0.004 A 
ATOM      5  C5  I4B d   1      -0.443   0.274   1.986  0.00  0.00     0.002 A 
ATOM      6  C6  I4B d   1       0.826   0.598   1.484  0.00  0.00     0.003 A 
ENDROOT
BRANCH   1   7
ATOM      7  C1' I4B d   1       3.279   0.990   1.844  0.00  0.00     0.060 C 
BRANCH   7   8
ATOM      8  C2' I4B d   1       3.838   2.008   2.817  0.00  0.00    -0.013 C 
ATOM      9  C4' I4B d   1       5.119   1.520   3.440  0.00  0.00     0.013 C 
ATOM     10  C3' I4B d   1       4.052   3.291   2.072  0.00  0.00     0.013 C 
ENDBRANCH   7   8
ENDBRANCH   1   7
TORSDOF 2
ENDMDL
