MODEL 1
REMARK minimizedAffinity 13.2204285
REMARK minimizedRMSD -1
REMARK  0 active torsions:
REMARK  status: ('A' for Active; 'I' for Inactive)
ROOT
ATOM      1  C   UNL d   1      -5.867  -5.999  -2.239  0.00  0.00     0.077 C 
ATOM      2  C1  UNL d   1      -5.167  -5.526  -1.000  0.00  0.00    -0.074 A 
ATOM      3  C2  UNL d   1      -3.893  -5.998  -0.669  0.00  0.00    -0.005 A 
ATOM      4  C3  UNL d   1      -3.251  -5.542   0.482  0.00  0.00     0.006 A 
ATOM      5  C4  UNL d   1      -3.875  -4.610   1.312  0.00  0.00    -0.005 A 
ATOM      6  C5  UNL d   1      -5.149  -4.126   0.997  0.00  0.00    -0.074 A 
ATOM      7  C6  UNL d   1      -5.830  -3.117   1.873  0.00  0.00     0.077 C 
ATOM      8  C7  UNL d   1      -5.785  -4.584  -0.165  0.00  0.00    -0.001 A 
ENDROOT
TORSDOF 0
ENDMDL
