MODEL 1
REMARK minimizedAffinity 19.1874619
REMARK minimizedRMSD -1
REMARK  0 active torsions:
REMARK  status: ('A' for Active; 'I' for Inactive)
ROOT
ATOM      1  C   UNL d   1       3.143   0.442   1.154  0.00  0.00     0.077 C 
ATOM      2  C1  UNL d   1       3.768  -0.008  -0.133  0.00  0.00    -0.074 A 
ATOM      3  C2  UNL d   1       4.369  -1.267  -0.238  0.00  0.00    -0.005 A 
ATOM      4  C3  UNL d   1       4.938  -1.675  -1.444  0.00  0.00     0.006 A 
ATOM      5  C4  UNL d   1       4.912  -0.831  -2.555  0.00  0.00    -0.005 A 
ATOM      6  C5  UNL d   1       4.315   0.430  -2.469  0.00  0.00    -0.074 A 
ATOM      7  C6  UNL d   1       4.270   1.346  -3.656  0.00  0.00     0.077 C 
ATOM      8  C7  UNL d   1       3.739   0.831  -1.255  0.00  0.00    -0.001 A 
ENDROOT
TORSDOF 0
ENDMDL
