MODEL 1
REMARK minimizedAffinity 13.5000401
REMARK minimizedRMSD -1
REMARK  0 active torsions:
REMARK  status: ('A' for Active; 'I' for Inactive)
ROOT
ATOM      1  C   UNL d   1       0.978   5.471  -0.067  0.00  0.00     0.077 C 
ATOM      2  C1  UNL d   1       0.801   4.053  -0.523  0.00  0.00    -0.074 A 
ATOM      3  C2  UNL d   1      -0.141   3.726  -1.503  0.00  0.00    -0.005 A 
ATOM      4  C3  UNL d   1      -0.288   2.404  -1.924  0.00  0.00     0.006 A 
ATOM      5  C4  UNL d   1       0.505   1.398  -1.371  0.00  0.00    -0.005 A 
ATOM      6  C5  UNL d   1       1.454   1.707  -0.390  0.00  0.00    -0.074 A 
ATOM      7  C6  UNL d   1       2.321   0.639   0.208  0.00  0.00     0.077 C 
ATOM      8  C7  UNL d   1       1.600   3.038   0.023  0.00  0.00    -0.001 A 
ENDROOT
TORSDOF 0
ENDMDL
