MODEL 1
REMARK minimizedAffinity 9.74157333
REMARK minimizedRMSD -1
REMARK  0 active torsions:
REMARK  status: ('A' for Active; 'I' for Inactive)
ROOT
ATOM      1  C   UNL d   1       0.337   2.631  -1.434  0.00  0.00     0.077 C 
ATOM      2  C1  UNL d   1      -0.980   3.062  -2.007  0.00  0.00    -0.074 A 
ATOM      3  C2  UNL d   1      -2.112   3.184  -1.195  0.00  0.00    -0.005 A 
ATOM      4  C3  UNL d   1      -3.328   3.595  -1.741  0.00  0.00     0.006 A 
ATOM      5  C4  UNL d   1      -3.425   3.887  -3.102  0.00  0.00    -0.005 A 
ATOM      6  C5  UNL d   1      -2.303   3.772  -3.929  0.00  0.00    -0.074 A 
ATOM      7  C6  UNL d   1      -2.387   4.092  -5.392  0.00  0.00     0.077 C 
ATOM      8  C7  UNL d   1      -1.083   3.365  -3.372  0.00  0.00    -0.001 A 
ENDROOT
TORSDOF 0
ENDMDL
