MODEL 1
REMARK minimizedAffinity 8.62130833
REMARK minimizedRMSD -1
REMARK  0 active torsions:
REMARK  status: ('A' for Active; 'I' for Inactive)
ROOT
ATOM      1  C   UNL d   1      -5.183   4.504  -0.457  0.00  0.00     0.077 C 
ATOM      2  C1  UNL d   1      -4.154   4.163  -1.493  0.00  0.00    -0.074 A 
ATOM      3  C2  UNL d   1      -3.921   2.835  -1.865  0.00  0.00    -0.005 A 
ATOM      4  C3  UNL d   1      -2.967   2.533  -2.837  0.00  0.00     0.006 A 
ATOM      5  C4  UNL d   1      -2.238   3.555  -3.446  0.00  0.00    -0.005 A 
ATOM      6  C5  UNL d   1      -2.457   4.889  -3.088  0.00  0.00    -0.074 A 
ATOM      7  C6  UNL d   1      -1.689   5.999  -3.740  0.00  0.00     0.077 C 
ATOM      8  C7  UNL d   1      -3.422   5.184  -2.115  0.00  0.00    -0.001 A 
ENDROOT
TORSDOF 0
ENDMDL
