MODEL 1
REMARK minimizedAffinity 16.3890553
REMARK minimizedRMSD -1
REMARK  0 active torsions:
REMARK  status: ('A' for Active; 'I' for Inactive)
ROOT
ATOM      1  C   UNL d   1      -2.241   1.598  -2.586  0.00  0.00     0.077 C 
ATOM      2  C1  UNL d   1      -2.693   3.011  -2.366  0.00  0.00    -0.074 A 
ATOM      3  C2  UNL d   1      -1.995   4.084  -2.931  0.00  0.00    -0.005 A 
ATOM      4  C3  UNL d   1      -2.432   5.393  -2.726  0.00  0.00     0.006 A 
ATOM      5  C4  UNL d   1      -3.569   5.641  -1.956  0.00  0.00    -0.005 A 
ATOM      6  C5  UNL d   1      -4.280   4.581  -1.385  0.00  0.00    -0.074 A 
ATOM      7  C6  UNL d   1      -5.509   4.831  -0.563  0.00  0.00     0.077 C 
ATOM      8  C7  UNL d   1      -3.838   3.269  -1.601  0.00  0.00    -0.001 A 
ENDROOT
TORSDOF 0
ENDMDL
