MODEL 1
REMARK minimizedAffinity 13.8589373
REMARK minimizedRMSD -1
REMARK  0 active torsions:
REMARK  status: ('A' for Active; 'I' for Inactive)
ROOT
ATOM      1  C   UNL d   1      -4.159   2.867  -1.493  0.00  0.00     0.077 C 
ATOM      2  C1  UNL d   1      -3.482   3.801  -2.452  0.00  0.00    -0.074 A 
ATOM      3  C2  UNL d   1      -3.189   5.118  -2.086  0.00  0.00    -0.005 A 
ATOM      4  C3  UNL d   1      -2.551   5.973  -2.984  0.00  0.00     0.006 A 
ATOM      5  C4  UNL d   1      -2.200   5.519  -4.256  0.00  0.00    -0.005 A 
ATOM      6  C5  UNL d   1      -2.484   4.205  -4.640  0.00  0.00    -0.074 A 
ATOM      7  C6  UNL d   1      -2.104   3.698  -6.000  0.00  0.00     0.077 C 
ATOM      8  C7  UNL d   1      -3.119   3.350  -3.729  0.00  0.00    -0.001 A 
ENDROOT
TORSDOF 0
ENDMDL
