MODEL 1
REMARK minimizedAffinity 18.5850163
REMARK minimizedRMSD -1
REMARK  0 active torsions:
REMARK  status: ('A' for Active; 'I' for Inactive)
ROOT
ATOM      1  C   UNL d   1       2.115   0.398   5.581  0.00  0.00     0.077 C 
ATOM      2  C1  UNL d   1       2.277   0.107   4.119  0.00  0.00    -0.074 A 
ATOM      3  C2  UNL d   1       3.390   0.575   3.412  0.00  0.00    -0.005 A 
ATOM      4  C3  UNL d   1       3.532   0.288   2.054  0.00  0.00     0.006 A 
ATOM      5  C4  UNL d   1       2.564  -0.468   1.391  0.00  0.00    -0.005 A 
ATOM      6  C5  UNL d   1       1.445  -0.944   2.081  0.00  0.00    -0.074 A 
ATOM      7  C6  UNL d   1       0.401  -1.766   1.385  0.00  0.00     0.077 C 
ATOM      8  C7  UNL d   1       1.313  -0.658   3.447  0.00  0.00    -0.001 A 
ENDROOT
TORSDOF 0
ENDMDL
