MODEL 1
REMARK minimizedAffinity 9.91011047
REMARK minimizedRMSD -1
REMARK  0 active torsions:
REMARK  status: ('A' for Active; 'I' for Inactive)
ROOT
ATOM      1  C   UNL d   1      -0.384  -1.099   3.407  0.00  0.00     0.077 C 
ATOM      2  C1  UNL d   1       0.736  -1.291   2.427  0.00  0.00    -0.074 A 
ATOM      3  C2  UNL d   1       1.080  -2.568   1.971  0.00  0.00    -0.005 A 
ATOM      4  C3  UNL d   1       2.117  -2.730   1.053  0.00  0.00     0.006 A 
ATOM      5  C4  UNL d   1       2.820  -1.620   0.582  0.00  0.00    -0.005 A 
ATOM      6  C5  UNL d   1       2.489  -0.336   1.026  0.00  0.00    -0.074 A 
ATOM      7  C6  UNL d   1       3.227   0.869   0.523  0.00  0.00     0.077 C 
ATOM      8  C7  UNL d   1       1.441  -0.180   1.944  0.00  0.00    -0.001 A 
ENDROOT
TORSDOF 0
ENDMDL
