MODEL 1
REMARK minimizedAffinity 6.01300001
REMARK minimizedRMSD -1
REMARK  0 active torsions:
REMARK  status: ('A' for Active; 'I' for Inactive)
ROOT
ATOM      1  C   UNL d   1      -1.716  -3.776   2.340  0.00  0.00     0.077 C 
ATOM      2  C1  UNL d   1      -0.798  -2.620   2.603  0.00  0.00    -0.074 A 
ATOM      3  C2  UNL d   1      -1.109  -1.662   3.574  0.00  0.00    -0.005 A 
ATOM      4  C3  UNL d   1      -0.240  -0.597   3.814  0.00  0.00     0.006 A 
ATOM      5  C4  UNL d   1       0.945  -0.480   3.088  0.00  0.00    -0.005 A 
ATOM      6  C5  UNL d   1       1.273  -1.428   2.114  0.00  0.00    -0.074 A 
ATOM      7  C6  UNL d   1       2.548  -1.322   1.331  0.00  0.00     0.077 C 
ATOM      8  C7  UNL d   1       0.399  -2.499   1.883  0.00  0.00    -0.001 A 
ENDROOT
TORSDOF 0
ENDMDL
