MODEL 1
REMARK minimizedAffinity 7.42885923
REMARK minimizedRMSD -1
REMARK  0 active torsions:
REMARK  status: ('A' for Active; 'I' for Inactive)
ROOT
ATOM      1  C   UNL d   1       2.151  -1.507   1.322  0.00  0.00     0.077 C 
ATOM      2  C1  UNL d   1       0.964  -1.540   2.239  0.00  0.00    -0.074 A 
ATOM      3  C2  UNL d   1       0.850  -0.636   3.300  0.00  0.00    -0.005 A 
ATOM      4  C3  UNL d   1      -0.264  -0.673   4.138  0.00  0.00     0.006 A 
ATOM      5  C4  UNL d   1      -1.273  -1.613   3.925  0.00  0.00    -0.005 A 
ATOM      6  C5  UNL d   1      -1.177  -2.524   2.869  0.00  0.00    -0.074 A 
ATOM      7  C6  UNL d   1      -2.257  -3.535   2.620  0.00  0.00     0.077 C 
ATOM      8  C7  UNL d   1      -0.058  -2.476   2.026  0.00  0.00    -0.001 A 
ENDROOT
TORSDOF 0
ENDMDL
