MODEL 1
REMARK minimizedAffinity 11.0684395
REMARK minimizedRMSD -1
REMARK  0 active torsions:
REMARK  status: ('A' for Active; 'I' for Inactive)
ROOT
ATOM      1  C   UNL d   1      -2.169  -3.097   2.402  0.00  0.00     0.077 C 
ATOM      2  C1  UNL d   1      -0.989  -2.179   2.528  0.00  0.00    -0.074 A 
ATOM      3  C2  UNL d   1      -1.008  -1.103   3.422  0.00  0.00    -0.005 A 
ATOM      4  C3  UNL d   1       0.100  -0.263   3.536  0.00  0.00     0.006 A 
ATOM      5  C4  UNL d   1       1.236  -0.490   2.758  0.00  0.00    -0.005 A 
ATOM      6  C5  UNL d   1       1.274  -1.562   1.859  0.00  0.00    -0.074 A 
ATOM      7  C6  UNL d   1       2.490  -1.825   1.023  0.00  0.00     0.077 C 
ATOM      8  C7  UNL d   1       0.159  -2.405   1.756  0.00  0.00    -0.001 A 
ENDROOT
TORSDOF 0
ENDMDL
