MODEL 1
REMARK minimizedAffinity 6.3082428
REMARK minimizedRMSD -1
REMARK  0 active torsions:
REMARK  status: ('A' for Active; 'I' for Inactive)
ROOT
ATOM      1  C   UNL d   1      -2.549   3.294  -6.000  0.00  0.00     0.077 C 
ATOM      2  C1  UNL d   1      -2.678   4.025  -4.696  0.00  0.00    -0.074 A 
ATOM      3  C2  UNL d   1      -2.192   5.328  -4.552  0.00  0.00    -0.005 A 
ATOM      4  C3  UNL d   1      -2.327   5.999  -3.336  0.00  0.00     0.006 A 
ATOM      5  C4  UNL d   1      -2.949   5.374  -2.255  0.00  0.00    -0.005 A 
ATOM      6  C5  UNL d   1      -3.442   4.071  -2.380  0.00  0.00    -0.074 A 
ATOM      7  C6  UNL d   1      -4.122   3.388  -1.231  0.00  0.00     0.077 C 
ATOM      8  C7  UNL d   1      -3.308   3.407  -3.607  0.00  0.00    -0.001 A 
ENDROOT
TORSDOF 0
ENDMDL
