MODEL 1
REMARK minimizedAffinity 8.94937801
REMARK minimizedRMSD -1
REMARK  0 active torsions:
REMARK  status: ('A' for Active; 'I' for Inactive)
ROOT
ATOM      1  C   UNL d   1      -5.255   4.395  -0.328  0.00  0.00     0.077 C 
ATOM      2  C1  UNL d   1      -4.077   4.491  -1.251  0.00  0.00    -0.074 A 
ATOM      3  C2  UNL d   1      -3.655   5.727  -1.752  0.00  0.00    -0.005 A 
ATOM      4  C3  UNL d   1      -2.552   5.802  -2.602  0.00  0.00     0.006 A 
ATOM      5  C4  UNL d   1      -1.861   4.644  -2.961  0.00  0.00    -0.005 A 
ATOM      6  C5  UNL d   1      -2.268   3.399  -2.469  0.00  0.00    -0.074 A 
ATOM      7  C6  UNL d   1      -1.531   2.146  -2.836  0.00  0.00     0.077 C 
ATOM      8  C7  UNL d   1      -3.373   3.333  -1.609  0.00  0.00    -0.001 A 
ENDROOT
TORSDOF 0
ENDMDL
