MODEL 1
REMARK minimizedAffinity 2.5394218
REMARK minimizedRMSD -1
REMARK  0 active torsions:
REMARK  status: ('A' for Active; 'I' for Inactive)
ROOT
ATOM      1  C   UNL d   1       1.436  -1.234   1.922  0.00  0.00     0.077 C 
ATOM      2  C1  UNL d   1       0.136  -1.604   2.572  0.00  0.00    -0.074 A 
ATOM      3  C2  UNL d   1      -0.668  -2.619   2.044  0.00  0.00    -0.005 A 
ATOM      4  C3  UNL d   1      -1.870  -2.958   2.665  0.00  0.00     0.006 A 
ATOM      5  C4  UNL d   1      -2.280  -2.287   3.818  0.00  0.00    -0.005 A 
ATOM      6  C5  UNL d   1      -1.488  -1.270   4.361  0.00  0.00    -0.074 A 
ATOM      7  C6  UNL d   1      -1.908  -0.545   5.605  0.00  0.00     0.077 C 
ATOM      8  C7  UNL d   1      -0.278  -0.939   3.735  0.00  0.00    -0.001 A 
ENDROOT
TORSDOF 0
ENDMDL
