MODEL 1
REMARK minimizedAffinity 13.4749966
REMARK minimizedRMSD -1
REMARK  0 active torsions:
REMARK  status: ('A' for Active; 'I' for Inactive)
ROOT
ATOM      1  C   UNL d   1      -1.183   6.000  -3.188  0.00  0.00     0.077 C 
ATOM      2  C1  UNL d   1      -2.024   4.805  -2.849  0.00  0.00    -0.074 A 
ATOM      3  C2  UNL d   1      -1.772   3.560  -3.433  0.00  0.00    -0.005 A 
ATOM      4  C3  UNL d   1      -2.557   2.456  -3.101  0.00  0.00     0.006 A 
ATOM      5  C4  UNL d   1      -3.601   2.586  -2.184  0.00  0.00    -0.005 A 
ATOM      6  C5  UNL d   1      -3.868   3.823  -1.590  0.00  0.00    -0.074 A 
ATOM      7  C6  UNL d   1      -4.980   3.978  -0.596  0.00  0.00     0.077 C 
ATOM      8  C7  UNL d   1      -3.070   4.927  -1.923  0.00  0.00    -0.001 A 
ENDROOT
TORSDOF 0
ENDMDL
