MODEL 1
REMARK minimizedAffinity 10.6951113
REMARK minimizedRMSD -1
REMARK  0 active torsions:
REMARK  status: ('A' for Active; 'I' for Inactive)
ROOT
ATOM      1  C   UNL d   1      -2.420  -3.184   3.329  0.00  0.00     0.077 C 
ATOM      2  C1  UNL d   1      -1.189  -2.337   3.203  0.00  0.00    -0.074 A 
ATOM      3  C2  UNL d   1      -0.983  -1.238   4.043  0.00  0.00    -0.005 A 
ATOM      4  C3  UNL d   1       0.171  -0.465   3.920  0.00  0.00     0.006 A 
ATOM      5  C4  UNL d   1       1.131  -0.783   2.958  0.00  0.00    -0.005 A 
ATOM      6  C5  UNL d   1       0.943  -1.879   2.110  0.00  0.00    -0.074 A 
ATOM      7  C6  UNL d   1       1.969  -2.240   1.077  0.00  0.00     0.077 C 
ATOM      8  C7  UNL d   1      -0.217  -2.655   2.244  0.00  0.00    -0.001 A 
ENDROOT
TORSDOF 0
ENDMDL
