MODEL 1
REMARK minimizedAffinity 12.5052347
REMARK minimizedRMSD -1
REMARK  0 active torsions:
REMARK  status: ('A' for Active; 'I' for Inactive)
ROOT
ATOM      1  C   UNL d   1      -1.469   6.000  -4.346  0.00  0.00     0.077 C 
ATOM      2  C1  UNL d   1      -2.188   5.065  -3.419  0.00  0.00    -0.074 A 
ATOM      3  C2  UNL d   1      -3.021   5.554  -2.408  0.00  0.00    -0.005 A 
ATOM      4  C3  UNL d   1      -3.690   4.672  -1.560  0.00  0.00     0.006 A 
ATOM      5  C4  UNL d   1      -3.534   3.294  -1.714  0.00  0.00    -0.005 A 
ATOM      6  C5  UNL d   1      -2.706   2.786  -2.721  0.00  0.00    -0.074 A 
ATOM      7  C6  UNL d   1      -2.535   1.308  -2.907  0.00  0.00     0.077 C 
ATOM      8  C7  UNL d   1      -2.042   3.679  -3.573  0.00  0.00    -0.001 A 
ENDROOT
TORSDOF 0
ENDMDL
