MODEL 1
REMARK minimizedAffinity 1.14454579
REMARK minimizedRMSD -1
REMARK  0 active torsions:
REMARK  status: ('A' for Active; 'I' for Inactive)
ROOT
ATOM      1  O1  BZF d   1       0.753   1.361  -0.435  0.00  0.00    -0.204 OA
ATOM      2  C2  BZF d   1       1.131   2.373   0.427  0.00  0.00     0.174 A 
ATOM      3  C3  BZF d   1       1.972   1.906   1.372  0.00  0.00    -0.012 A 
ATOM      4  C3A BZF d   1       2.203   0.537   1.027  0.00  0.00    -0.107 A 
ATOM      5  C4  BZF d   1       2.964  -0.454   1.578  0.00  0.00     0.055 A 
ATOM      6  C5  BZF d   1       2.913  -1.702   1.042  0.00  0.00    -0.016 A 
ATOM      7  C6  BZF d   1       2.109  -1.994  -0.041  0.00  0.00     0.022 A 
ATOM      8  C7  BZF d   1       1.340  -1.043  -0.624  0.00  0.00     0.029 A 
ATOM      9  C7A BZF d   1       1.415   0.227  -0.105  0.00  0.00     0.058 A 
ENDROOT
TORSDOF 0
ENDMDL
