MODEL 1
REMARK minimizedAffinity 4.22491169
REMARK minimizedRMSD -1
REMARK  0 active torsions:
REMARK  status: ('A' for Active; 'I' for Inactive)
ROOT
ATOM      1  O1  BZF d   1      -0.863   3.090   2.539  0.00  0.00    -0.204 OA
ATOM      2  C2  BZF d   1      -1.550   1.969   2.965  0.00  0.00     0.174 A 
ATOM      3  C3  BZF d   1      -1.164   0.879   2.271  0.00  0.00    -0.012 A 
ATOM      4  C3A BZF d   1      -0.108   1.331   1.417  0.00  0.00    -0.107 A 
ATOM      5  C4  BZF d   1       0.689   0.708   0.500  0.00  0.00     0.055 A 
ATOM      6  C5  BZF d   1       1.574   1.449  -0.217  0.00  0.00    -0.016 A 
ATOM      7  C6  BZF d   1       1.685   2.814  -0.046  0.00  0.00     0.022 A 
ATOM      8  C7  BZF d   1       0.919   3.475   0.855  0.00  0.00     0.029 A 
ATOM      9  C7A BZF d   1       0.047   2.724   1.605  0.00  0.00     0.058 A 
ENDROOT
TORSDOF 0
ENDMDL
