MODEL 1
REMARK minimizedAffinity 5.1571207
REMARK minimizedRMSD -1
REMARK  0 active torsions:
REMARK  status: ('A' for Active; 'I' for Inactive)
ROOT
ATOM      1  O1  BZF d   1       0.612   2.436  -0.224  0.00  0.00    -0.204 OA
ATOM      2  C2  BZF d   1       1.875   2.164   0.265  0.00  0.00     0.174 A 
ATOM      3  C3  BZF d   1       1.812   1.745   1.546  0.00  0.00    -0.012 A 
ATOM      4  C3A BZF d   1       0.416   1.668   1.848  0.00  0.00    -0.107 A 
ATOM      5  C4  BZF d   1      -0.285   1.299   2.961  0.00  0.00     0.055 A 
ATOM      6  C5  BZF d   1      -1.639   1.407   2.954  0.00  0.00    -0.016 A 
ATOM      7  C6  BZF d   1      -2.324   1.883   1.855  0.00  0.00     0.022 A 
ATOM      8  C7  BZF d   1      -1.673   2.257   0.727  0.00  0.00     0.029 A 
ATOM      9  C7A BZF d   1      -0.307   2.118   0.719  0.00  0.00     0.058 A 
ENDROOT
TORSDOF 0
ENDMDL
