MODEL 1
REMARK minimizedAffinity -0.888484478
REMARK minimizedRMSD -1
REMARK  0 active torsions:
REMARK  status: ('A' for Active; 'I' for Inactive)
ROOT
ATOM      1  O1  BZF d   1      -0.475  -4.619  -0.155  0.00  0.00    -0.204 OA
ATOM      2  C2  BZF d   1      -1.459  -4.398  -1.098  0.00  0.00     0.174 A 
ATOM      3  C3  BZF d   1      -1.378  -3.145  -1.591  0.00  0.00    -0.012 A 
ATOM      4  C3A BZF d   1      -0.216  -2.576  -0.980  0.00  0.00    -0.107 A 
ATOM      5  C4  BZF d   1       0.397  -1.360  -1.080  0.00  0.00     0.055 A 
ATOM      6  C5  BZF d   1       1.473  -1.095  -0.293  0.00  0.00    -0.016 A 
ATOM      7  C6  BZF d   1       1.958  -2.020   0.608  0.00  0.00     0.022 A 
ATOM      8  C7  BZF d   1       1.386  -3.242   0.740  0.00  0.00     0.029 A 
ATOM      9  C7A BZF d   1       0.319  -3.524  -0.078  0.00  0.00     0.058 A 
ENDROOT
TORSDOF 0
ENDMDL
