MODEL 1
REMARK minimizedAffinity 3.58454418
REMARK minimizedRMSD -1
REMARK  0 active torsions:
REMARK  status: ('A' for Active; 'I' for Inactive)
ROOT
ATOM      1  O1  BZF d   1       0.116  -0.785  -0.376  0.00  0.00    -0.204 OA
ATOM      2  C2  BZF d   1      -0.882  -1.598  -0.879  0.00  0.00     0.174 A 
ATOM      3  C3  BZF d   1      -0.368  -2.526  -1.712  0.00  0.00    -0.012 A 
ATOM      4  C3A BZF d   1       1.049  -2.337  -1.659  0.00  0.00    -0.107 A 
ATOM      5  C4  BZF d   1       2.103  -2.965  -2.257  0.00  0.00     0.055 A 
ATOM      6  C5  BZF d   1       3.359  -2.489  -2.052  0.00  0.00    -0.016 A 
ATOM      7  C6  BZF d   1       3.596  -1.385  -1.259  0.00  0.00     0.022 A 
ATOM      8  C7  BZF d   1       2.583  -0.731  -0.640  0.00  0.00     0.029 A 
ATOM      9  C7A BZF d   1       1.316  -1.230  -0.820  0.00  0.00     0.058 A 
ENDROOT
TORSDOF 0
ENDMDL
