MODEL 1
REMARK minimizedAffinity 2.77923036
REMARK minimizedRMSD -1
REMARK  0 active torsions:
REMARK  status: ('A' for Active; 'I' for Inactive)
ROOT
ATOM      1  O1  BZF d   1       3.194   1.967  -0.635  0.00  0.00    -0.204 OA
ATOM      2  C2  BZF d   1       4.484   1.839  -1.115  0.00  0.00     0.174 A 
ATOM      3  C3  BZF d   1       4.817   0.540  -1.252  0.00  0.00    -0.012 A 
ATOM      4  C3A BZF d   1       3.632  -0.190  -0.919  0.00  0.00    -0.107 A 
ATOM      5  C4  BZF d   1       3.328  -1.520  -0.882  0.00  0.00     0.055 A 
ATOM      6  C5  BZF d   1       2.100  -1.905  -0.443  0.00  0.00    -0.016 A 
ATOM      7  C6  BZF d   1       1.156  -0.988  -0.030  0.00  0.00     0.022 A 
ATOM      8  C7  BZF d   1       1.410   0.343  -0.053  0.00  0.00     0.029 A 
ATOM      9  C7A BZF d   1       2.638   0.737  -0.527  0.00  0.00     0.058 A 
ENDROOT
TORSDOF 0
ENDMDL
