MODEL 1
REMARK minimizedAffinity -3.39604235
REMARK minimizedRMSD -1
REMARK  0 active torsions:
REMARK  status: ('A' for Active; 'I' for Inactive)
ROOT
ATOM      1  O1  BZF d   1       4.203   0.365  -2.012  0.00  0.00    -0.204 OA
ATOM      2  C2  BZF d   1       3.960   1.088  -0.860  0.00  0.00     0.174 A 
ATOM      3  C3  BZF d   1       3.009   0.492  -0.113  0.00  0.00    -0.012 A 
ATOM      4  C3A BZF d   1       2.699  -0.725  -0.799  0.00  0.00    -0.107 A 
ATOM      5  C4  BZF d   1       1.839  -1.755  -0.542  0.00  0.00     0.055 A 
ATOM      6  C5  BZF d   1       1.723  -2.760  -1.450  0.00  0.00    -0.016 A 
ATOM      7  C6  BZF d   1       2.446  -2.764  -2.625  0.00  0.00     0.022 A 
ATOM      8  C7  BZF d   1       3.314  -1.767  -2.921  0.00  0.00     0.029 A 
ATOM      9  C7A BZF d   1       3.459  -0.767  -1.990  0.00  0.00     0.058 A 
ENDROOT
TORSDOF 0
ENDMDL
