MODEL 1
REMARK minimizedAffinity 6.94468164
REMARK minimizedRMSD -1
REMARK  1 active torsions:
REMARK  status: ('A' for Active; 'I' for Inactive)
REMARK    1  A    between atoms: C1_2  and  C2_3 
ROOT
ATOM      1  C2  UNL d   1       0.708   0.918   1.867  0.00  0.00    -0.076 A 
ATOM      2  C3  UNL d   1       1.690   0.149   2.516  0.00  0.00     0.004 A 
ATOM      3  C4  UNL d   1       1.894  -1.187   2.177  0.00  0.00    -0.003 A 
ATOM      4  C5  UNL d   1       1.121  -1.776   1.183  0.00  0.00     0.000 A 
ATOM      5  C6  UNL d   1       0.155  -1.024   0.516  0.00  0.00     0.000 A 
ATOM      6  C7  UNL d   1      -0.053   0.330   0.834  0.00  0.00    -0.073 A 
ATOM      7  C8  UNL d   1      -1.112   1.092   0.087  0.00  0.00     0.078 C 
ENDROOT
BRANCH   1   8
ATOM      8  C1  UNL d   1       0.513   2.355   2.295  0.00  0.00     0.053 C 
ATOM      9  C   UNL d   1       1.559   2.810   3.301  0.00  0.00     0.018 C 
ENDBRANCH   1   8
TORSDOF 1
ENDMDL
