MODEL 1
REMARK minimizedAffinity 5.54710245
REMARK minimizedRMSD -1
REMARK  1 active torsions:
REMARK  status: ('A' for Active; 'I' for Inactive)
REMARK    1  A    between atoms: C1_2  and  C2_3 
ROOT
ATOM      1  C2  UNL d   1       0.211   1.142   1.931  0.00  0.00    -0.076 A 
ATOM      2  C3  UNL d   1      -0.169   1.549   0.640  0.00  0.00     0.004 A 
ATOM      3  C4  UNL d   1      -0.198   0.643  -0.418  0.00  0.00    -0.003 A 
ATOM      4  C5  UNL d   1       0.152  -0.685  -0.204  0.00  0.00     0.000 A 
ATOM      5  C6  UNL d   1       0.514  -1.111   1.074  0.00  0.00     0.000 A 
ATOM      6  C7  UNL d   1       0.533  -0.214   2.156  0.00  0.00    -0.073 A 
ATOM      7  C8  UNL d   1       0.938  -0.726   3.511  0.00  0.00     0.078 C 
ENDROOT
BRANCH   1   8
ATOM      8  C1  UNL d   1       0.250   2.175   3.035  0.00  0.00     0.053 C 
ATOM      9  C   UNL d   1       1.465   3.085   2.938  0.00  0.00     0.018 C 
ENDBRANCH   1   8
TORSDOF 1
ENDMDL
