MODEL 1
REMARK minimizedAffinity 0.246879205
REMARK minimizedRMSD -1
REMARK  1 active torsions:
REMARK  status: ('A' for Active; 'I' for Inactive)
REMARK    1  A    between atoms: C1_2  and  C2_3 
ROOT
ATOM      1  C2  UNL d   1       0.073   0.808   0.986  0.00  0.00    -0.076 A 
ATOM      2  C3  UNL d   1      -0.675   1.030  -0.183  0.00  0.00     0.004 A 
ATOM      3  C4  UNL d   1      -0.400   0.327  -1.355  0.00  0.00    -0.003 A 
ATOM      4  C5  UNL d   1       0.627  -0.610  -1.376  0.00  0.00     0.000 A 
ATOM      5  C6  UNL d   1       1.368  -0.855  -0.220  0.00  0.00     0.000 A 
ATOM      6  C7  UNL d   1       1.093  -0.167   0.974  0.00  0.00    -0.073 A 
ATOM      7  C8  UNL d   1       1.927  -0.468   2.189  0.00  0.00     0.078 C 
ENDROOT
BRANCH   1   8
ATOM      8  C1  UNL d   1      -0.254   1.619   2.220  0.00  0.00     0.053 C 
ATOM      9  C   UNL d   1       0.570   2.895   2.313  0.00  0.00     0.018 C 
ENDBRANCH   1   8
TORSDOF 1
ENDMDL
