MODEL 1
REMARK minimizedAffinity 2.78495383
REMARK minimizedRMSD -1
REMARK  1 active torsions:
REMARK  status: ('A' for Active; 'I' for Inactive)
REMARK    1  A    between atoms: C1_2  and  C2_3 
ROOT
ATOM      1  C2  UNL d   1      -1.977   0.279  -0.616  0.00  0.00    -0.076 A 
ATOM      2  C3  UNL d   1      -0.576   0.354  -0.702  0.00  0.00     0.004 A 
ATOM      3  C4  UNL d   1       0.193   0.710   0.405  0.00  0.00    -0.003 A 
ATOM      4  C5  UNL d   1      -0.427   0.997   1.616  0.00  0.00     0.000 A 
ATOM      5  C6  UNL d   1      -1.815   0.911   1.724  0.00  0.00     0.000 A 
ATOM      6  C7  UNL d   1      -2.603   0.537   0.622  0.00  0.00    -0.073 A 
ATOM      7  C8  UNL d   1      -4.096   0.466   0.793  0.00  0.00     0.078 C 
ENDROOT
BRANCH   1   8
ATOM      8  C1  UNL d   1      -2.760  -0.086  -1.857  0.00  0.00     0.053 C 
ATOM      9  C   UNL d   1      -2.038  -1.107  -2.722  0.00  0.00     0.018 C 
ENDBRANCH   1   8
TORSDOF 1
ENDMDL
