MODEL 1
REMARK minimizedAffinity -5.84678221
REMARK minimizedRMSD -1
REMARK  0 active torsions:
REMARK  status: ('A' for Active; 'I' for Inactive)
ROOT
ATOM      1  C   UNL d   1      -0.501   0.370  -0.238  0.00  0.00     0.077 C 
ATOM      2  C1  UNL d   1       0.848   0.090   0.355  0.00  0.00    -0.074 A 
ATOM      3  C2  UNL d   1       2.003   0.671  -0.180  0.00  0.00    -0.005 A 
ATOM      4  C3  UNL d   1       3.250   0.409   0.388  0.00  0.00     0.006 A 
ATOM      5  C4  UNL d   1       3.355  -0.435   1.494  0.00  0.00    -0.005 A 
ATOM      6  C5  UNL d   1       2.211  -1.023   2.044  0.00  0.00    -0.074 A 
ATOM      7  C6  UNL d   1       2.305  -1.925   3.239  0.00  0.00     0.077 C 
ATOM      8  C7  UNL d   1       0.961  -0.750   1.472  0.00  0.00    -0.001 A 
ENDROOT
TORSDOF 0
ENDMDL
