MODEL 1
REMARK minimizedAffinity -2.356076
REMARK minimizedRMSD -1
REMARK  0 active torsions:
REMARK  status: ('A' for Active; 'I' for Inactive)
ROOT
ATOM      1  C   UNL d   1      -1.764   0.931  -0.856  0.00  0.00     0.077 C 
ATOM      2  C1  UNL d   1      -0.844   0.105  -0.006  0.00  0.00    -0.074 A 
ATOM      3  C2  UNL d   1      -1.319  -1.010   0.691  0.00  0.00    -0.005 A 
ATOM      4  C3  UNL d   1      -0.450  -1.774   1.470  0.00  0.00     0.006 A 
ATOM      5  C4  UNL d   1       0.900  -1.431   1.559  0.00  0.00    -0.005 A 
ATOM      6  C5  UNL d   1       1.393  -0.320   0.868  0.00  0.00    -0.074 A 
ATOM      7  C6  UNL d   1       2.842   0.057   0.945  0.00  0.00     0.077 C 
ATOM      8  C7  UNL d   1       0.515   0.439   0.082  0.00  0.00    -0.001 A 
ENDROOT
TORSDOF 0
ENDMDL
