MODEL 1
REMARK minimizedAffinity -3.22321033
REMARK minimizedRMSD -1
REMARK  0 active torsions:
REMARK  status: ('A' for Active; 'I' for Inactive)
ROOT
ATOM      1  C   UNL d   1       3.072  -0.336   0.014  0.00  0.00     0.077 C 
ATOM      2  C1  UNL d   1       1.588  -0.195   0.179  0.00  0.00    -0.074 A 
ATOM      3  C2  UNL d   1       1.041   0.303   1.366  0.00  0.00    -0.005 A 
ATOM      4  C3  UNL d   1      -0.341   0.437   1.502  0.00  0.00     0.006 A 
ATOM      5  C4  UNL d   1      -1.188   0.076   0.454  0.00  0.00    -0.005 A 
ATOM      6  C5  UNL d   1      -0.659  -0.422  -0.741  0.00  0.00    -0.074 A 
ATOM      7  C6  UNL d   1      -1.556  -0.805  -1.881  0.00  0.00     0.077 C 
ATOM      8  C7  UNL d   1       0.730  -0.547  -0.872  0.00  0.00    -0.001 A 
ENDROOT
TORSDOF 0
ENDMDL
