MODEL 1
REMARK minimizedAffinity -1.82370818
REMARK minimizedRMSD -1
REMARK  0 active torsions:
REMARK  status: ('A' for Active; 'I' for Inactive)
ROOT
ATOM      1  C   UNL d   1      -0.836   0.056   0.161  0.00  0.00     0.077 C 
ATOM      2  C1  UNL d   1      -1.413   0.139  -1.221  0.00  0.00    -0.074 A 
ATOM      3  C2  UNL d   1      -1.445  -0.982  -2.056  0.00  0.00    -0.005 A 
ATOM      4  C3  UNL d   1      -1.994  -0.892  -3.335  0.00  0.00     0.006 A 
ATOM      5  C4  UNL d   1      -2.516   0.319  -3.791  0.00  0.00    -0.005 A 
ATOM      6  C5  UNL d   1      -2.494   1.451  -2.970  0.00  0.00    -0.074 A 
ATOM      7  C6  UNL d   1      -3.059   2.758  -3.442  0.00  0.00     0.077 C 
ATOM      8  C7  UNL d   1      -1.947   1.350  -1.684  0.00  0.00    -0.001 A 
ENDROOT
TORSDOF 0
ENDMDL
