MODEL 1
REMARK minimizedAffinity -5.31243515
REMARK minimizedRMSD -1
REMARK  0 active torsions:
REMARK  status: ('A' for Active; 'I' for Inactive)
ROOT
ATOM      1  C   UNL d   1      -1.273   0.031  -0.643  0.00  0.00     0.077 C 
ATOM      2  C1  UNL d   1       0.069   0.153   0.015  0.00  0.00    -0.074 A 
ATOM      3  C2  UNL d   1       0.757   1.370   0.025  0.00  0.00    -0.005 A 
ATOM      4  C3  UNL d   1       2.000   1.470   0.650  0.00  0.00     0.006 A 
ATOM      5  C4  UNL d   1       2.567   0.356   1.270  0.00  0.00    -0.005 A 
ATOM      6  C5  UNL d   1       1.893  -0.870   1.271  0.00  0.00    -0.074 A 
ATOM      7  C6  UNL d   1       2.483  -2.075   1.941  0.00  0.00     0.077 C 
ATOM      8  C7  UNL d   1       0.641  -0.960   0.647  0.00  0.00    -0.001 A 
ENDROOT
TORSDOF 0
ENDMDL
