MODEL 1
REMARK minimizedAffinity -6.56233025
REMARK minimizedRMSD -1
REMARK  0 active torsions:
REMARK  status: ('A' for Active; 'I' for Inactive)
ROOT
ATOM      1  C   UNL d   1      -0.832   0.555  -0.494  0.00  0.00     0.077 C 
ATOM      2  C1  UNL d   1       0.498   0.489   0.198  0.00  0.00    -0.074 A 
ATOM      3  C2  UNL d   1       1.392  -0.554  -0.062  0.00  0.00    -0.005 A 
ATOM      4  C3  UNL d   1       2.629  -0.597   0.581  0.00  0.00     0.006 A 
ATOM      5  C4  UNL d   1       2.983   0.402   1.489  0.00  0.00    -0.005 A 
ATOM      6  C5  UNL d   1       2.102   1.453   1.761  0.00  0.00    -0.074 A 
ATOM      7  C6  UNL d   1       2.471   2.540   2.727  0.00  0.00     0.077 C 
ATOM      8  C7  UNL d   1       0.864   1.493   1.105  0.00  0.00    -0.001 A 
ENDROOT
TORSDOF 0
ENDMDL
