MODEL 1
REMARK minimizedAffinity -3.70241833
REMARK minimizedRMSD -1
REMARK  0 active torsions:
REMARK  status: ('A' for Active; 'I' for Inactive)
ROOT
ATOM      1  C   UNL d   1       2.881   0.203   0.566  0.00  0.00     0.077 C 
ATOM      2  C1  UNL d   1       1.471  -0.301   0.649  0.00  0.00    -0.074 A 
ATOM      3  C2  UNL d   1       1.160  -1.449   1.385  0.00  0.00    -0.005 A 
ATOM      4  C3  UNL d   1      -0.158  -1.900   1.461  0.00  0.00     0.006 A 
ATOM      5  C4  UNL d   1      -1.176  -1.209   0.803  0.00  0.00    -0.005 A 
ATOM      6  C5  UNL d   1      -0.884  -0.059   0.063  0.00  0.00    -0.074 A 
ATOM      7  C6  UNL d   1      -1.968   0.701  -0.642  0.00  0.00     0.077 C 
ATOM      8  C7  UNL d   1       0.441   0.392  -0.003  0.00  0.00    -0.001 A 
ENDROOT
TORSDOF 0
ENDMDL
