MODEL 1
REMARK minimizedAffinity -2.43573666
REMARK minimizedRMSD -1
REMARK  0 active torsions:
REMARK  status: ('A' for Active; 'I' for Inactive)
ROOT
ATOM      1  C   UNL d   1      -1.174  -2.336   1.098  0.00  0.00     0.077 C 
ATOM      2  C1  UNL d   1      -0.251  -1.202   0.762  0.00  0.00    -0.074 A 
ATOM      3  C2  UNL d   1      -0.755   0.040   0.362  0.00  0.00    -0.005 A 
ATOM      4  C3  UNL d   1       0.115   1.088   0.062  0.00  0.00     0.006 A 
ATOM      5  C4  UNL d   1       1.495   0.905   0.159  0.00  0.00    -0.005 A 
ATOM      6  C5  UNL d   1       2.017  -0.330   0.558  0.00  0.00    -0.074 A 
ATOM      7  C6  UNL d   1       3.497  -0.540   0.676  0.00  0.00     0.077 C 
ATOM      8  C7  UNL d   1       1.136  -1.376   0.864  0.00  0.00    -0.001 A 
ENDROOT
TORSDOF 0
ENDMDL
