MODEL 1
REMARK minimizedAffinity 7.5665946
REMARK minimizedRMSD -1
REMARK  0 active torsions:
REMARK  status: ('A' for Active; 'I' for Inactive)
ROOT
ATOM      1  C   UNL d   1      -5.998   0.655   1.077  0.00  0.00     0.077 C 
ATOM      2  C1  UNL d   1      -5.692   1.818   0.180  0.00  0.00    -0.074 A 
ATOM      3  C2  UNL d   1      -5.998   3.126   0.570  0.00  0.00    -0.005 A 
ATOM      4  C3  UNL d   1      -5.699   4.198  -0.271  0.00  0.00     0.006 A 
ATOM      5  C4  UNL d   1      -5.093   3.973  -1.508  0.00  0.00    -0.005 A 
ATOM      6  C5  UNL d   1      -4.780   2.672  -1.914  0.00  0.00    -0.074 A 
ATOM      7  C6  UNL d   1      -4.119   2.413  -3.236  0.00  0.00     0.077 C 
ATOM      8  C7  UNL d   1      -5.077   1.600  -1.060  0.00  0.00    -0.001 A 
ENDROOT
TORSDOF 0
ENDMDL
