MODEL 1
REMARK minimizedAffinity -4.19214487
REMARK minimizedRMSD -1
REMARK  2 active torsions:
REMARK  status: ('A' for Active; 'I' for Inactive)
REMARK    1  A    between atoms: C2'_3  and  C1'_4 
REMARK    2  A    between atoms: C1'_4  and  C1_5 
ROOT
ATOM      1  C1  I4B d   1      -0.009   0.534  -0.181  0.00  0.00    -0.075 A 
ATOM      2  C2  I4B d   1       1.092   1.271   0.178  0.00  0.00     0.003 A 
ATOM      3  C3  I4B d   1       2.297   0.622   0.540  0.00  0.00     0.002 A 
ATOM      4  C4  I4B d   1       2.341  -0.757   0.579  0.00  0.00    -0.004 A 
ATOM      5  C5  I4B d   1       1.231  -1.502   0.193  0.00  0.00     0.002 A 
ATOM      6  C6  I4B d   1       0.052  -0.853  -0.202  0.00  0.00     0.003 A 
ENDROOT
BRANCH   1   7
ATOM      7  C1' I4B d   1      -1.276   1.251  -0.527  0.00  0.00     0.060 C 
BRANCH   7   8
ATOM      8  C2' I4B d   1      -2.317   0.886   0.511  0.00  0.00    -0.013 C 
ATOM      9  C4' I4B d   1      -2.323   1.874   1.648  0.00  0.00     0.013 C 
ATOM     10  C3' I4B d   1      -3.652   0.837  -0.170  0.00  0.00     0.013 C 
ENDBRANCH   7   8
ENDBRANCH   1   7
TORSDOF 2
ENDMDL
