MODEL 1
REMARK minimizedAffinity -5.31277514
REMARK minimizedRMSD -1
REMARK  2 active torsions:
REMARK  status: ('A' for Active; 'I' for Inactive)
REMARK    1  A    between atoms: C2'_3  and  C1'_4 
REMARK    2  A    between atoms: C1'_4  and  C1_5 
ROOT
ATOM      1  C1  I4B d   1       1.152   0.249  -0.634  0.00  0.00    -0.075 A 
ATOM      2  C2  I4B d   1       1.818  -0.942  -0.778  0.00  0.00     0.003 A 
ATOM      3  C3  I4B d   1       3.226  -0.993  -0.634  0.00  0.00     0.002 A 
ATOM      4  C4  I4B d   1       3.928   0.172  -0.399  0.00  0.00    -0.004 A 
ATOM      5  C5  I4B d   1       3.248   1.375  -0.230  0.00  0.00     0.002 A 
ATOM      6  C6  I4B d   1       1.850   1.412  -0.336  0.00  0.00     0.003 A 
ENDROOT
BRANCH   1   7
ATOM      7  C1' I4B d   1      -0.332   0.273  -0.824  0.00  0.00     0.060 C 
BRANCH   7   8
ATOM      8  C2' I4B d   1      -0.980   0.091   0.533  0.00  0.00    -0.013 C 
ATOM      9  C4' I4B d   1      -2.405   0.576   0.527  0.00  0.00     0.013 C 
ATOM     10  C3' I4B d   1      -0.905  -1.364   0.890  0.00  0.00     0.013 C 
ENDBRANCH   7   8
ENDBRANCH   1   7
TORSDOF 2
ENDMDL
