MODEL 1
REMARK minimizedAffinity -1.35194957
REMARK minimizedRMSD -1
REMARK  2 active torsions:
REMARK  status: ('A' for Active; 'I' for Inactive)
REMARK    1  A    between atoms: C2'_3  and  C1'_4 
REMARK    2  A    between atoms: C1'_4  and  C1_5 
ROOT
ATOM      1  C1  I4B d   1      -0.814   1.121   0.144  0.00  0.00    -0.075 A 
ATOM      2  C2  I4B d   1      -0.110   2.295   0.241  0.00  0.00     0.003 A 
ATOM      3  C3  I4B d   1       1.302   2.274   0.340  0.00  0.00     0.002 A 
ATOM      4  C4  I4B d   1       1.962   1.063   0.389  0.00  0.00    -0.004 A 
ATOM      5  C5  I4B d   1       1.248  -0.126   0.267  0.00  0.00     0.002 A 
ATOM      6  C6  I4B d   1      -0.147  -0.097   0.131  0.00  0.00     0.003 A 
ENDROOT
BRANCH   1   7
ATOM      7  C1' I4B d   1      -2.307   1.179   0.074  0.00  0.00     0.060 C 
BRANCH   7   8
ATOM      8  C2' I4B d   1      -2.858   0.610   1.365  0.00  0.00    -0.013 C 
ATOM      9  C4' I4B d   1      -3.237   1.707   2.326  0.00  0.00     0.013 C 
ATOM     10  C3' I4B d   1      -4.041  -0.247   1.027  0.00  0.00     0.013 C 
ENDBRANCH   7   8
ENDBRANCH   1   7
TORSDOF 2
ENDMDL
