MODEL 1
REMARK minimizedAffinity -2.40092778
REMARK minimizedRMSD -1
REMARK  0 active torsions:
REMARK  status: ('A' for Active; 'I' for Inactive)
ROOT
ATOM      1  C   UNL d   1      -4.273  -1.118  -2.390  0.00  0.00     0.172 C 
ATOM      2  N   UNL d   1      -3.846  -0.692  -3.702  0.00  0.00    -0.070 N 
ATOM      3  C1  UNL d   1      -3.826  -1.472  -4.828  0.00  0.00    -0.004 A 
ATOM      4  C2  UNL d   1      -3.357  -0.699  -5.868  0.00  0.00    -0.047 A 
ATOM      5  C3  UNL d   1      -3.085   0.589  -5.350  0.00  0.00    -0.047 A 
ATOM      6  C4  UNL d   1      -3.397   0.566  -4.007  0.00  0.00    -0.004 A 
ENDROOT
TORSDOF 0
ENDMDL
