MODEL 1
REMARK minimizedAffinity -2.70156431
REMARK minimizedRMSD -1
REMARK  0 active torsions:
REMARK  status: ('A' for Active; 'I' for Inactive)
ROOT
ATOM      1  C   UNL d   1      -3.218  -1.165  -2.495  0.00  0.00     0.172 C 
ATOM      2  N   UNL d   1      -3.707  -0.639  -3.748  0.00  0.00    -0.070 N 
ATOM      3  C1  UNL d   1      -2.945  -0.034  -4.711  0.00  0.00    -0.004 A 
ATOM      4  C2  UNL d   1      -3.781   0.324  -5.747  0.00  0.00    -0.047 A 
ATOM      5  C3  UNL d   1      -5.090  -0.080  -5.393  0.00  0.00    -0.047 A 
ATOM      6  C4  UNL d   1      -5.016  -0.673  -4.151  0.00  0.00    -0.004 A 
ENDROOT
TORSDOF 0
ENDMDL
