MODEL 1
REMARK minimizedAffinity 5.61153126
REMARK minimizedRMSD -1
REMARK  0 active torsions:
REMARK  status: ('A' for Active; 'I' for Inactive)
ROOT
ATOM      1  C   UNL d   1      -1.895  -1.874  -5.365  0.00  0.00     0.172 C 
ATOM      2  N   UNL d   1      -2.973  -1.014  -4.939  0.00  0.00    -0.070 N 
ATOM      3  C1  UNL d   1      -3.558  -1.020  -3.700  0.00  0.00    -0.004 A 
ATOM      4  C2  UNL d   1      -4.541  -0.055  -3.693  0.00  0.00    -0.047 A 
ATOM      5  C3  UNL d   1      -4.548   0.552  -4.971  0.00  0.00    -0.047 A 
ATOM      6  C4  UNL d   1      -3.568  -0.060  -5.722  0.00  0.00    -0.004 A 
ENDROOT
TORSDOF 0
ENDMDL
