MODEL 1
REMARK minimizedAffinity 1.05519867
REMARK minimizedRMSD -1
REMARK  0 active torsions:
REMARK  status: ('A' for Active; 'I' for Inactive)
ROOT
ATOM      1  C   UNL d   1      -2.561  -1.323  -4.223  0.00  0.00     0.172 C 
ATOM      2  N   UNL d   1      -3.576  -0.379  -4.624  0.00  0.00    -0.070 N 
ATOM      3  C1  UNL d   1      -3.370   0.946  -4.901  0.00  0.00    -0.004 A 
ATOM      4  C2  UNL d   1      -4.584   1.500  -5.245  0.00  0.00    -0.047 A 
ATOM      5  C3  UNL d   1      -5.554   0.473  -5.171  0.00  0.00    -0.047 A 
ATOM      6  C4  UNL d   1      -4.903  -0.680  -4.785  0.00  0.00    -0.004 A 
ENDROOT
TORSDOF 0
ENDMDL
