MODEL 1
REMARK minimizedAffinity -0.331884682
REMARK minimizedRMSD -1
REMARK  0 active torsions:
REMARK  status: ('A' for Active; 'I' for Inactive)
ROOT
ATOM      1  C   UNL d   1      -3.702  -1.029  -2.780  0.00  0.00     0.172 C 
ATOM      2  N   UNL d   1      -4.114  -0.341  -3.981  0.00  0.00    -0.070 N 
ATOM      3  C1  UNL d   1      -3.275   0.168  -4.937  0.00  0.00    -0.004 A 
ATOM      4  C2  UNL d   1      -4.054   0.744  -5.918  0.00  0.00    -0.047 A 
ATOM      5  C3  UNL d   1      -5.407   0.577  -5.537  0.00  0.00    -0.047 A 
ATOM      6  C4  UNL d   1      -5.415  -0.098  -4.335  0.00  0.00    -0.004 A 
ENDROOT
TORSDOF 0
ENDMDL
