MODEL 1
REMARK minimizedAffinity -0.959414244
REMARK minimizedRMSD -1
REMARK  0 active torsions:
REMARK  status: ('A' for Active; 'I' for Inactive)
ROOT
ATOM      1  C   UNL d   1      -3.888  -0.367  -3.319  0.00  0.00     0.172 C 
ATOM      2  N   UNL d   1      -3.707   0.941  -3.904  0.00  0.00    -0.070 N 
ATOM      3  C1  UNL d   1      -3.581   2.114  -3.210  0.00  0.00    -0.004 A 
ATOM      4  C2  UNL d   1      -3.426   3.132  -4.127  0.00  0.00    -0.047 A 
ATOM      5  C3  UNL d   1      -3.461   2.549  -5.416  0.00  0.00    -0.047 A 
ATOM      6  C4  UNL d   1      -3.636   1.192  -5.249  0.00  0.00    -0.004 A 
ENDROOT
TORSDOF 0
ENDMDL
