MODEL 1
REMARK minimizedAffinity -0.364589781
REMARK minimizedRMSD -1
REMARK  0 active torsions:
REMARK  status: ('A' for Active; 'I' for Inactive)
ROOT
ATOM      1  C   UNL d   1       3.412   0.742  -0.349  0.00  0.00     0.172 C 
ATOM      2  N   UNL d   1       3.282  -0.655  -0.009  0.00  0.00    -0.070 N 
ATOM      3  C1  UNL d   1       2.125  -1.386  -0.064  0.00  0.00    -0.004 A 
ATOM      4  C2  UNL d   1       2.418  -2.672   0.336  0.00  0.00    -0.047 A 
ATOM      5  C3  UNL d   1       3.799  -2.715   0.643  0.00  0.00    -0.047 A 
ATOM      6  C4  UNL d   1       4.309  -1.453   0.421  0.00  0.00    -0.004 A 
ENDROOT
TORSDOF 0
ENDMDL
