MODEL 1
REMARK minimizedAffinity -2.37513065
REMARK minimizedRMSD -1
REMARK  0 active torsions:
REMARK  status: ('A' for Active; 'I' for Inactive)
ROOT
ATOM      1  C   UNL d   1       4.354  -3.356   3.615  0.00  0.00     0.172 C 
ATOM      2  N   UNL d   1       3.499  -2.791   2.597  0.00  0.00    -0.070 N 
ATOM      3  C1  UNL d   1       2.330  -2.115   2.822  0.00  0.00    -0.004 A 
ATOM      4  C2  UNL d   1       1.818  -1.740   1.598  0.00  0.00    -0.047 A 
ATOM      5  C3  UNL d   1       2.710  -2.207   0.604  0.00  0.00    -0.047 A 
ATOM      6  C4  UNL d   1       3.742  -2.854   1.250  0.00  0.00    -0.004 A 
ENDROOT
TORSDOF 0
ENDMDL
