MODEL 1
REMARK minimizedAffinity -1.59124613
REMARK minimizedRMSD -1
REMARK  0 active torsions:
REMARK  status: ('A' for Active; 'I' for Inactive)
ROOT
ATOM      1  C   UNL d   1      -2.328  -1.432  -3.789  0.00  0.00     0.172 C 
ATOM      2  N   UNL d   1      -3.317  -0.608  -4.444  0.00  0.00    -0.070 N 
ATOM      3  C1  UNL d   1      -3.080   0.601  -5.040  0.00  0.00    -0.004 A 
ATOM      4  C2  UNL d   1      -4.275   1.064  -5.547  0.00  0.00    -0.047 A 
ATOM      5  C3  UNL d   1      -5.265   0.099  -5.243  0.00  0.00    -0.047 A 
ATOM      6  C4  UNL d   1      -4.644  -0.925  -4.560  0.00  0.00    -0.004 A 
ENDROOT
TORSDOF 0
ENDMDL
