MODEL 1
REMARK minimizedAffinity -0.21674569
REMARK minimizedRMSD -1
REMARK  0 active torsions:
REMARK  status: ('A' for Active; 'I' for Inactive)
ROOT
ATOM      1  C   UNL d   1      -1.837   5.620   4.531  0.00  0.00     0.172 C 
ATOM      2  N   UNL d   1      -0.420   5.600   4.809  0.00  0.00    -0.070 N 
ATOM      3  C1  UNL d   1       0.558   5.198   3.940  0.00  0.00    -0.004 A 
ATOM      4  C2  UNL d   1       1.771   5.327   4.580  0.00  0.00    -0.047 A 
ATOM      5  C3  UNL d   1       1.513   5.824   5.880  0.00  0.00    -0.047 A 
ATOM      6  C4  UNL d   1       0.148   5.983   5.995  0.00  0.00    -0.004 A 
ENDROOT
TORSDOF 0
ENDMDL
