MODEL 1
REMARK minimizedAffinity 0.823612392
REMARK minimizedRMSD -1
REMARK  0 active torsions:
REMARK  status: ('A' for Active; 'I' for Inactive)
ROOT
ATOM      1  C   UNL d   1      -4.416   0.939  -5.598  0.00  0.00     0.172 C 
ATOM      2  N   UNL d   1      -3.617   0.043  -4.795  0.00  0.00    -0.070 N 
ATOM      3  C1  UNL d   1      -3.798  -0.210  -3.462  0.00  0.00    -0.004 A 
ATOM      4  C2  UNL d   1      -2.836  -1.116  -3.070  0.00  0.00    -0.047 A 
ATOM      5  C3  UNL d   1      -2.049  -1.416  -4.207  0.00  0.00    -0.047 A 
ATOM      6  C4  UNL d   1      -2.554  -0.685  -5.261  0.00  0.00    -0.004 A 
ENDROOT
TORSDOF 0
ENDMDL
