MODEL 1
REMARK minimizedAffinity -2.63478446
REMARK minimizedRMSD -1
REMARK  0 active torsions:
REMARK  status: ('A' for Active; 'I' for Inactive)
ROOT
ATOM      1  C   UNL d   1      -3.432  -1.155  -2.752  0.00  0.00     0.172 C 
ATOM      2  N   UNL d   1      -3.909  -0.317  -3.827  0.00  0.00    -0.070 N 
ATOM      3  C1  UNL d   1      -3.133   0.253  -4.800  0.00  0.00    -0.004 A 
ATOM      4  C2  UNL d   1      -3.961   0.974  -5.632  0.00  0.00    -0.047 A 
ATOM      5  C3  UNL d   1      -5.281   0.834  -5.142  0.00  0.00    -0.047 A 
ATOM      6  C4  UNL d   1      -5.220   0.030  -4.023  0.00  0.00    -0.004 A 
ENDROOT
TORSDOF 0
ENDMDL
