MODEL 1
REMARK minimizedAffinity -2.47357774
REMARK minimizedRMSD -1
REMARK  0 active torsions:
REMARK  status: ('A' for Active; 'I' for Inactive)
ROOT
ATOM      1  N1  IND d   1       1.098  -3.374   3.468  0.00  0.00    -0.196 N 
ATOM      2  C2  IND d   1       2.277  -3.675   4.091  0.00  0.00     0.054 A 
ATOM      3  C3  IND d   1       3.289  -2.957   3.554  0.00  0.00    -0.031 A 
ATOM      4  C4  IND d   1       3.221  -1.156   1.716  0.00  0.00     0.051 A 
ATOM      5  C5  IND d   1       2.376  -0.561   0.821  0.00  0.00    -0.031 A 
ATOM      6  C6  IND d   1       1.035  -0.878   0.764  0.00  0.00     0.015 A 
ATOM      7  C7  IND d   1       0.483  -1.797   1.610  0.00  0.00    -0.016 A 
ATOM      8  C8  IND d   1       1.339  -2.408   2.515  0.00  0.00    -0.047 A 
ATOM      9  C9  IND d   1       2.710  -2.122   2.550  0.00  0.00    -0.096 A 
ATOM     10  HN1 IND d   1       0.334  -3.728   3.642  0.00  0.00     0.298 HD
ENDROOT
TORSDOF 0
ENDMDL
