MODEL 1
REMARK minimizedAffinity 1.71475661
REMARK minimizedRMSD -1
REMARK  0 active torsions:
REMARK  status: ('A' for Active; 'I' for Inactive)
ROOT
ATOM      1  N1  IND d   1       1.671  -0.545   0.464  0.00  0.00    -0.196 N 
ATOM      2  C2  IND d   1       2.912  -0.069   0.782  0.00  0.00     0.054 A 
ATOM      3  C3  IND d   1       3.443  -0.785   1.799  0.00  0.00    -0.031 A 
ATOM      4  C4  IND d   1       2.493  -2.841   3.023  0.00  0.00     0.051 A 
ATOM      5  C5  IND d   1       1.375  -3.622   3.109  0.00  0.00    -0.031 A 
ATOM      6  C6  IND d   1       0.277  -3.415   2.298  0.00  0.00     0.015 A 
ATOM      7  C7  IND d   1       0.261  -2.422   1.361  0.00  0.00    -0.016 A 
ATOM      8  C8  IND d   1       1.392  -1.622   1.276  0.00  0.00    -0.047 A 
ATOM      9  C9  IND d   1       2.492  -1.800   2.125  0.00  0.00    -0.096 A 
ATOM     10  HN1 IND d   1       1.151  -0.225  -0.142  0.00  0.00     0.298 HD
ENDROOT
TORSDOF 0
ENDMDL
