MODEL 1
REMARK minimizedAffinity 3.12969446
REMARK minimizedRMSD -1
REMARK  0 active torsions:
REMARK  status: ('A' for Active; 'I' for Inactive)
ROOT
ATOM      1  N1  IND d   1       0.470  -1.777   1.965  0.00  0.00    -0.196 N 
ATOM      2  C2  IND d   1       1.406  -2.734   2.244  0.00  0.00     0.054 A 
ATOM      3  C3  IND d   1       2.649  -2.259   2.008  0.00  0.00    -0.031 A 
ATOM      4  C4  IND d   1       3.387   0.091   1.259  0.00  0.00     0.051 A 
ATOM      5  C5  IND d   1       2.890   1.295   0.845  0.00  0.00    -0.031 A 
ATOM      6  C6  IND d   1       1.534   1.543   0.786  0.00  0.00     0.015 A 
ATOM      7  C7  IND d   1       0.620   0.595   1.150  0.00  0.00    -0.016 A 
ATOM      8  C8  IND d   1       1.121  -0.632   1.563  0.00  0.00    -0.047 A 
ATOM      9  C9  IND d   1       2.495  -0.903   1.585  0.00  0.00    -0.096 A 
ATOM     10  HN1 IND d   1      -0.382  -1.875   2.030  0.00  0.00     0.298 HD
ENDROOT
TORSDOF 0
ENDMDL
