MODEL 1
REMARK minimizedAffinity 0.588387847
REMARK minimizedRMSD -1
REMARK  0 active torsions:
REMARK  status: ('A' for Active; 'I' for Inactive)
ROOT
ATOM      1  N1  IND d   1      -0.065  -1.918   1.258  0.00  0.00    -0.196 N 
ATOM      2  C2  IND d   1       1.132  -2.190   1.860  0.00  0.00     0.054 A 
ATOM      3  C3  IND d   1       2.064  -2.504   0.932  0.00  0.00    -0.031 A 
ATOM      4  C4  IND d   1       1.871  -2.535  -1.635  0.00  0.00     0.051 A 
ATOM      5  C5  IND d   1       0.966  -2.393  -2.649  0.00  0.00    -0.031 A 
ATOM      6  C6  IND d   1      -0.356  -2.077  -2.407  0.00  0.00     0.015 A 
ATOM      7  C7  IND d   1      -0.820  -1.878  -1.138  0.00  0.00    -0.016 A 
ATOM      8  C8  IND d   1       0.095  -2.028  -0.105  0.00  0.00    -0.047 A 
ATOM      9  C9  IND d   1       1.427  -2.391  -0.342  0.00  0.00    -0.096 A 
ATOM     10  HN1 IND d   1      -0.795  -1.713   1.664  0.00  0.00     0.298 HD
ENDROOT
TORSDOF 0
ENDMDL
