MODEL 1
REMARK minimizedAffinity 5.83885241
REMARK minimizedRMSD -1
REMARK  0 active torsions:
REMARK  status: ('A' for Active; 'I' for Inactive)
ROOT
ATOM      1  N1  IND d   1      -0.686  -1.915   1.222  0.00  0.00    -0.196 N 
ATOM      2  C2  IND d   1      -0.690  -2.127  -0.129  0.00  0.00     0.054 A 
ATOM      3  C3  IND d   1       0.574  -2.151  -0.605  0.00  0.00    -0.031 A 
ATOM      4  C4  IND d   1       2.805  -1.965   0.666  0.00  0.00     0.051 A 
ATOM      5  C5  IND d   1       3.319  -1.727   1.910  0.00  0.00    -0.031 A 
ATOM      6  C6  IND d   1       2.509  -1.538   3.010  0.00  0.00     0.015 A 
ATOM      7  C7  IND d   1       1.147  -1.592   2.910  0.00  0.00    -0.016 A 
ATOM      8  C8  IND d   1       0.621  -1.827   1.647  0.00  0.00    -0.047 A 
ATOM      9  C9  IND d   1       1.438  -1.977   0.519  0.00  0.00    -0.096 A 
ATOM     10  HN1 IND d   1      -1.383  -1.848   1.721  0.00  0.00     0.298 HD
ENDROOT
TORSDOF 0
ENDMDL
