MODEL 1
REMARK minimizedAffinity 8.99265862
REMARK minimizedRMSD -1
REMARK  0 active torsions:
REMARK  status: ('A' for Active; 'I' for Inactive)
ROOT
ATOM      1  N1  IND d   1       0.779  -1.575   2.669  0.00  0.00    -0.196 N 
ATOM      2  C2  IND d   1       1.125  -2.747   2.056  0.00  0.00     0.054 A 
ATOM      3  C3  IND d   1       2.187  -2.556   1.242  0.00  0.00    -0.031 A 
ATOM      4  C4  IND d   1       3.580  -0.428   0.842  0.00  0.00     0.051 A 
ATOM      5  C5  IND d   1       3.627   0.902   1.150  0.00  0.00    -0.031 A 
ATOM      6  C6  IND d   1       2.710   1.486   2.000  0.00  0.00     0.015 A 
ATOM      7  C7  IND d   1       1.714   0.756   2.584  0.00  0.00    -0.016 A 
ATOM      8  C8  IND d   1       1.659  -0.594   2.268  0.00  0.00    -0.047 A 
ATOM      9  C9  IND d   1       2.561  -1.184   1.373  0.00  0.00    -0.096 A 
ATOM     10  HN1 IND d   1       0.122  -1.468   3.213  0.00  0.00     0.298 HD
ENDROOT
TORSDOF 0
ENDMDL
