MODEL 1
REMARK minimizedAffinity -0.465730101
REMARK minimizedRMSD -1
REMARK  0 active torsions:
REMARK  status: ('A' for Active; 'I' for Inactive)
ROOT
ATOM      1  N1  IND d   1       1.295  -2.607  -3.139  0.00  0.00    -0.196 N 
ATOM      2  C2  IND d   1       2.523  -3.129  -2.841  0.00  0.00     0.054 A 
ATOM      3  C3  IND d   1       2.877  -2.803  -1.577  0.00  0.00    -0.031 A 
ATOM      4  C4  IND d   1       1.553  -1.510   0.212  0.00  0.00     0.051 A 
ATOM      5  C5  IND d   1       0.397  -0.804   0.396  0.00  0.00    -0.031 A 
ATOM      6  C6  IND d   1      -0.538  -0.662  -0.609  0.00  0.00     0.015 A 
ATOM      7  C7  IND d   1      -0.357  -1.233  -1.836  0.00  0.00    -0.016 A 
ATOM      8  C8  IND d   1       0.818  -1.945  -2.029  0.00  0.00    -0.047 A 
ATOM      9  C9  IND d   1       1.791  -2.056  -1.027  0.00  0.00    -0.096 A 
ATOM     10  HN1 IND d   1       0.889  -2.679  -3.894  0.00  0.00     0.298 HD
ENDROOT
TORSDOF 0
ENDMDL
