MODEL 1
REMARK minimizedAffinity -2.52993083
REMARK minimizedRMSD -1
REMARK  0 active torsions:
REMARK  status: ('A' for Active; 'I' for Inactive)
ROOT
ATOM      1  C2' OXE d   1      -0.393  -0.004  -0.374  0.00  0.00     0.078 C 
ATOM      2  C1' OXE d   1       1.647  -1.808  -1.057  0.00  0.00     0.078 C 
ATOM      3  C1  OXE d   1       1.322  -0.709  -2.038  0.00  0.00    -0.078 A 
ATOM      4  C2  OXE d   1       0.291   0.141  -1.716  0.00  0.00    -0.078 A 
ATOM      5  C3  OXE d   1      -0.014   1.205  -2.560  0.00  0.00     0.003 A 
ATOM      6  C4  OXE d   1       0.616   1.325  -3.805  0.00  0.00    -0.002 A 
ATOM      7  C5  OXE d   1       1.642   0.446  -4.169  0.00  0.00    -0.002 A 
ATOM      8  C6  OXE d   1       2.035  -0.549  -3.281  0.00  0.00     0.003 A 
ENDROOT
TORSDOF 0
ENDMDL
