MODEL 1
REMARK minimizedAffinity -3.21969652
REMARK minimizedRMSD -1
REMARK  0 active torsions:
REMARK  status: ('A' for Active; 'I' for Inactive)
ROOT
ATOM      1  C2' OXE d   1      -0.921   0.961   2.318  0.00  0.00     0.078 C 
ATOM      2  C1' OXE d   1      -2.408   0.005   0.137  0.00  0.00     0.078 C 
ATOM      3  C1  OXE d   1      -0.938  -0.331   0.188  0.00  0.00    -0.078 A 
ATOM      4  C2  OXE d   1      -0.209   0.181   1.234  0.00  0.00    -0.078 A 
ATOM      5  C3  OXE d   1       1.139  -0.144   1.359  0.00  0.00     0.003 A 
ATOM      6  C4  OXE d   1       1.793  -0.858   0.347  0.00  0.00    -0.002 A 
ATOM      7  C5  OXE d   1       1.077  -1.354  -0.748  0.00  0.00    -0.002 A 
ATOM      8  C6  OXE d   1      -0.295  -1.136  -0.820  0.00  0.00     0.003 A 
ENDROOT
TORSDOF 0
ENDMDL
