MODEL 1
REMARK minimizedAffinity -3.07861686
REMARK minimizedRMSD -1
REMARK  0 active torsions:
REMARK  status: ('A' for Active; 'I' for Inactive)
ROOT
ATOM      1  C2' OXE d   1      -2.743   0.240  -0.600  0.00  0.00     0.078 C 
ATOM      2  C1' OXE d   1      -0.082  -0.464  -1.147  0.00  0.00     0.078 C 
ATOM      3  C1  OXE d   1      -0.383   0.162   0.191  0.00  0.00    -0.078 A 
ATOM      4  C2  OXE d   1      -1.680   0.546   0.432  0.00  0.00    -0.078 A 
ATOM      5  C3  OXE d   1      -2.022   1.079   1.672  0.00  0.00     0.003 A 
ATOM      6  C4  OXE d   1      -1.031   1.367   2.618  0.00  0.00    -0.002 A 
ATOM      7  C5  OXE d   1       0.303   1.021   2.377  0.00  0.00    -0.002 A 
ATOM      8  C6  OXE d   1       0.636   0.380   1.188  0.00  0.00     0.003 A 
ENDROOT
TORSDOF 0
ENDMDL
