MODEL 1
REMARK minimizedAffinity -2.97133803
REMARK minimizedRMSD -1
REMARK  0 active torsions:
REMARK  status: ('A' for Active; 'I' for Inactive)
ROOT
ATOM      1  C2' OXE d   1      -1.781   0.663  -0.043  0.00  0.00     0.078 C 
ATOM      2  C1' OXE d   1       0.821  -0.302  -0.466  0.00  0.00     0.078 C 
ATOM      3  C1  OXE d   1       0.376  -0.079   0.958  0.00  0.00    -0.078 A 
ATOM      4  C2  OXE d   1      -0.882   0.438   1.154  0.00  0.00    -0.078 A 
ATOM      5  C3  OXE d   1      -1.362   0.611   2.449  0.00  0.00     0.003 A 
ATOM      6  C4  OXE d   1      -0.521   0.410   3.550  0.00  0.00    -0.002 A 
ATOM      7  C5  OXE d   1       0.778  -0.079   3.371  0.00  0.00    -0.002 A 
ATOM      8  C6  OXE d   1       1.226  -0.368   2.087  0.00  0.00     0.003 A 
ENDROOT
TORSDOF 0
ENDMDL
