MODEL 1
REMARK minimizedAffinity -3.48246098
REMARK minimizedRMSD -1
REMARK  0 active torsions:
REMARK  status: ('A' for Active; 'I' for Inactive)
ROOT
ATOM      1  C2' OXE d   1       2.082  -0.024   1.141  0.00  0.00     0.078 C 
ATOM      2  C1' OXE d   1       0.315  -0.255  -1.028  0.00  0.00     0.078 C 
ATOM      3  C1  OXE d   1      -0.239   0.254   0.279  0.00  0.00    -0.078 A 
ATOM      4  C2  OXE d   1       0.622   0.320   1.348  0.00  0.00    -0.078 A 
ATOM      5  C3  OXE d   1       0.176   0.834   2.562  0.00  0.00     0.003 A 
ATOM      6  C4  OXE d   1      -1.177   1.141   2.747  0.00  0.00    -0.002 A 
ATOM      7  C5  OXE d   1      -2.080   1.043   1.683  0.00  0.00    -0.002 A 
ATOM      8  C6  OXE d   1      -1.619   0.643   0.433  0.00  0.00     0.003 A 
ENDROOT
TORSDOF 0
ENDMDL
