MODEL 1
REMARK minimizedAffinity -3.32936263
REMARK minimizedRMSD -1
REMARK  0 active torsions:
REMARK  status: ('A' for Active; 'I' for Inactive)
ROOT
ATOM      1  C2' OXE d   1      -0.620   1.181   2.619  0.00  0.00     0.078 C 
ATOM      2  C1' OXE d   1       1.953   0.205   2.064  0.00  0.00     0.078 C 
ATOM      3  C1  OXE d   1       0.886   0.010   1.016  0.00  0.00    -0.078 A 
ATOM      4  C2  OXE d   1      -0.382   0.449   1.316  0.00  0.00    -0.078 A 
ATOM      5  C3  OXE d   1      -1.391   0.344   0.363  0.00  0.00     0.003 A 
ATOM      6  C4  OXE d   1      -1.165  -0.343  -0.836  0.00  0.00    -0.002 A 
ATOM      7  C5  OXE d   1       0.109  -0.833  -1.144  0.00  0.00    -0.002 A 
ATOM      8  C6  OXE d   1       1.153  -0.628  -0.249  0.00  0.00     0.003 A 
ENDROOT
TORSDOF 0
ENDMDL
