MODEL 1
REMARK minimizedAffinity -4.45653296
REMARK minimizedRMSD -1
REMARK  0 active torsions:
REMARK  status: ('A' for Active; 'I' for Inactive)
ROOT
ATOM      1  C2' OXE d   1      -2.029  -1.386  -0.218  0.00  0.00     0.078 C 
ATOM      2  C1' OXE d   1       0.569  -0.538  -0.860  0.00  0.00     0.078 C 
ATOM      3  C1  OXE d   1      -0.038  -0.034   0.425  0.00  0.00    -0.078 A 
ATOM      4  C2  OXE d   1      -1.327  -0.417   0.709  0.00  0.00    -0.078 A 
ATOM      5  C3  OXE d   1      -1.915  -0.024   1.908  0.00  0.00     0.003 A 
ATOM      6  C4  OXE d   1      -1.263   0.881   2.754  0.00  0.00    -0.002 A 
ATOM      7  C5  OXE d   1       0.035   1.315   2.464  0.00  0.00    -0.002 A 
ATOM      8  C6  OXE d   1       0.677   0.835   1.328  0.00  0.00     0.003 A 
ENDROOT
TORSDOF 0
ENDMDL
