MODEL 1
REMARK minimizedAffinity -4.20109129
REMARK minimizedRMSD -1
REMARK  0 active torsions:
REMARK  status: ('A' for Active; 'I' for Inactive)
ROOT
ATOM      1  C2' OXE d   1      -2.485  -0.335  -0.405  0.00  0.00     0.078 C 
ATOM      2  C1' OXE d   1       0.185  -0.515  -1.253  0.00  0.00     0.078 C 
ATOM      3  C1  OXE d   1      -0.080   0.040   0.124  0.00  0.00    -0.078 A 
ATOM      4  C2  OXE d   1      -1.392   0.168   0.512  0.00  0.00    -0.078 A 
ATOM      5  C3  OXE d   1      -1.690   0.623   1.794  0.00  0.00     0.003 A 
ATOM      6  C4  OXE d   1      -0.674   1.096   2.632  0.00  0.00    -0.002 A 
ATOM      7  C5  OXE d   1       0.667   1.012   2.241  0.00  0.00    -0.002 A 
ATOM      8  C6  OXE d   1       0.982   0.449   1.009  0.00  0.00     0.003 A 
ENDROOT
TORSDOF 0
ENDMDL
