MODEL 1
REMARK minimizedAffinity -4.93237829
REMARK minimizedRMSD -1
REMARK  0 active torsions:
REMARK  status: ('A' for Active; 'I' for Inactive)
ROOT
ATOM      1  C2' OXE d   1       0.776  -0.398  -0.617  0.00  0.00     0.078 C 
ATOM      2  C1' OXE d   1      -1.930   0.079  -0.041  0.00  0.00     0.078 C 
ATOM      3  C1  OXE d   1      -0.924   0.327   1.054  0.00  0.00    -0.078 A 
ATOM      4  C2  OXE d   1       0.393   0.047   0.778  0.00  0.00    -0.078 A 
ATOM      5  C3  OXE d   1       1.369   0.310   1.735  0.00  0.00     0.003 A 
ATOM      6  C4  OXE d   1       1.006   0.712   3.026  0.00  0.00    -0.002 A 
ATOM      7  C5  OXE d   1      -0.334   0.965   3.341  0.00  0.00    -0.002 A 
ATOM      8  C6  OXE d   1      -1.304   0.819   2.355  0.00  0.00     0.003 A 
ENDROOT
TORSDOF 0
ENDMDL
