MODEL 1
REMARK minimizedAffinity -5.83427954
REMARK minimizedRMSD -1
REMARK  0 active torsions:
REMARK  status: ('A' for Active; 'I' for Inactive)
ROOT
ATOM      1  C2' OXE d   1       0.563  -0.485  -0.895  0.00  0.00     0.078 C 
ATOM      2  C1' OXE d   1       2.328  -1.051   1.212  0.00  0.00     0.078 C 
ATOM      3  C1  OXE d   1       0.990  -0.447   1.558  0.00  0.00    -0.078 A 
ATOM      4  C2  OXE d   1       0.151  -0.130   0.517  0.00  0.00    -0.078 A 
ATOM      5  C3  OXE d   1      -1.117   0.379   0.784  0.00  0.00     0.003 A 
ATOM      6  C4  OXE d   1      -1.485   0.714   2.092  0.00  0.00    -0.002 A 
ATOM      7  C5  OXE d   1      -0.630   0.436   3.164  0.00  0.00    -0.002 A 
ATOM      8  C6  OXE d   1       0.591  -0.182   2.919  0.00  0.00     0.003 A 
ENDROOT
TORSDOF 0
ENDMDL
