MODEL 1
REMARK minimizedAffinity -0.423687398
REMARK minimizedRMSD -1
REMARK  0 active torsions:
REMARK  status: ('A' for Active; 'I' for Inactive)
ROOT
ATOM      1  C2' OXE d   1       0.054  -0.060  -1.179  0.00  0.00     0.078 C 
ATOM      2  C1' OXE d   1      -2.552   0.829  -0.633  0.00  0.00     0.078 C 
ATOM      3  C1  OXE d   1      -1.659   0.504   0.539  0.00  0.00    -0.078 A 
ATOM      4  C2  OXE d   1      -0.401   0.025   0.262  0.00  0.00    -0.078 A 
ATOM      5  C3  OXE d   1       0.482  -0.238   1.305  0.00  0.00     0.003 A 
ATOM      6  C4  OXE d   1       0.049  -0.166   2.635  0.00  0.00    -0.002 A 
ATOM      7  C5  OXE d   1      -1.241   0.282   2.938  0.00  0.00    -0.002 A 
ATOM      8  C6  OXE d   1      -2.092   0.661   1.905  0.00  0.00     0.003 A 
ENDROOT
TORSDOF 0
ENDMDL
