MODEL 1
REMARK minimizedAffinity 6.39201927
REMARK minimizedRMSD -1
REMARK  1 active torsions:
REMARK  status: ('A' for Active; 'I' for Inactive)
REMARK    1  A    between atoms: C1_2  and  C2_3 
ROOT
ATOM      1  C2  UNL d   1       0.350   3.068   0.010  0.00  0.00    -0.081 A 
ATOM      2  C3  UNL d   1      -0.445   2.833  -1.119  0.00  0.00     0.006 A 
ATOM      3  C4  UNL d   1      -0.525   3.783  -2.139  0.00  0.00     0.002 A 
ATOM      4  C5  UNL d   1       0.195   4.980  -2.053  0.00  0.00    -0.080 A 
ATOM      5  C6  UNL d   1       0.142   5.995  -3.156  0.00  0.00     0.076 C 
ATOM      6  C7  UNL d   1       0.976   5.223  -0.918  0.00  0.00     0.002 A 
ATOM      7  C8  UNL d   1       1.055   4.273   0.103  0.00  0.00     0.006 A 
ENDROOT
BRANCH   1   8
ATOM      8  C1  UNL d   1       0.489   2.018   1.082  0.00  0.00     0.054 C 
ATOM      9  C   UNL d   1       0.482   2.641   2.471  0.00  0.00     0.018 C 
ENDBRANCH   1   8
TORSDOF 1
ENDMDL
