MODEL 1
REMARK minimizedAffinity 15.6664028
REMARK minimizedRMSD -1
REMARK  1 active torsions:
REMARK  status: ('A' for Active; 'I' for Inactive)
REMARK    1  A    between atoms: C1_2  and  C2_3 
ROOT
ATOM      1  C2  UNL d   1       1.014   0.627   3.791  0.00  0.00    -0.081 A 
ATOM      2  C3  UNL d   1      -0.335   0.894   3.529  0.00  0.00     0.006 A 
ATOM      3  C4  UNL d   1      -0.700   1.736   2.476  0.00  0.00     0.002 A 
ATOM      4  C5  UNL d   1       0.278   2.317   1.661  0.00  0.00    -0.080 A 
ATOM      5  C6  UNL d   1      -0.101   3.198   0.508  0.00  0.00     0.076 C 
ATOM      6  C7  UNL d   1       1.627   2.064   1.933  0.00  0.00     0.002 A 
ATOM      7  C8  UNL d   1       1.992   1.223   2.987  0.00  0.00     0.006 A 
ENDROOT
BRANCH   1   8
ATOM      8  C1  UNL d   1       1.408  -0.331   4.886  0.00  0.00     0.054 C 
ATOM      9  C   UNL d   1       0.668  -1.655   4.755  0.00  0.00     0.018 C 
ENDBRANCH   1   8
TORSDOF 1
ENDMDL
