MODEL 1
REMARK minimizedAffinity 7.09695864
REMARK minimizedRMSD -1
REMARK  1 active torsions:
REMARK  status: ('A' for Active; 'I' for Inactive)
REMARK    1  A    between atoms: C1_2  and  C2_3 
ROOT
ATOM      1  C2  UNL d   1       0.374   3.070   0.161  0.00  0.00    -0.081 A 
ATOM      2  C3  UNL d   1      -0.781   2.989  -0.627  0.00  0.00     0.006 A 
ATOM      3  C4  UNL d   1      -1.030   3.942  -1.617  0.00  0.00     0.002 A 
ATOM      4  C5  UNL d   1      -0.127   4.987  -1.841  0.00  0.00    -0.080 A 
ATOM      5  C6  UNL d   1      -0.369   6.000  -2.921  0.00  0.00     0.076 C 
ATOM      6  C7  UNL d   1       1.017   5.078  -1.041  0.00  0.00     0.002 A 
ATOM      7  C8  UNL d   1       1.267   4.126  -0.051  0.00  0.00     0.006 A 
ENDROOT
BRANCH   1   8
ATOM      8  C1  UNL d   1       0.678   2.007   1.186  0.00  0.00     0.054 C 
ATOM      9  C   UNL d   1      -0.094   2.245   2.476  0.00  0.00     0.018 C 
ENDBRANCH   1   8
TORSDOF 1
ENDMDL
