MODEL 1
REMARK minimizedAffinity 4.32414246
REMARK minimizedRMSD -1
REMARK  1 active torsions:
REMARK  status: ('A' for Active; 'I' for Inactive)
REMARK    1  A    between atoms: C1_2  and  C2_3 
ROOT
ATOM      1  C2  UNL d   1      -1.768   5.010   0.743  0.00  0.00    -0.081 A 
ATOM      2  C3  UNL d   1      -1.187   3.788   1.103  0.00  0.00     0.006 A 
ATOM      3  C4  UNL d   1      -0.687   2.926   0.125  0.00  0.00     0.002 A 
ATOM      4  C5  UNL d   1      -0.752   3.274  -1.228  0.00  0.00    -0.080 A 
ATOM      5  C6  UNL d   1      -0.191   2.371  -2.286  0.00  0.00     0.076 C 
ATOM      6  C7  UNL d   1      -1.348   4.487  -1.590  0.00  0.00     0.002 A 
ATOM      7  C8  UNL d   1      -1.849   5.349  -0.612  0.00  0.00     0.006 A 
ENDROOT
BRANCH   1   8
ATOM      8  C1  UNL d   1      -2.250   5.971   1.799  0.00  0.00     0.054 C 
ATOM      9  C   UNL d   1      -3.771   6.000   1.869  0.00  0.00     0.018 C 
ENDBRANCH   1   8
TORSDOF 1
ENDMDL
