MODEL 1
REMARK minimizedAffinity 14.6189108
REMARK minimizedRMSD -1
REMARK  1 active torsions:
REMARK  status: ('A' for Active; 'I' for Inactive)
REMARK    1  A    between atoms: C1_2  and  C2_3 
ROOT
ATOM      1  C2  UNL d   1       0.019   2.313   1.219  0.00  0.00    -0.081 A 
ATOM      2  C3  UNL d   1       1.354   1.906   1.337  0.00  0.00     0.006 A 
ATOM      3  C4  UNL d   1       1.771   1.159   2.441  0.00  0.00     0.002 A 
ATOM      4  C5  UNL d   1       0.861   0.800   3.441  0.00  0.00    -0.080 A 
ATOM      5  C6  UNL d   1       1.289  -0.027   4.616  0.00  0.00     0.076 C 
ATOM      6  C7  UNL d   1      -0.469   1.222   3.332  0.00  0.00     0.002 A 
ATOM      7  C8  UNL d   1      -0.887   1.969   2.228  0.00  0.00     0.006 A 
ENDROOT
BRANCH   1   8
ATOM      8  C1  UNL d   1      -0.448   3.063  -0.002  0.00  0.00     0.054 C 
ATOM      9  C   UNL d   1       0.598   4.065  -0.470  0.00  0.00     0.018 C 
ENDBRANCH   1   8
TORSDOF 1
ENDMDL
