MODEL 1
REMARK minimizedAffinity -4.40043163
REMARK minimizedRMSD -1
REMARK  0 active torsions:
REMARK  status: ('A' for Active; 'I' for Inactive)
ROOT
ATOM      1  C   UNL d   1       2.673  -1.476   0.671  0.00  0.00    -0.002 A 
ATOM      2  C1  UNL d   1       2.716  -0.176   1.154  0.00  0.00     0.010 A 
ATOM      3  C2  UNL d   1       1.660   0.706   0.917  0.00  0.00     0.041 A 
ATOM      4  C3  UNL d   1       0.546   0.253   0.182  0.00  0.00    -0.075 A 
ATOM      5  S   UNL d   1      -0.864   1.155  -0.228  0.00  0.00     0.015 SA
ATOM      6  C4  UNL d   1      -1.559  -0.164  -1.054  0.00  0.00     0.022 A 
ATOM      7  C5  UNL d   1      -0.748  -1.274  -1.027  0.00  0.00     0.026 A 
ATOM      8  C6  UNL d   1       0.479  -1.052  -0.314  0.00  0.00    -0.082 A 
ATOM      9  C7  UNL d   1       1.567  -1.921  -0.058  0.00  0.00     0.045 A 
ENDROOT
TORSDOF 0
ENDMDL
