MODEL 1
REMARK minimizedAffinity -2.97334909
REMARK minimizedRMSD -1
REMARK  0 active torsions:
REMARK  status: ('A' for Active; 'I' for Inactive)
ROOT
ATOM      1  C   UNL d   1       2.910  -1.642   0.592  0.00  0.00    -0.002 A 
ATOM      2  C1  UNL d   1       3.293  -0.309   0.597  0.00  0.00     0.010 A 
ATOM      3  C2  UNL d   1       2.356   0.700   0.366  0.00  0.00     0.041 A 
ATOM      4  C3  UNL d   1       1.014   0.343   0.130  0.00  0.00    -0.075 A 
ATOM      5  S   UNL d   1      -0.307   1.408  -0.176  0.00  0.00     0.015 SA
ATOM      6  C4  UNL d   1      -1.411   0.117  -0.320  0.00  0.00     0.022 A 
ATOM      7  C5  UNL d   1      -0.804  -1.103  -0.142  0.00  0.00     0.026 A 
ATOM      8  C6  UNL d   1       0.604  -0.993   0.121  0.00  0.00    -0.082 A 
ATOM      9  C7  UNL d   1       1.578  -1.993   0.357  0.00  0.00     0.045 A 
ENDROOT
TORSDOF 0
ENDMDL
