MODEL 1
REMARK minimizedAffinity -2.46455646
REMARK minimizedRMSD -1
REMARK  0 active torsions:
REMARK  status: ('A' for Active; 'I' for Inactive)
ROOT
ATOM      1  C   UNL d   1       3.321  -1.181   1.390  0.00  0.00    -0.002 A 
ATOM      2  C1  UNL d   1       3.423  -1.845   0.175  0.00  0.00     0.010 A 
ATOM      3  C2  UNL d   1       2.384  -1.788  -0.755  0.00  0.00     0.041 A 
ATOM      4  C3  UNL d   1       1.229  -1.045  -0.442  0.00  0.00    -0.075 A 
ATOM      5  S   UNL d   1      -0.170  -0.833  -1.427  0.00  0.00     0.015 SA
ATOM      6  C4  UNL d   1      -0.936   0.144  -0.260  0.00  0.00     0.022 A 
ATOM      7  C5  UNL d   1      -0.158   0.315   0.861  0.00  0.00     0.026 A 
ATOM      8  C6  UNL d   1       1.103  -0.367   0.774  0.00  0.00    -0.082 A 
ATOM      9  C7  UNL d   1       2.174  -0.445   1.697  0.00  0.00     0.045 A 
ENDROOT
TORSDOF 0
ENDMDL
