MODEL 1
REMARK minimizedAffinity -3.05550218
REMARK minimizedRMSD -1
REMARK  0 active torsions:
REMARK  status: ('A' for Active; 'I' for Inactive)
ROOT
ATOM      1  C   UNL d   1       2.634  -1.808   0.593  0.00  0.00    -0.002 A 
ATOM      2  C1  UNL d   1       2.493  -1.062   1.754  0.00  0.00     0.010 A 
ATOM      3  C2  UNL d   1       1.442  -0.153   1.892  0.00  0.00     0.041 A 
ATOM      4  C3  UNL d   1       0.526  -0.006   0.832  0.00  0.00    -0.075 A 
ATOM      5  S   UNL d   1      -0.840   1.046   0.777  0.00  0.00     0.015 SA
ATOM      6  C4  UNL d   1      -1.268   0.529  -0.789  0.00  0.00     0.022 A 
ATOM      7  C5  UNL d   1      -0.402  -0.422  -1.274  0.00  0.00     0.026 A 
ATOM      8  C6  UNL d   1       0.646  -0.747  -0.347  0.00  0.00    -0.082 A 
ATOM      9  C7  UNL d   1       1.723  -1.659  -0.456  0.00  0.00     0.045 A 
ENDROOT
TORSDOF 0
ENDMDL
