MODEL 1
REMARK minimizedAffinity 0.890299141
REMARK minimizedRMSD -1
REMARK  0 active torsions:
REMARK  status: ('A' for Active; 'I' for Inactive)
ROOT
ATOM      1  C   UNL d   1       3.801  -1.506  -0.512  0.00  0.00    -0.002 A 
ATOM      2  C1  UNL d   1       4.125  -0.156  -0.517  0.00  0.00     0.010 A 
ATOM      3  C2  UNL d   1       3.126   0.814  -0.416  0.00  0.00     0.041 A 
ATOM      4  C3  UNL d   1       1.783   0.401  -0.307  0.00  0.00    -0.075 A 
ATOM      5  S   UNL d   1       0.393   1.411  -0.171  0.00  0.00     0.015 SA
ATOM      6  C4  UNL d   1      -0.663   0.075  -0.101  0.00  0.00     0.022 A 
ATOM      7  C5  UNL d   1       0.012  -1.120  -0.179  0.00  0.00     0.026 A 
ATOM      8  C6  UNL d   1       1.433  -0.952  -0.298  0.00  0.00    -0.082 A 
ATOM      9  C7  UNL d   1       2.469  -1.911  -0.403  0.00  0.00     0.045 A 
ENDROOT
TORSDOF 0
ENDMDL
