MODEL 1
REMARK minimizedAffinity -2.77574635
REMARK minimizedRMSD -1
REMARK  0 active torsions:
REMARK  status: ('A' for Active; 'I' for Inactive)
ROOT
ATOM      1  C   UNL d   1      -0.691   1.901  -0.707  0.00  0.00    -0.002 A 
ATOM      2  C1  UNL d   1       0.455   2.360  -0.074  0.00  0.00     0.010 A 
ATOM      3  C2  UNL d   1       1.455   1.469   0.321  0.00  0.00     0.041 A 
ATOM      4  C3  UNL d   1       1.282   0.095   0.064  0.00  0.00    -0.075 A 
ATOM      5  S   UNL d   1       2.374  -1.181   0.457  0.00  0.00     0.015 SA
ATOM      6  C4  UNL d   1       1.345  -2.366  -0.209  0.00  0.00     0.022 A 
ATOM      7  C5  UNL d   1       0.193  -1.820  -0.722  0.00  0.00     0.026 A 
ATOM      8  C6  UNL d   1       0.138  -0.392  -0.574  0.00  0.00    -0.082 A 
ATOM      9  C7  UNL d   1      -0.858   0.537  -0.961  0.00  0.00     0.045 A 
ENDROOT
TORSDOF 0
ENDMDL
