MODEL 1
REMARK minimizedAffinity -2.77519441
REMARK minimizedRMSD -1
REMARK  0 active torsions:
REMARK  status: ('A' for Active; 'I' for Inactive)
ROOT
ATOM      1  C   UNL d   1       2.229  -1.810  -0.308  0.00  0.00    -0.002 A 
ATOM      2  C1  UNL d   1       3.116  -0.744  -0.307  0.00  0.00     0.010 A 
ATOM      3  C2  UNL d   1       2.654   0.565  -0.459  0.00  0.00     0.041 A 
ATOM      4  C3  UNL d   1       1.272   0.786  -0.613  0.00  0.00    -0.075 A 
ATOM      5  S   UNL d   1       0.477   2.303  -0.815  0.00  0.00     0.015 SA
ATOM      6  C4  UNL d   1      -1.059   1.571  -0.907  0.00  0.00     0.022 A 
ATOM      7  C5  UNL d   1      -0.986   0.203  -0.789  0.00  0.00     0.026 A 
ATOM      8  C6  UNL d   1       0.358  -0.272  -0.617  0.00  0.00    -0.082 A 
ATOM      9  C7  UNL d   1       0.858  -1.587  -0.461  0.00  0.00     0.045 A 
ENDROOT
TORSDOF 0
ENDMDL
