MODEL 1
REMARK minimizedAffinity 7.48152971
REMARK minimizedRMSD -1
REMARK  0 active torsions:
REMARK  status: ('A' for Active; 'I' for Inactive)
ROOT
ATOM      1  C   UNL d   1       2.703  -2.271  -2.749  0.00  0.00    -0.002 A 
ATOM      2  C1  UNL d   1       3.054  -2.697  -1.476  0.00  0.00     0.010 A 
ATOM      3  C2  UNL d   1       2.201  -2.476  -0.393  0.00  0.00     0.041 A 
ATOM      4  C3  UNL d   1       0.976  -1.816  -0.614  0.00  0.00    -0.075 A 
ATOM      5  S   UNL d   1      -0.228  -1.437   0.561  0.00  0.00     0.015 SA
ATOM      6  C4  UNL d   1      -1.236  -0.703  -0.600  0.00  0.00     0.022 A 
ATOM      7  C5  UNL d   1      -0.684  -0.737  -1.859  0.00  0.00     0.026 A 
ATOM      8  C6  UNL d   1       0.600  -1.379  -1.887  0.00  0.00    -0.082 A 
ATOM      9  C7  UNL d   1       1.488  -1.617  -2.965  0.00  0.00     0.045 A 
ENDROOT
TORSDOF 0
ENDMDL
