MODEL 1
REMARK minimizedAffinity 6.074121
REMARK minimizedRMSD -1
REMARK  0 active torsions:
REMARK  status: ('A' for Active; 'I' for Inactive)
ROOT
ATOM      1  C   UNL d   1      -0.333  -3.878  -1.103  0.00  0.00    -0.002 A 
ATOM      2  C1  UNL d   1      -0.391  -2.811  -1.988  0.00  0.00     0.010 A 
ATOM      3  C2  UNL d   1       0.493  -1.736  -1.863  0.00  0.00     0.041 A 
ATOM      4  C3  UNL d   1       1.445  -1.754  -0.825  0.00  0.00    -0.075 A 
ATOM      5  S   UNL d   1       2.628  -0.549  -0.479  0.00  0.00     0.015 SA
ATOM      6  C4  UNL d   1       3.238  -1.423   0.850  0.00  0.00     0.022 A 
ATOM      7  C5  UNL d   1       2.567  -2.608   1.041  0.00  0.00     0.026 A 
ATOM      8  C6  UNL d   1       1.523  -2.818   0.078  0.00  0.00    -0.082 A 
ATOM      9  C7  UNL d   1       0.613  -3.892  -0.075  0.00  0.00     0.045 A 
ENDROOT
TORSDOF 0
ENDMDL
