MODEL 1
REMARK minimizedAffinity -2.49346495
REMARK minimizedRMSD -1
REMARK  1 active torsions:
REMARK  status: ('A' for Active; 'I' for Inactive)
REMARK    1  A    between atoms: N_2  and  C1_3 
ROOT
ATOM      1  C1  UNL d   1      -0.283   0.119   0.075  0.00  0.00     0.143 A 
ATOM      2  C2  UNL d   1      -0.531  -1.257   0.114  0.00  0.00    -0.057 A 
ATOM      3  C3  UNL d   1       0.479  -2.185  -0.168  0.00  0.00     0.033 A 
ATOM      4  C4  UNL d   1       1.751  -1.750  -0.524  0.00  0.00    -0.042 A 
ATOM      5  C5  UNL d   1       2.014  -0.387  -0.594  0.00  0.00     0.033 A 
ATOM      6  C6  UNL d   1       1.003   0.535  -0.305  0.00  0.00    -0.057 A 
ENDROOT
BRANCH   1   7
ATOM      7  N   UNL d   1      -1.270   1.093   0.248  0.00  0.00    -0.732 N 
ATOM      8  C   UNL d   1      -2.552   0.748   0.824  0.00  0.00     0.284 C 
ATOM      9  H3  UNL d   1      -0.890   1.977   0.579  0.00  0.00     0.395 HD
ENDBRANCH   1   7
TORSDOF 1
ENDMDL
