MODEL 1
REMARK minimizedAffinity -4.30213451
REMARK minimizedRMSD -1
REMARK  1 active torsions:
REMARK  status: ('A' for Active; 'I' for Inactive)
REMARK    1  A    between atoms: N_2  and  C1_3 
ROOT
ATOM      1  C1  UNL d   1       0.497   0.696   0.027  0.00  0.00     0.143 A 
ATOM      2  C2  UNL d   1       1.633   1.511   0.059  0.00  0.00    -0.057 A 
ATOM      3  C3  UNL d   1       2.921   0.963   0.003  0.00  0.00     0.033 A 
ATOM      4  C4  UNL d   1       3.095  -0.415  -0.058  0.00  0.00    -0.042 A 
ATOM      5  C5  UNL d   1       1.980  -1.246  -0.065  0.00  0.00     0.033 A 
ATOM      6  C6  UNL d   1       0.697  -0.693  -0.015  0.00  0.00    -0.057 A 
ENDROOT
BRANCH   1   7
ATOM      7  N   UNL d   1      -0.807   1.173   0.179  0.00  0.00    -0.732 N 
ATOM      8  C   UNL d   1      -1.929   0.442  -0.370  0.00  0.00     0.284 C 
ATOM      9  H3  UNL d   1      -0.975   1.556   1.107  0.00  0.00     0.395 HD
ENDBRANCH   1   7
TORSDOF 1
ENDMDL
