MODEL 1
REMARK minimizedAffinity -3.4846673
REMARK minimizedRMSD -1
REMARK  1 active torsions:
REMARK  status: ('A' for Active; 'I' for Inactive)
REMARK    1  A    between atoms: N_2  and  C1_3 
ROOT
ATOM      1  C1  UNL d   1       0.498   0.522  -0.551  0.00  0.00     0.143 A 
ATOM      2  C2  UNL d   1       0.906  -0.813  -0.453  0.00  0.00    -0.057 A 
ATOM      3  C3  UNL d   1       2.215  -1.147  -0.087  0.00  0.00     0.033 A 
ATOM      4  C4  UNL d   1       3.151  -0.148   0.160  0.00  0.00    -0.042 A 
ATOM      5  C5  UNL d   1       2.775   1.185   0.043  0.00  0.00     0.033 A 
ATOM      6  C6  UNL d   1       1.464   1.512  -0.316  0.00  0.00    -0.057 A 
ENDROOT
BRANCH   1   7
ATOM      7  N   UNL d   1      -0.762   0.919  -1.006  0.00  0.00    -0.732 N 
ATOM      8  C   UNL d   1      -1.921   0.818  -0.146  0.00  0.00     0.284 C 
ATOM      9  H3  UNL d   1      -0.724   1.774  -1.555  0.00  0.00     0.395 HD
ENDBRANCH   1   7
TORSDOF 1
ENDMDL
