MODEL 1
REMARK minimizedAffinity -0.407194018
REMARK minimizedRMSD -1
REMARK  1 active torsions:
REMARK  status: ('A' for Active; 'I' for Inactive)
REMARK    1  A    between atoms: N_2  and  C1_3 
ROOT
ATOM      1  C1  UNL d   1      -1.913   0.873   0.272  0.00  0.00     0.143 A 
ATOM      2  C2  UNL d   1      -2.832  -0.095   0.692  0.00  0.00    -0.057 A 
ATOM      3  C3  UNL d   1      -3.909   0.238   1.522  0.00  0.00     0.033 A 
ATOM      4  C4  UNL d   1      -4.070   1.545   1.972  0.00  0.00    -0.042 A 
ATOM      5  C5  UNL d   1      -3.155   2.518   1.587  0.00  0.00     0.033 A 
ATOM      6  C6  UNL d   1      -2.086   2.181   0.752  0.00  0.00    -0.057 A 
ENDROOT
BRANCH   1   7
ATOM      7  N   UNL d   1      -0.767   0.586  -0.473  0.00  0.00    -0.732 N 
ATOM      8  C   UNL d   1      -0.131  -0.711  -0.377  0.00  0.00     0.284 C 
ATOM      9  H3  UNL d   1      -0.816   0.956  -1.420  0.00  0.00     0.395 HD
ENDBRANCH   1   7
TORSDOF 1
ENDMDL
