MODEL 1
REMARK minimizedAffinity 1.80651093
REMARK minimizedRMSD -1
REMARK  1 active torsions:
REMARK  status: ('A' for Active; 'I' for Inactive)
REMARK    1  A    between atoms: N_2  and  C1_3 
ROOT
ATOM      1  C1  UNL d   1      -1.934   0.349  -0.098  0.00  0.00     0.143 A 
ATOM      2  C2  UNL d   1      -3.182   0.693  -0.629  0.00  0.00    -0.057 A 
ATOM      3  C3  UNL d   1      -4.313   0.803   0.188  0.00  0.00     0.033 A 
ATOM      4  C4  UNL d   1      -4.222   0.541   1.551  0.00  0.00    -0.042 A 
ATOM      5  C5  UNL d   1      -2.997   0.174   2.097  0.00  0.00     0.033 A 
ATOM      6  C6  UNL d   1      -1.869   0.073   1.276  0.00  0.00    -0.057 A 
ENDROOT
BRANCH   1   7
ATOM      7  N   UNL d   1      -0.793   0.128  -0.874  0.00  0.00    -0.732 N 
ATOM      8  C   UNL d   1       0.314  -0.645  -0.352  0.00  0.00     0.284 C 
ATOM      9  H3  UNL d   1      -1.016  -0.070  -1.846  0.00  0.00     0.395 HD
ENDBRANCH   1   7
TORSDOF 1
ENDMDL
