MODEL 1
REMARK minimizedAffinity -2.22983837
REMARK minimizedRMSD -1
REMARK  1 active torsions:
REMARK  status: ('A' for Active; 'I' for Inactive)
REMARK    1  A    between atoms: N_2  and  C1_3 
ROOT
ATOM      1  C1  UNL d   1       0.870  -1.851  -0.984  0.00  0.00     0.143 A 
ATOM      2  C2  UNL d   1       2.227  -2.146  -0.815  0.00  0.00    -0.057 A 
ATOM      3  C3  UNL d   1       3.117  -1.200  -0.291  0.00  0.00     0.033 A 
ATOM      4  C4  UNL d   1       2.668   0.072   0.047  0.00  0.00    -0.042 A 
ATOM      5  C5  UNL d   1       1.328   0.396  -0.136  0.00  0.00     0.033 A 
ATOM      6  C6  UNL d   1       0.444  -0.555  -0.653  0.00  0.00    -0.057 A 
ENDROOT
BRANCH   1   7
ATOM      7  N   UNL d   1      -0.044  -2.715  -1.591  0.00  0.00    -0.732 N 
ATOM      8  C   UNL d   1      -0.600  -2.405  -2.891  0.00  0.00     0.284 C 
ATOM      9  H3  UNL d   1       0.206  -3.694  -1.469  0.00  0.00     0.395 HD
ENDBRANCH   1   7
TORSDOF 1
ENDMDL
