MODEL 1
REMARK minimizedAffinity 11.5284786
REMARK minimizedRMSD -1
REMARK  0 active torsions:
REMARK  status: ('A' for Active; 'I' for Inactive)
ROOT
ATOM      1  C   UNL d   1       0.543   3.009  -5.999  0.00  0.00     0.078 C 
ATOM      2  C1  UNL d   1       0.388   1.990  -4.910  0.00  0.00    -0.077 A 
ATOM      3  C2  UNL d   1       0.064   0.660  -5.208  0.00  0.00    -0.001 A 
ATOM      4  C3  UNL d   1      -0.087  -0.276  -4.183  0.00  0.00     0.003 A 
ATOM      5  C4  UNL d   1       0.083   0.108  -2.854  0.00  0.00    -0.005 A 
ATOM      6  C5  UNL d   1       0.403   1.429  -2.549  0.00  0.00     0.003 A 
ATOM      7  C6  UNL d   1       0.555   2.367  -3.572  0.00  0.00    -0.001 A 
ENDROOT
TORSDOF 0
ENDMDL
