MODEL 1
REMARK minimizedAffinity 2.21410346
REMARK minimizedRMSD -1
REMARK  0 active torsions:
REMARK  status: ('A' for Active; 'I' for Inactive)
ROOT
ATOM      1  C   UNL d   1       3.105   4.203  -2.737  0.00  0.00     0.078 C 
ATOM      2  C1  UNL d   1       2.413   2.873  -2.700  0.00  0.00    -0.077 A 
ATOM      3  C2  UNL d   1       1.748   2.375  -3.827  0.00  0.00    -0.001 A 
ATOM      4  C3  UNL d   1       1.100   1.140  -3.776  0.00  0.00     0.003 A 
ATOM      5  C4  UNL d   1       1.108   0.394  -2.599  0.00  0.00    -0.005 A 
ATOM      6  C5  UNL d   1       1.765   0.883  -1.472  0.00  0.00     0.003 A 
ATOM      7  C6  UNL d   1       2.414   2.117  -1.521  0.00  0.00    -0.001 A 
ENDROOT
TORSDOF 0
ENDMDL
