MODEL 1
REMARK minimizedAffinity 6.25563669
REMARK minimizedRMSD -1
REMARK  0 active torsions:
REMARK  status: ('A' for Active; 'I' for Inactive)
ROOT
ATOM      1  C   UNL d   1      -0.349  -5.241   1.605  0.00  0.00     0.078 C 
ATOM      2  C1  UNL d   1      -1.338  -4.355   0.908  0.00  0.00    -0.077 A 
ATOM      3  C2  UNL d   1      -2.184  -3.508   1.633  0.00  0.00    -0.001 A 
ATOM      4  C3  UNL d   1      -3.107  -2.697   0.971  0.00  0.00     0.003 A 
ATOM      5  C4  UNL d   1      -3.193  -2.726  -0.419  0.00  0.00    -0.005 A 
ATOM      6  C5  UNL d   1      -2.357  -3.567  -1.150  0.00  0.00     0.003 A 
ATOM      7  C6  UNL d   1      -1.434  -4.379  -0.489  0.00  0.00    -0.001 A 
ENDROOT
TORSDOF 0
ENDMDL
