MODEL 1
REMARK minimizedAffinity 1.61455059
REMARK minimizedRMSD -1
REMARK  0 active torsions:
REMARK  status: ('A' for Active; 'I' for Inactive)
ROOT
ATOM      1  C   UNL d   1       0.243  -1.278  -1.799  0.00  0.00     0.078 C 
ATOM      2  C1  UNL d   1       0.908  -0.263  -2.680  0.00  0.00    -0.077 A 
ATOM      3  C2  UNL d   1       0.278   0.210  -3.837  0.00  0.00    -0.001 A 
ATOM      4  C3  UNL d   1       0.913   1.148  -4.653  0.00  0.00     0.003 A 
ATOM      5  C4  UNL d   1       2.182   1.619  -4.321  0.00  0.00    -0.005 A 
ATOM      6  C5  UNL d   1       2.818   1.152  -3.173  0.00  0.00     0.003 A 
ATOM      7  C6  UNL d   1       2.184   0.215  -2.355  0.00  0.00    -0.001 A 
ENDROOT
TORSDOF 0
ENDMDL
