MODEL 1
REMARK minimizedAffinity 12.1216002
REMARK minimizedRMSD -1
REMARK  0 active torsions:
REMARK  status: ('A' for Active; 'I' for Inactive)
ROOT
ATOM      1  C   UNL d   1      -3.088   2.588   3.464  0.00  0.00     0.078 C 
ATOM      2  C1  UNL d   1      -3.379   3.768   4.341  0.00  0.00    -0.077 A 
ATOM      3  C2  UNL d   1      -4.488   3.776   5.196  0.00  0.00    -0.001 A 
ATOM      4  C3  UNL d   1      -4.752   4.885   6.000  0.00  0.00     0.003 A 
ATOM      5  C4  UNL d   1      -3.913   5.997   5.956  0.00  0.00    -0.005 A 
ATOM      6  C5  UNL d   1      -2.808   5.999   5.107  0.00  0.00     0.003 A 
ATOM      7  C6  UNL d   1      -2.542   4.891   4.303  0.00  0.00    -0.001 A 
ENDROOT
TORSDOF 0
ENDMDL
