MODEL 1
REMARK minimizedAffinity 9.43376923
REMARK minimizedRMSD -1
REMARK  0 active torsions:
REMARK  status: ('A' for Active; 'I' for Inactive)
ROOT
ATOM      1  C   UNL d   1      -5.990   4.620   3.394  0.00  0.00     0.078 C 
ATOM      2  C1  UNL d   1      -4.721   4.856   4.157  0.00  0.00    -0.077 A 
ATOM      3  C2  UNL d   1      -3.528   4.225   3.785  0.00  0.00    -0.001 A 
ATOM      4  C3  UNL d   1      -2.356   4.446   4.511  0.00  0.00     0.003 A 
ATOM      5  C4  UNL d   1      -2.366   5.298   5.613  0.00  0.00    -0.005 A 
ATOM      6  C5  UNL d   1      -3.549   5.929   5.992  0.00  0.00     0.003 A 
ATOM      7  C6  UNL d   1      -4.722   5.709   5.268  0.00  0.00    -0.001 A 
ENDROOT
TORSDOF 0
ENDMDL
