MODEL 1
REMARK minimizedAffinity 10.0049038
REMARK minimizedRMSD -1
REMARK  0 active torsions:
REMARK  status: ('A' for Active; 'I' for Inactive)
ROOT
ATOM      1  C   UNL d   1       2.248  -2.846  -1.549  0.00  0.00     0.078 C 
ATOM      2  C1  UNL d   1       1.841  -1.452  -1.925  0.00  0.00    -0.077 A 
ATOM      3  C2  UNL d   1       1.725  -1.071  -3.267  0.00  0.00    -0.001 A 
ATOM      4  C3  UNL d   1       1.354   0.232  -3.602  0.00  0.00     0.003 A 
ATOM      5  C4  UNL d   1       1.098   1.166  -2.600  0.00  0.00    -0.005 A 
ATOM      6  C5  UNL d   1       1.213   0.797  -1.261  0.00  0.00     0.003 A 
ATOM      7  C6  UNL d   1       1.583  -0.506  -0.924  0.00  0.00    -0.001 A 
ENDROOT
TORSDOF 0
ENDMDL
