MODEL 1
REMARK minimizedAffinity -0.16832687
REMARK minimizedRMSD -1
REMARK  0 active torsions:
REMARK  status: ('A' for Active; 'I' for Inactive)
ROOT
ATOM      1  C   UNL d   1       1.559   1.442  -0.543  0.00  0.00     0.078 C 
ATOM      2  C1  UNL d   1       1.703   1.460  -2.036  0.00  0.00    -0.077 A 
ATOM      3  C2  UNL d   1       2.411   2.483  -2.679  0.00  0.00    -0.001 A 
ATOM      4  C3  UNL d   1       2.529   2.493  -4.070  0.00  0.00     0.003 A 
ATOM      5  C4  UNL d   1       1.941   1.483  -4.829  0.00  0.00    -0.005 A 
ATOM      6  C5  UNL d   1       1.233   0.462  -4.198  0.00  0.00     0.003 A 
ATOM      7  C6  UNL d   1       1.114   0.451  -2.807  0.00  0.00    -0.001 A 
ENDROOT
TORSDOF 0
ENDMDL
