MODEL 1
REMARK minimizedAffinity 2.69712543
REMARK minimizedRMSD -1
REMARK  0 active torsions:
REMARK  status: ('A' for Active; 'I' for Inactive)
ROOT
ATOM      1  C   UNL d   1       1.820   1.280  -5.672  0.00  0.00     0.078 C 
ATOM      2  C1  UNL d   1       1.826   1.004  -4.198  0.00  0.00    -0.077 A 
ATOM      3  C2  UNL d   1       2.996   0.597  -3.545  0.00  0.00    -0.001 A 
ATOM      4  C3  UNL d   1       2.985   0.334  -2.175  0.00  0.00     0.003 A 
ATOM      5  C4  UNL d   1       1.806   0.473  -1.445  0.00  0.00    -0.005 A 
ATOM      6  C5  UNL d   1       0.636   0.875  -2.086  0.00  0.00     0.003 A 
ATOM      7  C6  UNL d   1       0.645   1.138  -3.457  0.00  0.00    -0.001 A 
ENDROOT
TORSDOF 0
ENDMDL
