MODEL 1
REMARK minimizedAffinity 5.40561628
REMARK minimizedRMSD -1
REMARK  0 active torsions:
REMARK  status: ('A' for Active; 'I' for Inactive)
ROOT
ATOM      1  C   UNL d   1       1.144  -3.166  -2.535  0.00  0.00     0.078 C 
ATOM      2  C1  UNL d   1       1.997  -1.992  -2.157  0.00  0.00    -0.077 A 
ATOM      3  C2  UNL d   1       2.035  -0.841  -2.955  0.00  0.00    -0.001 A 
ATOM      4  C3  UNL d   1       2.841   0.240  -2.596  0.00  0.00     0.003 A 
ATOM      5  C4  UNL d   1       3.617   0.181  -1.440  0.00  0.00    -0.005 A 
ATOM      6  C5  UNL d   1       3.588  -0.960  -0.642  0.00  0.00     0.003 A 
ATOM      7  C6  UNL d   1       2.782  -2.042  -0.999  0.00  0.00    -0.001 A 
ENDROOT
TORSDOF 0
ENDMDL
