MODEL 1
REMARK minimizedAffinity 5.86362553
REMARK minimizedRMSD -1
REMARK  0 active torsions:
REMARK  status: ('A' for Active; 'I' for Inactive)
ROOT
ATOM      1  C   UNL d   1       0.001   2.209  -6.000  0.00  0.00     0.078 C 
ATOM      2  C1  UNL d   1       0.263   1.740  -4.600  0.00  0.00    -0.077 A 
ATOM      3  C2  UNL d   1       0.385   0.376  -4.308  0.00  0.00    -0.001 A 
ATOM      4  C3  UNL d   1       0.620  -0.047  -2.998  0.00  0.00     0.003 A 
ATOM      5  C4  UNL d   1       0.733   0.888  -1.971  0.00  0.00    -0.005 A 
ATOM      6  C5  UNL d   1       0.610   2.247  -2.252  0.00  0.00     0.003 A 
ATOM      7  C6  UNL d   1       0.376   2.672  -3.561  0.00  0.00    -0.001 A 
ENDROOT
TORSDOF 0
ENDMDL
