MODEL 1
REMARK minimizedAffinity 3.70151711
REMARK minimizedRMSD -1
REMARK  0 active torsions:
REMARK  status: ('A' for Active; 'I' for Inactive)
ROOT
ATOM      1  C   UNL d   1      -5.228   3.731   2.727  0.00  0.00     0.078 C 
ATOM      2  C1  UNL d   1      -4.654   4.515   3.868  0.00  0.00    -0.077 A 
ATOM      3  C2  UNL d   1      -5.454   4.909   4.948  0.00  0.00    -0.001 A 
ATOM      4  C3  UNL d   1      -4.908   5.648   5.999  0.00  0.00     0.003 A 
ATOM      5  C4  UNL d   1      -3.560   6.000   5.981  0.00  0.00    -0.005 A 
ATOM      6  C5  UNL d   1      -2.756   5.614   4.910  0.00  0.00     0.003 A 
ATOM      7  C6  UNL d   1      -3.300   4.876   3.858  0.00  0.00    -0.001 A 
ENDROOT
TORSDOF 0
ENDMDL
