MODEL 1
REMARK minimizedAffinity 8.23456383
REMARK minimizedRMSD -1
REMARK  0 active torsions:
REMARK  status: ('A' for Active; 'I' for Inactive)
ROOT
ATOM      1  C   UNL d   1      -0.004   1.495  -6.000  0.00  0.00     0.078 C 
ATOM      2  C1  UNL d   1       0.281   1.123  -4.575  0.00  0.00    -0.077 A 
ATOM      3  C2  UNL d   1      -0.386   0.056  -3.961  0.00  0.00    -0.001 A 
ATOM      4  C3  UNL d   1      -0.117  -0.272  -2.631  0.00  0.00     0.003 A 
ATOM      5  C4  UNL d   1       0.817   0.462  -1.904  0.00  0.00    -0.005 A 
ATOM      6  C5  UNL d   1       1.484   1.527  -2.506  0.00  0.00     0.003 A 
ATOM      7  C6  UNL d   1       1.217   1.857  -3.836  0.00  0.00    -0.001 A 
ENDROOT
TORSDOF 0
ENDMDL
