MODEL 1
REMARK minimizedAffinity -6.06591034
REMARK minimizedRMSD -1
REMARK  0 active torsions:
REMARK  status: ('A' for Active; 'I' for Inactive)
ROOT
ATOM      1  C   UNL d   1      -3.425   0.899   4.458  0.00  0.00     0.078 C 
ATOM      2  C1  UNL d   1      -3.328   0.862   2.962  0.00  0.00    -0.077 A 
ATOM      3  C2  UNL d   1      -3.102   2.031   2.225  0.00  0.00    -0.001 A 
ATOM      4  C3  UNL d   1      -3.023   1.983   0.832  0.00  0.00     0.003 A 
ATOM      5  C4  UNL d   1      -3.170   0.769   0.164  0.00  0.00    -0.005 A 
ATOM      6  C5  UNL d   1      -3.398  -0.399   0.889  0.00  0.00     0.003 A 
ATOM      7  C6  UNL d   1      -3.477  -0.353   2.282  0.00  0.00    -0.001 A 
ENDROOT
TORSDOF 0
ENDMDL
