MODEL 1
REMARK minimizedAffinity 0.444847524
REMARK minimizedRMSD -1
REMARK  0 active torsions:
REMARK  status: ('A' for Active; 'I' for Inactive)
ROOT
ATOM      1  N1  IND d   1      -1.240   0.123   0.995  0.00  0.00    -0.196 N 
ATOM      2  C2  IND d   1      -1.207  -1.221   1.243  0.00  0.00     0.054 A 
ATOM      3  C3  IND d   1      -0.422  -1.848   0.339  0.00  0.00    -0.031 A 
ATOM      4  C4  IND d   1       0.988  -0.852  -1.572  0.00  0.00     0.051 A 
ATOM      5  C5  IND d   1       1.253   0.325  -2.214  0.00  0.00    -0.031 A 
ATOM      6  C6  IND d   1       0.691   1.519  -1.810  0.00  0.00     0.015 A 
ATOM      7  C7  IND d   1      -0.151   1.583  -0.737  0.00  0.00    -0.016 A 
ATOM      8  C8  IND d   1      -0.428   0.389  -0.086  0.00  0.00    -0.047 A 
ATOM      9  C9  IND d   1       0.105  -0.833  -0.517  0.00  0.00    -0.096 A 
ATOM     10  HN1 IND d   1      -1.691   0.704   1.439  0.00  0.00     0.298 HD
ENDROOT
TORSDOF 0
ENDMDL
