MODEL 1
REMARK minimizedAffinity -1.46907043
REMARK minimizedRMSD -1
REMARK  0 active torsions:
REMARK  status: ('A' for Active; 'I' for Inactive)
ROOT
ATOM      1  N1  IND d   1       0.071   2.022  -1.230  0.00  0.00    -0.196 N 
ATOM      2  C2  IND d   1      -0.850   1.980  -0.221  0.00  0.00     0.054 A 
ATOM      3  C3  IND d   1      -0.799   0.786   0.413  0.00  0.00    -0.031 A 
ATOM      4  C4  IND d   1       0.786  -1.204   0.026  0.00  0.00     0.051 A 
ATOM      5  C5  IND d   1       1.774  -1.649  -0.808  0.00  0.00    -0.031 A 
ATOM      6  C6  IND d   1       2.255  -0.875  -1.845  0.00  0.00     0.015 A 
ATOM      7  C7  IND d   1       1.773   0.381  -2.080  0.00  0.00    -0.016 A 
ATOM      8  C8  IND d   1       0.766   0.833  -1.239  0.00  0.00    -0.047 A 
ATOM      9  C9  IND d   1       0.244   0.036  -0.212  0.00  0.00    -0.096 A 
ATOM     10  HN1 IND d   1       0.195   2.681  -1.769  0.00  0.00     0.298 HD
ENDROOT
TORSDOF 0
ENDMDL
