MODEL 1
REMARK minimizedAffinity -5.40629196
REMARK minimizedRMSD -1
REMARK  0 active torsions:
REMARK  status: ('A' for Active; 'I' for Inactive)
ROOT
ATOM      1  N1  IND d   1      -0.706   1.658  -1.379  0.00  0.00    -0.196 N 
ATOM      2  C2  IND d   1      -1.451   1.028  -0.421  0.00  0.00     0.054 A 
ATOM      3  C3  IND d   1      -0.855  -0.127  -0.047  0.00  0.00    -0.031 A 
ATOM      4  C4  IND d   1       1.395  -1.126  -0.799  0.00  0.00     0.051 A 
ATOM      5  C5  IND d   1       2.418  -0.931  -1.685  0.00  0.00    -0.031 A 
ATOM      6  C6  IND d   1       2.454   0.160  -2.528  0.00  0.00     0.015 A 
ATOM      7  C7  IND d   1       1.469   1.108  -2.510  0.00  0.00    -0.016 A 
ATOM      8  C8  IND d   1       0.426   0.909  -1.617  0.00  0.00    -0.047 A 
ATOM      9  C9  IND d   1       0.362  -0.218  -0.789  0.00  0.00    -0.096 A 
ATOM     10  HN1 IND d   1      -0.910   2.398  -1.767  0.00  0.00     0.298 HD
ENDROOT
TORSDOF 0
ENDMDL
