MODEL 1
REMARK minimizedAffinity -5.26117945
REMARK minimizedRMSD -1
REMARK  0 active torsions:
REMARK  status: ('A' for Active; 'I' for Inactive)
ROOT
ATOM      1  N1  IND d   1      -0.744  -0.198   3.797  0.00  0.00    -0.196 N 
ATOM      2  C2  IND d   1      -1.465   0.963   3.804  0.00  0.00     0.054 A 
ATOM      3  C3  IND d   1      -1.713   1.370   2.539  0.00  0.00    -0.031 A 
ATOM      4  C4  IND d   1      -1.120   0.230   0.308  0.00  0.00     0.051 A 
ATOM      5  C5  IND d   1      -0.434  -0.832  -0.210  0.00  0.00    -0.031 A 
ATOM      6  C6  IND d   1       0.195  -1.758   0.598  0.00  0.00     0.015 A 
ATOM      7  C7  IND d   1       0.151  -1.661   1.960  0.00  0.00    -0.016 A 
ATOM      8  C8  IND d   1      -0.540  -0.580   2.489  0.00  0.00    -0.047 A 
ATOM      9  C9  IND d   1      -1.144   0.386   1.674  0.00  0.00    -0.096 A 
ATOM     10  HN1 IND d   1      -0.465  -0.620   4.493  0.00  0.00     0.298 HD
ENDROOT
TORSDOF 0
ENDMDL
