MODEL 1
REMARK minimizedAffinity -0.355130672
REMARK minimizedRMSD -1
REMARK  0 active torsions:
REMARK  status: ('A' for Active; 'I' for Inactive)
ROOT
ATOM      1  N1  IND d   1      -0.973   1.324  -0.806  0.00  0.00    -0.196 N 
ATOM      2  C2  IND d   1      -0.324   2.283  -1.532  0.00  0.00     0.054 A 
ATOM      3  C3  IND d   1       0.909   1.853  -1.884  0.00  0.00    -0.031 A 
ATOM      4  C4  IND d   1       2.028  -0.427  -1.460  0.00  0.00     0.051 A 
ATOM      5  C5  IND d   1       1.842  -1.614  -0.809  0.00  0.00    -0.031 A 
ATOM      6  C6  IND d   1       0.684  -1.889  -0.112  0.00  0.00     0.015 A 
ATOM      7  C7  IND d   1      -0.341  -0.988  -0.049  0.00  0.00    -0.016 A 
ATOM      8  C8  IND d   1      -0.153   0.222  -0.703  0.00  0.00    -0.047 A 
ATOM      9  C9  IND d   1       1.038   0.523  -1.377  0.00  0.00    -0.096 A 
ATOM     10  HN1 IND d   1      -1.761   1.397  -0.469  0.00  0.00     0.298 HD
ENDROOT
TORSDOF 0
ENDMDL
