MODEL 1
REMARK minimizedAffinity 0.260557204
REMARK minimizedRMSD -1
REMARK  0 active torsions:
REMARK  status: ('A' for Active; 'I' for Inactive)
ROOT
ATOM      1  N1  IND d   1      -0.976   1.357   0.072  0.00  0.00    -0.196 N 
ATOM      2  C2  IND d   1      -1.510   0.599   1.077  0.00  0.00     0.054 A 
ATOM      3  C3  IND d   1      -0.920  -0.617   1.112  0.00  0.00    -0.031 A 
ATOM      4  C4  IND d   1       1.011  -1.540  -0.318  0.00  0.00     0.051 A 
ATOM      5  C5  IND d   1       1.803  -1.231  -1.388  0.00  0.00    -0.031 A 
ATOM      6  C6  IND d   1       1.709  -0.017  -2.038  0.00  0.00     0.015 A 
ATOM      7  C7  IND d   1       0.823   0.941  -1.632  0.00  0.00    -0.016 A 
ATOM      8  C8  IND d   1       0.013   0.627  -0.550  0.00  0.00    -0.047 A 
ATOM      9  C9  IND d   1       0.075  -0.619   0.086  0.00  0.00    -0.096 A 
ATOM     10  HN1 IND d   1      -1.217   2.156  -0.136  0.00  0.00     0.298 HD
ENDROOT
TORSDOF 0
ENDMDL
