MODEL 1
REMARK minimizedAffinity -4.93418884
REMARK minimizedRMSD -1
REMARK  0 active torsions:
REMARK  status: ('A' for Active; 'I' for Inactive)
ROOT
ATOM      1  N1  IND d   1      -0.726   0.659  -0.197  0.00  0.00    -0.196 N 
ATOM      2  C2  IND d   1      -0.872  -0.475   0.553  0.00  0.00     0.054 A 
ATOM      3  C3  IND d   1       0.036  -1.405   0.181  0.00  0.00    -0.031 A 
ATOM      4  C4  IND d   1       1.921  -1.245  -1.564  0.00  0.00     0.051 A 
ATOM      5  C5  IND d   1       2.429  -0.420  -2.529  0.00  0.00    -0.031 A 
ATOM      6  C6  IND d   1       1.902   0.833  -2.768  0.00  0.00     0.015 A 
ATOM      7  C7  IND d   1       0.851   1.314  -2.041  0.00  0.00    -0.016 A 
ATOM      8  C8  IND d   1       0.328   0.477  -1.066  0.00  0.00    -0.047 A 
ATOM      9  C9  IND d   1       0.831  -0.812  -0.847  0.00  0.00    -0.096 A 
ATOM     10  HN1 IND d   1      -1.211   1.366  -0.136  0.00  0.00     0.298 HD
ENDROOT
TORSDOF 0
ENDMDL
