MODEL 1
REMARK minimizedAffinity -1.87880909
REMARK minimizedRMSD -1
REMARK  0 active torsions:
REMARK  status: ('A' for Active; 'I' for Inactive)
ROOT
ATOM      1  N1  IND d   1       0.624   1.922  -2.010  0.00  0.00    -0.196 N 
ATOM      2  C2  IND d   1       1.542   1.978  -3.021  0.00  0.00     0.054 A 
ATOM      3  C3  IND d   1       2.299   0.858  -3.032  0.00  0.00    -0.031 A 
ATOM      4  C4  IND d   1       2.139  -1.239  -1.547  0.00  0.00     0.051 A 
ATOM      5  C5  IND d   1       1.481  -1.741  -0.460  0.00  0.00    -0.031 A 
ATOM      6  C6  IND d   1       0.481  -1.035   0.178  0.00  0.00     0.015 A 
ATOM      7  C7  IND d   1       0.093   0.201  -0.258  0.00  0.00    -0.016 A 
ATOM      8  C8  IND d   1       0.764   0.717  -1.357  0.00  0.00    -0.047 A 
ATOM      9  C9  IND d   1       1.809   0.023  -1.982  0.00  0.00    -0.096 A 
ATOM     10  HN1 IND d   1       0.055   2.536  -1.814  0.00  0.00     0.298 HD
ENDROOT
TORSDOF 0
ENDMDL
