MODEL 1
REMARK minimizedAffinity -3.12800908
REMARK minimizedRMSD -1
REMARK  0 active torsions:
REMARK  status: ('A' for Active; 'I' for Inactive)
ROOT
ATOM      1  N1  IND d   1       0.597   1.819  -2.246  0.00  0.00    -0.196 N 
ATOM      2  C2  IND d   1       1.539   1.597  -3.211  0.00  0.00     0.054 A 
ATOM      3  C3  IND d   1       2.161   0.416  -2.999  0.00  0.00    -0.031 A 
ATOM      4  C4  IND d   1       1.722  -1.362  -1.189  0.00  0.00     0.051 A 
ATOM      5  C5  IND d   1       0.984  -1.592  -0.062  0.00  0.00    -0.031 A 
ATOM      6  C6  IND d   1       0.058  -0.680   0.402  0.00  0.00     0.015 A 
ATOM      7  C7  IND d   1      -0.173   0.497  -0.252  0.00  0.00    -0.016 A 
ATOM      8  C8  IND d   1       0.580   0.737  -1.393  0.00  0.00    -0.047 A 
ATOM      9  C9  IND d   1       1.551  -0.166  -1.845  0.00  0.00    -0.096 A 
ATOM     10  HN1 IND d   1       0.098   2.517  -2.182  0.00  0.00     0.298 HD
ENDROOT
TORSDOF 0
ENDMDL
