MODEL 1
REMARK minimizedAffinity -3.51765966
REMARK minimizedRMSD -1
REMARK  0 active torsions:
REMARK  status: ('A' for Active; 'I' for Inactive)
ROOT
ATOM      1  N1  IND d   1       0.259   1.725  -2.021  0.00  0.00    -0.196 N 
ATOM      2  C2  IND d   1       1.319   1.789  -2.881  0.00  0.00     0.054 A 
ATOM      3  C3  IND d   1       2.124   0.715  -2.718  0.00  0.00    -0.031 A 
ATOM      4  C4  IND d   1       1.838  -1.321  -1.169  0.00  0.00     0.051 A 
ATOM      5  C5  IND d   1       1.044  -1.813  -0.171  0.00  0.00    -0.031 A 
ATOM      6  C6  IND d   1      -0.076  -1.138   0.268  0.00  0.00     0.015 A 
ATOM      7  C7  IND d   1      -0.452   0.054  -0.284  0.00  0.00    -0.016 A 
ATOM      8  C8  IND d   1       0.355   0.559  -1.293  0.00  0.00    -0.047 A 
ATOM      9  C9  IND d   1       1.517  -0.101  -1.714  0.00  0.00    -0.096 A 
ATOM     10  HN1 IND d   1      -0.364   2.313  -1.947  0.00  0.00     0.298 HD
ENDROOT
TORSDOF 0
ENDMDL
