MODEL 1
REMARK minimizedAffinity -3.22668839
REMARK minimizedRMSD -1
REMARK  0 active torsions:
REMARK  status: ('A' for Active; 'I' for Inactive)
ROOT
ATOM      1  N1  IND d   1      -1.493   0.164  -0.399  0.00  0.00    -0.196 N 
ATOM      2  C2  IND d   1      -0.362  -0.603  -0.444  0.00  0.00     0.054 A 
ATOM      3  C3  IND d   1       0.234  -0.635   0.770  0.00  0.00    -0.031 A 
ATOM      4  C4  IND d   1      -0.529   0.413   2.994  0.00  0.00     0.051 A 
ATOM      5  C5  IND d   1      -1.482   1.235   3.526  0.00  0.00    -0.031 A 
ATOM      6  C6  IND d   1      -2.510   1.750   2.763  0.00  0.00     0.015 A 
ATOM      7  C7  IND d   1      -2.630   1.452   1.435  0.00  0.00    -0.016 A 
ATOM      8  C8  IND d   1      -1.660   0.623   0.889  0.00  0.00    -0.047 A 
ATOM      9  C9  IND d   1      -0.590   0.132   1.649  0.00  0.00    -0.096 A 
ATOM     10  HN1 IND d   1      -2.012   0.331  -1.063  0.00  0.00     0.298 HD
ENDROOT
TORSDOF 0
ENDMDL
