MODEL 1
REMARK minimizedAffinity -3.88023353
REMARK minimizedRMSD -1
REMARK  0 active torsions:
REMARK  status: ('A' for Active; 'I' for Inactive)
ROOT
ATOM      1  N1  IND d   1      -0.166   2.248  -1.556  0.00  0.00    -0.196 N 
ATOM      2  C2  IND d   1      -0.830   1.851  -0.429  0.00  0.00     0.054 A 
ATOM      3  C3  IND d   1      -0.477   0.589  -0.096  0.00  0.00    -0.031 A 
ATOM      4  C4  IND d   1       1.244  -0.974  -1.200  0.00  0.00     0.051 A 
ATOM      5  C5  IND d   1       2.077  -1.068  -2.280  0.00  0.00    -0.031 A 
ATOM      6  C6  IND d   1       2.209  -0.039  -3.191  0.00  0.00     0.015 A 
ATOM      7  C7  IND d   1       1.519   1.131  -3.048  0.00  0.00    -0.016 A 
ATOM      8  C8  IND d   1       0.667   1.227  -1.957  0.00  0.00    -0.047 A 
ATOM      9  C9  IND d   1       0.497   0.171  -1.053  0.00  0.00    -0.096 A 
ATOM     10  HN1 IND d   1      -0.255   3.008  -1.949  0.00  0.00     0.298 HD
ENDROOT
TORSDOF 0
ENDMDL
