MODEL 1
REMARK minimizedAffinity -3.02797127
REMARK minimizedRMSD -1
REMARK  0 active torsions:
REMARK  status: ('A' for Active; 'I' for Inactive)
ROOT
ATOM      1  N1  IND d   1       0.315   1.619  -2.072  0.00  0.00    -0.196 N 
ATOM      2  C2  IND d   1       1.044   1.639  -3.229  0.00  0.00     0.054 A 
ATOM      3  C3  IND d   1       1.854   0.558  -3.293  0.00  0.00    -0.031 A 
ATOM      4  C4  IND d   1       2.071  -1.422  -1.661  0.00  0.00     0.051 A 
ATOM      5  C5  IND d   1       1.636  -1.867  -0.445  0.00  0.00    -0.031 A 
ATOM      6  C6  IND d   1       0.719  -1.161   0.306  0.00  0.00     0.015 A 
ATOM      7  C7  IND d   1       0.191   0.018  -0.140  0.00  0.00    -0.016 A 
ATOM      8  C8  IND d   1       0.635   0.477  -1.372  0.00  0.00    -0.047 A 
ATOM      9  C9  IND d   1       1.597  -0.215  -2.119  0.00  0.00    -0.096 A 
ATOM     10  HN1 IND d   1      -0.248   2.220  -1.824  0.00  0.00     0.298 HD
ENDROOT
TORSDOF 0
ENDMDL
