MODEL 1
REMARK minimizedAffinity -3.42630386
REMARK minimizedRMSD -1
REMARK  0 active torsions:
REMARK  status: ('A' for Active; 'I' for Inactive)
ROOT
ATOM      1  N1  IND d   1       0.618   1.683  -2.345  0.00  0.00    -0.196 N 
ATOM      2  C2  IND d   1       1.554   1.291  -3.261  0.00  0.00     0.054 A 
ATOM      3  C3  IND d   1       1.970   0.032  -2.999  0.00  0.00    -0.031 A 
ATOM      4  C4  IND d   1       1.176  -1.608  -1.180  0.00  0.00     0.051 A 
ATOM      5  C5  IND d   1       0.362  -1.691  -0.085  0.00  0.00    -0.031 A 
ATOM      6  C6  IND d   1      -0.426  -0.633   0.319  0.00  0.00     0.015 A 
ATOM      7  C7  IND d   1      -0.439   0.549  -0.366  0.00  0.00    -0.016 A 
ATOM      8  C8  IND d   1       0.392   0.639  -1.474  0.00  0.00    -0.047 A 
ATOM      9  C9  IND d   1       1.226  -0.417  -1.865  0.00  0.00    -0.096 A 
ATOM     10  HN1 IND d   1       0.234   2.452  -2.317  0.00  0.00     0.298 HD
ENDROOT
TORSDOF 0
ENDMDL
