MODEL 1
REMARK minimizedAffinity -5.30901718
REMARK minimizedRMSD -1
REMARK  0 active torsions:
REMARK  status: ('A' for Active; 'I' for Inactive)
ROOT
ATOM      1  N1  IND d   1       0.497  -1.906  -0.134  0.00  0.00    -0.196 N 
ATOM      2  C2  IND d   1       1.749  -1.947  -0.681  0.00  0.00     0.054 A 
ATOM      3  C3  IND d   1       2.008  -0.803  -1.353  0.00  0.00    -0.031 A 
ATOM      4  C4  IND d   1       0.560   1.312  -1.599  0.00  0.00     0.051 A 
ATOM      5  C5  IND d   1      -0.679   1.809  -1.305  0.00  0.00    -0.031 A 
ATOM      6  C6  IND d   1      -1.606   1.080  -0.589  0.00  0.00     0.015 A 
ATOM      7  C7  IND d   1      -1.325  -0.175  -0.129  0.00  0.00    -0.016 A 
ATOM      8  C8  IND d   1      -0.070  -0.686  -0.431  0.00  0.00    -0.047 A 
ATOM      9  C9  IND d   1       0.860   0.032  -1.194  0.00  0.00    -0.096 A 
ATOM     10  HN1 IND d   1       0.127  -2.535   0.319  0.00  0.00     0.298 HD
ENDROOT
TORSDOF 0
ENDMDL
