MODEL 1
REMARK minimizedAffinity 1.50179696
REMARK minimizedRMSD -1
REMARK  0 active torsions:
REMARK  status: ('A' for Active; 'I' for Inactive)
ROOT
ATOM      1  N1  IND d   1       1.698  -1.117  -1.489  0.00  0.00    -0.196 N 
ATOM      2  C2  IND d   1       1.590  -2.366  -0.943  0.00  0.00     0.054 A 
ATOM      3  C3  IND d   1       0.525  -2.425  -0.112  0.00  0.00    -0.031 A 
ATOM      4  C4  IND d   1      -1.236  -0.624   0.421  0.00  0.00     0.051 A 
ATOM      5  C5  IND d   1      -1.537   0.689   0.191  0.00  0.00    -0.031 A 
ATOM      6  C6  IND d   1      -0.762   1.482  -0.629  0.00  0.00     0.015 A 
ATOM      7  C7  IND d   1       0.343   0.987  -1.262  0.00  0.00    -0.016 A 
ATOM      8  C8  IND d   1       0.656  -0.344  -1.026  0.00  0.00    -0.047 A 
ATOM      9  C9  IND d   1      -0.103  -1.143  -0.161  0.00  0.00    -0.096 A 
ATOM     10  HN1 IND d   1       2.314  -0.858  -2.031  0.00  0.00     0.298 HD
ENDROOT
TORSDOF 0
ENDMDL
