MODEL 1
REMARK minimizedAffinity -1.58375704
REMARK minimizedRMSD -1
REMARK  0 active torsions:
REMARK  status: ('A' for Active; 'I' for Inactive)
ROOT
ATOM      1  N1  IND d   1       0.561   1.541  -1.896  0.00  0.00    -0.196 N 
ATOM      2  C2  IND d   1       1.499   1.498  -2.889  0.00  0.00     0.054 A 
ATOM      3  C3  IND d   1       2.237   0.370  -2.790  0.00  0.00    -0.031 A 
ATOM      4  C4  IND d   1       2.013  -1.591  -1.138  0.00  0.00     0.051 A 
ATOM      5  C5  IND d   1       1.326  -1.990  -0.026  0.00  0.00    -0.031 A 
ATOM      6  C6  IND d   1       0.326  -1.217   0.529  0.00  0.00     0.015 A 
ATOM      7  C7  IND d   1      -0.033  -0.017  -0.016  0.00  0.00    -0.016 A 
ATOM      8  C8  IND d   1       0.668   0.394  -1.141  0.00  0.00    -0.047 A 
ATOM      9  C9  IND d   1       1.712  -0.366  -1.684  0.00  0.00    -0.096 A 
ATOM     10  HN1 IND d   1      -0.002   2.178  -1.765  0.00  0.00     0.298 HD
ENDROOT
TORSDOF 0
ENDMDL
