MODEL 1
REMARK minimizedAffinity 2.6917541
REMARK minimizedRMSD -1
REMARK  1 active torsions:
REMARK  status: ('A' for Active; 'I' for Inactive)
REMARK    1  A    between atoms: C1_2  and  C2_3 
ROOT
ATOM      1  C2  UNL d   1       0.241   0.139   1.308  0.00  0.00    -0.076 A 
ATOM      2  C3  UNL d   1      -0.547   0.264   0.151  0.00  0.00     0.004 A 
ATOM      3  C4  UNL d   1      -0.068  -0.147  -1.092  0.00  0.00    -0.003 A 
ATOM      4  C5  UNL d   1       1.208  -0.691  -1.197  0.00  0.00     0.000 A 
ATOM      5  C6  UNL d   1       1.997  -0.838  -0.057  0.00  0.00     0.000 A 
ATOM      6  C7  UNL d   1       1.522  -0.444   1.206  0.00  0.00    -0.073 A 
ATOM      7  C8  UNL d   1       2.418  -0.620   2.401  0.00  0.00     0.078 C 
ENDROOT
BRANCH   1   8
ATOM      8  C1  UNL d   1      -0.322   0.627   2.624  0.00  0.00     0.053 C 
ATOM      9  C   UNL d   1      -1.344  -0.333   3.212  0.00  0.00     0.018 C 
ENDBRANCH   1   8
TORSDOF 1
ENDMDL
