MODEL 1
REMARK minimizedAffinity -4.2635541
REMARK minimizedRMSD -1
REMARK  1 active torsions:
REMARK  status: ('A' for Active; 'I' for Inactive)
REMARK    1  A    between atoms: C1_2  and  C2_3 
ROOT
ATOM      1  C2  UNL d   1       0.010   0.039   0.208  0.00  0.00    -0.076 A 
ATOM      2  C3  UNL d   1      -1.345   0.336  -0.020  0.00  0.00     0.004 A 
ATOM      3  C4  UNL d   1      -2.128   0.921   0.973  0.00  0.00    -0.003 A 
ATOM      4  C5  UNL d   1      -1.569   1.220   2.210  0.00  0.00     0.000 A 
ATOM      5  C6  UNL d   1      -0.222   0.949   2.449  0.00  0.00     0.000 A 
ATOM      6  C7  UNL d   1       0.586   0.374   1.453  0.00  0.00    -0.073 A 
ATOM      7  C8  UNL d   1       2.030   0.097   1.766  0.00  0.00     0.078 C 
ENDROOT
BRANCH   1   8
ATOM      8  C1  UNL d   1       0.803  -0.620  -0.897  0.00  0.00     0.053 C 
ATOM      9  C   UNL d   1       0.251  -0.305  -2.279  0.00  0.00     0.018 C 
ENDBRANCH   1   8
TORSDOF 1
ENDMDL
