MODEL 1
REMARK minimizedAffinity -4.25268698
REMARK minimizedRMSD -1
REMARK  1 active torsions:
REMARK  status: ('A' for Active; 'I' for Inactive)
REMARK    1  A    between atoms: C1_2  and  C2_3 
ROOT
ATOM      1  C2  UNL d   1      -0.174   0.397   0.736  0.00  0.00    -0.076 A 
ATOM      2  C3  UNL d   1       0.249   1.185   1.821  0.00  0.00     0.004 A 
ATOM      3  C4  UNL d   1      -0.638   1.549   2.833  0.00  0.00    -0.003 A 
ATOM      4  C5  UNL d   1      -1.963   1.131   2.776  0.00  0.00     0.000 A 
ATOM      5  C6  UNL d   1      -2.396   0.334   1.716  0.00  0.00     0.000 A 
ATOM      6  C7  UNL d   1      -1.510  -0.055   0.697  0.00  0.00    -0.073 A 
ATOM      7  C8  UNL d   1      -2.032  -0.910  -0.425  0.00  0.00     0.078 C 
ENDROOT
BRANCH   1   8
ATOM      8  C1  UNL d   1       0.826   0.056  -0.345  0.00  0.00     0.053 C 
ATOM      9  C   UNL d   1       1.915  -0.886   0.145  0.00  0.00     0.018 C 
ENDBRANCH   1   8
TORSDOF 1
ENDMDL
