MODEL 1
REMARK minimizedAffinity -2.06113458
REMARK minimizedRMSD -1
REMARK  1 active torsions:
REMARK  status: ('A' for Active; 'I' for Inactive)
REMARK    1  A    between atoms: C1_2  and  C2_3 
ROOT
ATOM      1  C2  UNL d   1      -1.048   0.062   0.909  0.00  0.00    -0.076 A 
ATOM      2  C3  UNL d   1      -2.013  -0.536   0.080  0.00  0.00     0.004 A 
ATOM      3  C4  UNL d   1      -1.653  -1.118  -1.135  0.00  0.00    -0.003 A 
ATOM      4  C5  UNL d   1      -0.323  -1.112  -1.540  0.00  0.00     0.000 A 
ATOM      5  C6  UNL d   1       0.650  -0.539  -0.721  0.00  0.00     0.000 A 
ATOM      6  C7  UNL d   1       0.307   0.038   0.514  0.00  0.00    -0.073 A 
ATOM      7  C8  UNL d   1       1.396   0.647   1.353  0.00  0.00     0.078 C 
ENDROOT
BRANCH   1   8
ATOM      8  C1  UNL d   1      -1.501   0.701   2.202  0.00  0.00     0.053 C 
ATOM      9  C   UNL d   1      -2.096  -0.306   3.173  0.00  0.00     0.018 C 
ENDBRANCH   1   8
TORSDOF 1
ENDMDL
