MODEL 1
REMARK minimizedAffinity -5.02445745
REMARK minimizedRMSD -1
REMARK  1 active torsions:
REMARK  status: ('A' for Active; 'I' for Inactive)
REMARK    1  A    between atoms: C1_2  and  C2_3 
ROOT
ATOM      1  C2  UNL d   1      -1.777  -0.458   1.284  0.00  0.00    -0.076 A 
ATOM      2  C3  UNL d   1      -1.800  -1.314   0.169  0.00  0.00     0.004 A 
ATOM      3  C4  UNL d   1      -0.722  -1.370  -0.714  0.00  0.00    -0.003 A 
ATOM      4  C5  UNL d   1       0.395  -0.572  -0.495  0.00  0.00     0.000 A 
ATOM      5  C6  UNL d   1       0.442   0.270   0.616  0.00  0.00     0.000 A 
ATOM      6  C7  UNL d   1      -0.629   0.326   1.525  0.00  0.00    -0.073 A 
ATOM      7  C8  UNL d   1      -0.528   1.256   2.703  0.00  0.00     0.078 C 
ENDROOT
BRANCH   1   8
ATOM      8  C1  UNL d   1      -2.986  -0.420   2.192  0.00  0.00     0.053 C 
ATOM      9  C   UNL d   1      -3.374  -1.798   2.704  0.00  0.00     0.018 C 
ENDBRANCH   1   8
TORSDOF 1
ENDMDL
