MODEL 1
REMARK minimizedAffinity -0.490086287
REMARK minimizedRMSD -1
REMARK  0 active torsions:
REMARK  status: ('A' for Active; 'I' for Inactive)
ROOT
ATOM      1  C   UNL d   1      -2.574   3.437   3.909  0.00  0.00    -0.002 A 
ATOM      2  C1  UNL d   1      -1.317   3.433   4.497  0.00  0.00     0.010 A 
ATOM      3  C2  UNL d   1      -0.293   2.638   3.978  0.00  0.00     0.041 A 
ATOM      4  C3  UNL d   1      -0.555   1.842   2.846  0.00  0.00    -0.075 A 
ATOM      5  S   UNL d   1       0.546   0.790   2.037  0.00  0.00     0.015 SA
ATOM      6  C4  UNL d   1      -0.626   0.323   0.891  0.00  0.00     0.022 A 
ATOM      7  C5  UNL d   1      -1.833   0.944   1.105  0.00  0.00     0.026 A 
ATOM      8  C6  UNL d   1      -1.812   1.830   2.235  0.00  0.00    -0.082 A 
ATOM      9  C7  UNL d   1      -2.830   2.646   2.786  0.00  0.00     0.045 A 
ENDROOT
TORSDOF 0
ENDMDL
