MODEL 1
REMARK minimizedAffinity -3.78201103
REMARK minimizedRMSD -1
REMARK  0 active torsions:
REMARK  status: ('A' for Active; 'I' for Inactive)
ROOT
ATOM      1  C   UNL d   1       0.946  -0.823   2.343  0.00  0.00    -0.002 A 
ATOM      2  C1  UNL d   1      -0.392  -0.458   2.345  0.00  0.00     0.010 A 
ATOM      3  C2  UNL d   1      -1.032  -0.097   1.158  0.00  0.00     0.041 A 
ATOM      4  C3  UNL d   1      -0.297  -0.110  -0.044  0.00  0.00    -0.075 A 
ATOM      5  S   UNL d   1      -0.872   0.292  -1.619  0.00  0.00     0.015 SA
ATOM      6  C4  UNL d   1       0.647  -0.011  -2.332  0.00  0.00     0.022 A 
ATOM      7  C5  UNL d   1       1.581  -0.410  -1.405  0.00  0.00     0.026 A 
ATOM      8  C6  UNL d   1       1.052  -0.475  -0.072  0.00  0.00    -0.082 A 
ATOM      9  C7  UNL d   1       1.673  -0.835   1.149  0.00  0.00     0.045 A 
ENDROOT
TORSDOF 0
ENDMDL
