MODEL 1
REMARK minimizedAffinity -2.39204931
REMARK minimizedRMSD -1
REMARK  0 active torsions:
REMARK  status: ('A' for Active; 'I' for Inactive)
ROOT
ATOM      1  C   UNL d   1       1.987   0.895   0.699  0.00  0.00    -0.002 A 
ATOM      2  C1  UNL d   1       1.084   1.057  -0.342  0.00  0.00     0.010 A 
ATOM      3  C2  UNL d   1      -0.245   0.651  -0.199  0.00  0.00     0.041 A 
ATOM      4  C3  UNL d   1      -0.655   0.076   1.020  0.00  0.00    -0.075 A 
ATOM      5  S   UNL d   1      -2.231  -0.494   1.422  0.00  0.00     0.015 SA
ATOM      6  C4  UNL d   1      -1.743  -0.965   2.986  0.00  0.00     0.022 A 
ATOM      7  C5  UNL d   1      -0.413  -0.702   3.212  0.00  0.00     0.026 A 
ATOM      8  C6  UNL d   1       0.236  -0.097   2.083  0.00  0.00    -0.082 A 
ATOM      9  C7  UNL d   1       1.577   0.324   1.907  0.00  0.00     0.045 A 
ENDROOT
TORSDOF 0
ENDMDL
