MODEL 1
REMARK minimizedAffinity -2.09907579
REMARK minimizedRMSD -1
REMARK  0 active torsions:
REMARK  status: ('A' for Active; 'I' for Inactive)
ROOT
ATOM      1  C   UNL d   1       2.527  -1.868  -2.828  0.00  0.00    -0.002 A 
ATOM      2  C1  UNL d   1       1.227  -1.970  -3.300  0.00  0.00     0.010 A 
ATOM      3  C2  UNL d   1       0.163  -1.429  -2.574  0.00  0.00     0.041 A 
ATOM      4  C3  UNL d   1       0.432  -0.776  -1.355  0.00  0.00    -0.075 A 
ATOM      5  S   UNL d   1      -0.712  -0.038  -0.298  0.00  0.00     0.015 SA
ATOM      6  C4  UNL d   1       0.500   0.432   0.805  0.00  0.00     0.022 A 
ATOM      7  C5  UNL d   1       1.752   0.042   0.393  0.00  0.00     0.026 A 
ATOM      8  C6  UNL d   1       1.734  -0.660  -0.860  0.00  0.00    -0.082 A 
ATOM      9  C7  UNL d   1       2.790  -1.219  -1.618  0.00  0.00     0.045 A 
ENDROOT
TORSDOF 0
ENDMDL
