MODEL 1
REMARK minimizedAffinity -1.74289942
REMARK minimizedRMSD -1
REMARK  0 active torsions:
REMARK  status: ('A' for Active; 'I' for Inactive)
ROOT
ATOM      1  C   UNL d   1      -1.770  -1.019   2.390  0.00  0.00    -0.002 A 
ATOM      2  C1  UNL d   1      -0.813  -0.408   3.188  0.00  0.00     0.010 A 
ATOM      3  C2  UNL d   1       0.191   0.376   2.617  0.00  0.00     0.041 A 
ATOM      4  C3  UNL d   1       0.216   0.540   1.218  0.00  0.00    -0.075 A 
ATOM      5  S   UNL d   1       1.351   1.456   0.299  0.00  0.00     0.015 SA
ATOM      6  C4  UNL d   1       0.591   1.058  -1.174  0.00  0.00     0.022 A 
ATOM      7  C5  UNL d   1      -0.503   0.247  -0.988  0.00  0.00     0.026 A 
ATOM      8  C6  UNL d   1      -0.737  -0.065   0.394  0.00  0.00    -0.082 A 
ATOM      9  C7  UNL d   1      -1.742  -0.855   1.003  0.00  0.00     0.045 A 
ENDROOT
TORSDOF 0
ENDMDL
