MODEL 1
REMARK minimizedAffinity -0.445399106
REMARK minimizedRMSD -1
REMARK  0 active torsions:
REMARK  status: ('A' for Active; 'I' for Inactive)
ROOT
ATOM      1  C   UNL d   1       0.810   0.651   3.068  0.00  0.00    -0.002 A 
ATOM      2  C1  UNL d   1      -0.309  -0.166   3.140  0.00  0.00     0.010 A 
ATOM      3  C2  UNL d   1      -0.926  -0.629   1.976  0.00  0.00     0.041 A 
ATOM      4  C3  UNL d   1      -0.393  -0.256   0.727  0.00  0.00    -0.075 A 
ATOM      5  S   UNL d   1      -0.981  -0.704  -0.831  0.00  0.00     0.015 SA
ATOM      6  C4  UNL d   1       0.241   0.178  -1.628  0.00  0.00     0.022 A 
ATOM      7  C5  UNL d   1       1.085   0.805  -0.743  0.00  0.00     0.026 A 
ATOM      8  C6  UNL d   1       0.734   0.565   0.629  0.00  0.00    -0.082 A 
ATOM      9  C7  UNL d   1       1.337   1.019   1.827  0.00  0.00     0.045 A 
ENDROOT
TORSDOF 0
ENDMDL
