MODEL 1
REMARK minimizedAffinity -3.18374181
REMARK minimizedRMSD -1
REMARK  0 active torsions:
REMARK  status: ('A' for Active; 'I' for Inactive)
ROOT
ATOM      1  C   UNL d   1       0.362  -1.172   2.899  0.00  0.00    -0.002 A 
ATOM      2  C1  UNL d   1      -0.791  -0.411   2.770  0.00  0.00     0.010 A 
ATOM      3  C2  UNL d   1      -1.090   0.227   1.565  0.00  0.00     0.041 A 
ATOM      4  C3  UNL d   1      -0.202   0.085   0.480  0.00  0.00    -0.075 A 
ATOM      5  S   UNL d   1      -0.362   0.774  -1.092  0.00  0.00     0.015 SA
ATOM      6  C4  UNL d   1       1.095   0.074  -1.630  0.00  0.00     0.022 A 
ATOM      7  C5  UNL d   1       1.703  -0.671  -0.647  0.00  0.00     0.026 A 
ATOM      8  C6  UNL d   1       0.965  -0.677   0.585  0.00  0.00    -0.082 A 
ATOM      9  C7  UNL d   1       1.240  -1.311   1.821  0.00  0.00     0.045 A 
ENDROOT
TORSDOF 0
ENDMDL
