MODEL 1
REMARK minimizedAffinity -3.3203938
REMARK minimizedRMSD -1
REMARK  0 active torsions:
REMARK  status: ('A' for Active; 'I' for Inactive)
ROOT
ATOM      1  C   UNL d   1      -1.875   0.388   2.739  0.00  0.00    -0.002 A 
ATOM      2  C1  UNL d   1      -2.507   0.535   1.513  0.00  0.00     0.010 A 
ATOM      3  C2  UNL d   1      -1.811   0.309   0.324  0.00  0.00     0.041 A 
ATOM      4  C3  UNL d   1      -0.457  -0.073   0.389  0.00  0.00    -0.075 A 
ATOM      5  S   UNL d   1       0.595  -0.405  -0.937  0.00  0.00     0.015 SA
ATOM      6  C4  UNL d   1       1.907  -0.751   0.093  0.00  0.00     0.022 A 
ATOM      7  C5  UNL d   1       1.569  -0.621   1.420  0.00  0.00     0.026 A 
ATOM      8  C6  UNL d   1       0.201  -0.229   1.612  0.00  0.00    -0.082 A 
ATOM      9  C7  UNL d   1      -0.531   0.008   2.800  0.00  0.00     0.045 A 
ENDROOT
TORSDOF 0
ENDMDL
