MODEL 1
REMARK minimizedAffinity -4.24899292
REMARK minimizedRMSD -1
REMARK  0 active torsions:
REMARK  status: ('A' for Active; 'I' for Inactive)
ROOT
ATOM      1  C   UNL d   1      -1.922   0.602  -0.943  0.00  0.00    -0.002 A 
ATOM      2  C1  UNL d   1      -0.654   1.127  -1.148  0.00  0.00     0.010 A 
ATOM      3  C2  UNL d   1       0.331   1.009  -0.165  0.00  0.00     0.041 A 
ATOM      4  C3  UNL d   1       0.017   0.347   1.038  0.00  0.00    -0.075 A 
ATOM      5  S   UNL d   1       1.064   0.082   2.382  0.00  0.00     0.015 SA
ATOM      6  C4  UNL d   1      -0.147  -0.734   3.260  0.00  0.00     0.022 A 
ATOM      7  C5  UNL d   1      -1.328  -0.812   2.560  0.00  0.00     0.026 A 
ATOM      8  C6  UNL d   1      -1.252  -0.191   1.267  0.00  0.00    -0.082 A 
ATOM      9  C7  UNL d   1      -2.229  -0.054   0.252  0.00  0.00     0.045 A 
ENDROOT
TORSDOF 0
ENDMDL
