MODEL 1
REMARK minimizedAffinity 5.08449745
REMARK minimizedRMSD -1
REMARK  1 active torsions:
REMARK  status: ('A' for Active; 'I' for Inactive)
REMARK    1  A    between atoms: C1_2  and  C2_3 
ROOT
ATOM      1  C2  UNL d   1       1.349  -2.237  -0.959  0.00  0.00    -0.073 A 
ATOM      2  C3  UNL d   1       1.415  -2.730   0.349  0.00  0.00    -0.002 A 
ATOM      3  C4  UNL d   1       2.381  -2.251   1.235  0.00  0.00     0.004 A 
ATOM      4  C5  UNL d   1       3.286  -1.272   0.824  0.00  0.00    -0.004 A 
ATOM      5  C6  UNL d   1       3.228  -0.759  -0.475  0.00  0.00    -0.075 A 
ATOM      6  C7  UNL d   1       4.195   0.293  -0.933  0.00  0.00     0.076 C 
ATOM      7  C8  UNL d   1       2.256  -1.247  -1.359  0.00  0.00     0.001 A 
ENDROOT
BRANCH   1   8
ATOM      8  C1  UNL d   1       0.303  -2.747  -1.916  0.00  0.00     0.053 C 
ATOM      9  C   UNL d   1      -0.522  -3.873  -1.314  0.00  0.00     0.018 C 
ENDBRANCH   1   8
TORSDOF 1
ENDMDL
