MODEL 1
REMARK minimizedAffinity 0.225961298
REMARK minimizedRMSD -1
REMARK  1 active torsions:
REMARK  status: ('A' for Active; 'I' for Inactive)
REMARK    1  A    between atoms: C1_2  and  C2_3 
ROOT
ATOM      1  C2  UNL d   1       1.895   1.202   0.296  0.00  0.00    -0.073 A 
ATOM      2  C3  UNL d   1       0.675   1.238  -0.388  0.00  0.00    -0.002 A 
ATOM      3  C4  UNL d   1      -0.519   1.426   0.309  0.00  0.00     0.004 A 
ATOM      4  C5  UNL d   1      -0.504   1.587   1.695  0.00  0.00    -0.004 A 
ATOM      5  C6  UNL d   1       0.706   1.566   2.395  0.00  0.00    -0.075 A 
ATOM      6  C7  UNL d   1       0.739   1.736   3.885  0.00  0.00     0.076 C 
ATOM      7  C8  UNL d   1       1.901   1.373   1.687  0.00  0.00     0.001 A 
ENDROOT
BRANCH   1   8
ATOM      8  C1  UNL d   1       3.187   1.005  -0.454  0.00  0.00     0.053 C 
ATOM      9  C   UNL d   1       4.231   2.044  -0.075  0.00  0.00     0.018 C 
ENDBRANCH   1   8
TORSDOF 1
ENDMDL
