MODEL 1
REMARK minimizedAffinity 1.17008758
REMARK minimizedRMSD -1
REMARK  1 active torsions:
REMARK  status: ('A' for Active; 'I' for Inactive)
REMARK    1  A    between atoms: C1_2  and  C2_3 
ROOT
ATOM      1  C2  UNL d   1       1.933   0.826   0.374  0.00  0.00    -0.073 A 
ATOM      2  C3  UNL d   1       2.229  -0.488  -0.007  0.00  0.00    -0.002 A 
ATOM      3  C4  UNL d   1       3.515  -0.827  -0.430  0.00  0.00     0.004 A 
ATOM      4  C5  UNL d   1       4.519   0.141  -0.469  0.00  0.00    -0.004 A 
ATOM      5  C6  UNL d   1       4.246   1.456  -0.080  0.00  0.00    -0.075 A 
ATOM      6  C7  UNL d   1       5.315   2.509  -0.118  0.00  0.00     0.076 C 
ATOM      7  C8  UNL d   1       2.952   1.789   0.340  0.00  0.00     0.001 A 
ENDROOT
BRANCH   1   8
ATOM      8  C1  UNL d   1       0.548   1.195   0.837  0.00  0.00     0.053 C 
ATOM      9  C   UNL d   1       0.372   0.986   2.333  0.00  0.00     0.018 C 
ENDBRANCH   1   8
TORSDOF 1
ENDMDL
