MODEL 1
REMARK minimizedAffinity 12.2315788
REMARK minimizedRMSD -1
REMARK  1 active torsions:
REMARK  status: ('A' for Active; 'I' for Inactive)
REMARK    1  A    between atoms: C1_2  and  C2_3 
ROOT
ATOM      1  C2  UNL d   1      -5.307   2.183  -3.109  0.00  0.00    -0.073 A 
ATOM      2  C3  UNL d   1      -4.033   1.784  -3.531  0.00  0.00    -0.002 A 
ATOM      3  C4  UNL d   1      -3.397   0.700  -2.924  0.00  0.00     0.004 A 
ATOM      4  C5  UNL d   1      -4.030   0.001  -1.896  0.00  0.00    -0.004 A 
ATOM      5  C6  UNL d   1      -5.307   0.377  -1.469  0.00  0.00    -0.075 A 
ATOM      6  C7  UNL d   1      -6.000  -0.364  -0.363  0.00  0.00     0.076 C 
ATOM      7  C8  UNL d   1      -5.938   1.468  -2.081  0.00  0.00     0.001 A 
ENDROOT
BRANCH   1   8
ATOM      8  C1  UNL d   1      -6.000   3.349  -3.765  0.00  0.00     0.053 C 
ATOM      9  C   UNL d   1      -5.169   4.621  -3.693  0.00  0.00     0.018 C 
ENDBRANCH   1   8
TORSDOF 1
ENDMDL
