MODEL 1
REMARK minimizedAffinity 5.3176713
REMARK minimizedRMSD -1
REMARK  1 active torsions:
REMARK  status: ('A' for Active; 'I' for Inactive)
REMARK    1  A    between atoms: C1_2  and  C2_3 
ROOT
ATOM      1  C2  UNL d   1       3.595  -0.363  -0.648  0.00  0.00    -0.073 A 
ATOM      2  C3  UNL d   1       3.790  -0.979   0.593  0.00  0.00    -0.002 A 
ATOM      3  C4  UNL d   1       3.021  -2.084   0.960  0.00  0.00     0.004 A 
ATOM      4  C5  UNL d   1       2.054  -2.587   0.089  0.00  0.00    -0.004 A 
ATOM      5  C6  UNL d   1       1.852  -1.992  -1.160  0.00  0.00    -0.075 A 
ATOM      6  C7  UNL d   1       0.815  -2.519  -2.108  0.00  0.00     0.076 C 
ATOM      7  C8  UNL d   1       2.627  -0.881  -1.521  0.00  0.00     0.001 A 
ENDROOT
BRANCH   1   8
ATOM      8  C1  UNL d   1       4.428   0.827  -1.051  0.00  0.00     0.053 C 
ATOM      9  C   UNL d   1       5.709   0.928  -0.238  0.00  0.00     0.018 C 
ENDBRANCH   1   8
TORSDOF 1
ENDMDL
