MODEL 1
REMARK minimizedAffinity 6.48383045
REMARK minimizedRMSD -1
REMARK  1 active torsions:
REMARK  status: ('A' for Active; 'I' for Inactive)
REMARK    1  A    between atoms: C1_2  and  C2_3 
ROOT
ATOM      1  C2  UNL d   1       2.355  -1.817  -0.896  0.00  0.00    -0.073 A 
ATOM      2  C3  UNL d   1       2.776  -2.434  -2.080  0.00  0.00    -0.002 A 
ATOM      3  C4  UNL d   1       3.678  -1.791  -2.927  0.00  0.00     0.004 A 
ATOM      4  C5  UNL d   1       4.175  -0.530  -2.598  0.00  0.00    -0.004 A 
ATOM      5  C6  UNL d   1       3.776   0.098  -1.413  0.00  0.00    -0.075 A 
ATOM      6  C7  UNL d   1       4.298   1.455  -1.045  0.00  0.00     0.076 C 
ATOM      7  C8  UNL d   1       2.867  -0.553  -0.568  0.00  0.00     0.001 A 
ENDROOT
BRANCH   1   8
ATOM      8  C1  UNL d   1       1.386  -2.510   0.026  0.00  0.00     0.053 C 
ATOM      9  C   UNL d   1       0.324  -3.284  -0.740  0.00  0.00     0.018 C 
ENDBRANCH   1   8
TORSDOF 1
ENDMDL
