MODEL 1
REMARK minimizedAffinity 12.901475
REMARK minimizedRMSD -1
REMARK  0 active torsions:
REMARK  status: ('A' for Active; 'I' for Inactive)
ROOT
ATOM      1  C1  DEN d   1       0.889  -1.635   3.421  0.00  0.00     0.130 A 
ATOM      2  C2  DEN d   1      -0.047  -0.559   3.734  0.00  0.00    -0.031 A 
ATOM      3  C3  DEN d   1       0.154   0.522   2.748  0.00  0.00     0.027 A 
ATOM      4  C4  DEN d   1       1.812   0.632   0.775  0.00  0.00     0.027 A 
ATOM      5  C5  DEN d   1       2.819  -0.039   0.117  0.00  0.00    -0.003 A 
ATOM      6  C6  DEN d   1       3.272  -1.264   0.530  0.00  0.00     0.001 A 
ATOM      7  C7  DEN d   1       2.687  -1.876   1.606  0.00  0.00     0.017 A 
ATOM      8  C8  DEN d   1       1.677  -1.203   2.280  0.00  0.00    -0.094 A 
ATOM      9  C9  DEN d   1       1.224   0.029   1.839  0.00  0.00    -0.072 A 
ENDROOT
TORSDOF 0
ENDMDL
