MODEL 1
REMARK minimizedAffinity 9.15294361
REMARK minimizedRMSD -1
REMARK  0 active torsions:
REMARK  status: ('A' for Active; 'I' for Inactive)
ROOT
ATOM      1  C1  DEN d   1       4.390  -0.185   0.774  0.00  0.00     0.130 A 
ATOM      2  C2  DEN d   1       3.735  -1.485   0.892  0.00  0.00    -0.031 A 
ATOM      3  C3  DEN d   1       2.278  -1.257   0.964  0.00  0.00     0.027 A 
ATOM      4  C4  DEN d   1       0.979   0.971   0.900  0.00  0.00     0.027 A 
ATOM      5  C5  DEN d   1       1.103   2.340   0.820  0.00  0.00    -0.003 A 
ATOM      6  C6  DEN d   1       2.322   2.961   0.754  0.00  0.00     0.001 A 
ATOM      7  C7  DEN d   1       3.466   2.208   0.721  0.00  0.00     0.017 A 
ATOM      8  C8  DEN d   1       3.350   0.827   0.809  0.00  0.00    -0.094 A 
ATOM      9  C9  DEN d   1       2.108   0.218   0.863  0.00  0.00    -0.072 A 
ENDROOT
TORSDOF 0
ENDMDL
