MODEL 1
REMARK minimizedAffinity 6.2819047
REMARK minimizedRMSD -1
REMARK  0 active torsions:
REMARK  status: ('A' for Active; 'I' for Inactive)
ROOT
ATOM      1  C1  DEN d   1       2.180   1.581   1.268  0.00  0.00     0.130 A 
ATOM      2  C2  DEN d   1       1.227   2.041   0.262  0.00  0.00    -0.031 A 
ATOM      3  C3  DEN d   1       0.987   0.931  -0.681  0.00  0.00     0.027 A 
ATOM      4  C4  DEN d   1       1.990  -1.446  -0.679  0.00  0.00     0.027 A 
ATOM      5  C5  DEN d   1       2.855  -2.298  -0.029  0.00  0.00    -0.003 A 
ATOM      6  C6  DEN d   1       3.576  -1.910   1.069  0.00  0.00     0.001 A 
ATOM      7  C7  DEN d   1       3.411  -0.649   1.578  0.00  0.00     0.017 A 
ATOM      8  C8  DEN d   1       2.546   0.219   0.925  0.00  0.00    -0.094 A 
ATOM      9  C9  DEN d   1       1.817  -0.197  -0.177  0.00  0.00    -0.072 A 
ENDROOT
TORSDOF 0
ENDMDL
