MODEL 1
REMARK minimizedAffinity 3.37129712
REMARK minimizedRMSD -1
REMARK  0 active torsions:
REMARK  status: ('A' for Active; 'I' for Inactive)
ROOT
ATOM      1  C1  DEN d   1       1.191   3.499   1.340  0.00  0.00     0.130 A 
ATOM      2  C2  DEN d   1      -0.129   2.979   0.993  0.00  0.00    -0.031 A 
ATOM      3  C3  DEN d   1       0.038   1.597   0.503  0.00  0.00     0.027 A 
ATOM      4  C4  DEN d   1       2.202   0.215   0.253  0.00  0.00     0.027 A 
ATOM      5  C5  DEN d   1       3.570   0.234   0.409  0.00  0.00    -0.003 A 
ATOM      6  C6  DEN d   1       4.240   1.344   0.851  0.00  0.00     0.001 A 
ATOM      7  C7  DEN d   1       3.536   2.468   1.195  0.00  0.00     0.017 A 
ATOM      8  C8  DEN d   1       2.157   2.459   1.033  0.00  0.00    -0.094 A 
ATOM      9  C9  DEN d   1       1.498   1.323   0.597  0.00  0.00    -0.072 A 
ENDROOT
TORSDOF 0
ENDMDL
