MODEL 1
REMARK minimizedAffinity 11.1517534
REMARK minimizedRMSD -1
REMARK  0 active torsions:
REMARK  status: ('A' for Active; 'I' for Inactive)
ROOT
ATOM      1  C1  DEN d   1      -0.036  -0.390  -2.170  0.00  0.00     0.130 A 
ATOM      2  C2  DEN d   1       0.910  -1.421  -2.587  0.00  0.00    -0.031 A 
ATOM      3  C3  DEN d   1       2.136  -1.269  -1.778  0.00  0.00     0.027 A 
ATOM      4  C4  DEN d   1       2.656   0.450   0.073  0.00  0.00     0.027 A 
ATOM      5  C5  DEN d   1       2.165   1.532   0.770  0.00  0.00    -0.003 A 
ATOM      6  C6  DEN d   1       0.930   2.066   0.515  0.00  0.00     0.001 A 
ATOM      7  C7  DEN d   1       0.125   1.490  -0.432  0.00  0.00     0.017 A 
ATOM      8  C8  DEN d   1       0.615   0.404  -1.144  0.00  0.00    -0.094 A 
ATOM      9  C9  DEN d   1       1.862  -0.129  -0.863  0.00  0.00    -0.072 A 
ENDROOT
TORSDOF 0
ENDMDL
