MODEL 1
REMARK minimizedAffinity 1.6115911
REMARK minimizedRMSD -1
REMARK  0 active torsions:
REMARK  status: ('A' for Active; 'I' for Inactive)
ROOT
ATOM      1  C1  DEN d   1       2.296   1.765   0.406  0.00  0.00     0.130 A 
ATOM      2  C2  DEN d   1       0.987   2.401   0.281  0.00  0.00    -0.031 A 
ATOM      3  C3  DEN d   1       0.028   1.384  -0.195  0.00  0.00     0.027 A 
ATOM      4  C4  DEN d   1       0.438  -1.103  -0.742  0.00  0.00     0.027 A 
ATOM      5  C5  DEN d   1       1.389  -2.097  -0.800  0.00  0.00    -0.003 A 
ATOM      6  C6  DEN d   1       2.705  -1.868  -0.495  0.00  0.00     0.001 A 
ATOM      7  C7  DEN d   1       3.098  -0.625  -0.075  0.00  0.00     0.017 A 
ATOM      8  C8  DEN d   1       2.146   0.385  -0.021  0.00  0.00    -0.094 A 
ATOM      9  C9  DEN d   1       0.818   0.130  -0.321  0.00  0.00    -0.072 A 
ENDROOT
TORSDOF 0
ENDMDL
