MODEL 1
REMARK minimizedAffinity 0.775893569
REMARK minimizedRMSD -1
REMARK  0 active torsions:
REMARK  status: ('A' for Active; 'I' for Inactive)
ROOT
ATOM      1  C   UNL d   1       2.535   5.178  -1.925  0.00  0.00     0.172 C 
ATOM      2  N   UNL d   1       3.839   5.501  -2.455  0.00  0.00    -0.070 N 
ATOM      3  C1  UNL d   1       4.969   5.724  -1.713  0.00  0.00    -0.004 A 
ATOM      4  C2  UNL d   1       5.999   5.999  -2.586  0.00  0.00    -0.047 A 
ATOM      5  C3  UNL d   1       5.470   5.940  -3.898  0.00  0.00    -0.047 A 
ATOM      6  C4  UNL d   1       4.131   5.630  -3.787  0.00  0.00    -0.004 A 
ENDROOT
TORSDOF 0
ENDMDL
