MODEL 1
REMARK minimizedAffinity 0.0346690752
REMARK minimizedRMSD -1
REMARK  0 active torsions:
REMARK  status: ('A' for Active; 'I' for Inactive)
ROOT
ATOM      1  C   UNL d   1       3.734   5.982  -2.030  0.00  0.00     0.172 C 
ATOM      2  N   UNL d   1       4.393   5.987  -3.315  0.00  0.00    -0.070 N 
ATOM      3  C1  UNL d   1       3.768   5.996  -4.533  0.00  0.00    -0.004 A 
ATOM      4  C2  UNL d   1       4.742   6.000  -5.508  0.00  0.00    -0.047 A 
ATOM      5  C3  UNL d   1       5.996   5.992  -4.853  0.00  0.00    -0.047 A 
ATOM      6  C4  UNL d   1       5.751   5.984  -3.496  0.00  0.00    -0.004 A 
ENDROOT
TORSDOF 0
ENDMDL
