MODEL 1
REMARK minimizedAffinity -1.17042804
REMARK minimizedRMSD -1
REMARK  0 active torsions:
REMARK  status: ('A' for Active; 'I' for Inactive)
ROOT
ATOM      1  C   UNL d   1       5.873   4.535  -5.896  0.00  0.00     0.172 C 
ATOM      2  N   UNL d   1       5.281   3.218  -5.937  0.00  0.00    -0.070 N 
ATOM      3  C1  UNL d   1       3.939   2.946  -5.957  0.00  0.00    -0.004 A 
ATOM      4  C2  UNL d   1       3.787   1.577  -5.995  0.00  0.00    -0.047 A 
ATOM      5  C3  UNL d   1       5.082   1.007  -5.997  0.00  0.00    -0.047 A 
ATOM      6  C4  UNL d   1       5.988   2.045  -5.960  0.00  0.00    -0.004 A 
ENDROOT
TORSDOF 0
ENDMDL
