MODEL 1
REMARK minimizedAffinity 0.268159181
REMARK minimizedRMSD -1
REMARK  0 active torsions:
REMARK  status: ('A' for Active; 'I' for Inactive)
ROOT
ATOM      1  C   UNL d   1      -3.893   0.004  -3.842  0.00  0.00     0.172 C 
ATOM      2  N   UNL d   1      -3.696   1.150  -2.986  0.00  0.00    -0.070 N 
ATOM      3  C1  UNL d   1      -4.015   2.445  -3.299  0.00  0.00    -0.004 A 
ATOM      4  C2  UNL d   1      -3.674   3.235  -2.222  0.00  0.00    -0.047 A 
ATOM      5  C3  UNL d   1      -3.132   2.386  -1.229  0.00  0.00    -0.047 A 
ATOM      6  C4  UNL d   1      -3.157   1.101  -1.728  0.00  0.00    -0.004 A 
ENDROOT
TORSDOF 0
ENDMDL
