MODEL 1
REMARK minimizedAffinity 4.46711588
REMARK minimizedRMSD -1
REMARK  0 active torsions:
REMARK  status: ('A' for Active; 'I' for Inactive)
ROOT
ATOM      1  C   UNL d   1       2.410   1.209   1.386  0.00  0.00     0.172 C 
ATOM      2  N   UNL d   1       1.778  -0.049   1.707  0.00  0.00    -0.070 N 
ATOM      3  C1  UNL d   1       2.187  -0.923   2.679  0.00  0.00    -0.004 A 
ATOM      4  C2  UNL d   1       1.324  -1.998   2.670  0.00  0.00    -0.047 A 
ATOM      5  C3  UNL d   1       0.364  -1.762   1.658  0.00  0.00    -0.047 A 
ATOM      6  C4  UNL d   1       0.669  -0.549   1.077  0.00  0.00    -0.004 A 
ENDROOT
TORSDOF 0
ENDMDL
