MODEL 1
REMARK minimizedAffinity -0.212954208
REMARK minimizedRMSD -1
REMARK  0 active torsions:
REMARK  status: ('A' for Active; 'I' for Inactive)
ROOT
ATOM      1  C   UNL d   1      -5.007  -2.425  -5.302  0.00  0.00     0.172 C 
ATOM      2  N   UNL d   1      -5.048  -3.869  -5.283  0.00  0.00    -0.070 N 
ATOM      3  C1  UNL d   1      -5.912  -4.653  -6.000  0.00  0.00    -0.004 A 
ATOM      4  C2  UNL d   1      -5.630  -5.969  -5.706  0.00  0.00    -0.047 A 
ATOM      5  C3  UNL d   1      -4.561  -5.977  -4.780  0.00  0.00    -0.047 A 
ATOM      6  C4  UNL d   1      -4.220  -4.664  -4.535  0.00  0.00    -0.004 A 
ENDROOT
TORSDOF 0
ENDMDL
