MODEL 1
REMARK minimizedAffinity 5.7004776
REMARK minimizedRMSD -1
REMARK  0 active torsions:
REMARK  status: ('A' for Active; 'I' for Inactive)
ROOT
ATOM      1  C   UNL d   1       2.555   0.620   1.530  0.00  0.00     0.172 C 
ATOM      2  N   UNL d   1       2.002  -0.594   2.081  0.00  0.00    -0.070 N 
ATOM      3  C1  UNL d   1       2.420  -1.214   3.229  0.00  0.00    -0.004 A 
ATOM      4  C2  UNL d   1       1.642  -2.337   3.410  0.00  0.00    -0.047 A 
ATOM      5  C3  UNL d   1       0.725  -2.395   2.333  0.00  0.00    -0.047 A 
ATOM      6  C4  UNL d   1       0.970  -1.305   1.526  0.00  0.00    -0.004 A 
ENDROOT
TORSDOF 0
ENDMDL
