MODEL 1
REMARK minimizedAffinity 2.19321918
REMARK minimizedRMSD -1
REMARK  0 active torsions:
REMARK  status: ('A' for Active; 'I' for Inactive)
ROOT
ATOM      1  C   UNL d   1       2.596  -4.495   4.223  0.00  0.00     0.172 C 
ATOM      2  N   UNL d   1       3.981  -4.136   4.025  0.00  0.00    -0.070 N 
ATOM      3  C1  UNL d   1       4.739  -3.378   4.877  0.00  0.00    -0.004 A 
ATOM      4  C2  UNL d   1       6.000  -3.265   4.332  0.00  0.00    -0.047 A 
ATOM      5  C3  UNL d   1       5.999  -3.978   3.110  0.00  0.00    -0.047 A 
ATOM      6  C4  UNL d   1       4.737  -4.507   2.944  0.00  0.00    -0.004 A 
ENDROOT
TORSDOF 0
ENDMDL
