MODEL 1
REMARK minimizedAffinity -2.00947785
REMARK minimizedRMSD -1
REMARK  1 active torsions:
REMARK  status: ('A' for Active; 'I' for Inactive)
REMARK    1  A    between atoms: C1_2  and  C2_3 
ROOT
ATOM      1  C2  UNL d   1       0.125   0.865   0.332  0.00  0.00    -0.077 A 
ATOM      2  C3  UNL d   1      -0.130   0.929  -1.046  0.00  0.00     0.002 A 
ATOM      3  C4  UNL d   1      -0.510   2.135  -1.639  0.00  0.00     0.002 A 
ATOM      4  C5  UNL d   1      -0.634   3.285  -0.863  0.00  0.00    -0.004 A 
ATOM      5  C6  UNL d   1      -0.385   3.232   0.507  0.00  0.00     0.002 A 
ATOM      6  C7  UNL d   1      -0.007   2.028   1.102  0.00  0.00     0.002 A 
ENDROOT
BRANCH   1   7
ATOM      7  C1  UNL d   1       0.583  -0.423   0.965  0.00  0.00     0.055 C 
ATOM      8  C   UNL d   1       1.599  -0.166   2.068  0.00  0.00     0.019 C 
ENDBRANCH   1   7
TORSDOF 1
ENDMDL
