MODEL 1
REMARK minimizedAffinity 5.61102581
REMARK minimizedRMSD -1
REMARK  1 active torsions:
REMARK  status: ('A' for Active; 'I' for Inactive)
REMARK    1  A    between atoms: C1_2  and  C2_3 
ROOT
ATOM      1  C2  UNL d   1       0.911  -0.656   1.270  0.00  0.00    -0.077 A 
ATOM      2  C3  UNL d   1       1.545  -1.101   0.102  0.00  0.00     0.002 A 
ATOM      3  C4  UNL d   1       1.162  -0.601  -1.144  0.00  0.00     0.002 A 
ATOM      4  C5  UNL d   1       0.148   0.350  -1.234  0.00  0.00    -0.004 A 
ATOM      5  C6  UNL d   1      -0.490   0.797  -0.078  0.00  0.00     0.002 A 
ATOM      6  C7  UNL d   1      -0.110   0.298   1.169  0.00  0.00     0.002 A 
ENDROOT
BRANCH   1   7
ATOM      7  C1  UNL d   1       1.357  -1.157   2.619  0.00  0.00     0.055 C 
ATOM      8  C   UNL d   1       2.872  -1.122   2.750  0.00  0.00     0.019 C 
ENDBRANCH   1   7
TORSDOF 1
ENDMDL
