MODEL 1
REMARK minimizedAffinity 2.90515375
REMARK minimizedRMSD -1
REMARK  1 active torsions:
REMARK  status: ('A' for Active; 'I' for Inactive)
REMARK    1  A    between atoms: C1_2  and  C2_3 
ROOT
ATOM      1  C2  UNL d   1       0.383   1.825   2.156  0.00  0.00    -0.077 A 
ATOM      2  C3  UNL d   1       0.317   2.845   1.196  0.00  0.00     0.002 A 
ATOM      3  C4  UNL d   1       1.048   4.022   1.365  0.00  0.00     0.002 A 
ATOM      4  C5  UNL d   1       1.852   4.190   2.490  0.00  0.00    -0.004 A 
ATOM      5  C6  UNL d   1       1.923   3.183   3.452  0.00  0.00     0.002 A 
ATOM      6  C7  UNL d   1       1.193   2.006   3.285  0.00  0.00     0.002 A 
ENDROOT
BRANCH   1   7
ATOM      7  C1  UNL d   1      -0.365   0.534   1.952  0.00  0.00     0.055 C 
ATOM      8  C   UNL d   1       0.447  -0.659   2.435  0.00  0.00     0.019 C 
ENDBRANCH   1   7
TORSDOF 1
ENDMDL
