MODEL 1
REMARK minimizedAffinity 9.24942684
REMARK minimizedRMSD -1
REMARK  1 active torsions:
REMARK  status: ('A' for Active; 'I' for Inactive)
REMARK    1  A    between atoms: C1_2  and  C2_3 
ROOT
ATOM      1  C2  UNL d   1      -5.043  -0.808   4.398  0.00  0.00    -0.077 A 
ATOM      2  C3  UNL d   1      -5.049  -1.292   5.714  0.00  0.00     0.002 A 
ATOM      3  C4  UNL d   1      -5.527  -2.574   5.993  0.00  0.00     0.002 A 
ATOM      4  C5  UNL d   1      -5.998  -3.383   4.962  0.00  0.00    -0.004 A 
ATOM      5  C6  UNL d   1      -5.999  -2.911   3.650  0.00  0.00     0.002 A 
ATOM      6  C7  UNL d   1      -5.523  -1.629   3.370  0.00  0.00     0.002 A 
ENDROOT
BRANCH   1   7
ATOM      7  C1  UNL d   1      -4.483   0.555   4.088  0.00  0.00     0.055 C 
ATOM      8  C   UNL d   1      -3.555   0.511   2.883  0.00  0.00     0.019 C 
ENDBRANCH   1   7
TORSDOF 1
ENDMDL
