MODEL 1
REMARK minimizedAffinity 4.11554623
REMARK minimizedRMSD -1
REMARK  1 active torsions:
REMARK  status: ('A' for Active; 'I' for Inactive)
REMARK    1  A    between atoms: C1_2  and  C2_3 
ROOT
ATOM      1  C2  UNL d   1       0.507   1.931   2.455  0.00  0.00    -0.077 A 
ATOM      2  C3  UNL d   1       0.113   2.807   1.434  0.00  0.00     0.002 A 
ATOM      3  C4  UNL d   1       0.790   4.012   1.237  0.00  0.00     0.002 A 
ATOM      4  C5  UNL d   1       1.866   4.350   2.054  0.00  0.00    -0.004 A 
ATOM      5  C6  UNL d   1       2.264   3.487   3.074  0.00  0.00     0.002 A 
ATOM      6  C7  UNL d   1       1.588   2.282   3.273  0.00  0.00     0.002 A 
ENDROOT
BRANCH   1   7
ATOM      7  C1  UNL d   1      -0.191   0.608   2.638  0.00  0.00     0.055 C 
ATOM      8  C   UNL d   1       0.736  -0.555   2.315  0.00  0.00     0.019 C 
ENDBRANCH   1   7
TORSDOF 1
ENDMDL
