MODEL 1
REMARK minimizedAffinity -3.76371765
REMARK minimizedRMSD -1
REMARK  0 active torsions:
REMARK  status: ('A' for Active; 'I' for Inactive)
ROOT
ATOM      1  C   UNL d   1       0.609  -0.221   0.697  0.00  0.00     0.172 C 
ATOM      2  N   UNL d   1      -0.094   1.039   0.645  0.00  0.00    -0.070 N 
ATOM      3  C1  UNL d   1       0.284   2.135  -0.084  0.00  0.00    -0.004 A 
ATOM      4  C2  UNL d   1      -0.646   3.128   0.134  0.00  0.00    -0.047 A 
ATOM      5  C3  UNL d   1      -1.616   2.612   1.026  0.00  0.00    -0.047 A 
ATOM      6  C4  UNL d   1      -1.250   1.317   1.326  0.00  0.00    -0.004 A 
ENDROOT
TORSDOF 0
ENDMDL
