MODEL 1
REMARK minimizedAffinity -3.83509254
REMARK minimizedRMSD -1
REMARK  0 active torsions:
REMARK  status: ('A' for Active; 'I' for Inactive)
ROOT
ATOM      1  C   UNL d   1       0.616  -0.009   0.336  0.00  0.00     0.172 C 
ATOM      2  N   UNL d   1       0.220   1.378   0.395  0.00  0.00    -0.070 N 
ATOM      3  C1  UNL d   1       0.938   2.435  -0.098  0.00  0.00    -0.004 A 
ATOM      4  C2  UNL d   1       0.222   3.586   0.155  0.00  0.00    -0.047 A 
ATOM      5  C3  UNL d   1      -0.966   3.207   0.824  0.00  0.00    -0.047 A 
ATOM      6  C4  UNL d   1      -0.942   1.835   0.960  0.00  0.00    -0.004 A 
ENDROOT
TORSDOF 0
ENDMDL
