MODEL 1
REMARK minimizedAffinity -3.17154002
REMARK minimizedRMSD -1
REMARK  0 active torsions:
REMARK  status: ('A' for Active; 'I' for Inactive)
ROOT
ATOM      1  C   UNL d   1       0.036  -0.433  -0.113  0.00  0.00     0.172 C 
ATOM      2  N   UNL d   1      -0.046   0.975   0.196  0.00  0.00    -0.070 N 
ATOM      3  C1  UNL d   1       0.999   1.859   0.176  0.00  0.00    -0.004 A 
ATOM      4  C2  UNL d   1       0.510   3.098   0.529  0.00  0.00    -0.047 A 
ATOM      5  C3  UNL d   1      -0.877   2.953   0.771  0.00  0.00    -0.047 A 
ATOM      6  C4  UNL d   1      -1.195   1.629   0.557  0.00  0.00    -0.004 A 
ENDROOT
TORSDOF 0
ENDMDL
