MODEL 1
REMARK minimizedAffinity -3.14306045
REMARK minimizedRMSD -1
REMARK  0 active torsions:
REMARK  status: ('A' for Active; 'I' for Inactive)
ROOT
ATOM      1  C   UNL d   1       0.260  -1.719   0.142  0.00  0.00     0.172 C 
ATOM      2  N   UNL d   1       0.063  -0.290   0.076  0.00  0.00    -0.070 N 
ATOM      3  C1  UNL d   1      -1.056   0.382   0.491  0.00  0.00    -0.004 A 
ATOM      4  C2  UNL d   1      -0.851   1.725   0.261  0.00  0.00    -0.047 A 
ATOM      5  C3  UNL d   1       0.435   1.865  -0.313  0.00  0.00    -0.047 A 
ATOM      6  C4  UNL d   1       0.979   0.602  -0.416  0.00  0.00    -0.004 A 
ENDROOT
TORSDOF 0
ENDMDL
