MODEL 1
REMARK minimizedAffinity -3.60635781
REMARK minimizedRMSD -1
REMARK  0 active torsions:
REMARK  status: ('A' for Active; 'I' for Inactive)
ROOT
ATOM      1  C   UNL d   1       0.034  -0.237   0.293  0.00  0.00     0.172 C 
ATOM      2  N   UNL d   1       0.075   1.186   0.052  0.00  0.00    -0.070 N 
ATOM      3  C1  UNL d   1      -0.391   2.153   0.903  0.00  0.00    -0.004 A 
ATOM      4  C2  UNL d   1      -0.169   3.378   0.311  0.00  0.00    -0.047 A 
ATOM      5  C3  UNL d   1       0.452   3.139  -0.938  0.00  0.00    -0.047 A 
ATOM      6  C4  UNL d   1       0.590   1.774  -1.073  0.00  0.00    -0.004 A 
ENDROOT
TORSDOF 0
ENDMDL
