MODEL 1
REMARK minimizedAffinity -3.10886621
REMARK minimizedRMSD -1
REMARK  0 active torsions:
REMARK  status: ('A' for Active; 'I' for Inactive)
ROOT
ATOM      1  C   UNL d   1      -0.146  -1.421   0.202  0.00  0.00     0.172 C 
ATOM      2  N   UNL d   1      -0.387  -0.000   0.111  0.00  0.00    -0.070 N 
ATOM      3  C1  UNL d   1       0.461   0.919  -0.447  0.00  0.00    -0.004 A 
ATOM      4  C2  UNL d   1      -0.129   2.159  -0.338  0.00  0.00    -0.047 A 
ATOM      5  C3  UNL d   1      -1.375   1.979   0.309  0.00  0.00    -0.047 A 
ATOM      6  C4  UNL d   1      -1.509   0.633   0.575  0.00  0.00    -0.004 A 
ENDROOT
TORSDOF 0
ENDMDL
