MODEL 1
REMARK minimizedAffinity -2.24799204
REMARK minimizedRMSD -1
REMARK  0 active torsions:
REMARK  status: ('A' for Active; 'I' for Inactive)
ROOT
ATOM      1  C   UNL d   1       0.038   2.989   0.548  0.00  0.00     0.172 C 
ATOM      2  N   UNL d   1       0.401   1.616   0.288  0.00  0.00    -0.070 N 
ATOM      3  C1  UNL d   1      -0.445   0.637  -0.160  0.00  0.00    -0.004 A 
ATOM      4  C2  UNL d   1       0.283  -0.527  -0.280  0.00  0.00    -0.047 A 
ATOM      5  C3  UNL d   1       1.612  -0.238   0.111  0.00  0.00    -0.047 A 
ATOM      6  C4  UNL d   1       1.657   1.096   0.458  0.00  0.00    -0.004 A 
ENDROOT
TORSDOF 0
ENDMDL
