MODEL 1
REMARK minimizedAffinity -3.28487134
REMARK minimizedRMSD -1
REMARK  0 active torsions:
REMARK  status: ('A' for Active; 'I' for Inactive)
ROOT
ATOM      1  C   UNL d   1      -0.255  -1.475  -0.463  0.00  0.00     0.172 C 
ATOM      2  N   UNL d   1      -0.521  -0.092  -0.144  0.00  0.00    -0.070 N 
ATOM      3  C1  UNL d   1      -1.492   0.357   0.711  0.00  0.00    -0.004 A 
ATOM      4  C2  UNL d   1      -1.422   1.733   0.745  0.00  0.00    -0.047 A 
ATOM      5  C3  UNL d   1      -0.373   2.124  -0.122  0.00  0.00    -0.047 A 
ATOM      6  C4  UNL d   1       0.167   0.975  -0.658  0.00  0.00    -0.004 A 
ENDROOT
TORSDOF 0
ENDMDL
