MODEL 1
REMARK minimizedAffinity -3.37479854
REMARK minimizedRMSD -1
REMARK  0 active torsions:
REMARK  status: ('A' for Active; 'I' for Inactive)
ROOT
ATOM      1  C   UNL d   1      -0.345  -0.839   0.031  0.00  0.00     0.172 C 
ATOM      2  N   UNL d   1      -0.655   0.551   0.268  0.00  0.00    -0.070 N 
ATOM      3  C1  UNL d   1       0.049   1.620  -0.220  0.00  0.00    -0.004 A 
ATOM      4  C2  UNL d   1      -0.564   2.769   0.230  0.00  0.00    -0.047 A 
ATOM      5  C3  UNL d   1      -1.673   2.378   1.017  0.00  0.00    -0.047 A 
ATOM      6  C4  UNL d   1      -1.706   0.999   1.023  0.00  0.00    -0.004 A 
ENDROOT
TORSDOF 0
ENDMDL
