MODEL 1
REMARK minimizedAffinity -1.60542393
REMARK minimizedRMSD -1
REMARK  0 active torsions:
REMARK  status: ('A' for Active; 'I' for Inactive)
ROOT
ATOM      1  C   UNL d   1      -0.528  -0.485   0.069  0.00  0.00     0.172 C 
ATOM      2  N   UNL d   1      -0.560   0.892   0.504  0.00  0.00    -0.070 N 
ATOM      3  C1  UNL d   1      -1.303   1.383   1.544  0.00  0.00    -0.004 A 
ATOM      4  C2  UNL d   1      -1.057   2.736   1.636  0.00  0.00    -0.047 A 
ATOM      5  C3  UNL d   1      -0.135   3.069   0.615  0.00  0.00    -0.047 A 
ATOM      6  C4  UNL d   1       0.156   1.909  -0.071  0.00  0.00    -0.004 A 
ENDROOT
TORSDOF 0
ENDMDL
