MODEL 1
REMARK minimizedAffinity -3.36185741
REMARK minimizedRMSD -1
REMARK  0 active torsions:
REMARK  status: ('A' for Active; 'I' for Inactive)
ROOT
ATOM      1  C   UNL d   1      -0.075   2.436   0.816  0.00  0.00     0.172 C 
ATOM      2  N   UNL d   1       0.217   1.023   0.745  0.00  0.00    -0.070 N 
ATOM      3  C1  UNL d   1      -0.711   0.019   0.678  0.00  0.00    -0.004 A 
ATOM      4  C2  UNL d   1      -0.032  -1.180   0.623  0.00  0.00    -0.047 A 
ATOM      5  C3  UNL d   1       1.351  -0.885   0.658  0.00  0.00    -0.047 A 
ATOM      6  C4  UNL d   1       1.478   0.486   0.733  0.00  0.00    -0.004 A 
ENDROOT
TORSDOF 0
ENDMDL
