MODEL 1
REMARK minimizedAffinity -3.45172167
REMARK minimizedRMSD -1
REMARK  0 active torsions:
REMARK  status: ('A' for Active; 'I' for Inactive)
ROOT
ATOM      1  C   UNL d   1      -0.241   3.109  -0.159  0.00  0.00     0.172 C 
ATOM      2  N   UNL d   1      -0.007   1.687  -0.058  0.00  0.00    -0.070 N 
ATOM      3  C1  UNL d   1      -0.951   0.742   0.246  0.00  0.00    -0.004 A 
ATOM      4  C2  UNL d   1      -0.331  -0.489   0.243  0.00  0.00    -0.047 A 
ATOM      5  C3  UNL d   1       1.032  -0.276  -0.072  0.00  0.00    -0.047 A 
ATOM      6  C4  UNL d   1       1.205   1.080  -0.253  0.00  0.00    -0.004 A 
ENDROOT
TORSDOF 0
ENDMDL
