MODEL 1
REMARK minimizedAffinity -2.53433371
REMARK minimizedRMSD -1
REMARK  0 active torsions:
REMARK  status: ('A' for Active; 'I' for Inactive)
ROOT
ATOM      1  C   UNL d   1      -0.382  -0.996  -0.251  0.00  0.00     0.172 C 
ATOM      2  N   UNL d   1      -0.444   0.437  -0.090  0.00  0.00    -0.070 N 
ATOM      3  C1  UNL d   1      -1.226   1.106   0.814  0.00  0.00    -0.004 A 
ATOM      4  C2  UNL d   1      -0.998   2.455   0.652  0.00  0.00    -0.047 A 
ATOM      5  C3  UNL d   1      -0.047   2.603  -0.386  0.00  0.00    -0.047 A 
ATOM      6  C4  UNL d   1       0.279   1.338  -0.827  0.00  0.00    -0.004 A 
ENDROOT
TORSDOF 0
ENDMDL
