MODEL 1
REMARK minimizedAffinity -2.11068058
REMARK minimizedRMSD -1
REMARK  0 active torsions:
REMARK  status: ('A' for Active; 'I' for Inactive)
ROOT
ATOM      1  C   UNL d   1      -0.629   2.675   0.254  0.00  0.00     0.172 C 
ATOM      2  N   UNL d   1      -0.430   1.249   0.146  0.00  0.00    -0.070 N 
ATOM      3  C1  UNL d   1       0.758   0.628  -0.134  0.00  0.00    -0.004 A 
ATOM      4  C2  UNL d   1       0.531  -0.732  -0.148  0.00  0.00    -0.047 A 
ATOM      5  C3  UNL d   1      -0.842  -0.934   0.132  0.00  0.00    -0.047 A 
ATOM      6  C4  UNL d   1      -1.412   0.309   0.310  0.00  0.00    -0.004 A 
ENDROOT
TORSDOF 0
ENDMDL
