MODEL 1
REMARK minimizedAffinity -2.73808646
REMARK minimizedRMSD -1
REMARK  0 active torsions:
REMARK  status: ('A' for Active; 'I' for Inactive)
ROOT
ATOM      1  C   UNL d   1       0.167   3.036  -0.313  0.00  0.00     0.172 C 
ATOM      2  N   UNL d   1       0.076   1.611  -0.097  0.00  0.00    -0.070 N 
ATOM      3  C1  UNL d   1       1.104   0.716  -0.231  0.00  0.00    -0.004 A 
ATOM      4  C2  UNL d   1       0.612  -0.538   0.062  0.00  0.00    -0.047 A 
ATOM      5  C3  UNL d   1      -0.758  -0.391   0.383  0.00  0.00    -0.047 A 
ATOM      6  C4  UNL d   1      -1.064   0.949   0.277  0.00  0.00    -0.004 A 
ENDROOT
TORSDOF 0
ENDMDL
