MODEL 1
REMARK minimizedAffinity -4.53348255
REMARK minimizedRMSD -1
REMARK  2 active torsions:
REMARK  status: ('A' for Active; 'I' for Inactive)
REMARK    1  A    between atoms: C1_2  and  C2_3 
REMARK    2  A    between atoms: C2_3  and  C3_4 
ROOT
ATOM      1  C3  UNL d   1       0.054  -0.140   0.043  0.00  0.00    -0.075 A 
ATOM      2  C4  UNL d   1      -0.027  -0.834   1.258  0.00  0.00     0.002 A 
ATOM      3  C5  UNL d   1      -0.736  -0.299   2.334  0.00  0.00     0.002 A 
ATOM      4  C6  UNL d   1      -1.363   0.939   2.212  0.00  0.00    -0.004 A 
ATOM      5  C7  UNL d   1      -1.275   1.645   1.014  0.00  0.00     0.002 A 
ATOM      6  C8  UNL d   1      -0.570   1.110  -0.065  0.00  0.00     0.002 A 
ENDROOT
BRANCH   1   7
ATOM      7  C2  UNL d   1       0.795  -0.728  -1.135  0.00  0.00     0.056 C 
BRANCH   7   8
ATOM      8  C1  UNL d   1       1.121  -2.218  -0.986  0.00  0.00     0.007 C 
ATOM      9  C   UNL d   1       0.372  -3.098  -1.978  0.00  0.00     0.009 C 
ENDBRANCH   7   8
ENDBRANCH   1   7
TORSDOF 2
ENDMDL
