MODEL 1
REMARK minimizedAffinity -3.63578224
REMARK minimizedRMSD -1
REMARK  2 active torsions:
REMARK  status: ('A' for Active; 'I' for Inactive)
REMARK    1  A    between atoms: C1_2  and  C2_3 
REMARK    2  A    between atoms: C2_3  and  C3_4 
ROOT
ATOM      1  C3  UNL d   1      -0.868   0.941   1.433  0.00  0.00    -0.075 A 
ATOM      2  C4  UNL d   1      -0.013  -0.163   1.301  0.00  0.00     0.002 A 
ATOM      3  C5  UNL d   1       0.336  -0.641   0.037  0.00  0.00     0.002 A 
ATOM      4  C6  UNL d   1      -0.172  -0.029  -1.107  0.00  0.00    -0.004 A 
ATOM      5  C7  UNL d   1      -1.035   1.058  -0.987  0.00  0.00     0.002 A 
ATOM      6  C8  UNL d   1      -1.382   1.541   0.276  0.00  0.00     0.002 A 
ENDROOT
BRANCH   1   7
ATOM      7  C2  UNL d   1      -1.226   1.481   2.797  0.00  0.00     0.056 C 
BRANCH   7   8
ATOM      8  C1  UNL d   1      -0.171   1.204   3.874  0.00  0.00     0.007 C 
ATOM      9  C   UNL d   1       0.235   2.450   4.650  0.00  0.00     0.009 C 
ENDBRANCH   7   8
ENDBRANCH   1   7
TORSDOF 2
ENDMDL
