MODEL 1
REMARK minimizedAffinity -5.54530573
REMARK minimizedRMSD -1
REMARK  2 active torsions:
REMARK  status: ('A' for Active; 'I' for Inactive)
REMARK    1  A    between atoms: C1_2  and  C2_3 
REMARK    2  A    between atoms: C2_3  and  C3_4 
ROOT
ATOM      1  C3  UNL d   1       0.046  -0.466  -0.113  0.00  0.00    -0.075 A 
ATOM      2  C4  UNL d   1       0.107  -0.558   1.285  0.00  0.00     0.002 A 
ATOM      3  C5  UNL d   1      -0.694   0.259   2.084  0.00  0.00     0.002 A 
ATOM      4  C6  UNL d   1      -1.557   1.181   1.498  0.00  0.00    -0.004 A 
ATOM      5  C7  UNL d   1      -1.615   1.292   0.110  0.00  0.00     0.002 A 
ATOM      6  C8  UNL d   1      -0.817   0.474  -0.692  0.00  0.00     0.002 A 
ENDROOT
BRANCH   1   7
ATOM      7  C2  UNL d   1       0.888  -1.367  -0.984  0.00  0.00     0.056 C 
BRANCH   7   8
ATOM      8  C1  UNL d   1       0.098  -2.097  -2.076  0.00  0.00     0.007 C 
ATOM      9  C   UNL d   1       0.025  -3.602  -1.860  0.00  0.00     0.009 C 
ENDBRANCH   7   8
ENDBRANCH   1   7
TORSDOF 2
ENDMDL
