MODEL 1
REMARK minimizedAffinity -3.07442069
REMARK minimizedRMSD -1
REMARK  2 active torsions:
REMARK  status: ('A' for Active; 'I' for Inactive)
REMARK    1  A    between atoms: C1_2  and  C2_3 
REMARK    2  A    between atoms: C2_3  and  C3_4 
ROOT
ATOM      1  C3  UNL d   1       0.387  -1.196  -0.524  0.00  0.00    -0.075 A 
ATOM      2  C4  UNL d   1      -0.241  -1.647  -1.694  0.00  0.00     0.002 A 
ATOM      3  C5  UNL d   1       0.018  -2.925  -2.189  0.00  0.00     0.002 A 
ATOM      4  C6  UNL d   1       0.914  -3.763  -1.529  0.00  0.00    -0.004 A 
ATOM      5  C7  UNL d   1       1.556  -3.319  -0.375  0.00  0.00     0.002 A 
ATOM      6  C8  UNL d   1       1.296  -2.042   0.126  0.00  0.00     0.002 A 
ENDROOT
BRANCH   1   7
ATOM      7  C2  UNL d   1       0.089   0.176   0.034  0.00  0.00     0.056 C 
BRANCH   7   8
ATOM      8  C1  UNL d   1       0.031   0.228   1.564  0.00  0.00     0.007 C 
ATOM      9  C   UNL d   1      -1.300   0.740   2.098  0.00  0.00     0.009 C 
ENDBRANCH   7   8
ENDBRANCH   1   7
TORSDOF 2
ENDMDL
