MODEL 1
REMARK minimizedAffinity -4.82499695
REMARK minimizedRMSD -1
REMARK  2 active torsions:
REMARK  status: ('A' for Active; 'I' for Inactive)
REMARK    1  A    between atoms: C1_2  and  C2_3 
REMARK    2  A    between atoms: C2_3  and  C3_4 
ROOT
ATOM      1  C3  UNL d   1      -0.050   0.231   0.069  0.00  0.00    -0.075 A 
ATOM      2  C4  UNL d   1      -0.287  -0.011   1.429  0.00  0.00     0.002 A 
ATOM      3  C5  UNL d   1      -1.313   0.657   2.099  0.00  0.00     0.002 A 
ATOM      4  C6  UNL d   1      -2.106   1.580   1.421  0.00  0.00    -0.004 A 
ATOM      5  C7  UNL d   1      -1.869   1.840   0.073  0.00  0.00     0.002 A 
ATOM      6  C8  UNL d   1      -0.846   1.170  -0.600  0.00  0.00     0.002 A 
ENDROOT
BRANCH   1   7
ATOM      7  C2  UNL d   1       1.040  -0.510  -0.669  0.00  0.00     0.056 C 
BRANCH   7   8
ATOM      8  C1  UNL d   1       0.756  -2.003  -0.865  0.00  0.00     0.007 C 
ATOM      9  C   UNL d   1       0.467  -2.374  -2.314  0.00  0.00     0.009 C 
ENDBRANCH   7   8
ENDBRANCH   1   7
TORSDOF 2
ENDMDL
