MODEL 1
REMARK minimizedAffinity -5.25274754
REMARK minimizedRMSD -1
REMARK  2 active torsions:
REMARK  status: ('A' for Active; 'I' for Inactive)
REMARK    1  A    between atoms: C1_2  and  C2_3 
REMARK    2  A    between atoms: C2_3  and  C3_4 
ROOT
ATOM      1  C3  UNL d   1       0.289   0.172  -0.177  0.00  0.00    -0.075 A 
ATOM      2  C4  UNL d   1      -0.428   1.358  -0.391  0.00  0.00     0.002 A 
ATOM      3  C5  UNL d   1      -1.134   1.958   0.652  0.00  0.00     0.002 A 
ATOM      4  C6  UNL d   1      -1.142   1.375   1.917  0.00  0.00    -0.004 A 
ATOM      5  C7  UNL d   1      -0.448   0.188   2.137  0.00  0.00     0.002 A 
ATOM      6  C8  UNL d   1       0.264  -0.412   1.097  0.00  0.00     0.002 A 
ENDROOT
BRANCH   1   7
ATOM      7  C2  UNL d   1       1.079  -0.466  -1.294  0.00  0.00     0.056 C 
BRANCH   7   8
ATOM      8  C1  UNL d   1       0.749  -1.944  -1.527  0.00  0.00     0.007 C 
ATOM      9  C   UNL d   1       0.534  -2.287  -2.995  0.00  0.00     0.009 C 
ENDBRANCH   7   8
ENDBRANCH   1   7
TORSDOF 2
ENDMDL
