MODEL 1
REMARK minimizedAffinity -3.72770786
REMARK minimizedRMSD -1
REMARK  2 active torsions:
REMARK  status: ('A' for Active; 'I' for Inactive)
REMARK    1  A    between atoms: C1_2  and  C2_3 
REMARK    2  A    between atoms: C2_3  and  C3_4 
ROOT
ATOM      1  C3  UNL d   1      -0.952   0.885   1.035  0.00  0.00    -0.075 A 
ATOM      2  C4  UNL d   1      -0.431   1.140  -0.242  0.00  0.00     0.002 A 
ATOM      3  C5  UNL d   1       0.624   0.376  -0.742  0.00  0.00     0.002 A 
ATOM      4  C6  UNL d   1       1.177  -0.643   0.029  0.00  0.00    -0.004 A 
ATOM      5  C7  UNL d   1       0.678  -0.895   1.306  0.00  0.00     0.002 A 
ATOM      6  C8  UNL d   1      -0.380  -0.135   1.807  0.00  0.00     0.002 A 
ENDROOT
BRANCH   1   7
ATOM      7  C2  UNL d   1      -2.113   1.689   1.570  0.00  0.00     0.056 C 
BRANCH   7   8
ATOM      8  C1  UNL d   1      -1.716   3.057   2.134  0.00  0.00     0.007 C 
ATOM      9  C   UNL d   1      -0.421   3.024   2.934  0.00  0.00     0.009 C 
ENDBRANCH   7   8
ENDBRANCH   1   7
TORSDOF 2
ENDMDL
