MODEL 1
REMARK minimizedAffinity -4.16966248
REMARK minimizedRMSD -1
REMARK  2 active torsions:
REMARK  status: ('A' for Active; 'I' for Inactive)
REMARK    1  A    between atoms: C1_2  and  C2_3 
REMARK    2  A    between atoms: C2_3  and  C3_4 
ROOT
ATOM      1  C3  UNL d   1       0.526  -0.785  -0.030  0.00  0.00    -0.075 A 
ATOM      2  C4  UNL d   1      -0.193   0.349  -0.435  0.00  0.00     0.002 A 
ATOM      3  C5  UNL d   1      -1.084   0.972   0.439  0.00  0.00     0.002 A 
ATOM      4  C6  UNL d   1      -1.275   0.465   1.722  0.00  0.00    -0.004 A 
ATOM      5  C7  UNL d   1      -0.579  -0.670   2.130  0.00  0.00     0.002 A 
ATOM      6  C8  UNL d   1       0.317  -1.293   1.259  0.00  0.00     0.002 A 
ENDROOT
BRANCH   1   7
ATOM      7  C2  UNL d   1       1.514  -1.447  -0.961  0.00  0.00     0.056 C 
BRANCH   7   8
ATOM      8  C1  UNL d   1       0.957  -2.673  -1.691  0.00  0.00     0.007 C 
ATOM      9  C   UNL d   1       0.332  -2.337  -3.039  0.00  0.00     0.009 C 
ENDBRANCH   7   8
ENDBRANCH   1   7
TORSDOF 2
ENDMDL
