MODEL 1
REMARK minimizedAffinity -4.95906448
REMARK minimizedRMSD -1
REMARK  2 active torsions:
REMARK  status: ('A' for Active; 'I' for Inactive)
REMARK    1  A    between atoms: C1_2  and  C2_3 
REMARK    2  A    between atoms: C2_3  and  C3_4 
ROOT
ATOM      1  C3  UNL d   1       0.322  -0.037   0.345  0.00  0.00    -0.075 A 
ATOM      2  C4  UNL d   1       0.633  -0.250   1.696  0.00  0.00     0.002 A 
ATOM      3  C5  UNL d   1      -0.265   0.122   2.696  0.00  0.00     0.002 A 
ATOM      4  C6  UNL d   1      -1.478   0.720   2.360  0.00  0.00    -0.004 A 
ATOM      5  C7  UNL d   1      -1.790   0.952   1.022  0.00  0.00     0.002 A 
ATOM      6  C8  UNL d   1      -0.895   0.576   0.019  0.00  0.00     0.002 A 
ENDROOT
BRANCH   1   7
ATOM      7  C2  UNL d   1       1.277  -0.465  -0.744  0.00  0.00     0.056 C 
BRANCH   7   8
ATOM      8  C1  UNL d   1       1.323  -1.979  -0.974  0.00  0.00     0.007 C 
ATOM      9  C   UNL d   1       0.294  -2.464  -1.988  0.00  0.00     0.009 C 
ENDBRANCH   7   8
ENDBRANCH   1   7
TORSDOF 2
ENDMDL
