MODEL 1
REMARK minimizedAffinity -3.27945304
REMARK minimizedRMSD -1
REMARK  2 active torsions:
REMARK  status: ('A' for Active; 'I' for Inactive)
REMARK    1  A    between atoms: C1_2  and  C2_3 
REMARK    2  A    between atoms: C2_3  and  C3_4 
ROOT
ATOM      1  C3  UNL d   1      -0.127   0.207   0.474  0.00  0.00    -0.075 A 
ATOM      2  C4  UNL d   1      -0.388  -0.053   1.827  0.00  0.00     0.002 A 
ATOM      3  C5  UNL d   1      -1.478   0.539   2.465  0.00  0.00     0.002 A 
ATOM      4  C6  UNL d   1      -2.313   1.406   1.763  0.00  0.00    -0.004 A 
ATOM      5  C7  UNL d   1      -2.053   1.685   0.423  0.00  0.00     0.002 A 
ATOM      6  C8  UNL d   1      -0.966   1.090  -0.219  0.00  0.00     0.002 A 
ENDROOT
BRANCH   1   7
ATOM      7  C2  UNL d   1       1.034  -0.454  -0.230  0.00  0.00     0.056 C 
BRANCH   7   8
ATOM      8  C1  UNL d   1       0.646  -1.694  -1.043  0.00  0.00     0.007 C 
ATOM      9  C   UNL d   1       1.273  -2.977  -0.515  0.00  0.00     0.009 C 
ENDBRANCH   7   8
ENDBRANCH   1   7
TORSDOF 2
ENDMDL
