MODEL 1
REMARK minimizedAffinity -6.56562138
REMARK minimizedRMSD -1
REMARK  2 active torsions:
REMARK  status: ('A' for Active; 'I' for Inactive)
REMARK    1  A    between atoms: C1_2  and  C2_3 
REMARK    2  A    between atoms: C2_3  and  C3_4 
ROOT
ATOM      1  C3  UNL d   1      -0.157   0.098   0.143  0.00  0.00    -0.075 A 
ATOM      2  C4  UNL d   1      -0.603   1.300  -0.425  0.00  0.00     0.002 A 
ATOM      3  C5  UNL d   1      -1.350   2.205   0.330  0.00  0.00     0.002 A 
ATOM      4  C6  UNL d   1      -1.669   1.916   1.654  0.00  0.00    -0.004 A 
ATOM      5  C7  UNL d   1      -1.246   0.717   2.223  0.00  0.00     0.002 A 
ATOM      6  C8  UNL d   1      -0.494  -0.188   1.472  0.00  0.00     0.002 A 
ENDROOT
BRANCH   1   7
ATOM      7  C2  UNL d   1       0.677  -0.872  -0.659  0.00  0.00     0.056 C 
BRANCH   7   8
ATOM      8  C1  UNL d   1      -0.145  -1.882  -1.467  0.00  0.00     0.007 C 
ATOM      9  C   UNL d   1       0.635  -3.141  -1.825  0.00  0.00     0.009 C 
ENDBRANCH   7   8
ENDBRANCH   1   7
TORSDOF 2
ENDMDL
