MODEL 1
REMARK minimizedAffinity -5.39393711
REMARK minimizedRMSD -1
REMARK  2 active torsions:
REMARK  status: ('A' for Active; 'I' for Inactive)
REMARK    1  A    between atoms: C1_2  and  C2_3 
REMARK    2  A    between atoms: C2_3  and  C3_4 
ROOT
ATOM      1  C3  UNL d   1      -0.576  -0.091   0.812  0.00  0.00    -0.075 A 
ATOM      2  C4  UNL d   1      -1.104   0.851  -0.083  0.00  0.00     0.002 A 
ATOM      3  C5  UNL d   1      -1.861   1.926   0.384  0.00  0.00     0.002 A 
ATOM      4  C6  UNL d   1      -2.108   2.067   1.748  0.00  0.00    -0.004 A 
ATOM      5  C7  UNL d   1      -1.602   1.129   2.645  0.00  0.00     0.002 A 
ATOM      6  C8  UNL d   1      -0.841   0.054   2.181  0.00  0.00     0.002 A 
ENDROOT
BRANCH   1   7
ATOM      7  C2  UNL d   1       0.268  -1.240   0.316  0.00  0.00     0.056 C 
BRANCH   7   8
ATOM      8  C1  UNL d   1       0.796  -1.056  -1.111  0.00  0.00     0.007 C 
ATOM      9  C   UNL d   1       0.991  -2.371  -1.853  0.00  0.00     0.009 C 
ENDBRANCH   7   8
ENDBRANCH   1   7
TORSDOF 2
ENDMDL
