MODEL 1
REMARK minimizedAffinity -4.25593328
REMARK minimizedRMSD -1
REMARK  2 active torsions:
REMARK  status: ('A' for Active; 'I' for Inactive)
REMARK    1  A    between atoms: C1_2  and  C2_3 
REMARK    2  A    between atoms: C2_3  and  C3_4 
ROOT
ATOM      1  C3  UNL d   1      -0.056  -0.063  -0.010  0.00  0.00    -0.075 A 
ATOM      2  C4  UNL d   1      -0.872   1.039  -0.305  0.00  0.00     0.002 A 
ATOM      3  C5  UNL d   1      -1.646   1.634   0.691  0.00  0.00     0.002 A 
ATOM      4  C6  UNL d   1      -1.624   1.129   1.990  0.00  0.00    -0.004 A 
ATOM      5  C7  UNL d   1      -0.830   0.025   2.290  0.00  0.00     0.002 A 
ATOM      6  C8  UNL d   1      -0.051  -0.570   1.296  0.00  0.00     0.002 A 
ENDROOT
BRANCH   1   7
ATOM      7  C2  UNL d   1       0.807  -0.693  -1.077  0.00  0.00     0.056 C 
BRANCH   7   8
ATOM      8  C1  UNL d   1       0.592  -2.200  -1.244  0.00  0.00     0.007 C 
ATOM      9  C   UNL d   1       0.174  -2.595  -2.655  0.00  0.00     0.009 C 
ENDBRANCH   7   8
ENDBRANCH   1   7
TORSDOF 2
ENDMDL
