MODEL 1
REMARK minimizedAffinity 10.7378654
REMARK minimizedRMSD -1
REMARK  0 active torsions:
REMARK  status: ('A' for Active; 'I' for Inactive)
ROOT
ATOM      1  C4' PXY d   1       5.992  -5.709  -1.174  0.00  0.00     0.077 C 
ATOM      2  C1' PXY d   1       2.559  -3.190   2.736  0.00  0.00     0.077 C 
ATOM      3  C1  PXY d   1       3.469  -3.844   1.715  0.00  0.00    -0.082 A 
ATOM      4  C2  PXY d   1       2.952  -4.355   0.610  0.00  0.00     0.003 A 
ATOM      5  C3  PXY d   1       3.757  -4.978  -0.309  0.00  0.00     0.003 A 
ATOM      6  C4  PXY d   1       5.112  -5.031  -0.120  0.00  0.00    -0.082 A 
ATOM      7  C5  PXY d   1       5.648  -4.503   1.000  0.00  0.00     0.003 A 
ATOM      8  C6  PXY d   1       4.809  -3.911   1.940  0.00  0.00     0.003 A 
ENDROOT
TORSDOF 0
ENDMDL
