MODEL 1
REMARK minimizedAffinity 6.25558567
REMARK minimizedRMSD -1
REMARK  0 active torsions:
REMARK  status: ('A' for Active; 'I' for Inactive)
ROOT
ATOM      1  C4' PXY d   1       2.644  -2.909   2.219  0.00  0.00     0.077 C 
ATOM      2  C1' PXY d   1      -2.281  -0.177   3.523  0.00  0.00     0.077 C 
ATOM      3  C1  PXY d   1      -0.996  -0.903   3.176  0.00  0.00    -0.082 A 
ATOM      4  C2  PXY d   1       0.105  -0.650   3.864  0.00  0.00     0.003 A 
ATOM      5  C3  PXY d   1       1.283  -1.274   3.543  0.00  0.00     0.003 A 
ATOM      6  C4  PXY d   1       1.322  -2.206   2.540  0.00  0.00    -0.082 A 
ATOM      7  C5  PXY d   1       0.200  -2.477   1.840  0.00  0.00     0.003 A 
ATOM      8  C6  PXY d   1      -0.976  -1.803   2.155  0.00  0.00     0.003 A 
ENDROOT
TORSDOF 0
ENDMDL
