MODEL 1
REMARK minimizedAffinity 5.31452417
REMARK minimizedRMSD -1
REMARK  0 active torsions:
REMARK  status: ('A' for Active; 'I' for Inactive)
ROOT
ATOM      1  C4' PXY d   1      -4.485   1.269  -0.151  0.00  0.00     0.077 C 
ATOM      2  C1' PXY d   1      -4.085  -2.276  -4.699  0.00  0.00     0.077 C 
ATOM      3  C1  PXY d   1      -4.187  -1.356  -3.498  0.00  0.00    -0.082 A 
ATOM      4  C2  PXY d   1      -4.926  -0.261  -3.574  0.00  0.00     0.003 A 
ATOM      5  C3  PXY d   1      -5.004   0.598  -2.508  0.00  0.00     0.003 A 
ATOM      6  C4  PXY d   1      -4.360   0.307  -1.335  0.00  0.00    -0.082 A 
ATOM      7  C5  PXY d   1      -3.613  -0.814  -1.246  0.00  0.00     0.003 A 
ATOM      8  C6  PXY d   1      -3.514  -1.652  -2.353  0.00  0.00     0.003 A 
ENDROOT
TORSDOF 0
ENDMDL
