MODEL 1
REMARK minimizedAffinity 8.37511826
REMARK minimizedRMSD -1
REMARK  0 active torsions:
REMARK  status: ('A' for Active; 'I' for Inactive)
ROOT
ATOM      1  C4' PXY d   1       5.362  -6.000   6.000  0.00  0.00     0.077 C 
ATOM      2  C1' PXY d   1       2.100  -2.728   2.526  0.00  0.00     0.077 C 
ATOM      3  C1  PXY d   1       2.962  -3.575   3.440  0.00  0.00    -0.082 A 
ATOM      4  C2  PXY d   1       3.087  -4.871   3.206  0.00  0.00     0.003 A 
ATOM      5  C3  PXY d   1       3.837  -5.658   4.041  0.00  0.00     0.003 A 
ATOM      6  C4  PXY d   1       4.509  -5.104   5.097  0.00  0.00    -0.082 A 
ATOM      7  C5  PXY d   1       4.395  -3.780   5.337  0.00  0.00     0.003 A 
ATOM      8  C6  PXY d   1       3.596  -3.006   4.501  0.00  0.00     0.003 A 
ENDROOT
TORSDOF 0
ENDMDL
