MODEL 1
REMARK minimizedAffinity -1.03982639
REMARK minimizedRMSD -1
REMARK  0 active torsions:
REMARK  status: ('A' for Active; 'I' for Inactive)
ROOT
ATOM      1  C4' PXY d   1       4.448  -5.996   5.959  0.00  0.00     0.077 C 
ATOM      2  C1' PXY d   1       2.169  -3.526   1.256  0.00  0.00     0.077 C 
ATOM      3  C1  PXY d   1       2.769  -4.162   2.494  0.00  0.00    -0.082 A 
ATOM      4  C2  PXY d   1       3.236  -5.398   2.433  0.00  0.00     0.003 A 
ATOM      5  C3  PXY d   1       3.753  -6.000   3.552  0.00  0.00     0.003 A 
ATOM      6  C4  PXY d   1       3.842  -5.310   4.731  0.00  0.00    -0.082 A 
ATOM      7  C5  PXY d   1       3.377  -4.045   4.798  0.00  0.00     0.003 A 
ATOM      8  C6  PXY d   1       2.818  -3.466   3.663  0.00  0.00     0.003 A 
ENDROOT
TORSDOF 0
ENDMDL
