MODEL 1
REMARK minimizedAffinity 13.6728878
REMARK minimizedRMSD -1
REMARK  0 active torsions:
REMARK  status: ('A' for Active; 'I' for Inactive)
ROOT
ATOM      1  C4' PXY d   1      -1.289  -1.137  -0.725  0.00  0.00     0.077 C 
ATOM      2  C1' PXY d   1      -5.992  -0.839  -4.072  0.00  0.00     0.077 C 
ATOM      3  C1  PXY d   1      -4.760  -0.904  -3.192  0.00  0.00    -0.082 A 
ATOM      4  C2  PXY d   1      -3.862  -1.856  -3.392  0.00  0.00     0.003 A 
ATOM      5  C3  PXY d   1      -2.758  -1.949  -2.585  0.00  0.00     0.003 A 
ATOM      6  C4  PXY d   1      -2.543  -1.027  -1.596  0.00  0.00    -0.082 A 
ATOM      7  C5  PXY d   1      -3.449  -0.047  -1.392  0.00  0.00     0.003 A 
ATOM      8  C6  PXY d   1      -4.584   0.006  -2.195  0.00  0.00     0.003 A 
ENDROOT
TORSDOF 0
ENDMDL
