MODEL 1
REMARK minimizedAffinity 13.9193325
REMARK minimizedRMSD -1
REMARK  0 active torsions:
REMARK  status: ('A' for Active; 'I' for Inactive)
ROOT
ATOM      1  C4' PXY d   1      -4.444   0.898  -0.715  0.00  0.00     0.077 C 
ATOM      2  C1' PXY d   1      -4.716  -3.552  -4.394  0.00  0.00     0.077 C 
ATOM      3  C1  PXY d   1      -4.642  -2.394  -3.420  0.00  0.00    -0.082 A 
ATOM      4  C2  PXY d   1      -5.275  -1.265  -3.696  0.00  0.00     0.003 A 
ATOM      5  C3  PXY d   1      -5.192  -0.196  -2.841  0.00  0.00     0.003 A 
ATOM      6  C4  PXY d   1      -4.498  -0.302  -1.665  0.00  0.00    -0.082 A 
ATOM      7  C5  PXY d   1      -3.859  -1.453  -1.371  0.00  0.00     0.003 A 
ATOM      8  C6  PXY d   1      -3.921  -2.513  -2.272  0.00  0.00     0.003 A 
ENDROOT
TORSDOF 0
ENDMDL
