MODEL 1
REMARK minimizedAffinity 11.1029911
REMARK minimizedRMSD -1
REMARK  0 active torsions:
REMARK  status: ('A' for Active; 'I' for Inactive)
ROOT
ATOM      1  C4' PXY d   1       1.084  -2.072   2.025  0.00  0.00     0.077 C 
ATOM      2  C1' PXY d   1       1.130   1.637  -2.409  0.00  0.00     0.077 C 
ATOM      3  C1  PXY d   1       1.130   0.668  -1.243  0.00  0.00    -0.082 A 
ATOM      4  C2  PXY d   1       0.317  -0.376  -1.260  0.00  0.00     0.003 A 
ATOM      5  C3  PXY d   1       0.282  -1.245  -0.200  0.00  0.00     0.003 A 
ATOM      6  C4  PXY d   1       1.124  -1.073   0.865  0.00  0.00    -0.082 A 
ATOM      7  C5  PXY d   1       1.964  -0.016   0.886  0.00  0.00     0.003 A 
ATOM      8  C6  PXY d   1       1.955   0.877  -0.182  0.00  0.00     0.003 A 
ENDROOT
TORSDOF 0
ENDMDL
