MODEL 1
REMARK minimizedAffinity -4.13067245
REMARK minimizedRMSD -1
REMARK  0 active torsions:
REMARK  status: ('A' for Active; 'I' for Inactive)
ROOT
ATOM      1  C4' PXY d   1       4.833  -1.636   2.254  0.00  0.00     0.077 C 
ATOM      2  C1' PXY d   1       4.040  -5.967   5.999  0.00  0.00     0.077 C 
ATOM      3  C1  PXY d   1       4.240  -4.824   5.024  0.00  0.00    -0.082 A 
ATOM      4  C2  PXY d   1       4.610  -5.082   3.780  0.00  0.00     0.003 A 
ATOM      5  C3  PXY d   1       4.826  -4.058   2.894  0.00  0.00     0.003 A 
ATOM      6  C4  PXY d   1       4.610  -2.759   3.270  0.00  0.00    -0.082 A 
ATOM      7  C5  PXY d   1       4.222  -2.488   4.534  0.00  0.00     0.003 A 
ATOM      8  C6  PXY d   1       4.048  -3.539   5.430  0.00  0.00     0.003 A 
ENDROOT
TORSDOF 0
ENDMDL
