MODEL 1
REMARK minimizedAffinity 9.48043823
REMARK minimizedRMSD -1
REMARK  0 active torsions:
REMARK  status: ('A' for Active; 'I' for Inactive)
ROOT
ATOM      1  C4' PXY d   1       1.421  -2.817   1.794  0.00  0.00     0.077 C 
ATOM      2  C1' PXY d   1      -2.938   0.431   3.761  0.00  0.00     0.077 C 
ATOM      3  C1  PXY d   1      -1.787  -0.411   3.244  0.00  0.00    -0.082 A 
ATOM      4  C2  PXY d   1      -2.036  -1.578   2.673  0.00  0.00     0.003 A 
ATOM      5  C3  PXY d   1      -1.005  -2.366   2.229  0.00  0.00     0.003 A 
ATOM      6  C4  PXY d   1       0.290  -1.931   2.322  0.00  0.00    -0.082 A 
ATOM      7  C5  PXY d   1       0.550  -0.736   2.894  0.00  0.00     0.003 A 
ATOM      8  C6  PXY d   1      -0.507   0.030   3.376  0.00  0.00     0.003 A 
ENDROOT
TORSDOF 0
ENDMDL
