MODEL 1
REMARK minimizedAffinity 9.87959003
REMARK minimizedRMSD -1
REMARK  0 active torsions:
REMARK  status: ('A' for Active; 'I' for Inactive)
ROOT
ATOM      1  C4' PXY d   1      -3.149   1.621  -5.996  0.00  0.00     0.077 C 
ATOM      2  C1' PXY d   1      -5.033  -3.152  -3.333  0.00  0.00     0.077 C 
ATOM      3  C1  PXY d   1      -4.531  -1.907  -4.038  0.00  0.00    -0.082 A 
ATOM      4  C2  PXY d   1      -4.680  -0.725  -3.464  0.00  0.00     0.003 A 
ATOM      5  C3  PXY d   1      -4.260   0.414  -4.102  0.00  0.00     0.003 A 
ATOM      6  C4  PXY d   1      -3.633   0.337  -5.316  0.00  0.00    -0.082 A 
ATOM      7  C5  PXY d   1      -3.467  -0.867  -5.904  0.00  0.00     0.003 A 
ATOM      8  C6  PXY d   1      -3.937  -2.007  -5.258  0.00  0.00     0.003 A 
ENDROOT
TORSDOF 0
ENDMDL
