MODEL 1
REMARK minimizedAffinity -1.9944855
REMARK minimizedRMSD -1
REMARK  0 active torsions:
REMARK  status: ('A' for Active; 'I' for Inactive)
ROOT
ATOM      1  C4' PXY d   1       5.475  -6.000   6.000  0.00  0.00     0.077 C 
ATOM      2  C1' PXY d   1       2.135  -3.388   2.071  0.00  0.00     0.077 C 
ATOM      3  C1  PXY d   1       3.011  -4.062   3.108  0.00  0.00    -0.082 A 
ATOM      4  C2  PXY d   1       3.726  -5.123   2.771  0.00  0.00     0.003 A 
ATOM      5  C3  PXY d   1       4.499  -5.764   3.704  0.00  0.00     0.003 A 
ATOM      6  C4  PXY d   1       4.583  -5.282   4.983  0.00  0.00    -0.082 A 
ATOM      7  C5  PXY d   1       3.865  -4.194   5.332  0.00  0.00     0.003 A 
ATOM      8  C6  PXY d   1       3.054  -3.582   4.381  0.00  0.00     0.003 A 
ENDROOT
TORSDOF 0
ENDMDL
