MODEL 1
REMARK minimizedAffinity -3.85011435
REMARK minimizedRMSD -1
REMARK  0 active torsions:
REMARK  status: ('A' for Active; 'I' for Inactive)
ROOT
ATOM      1  C   UNL d   1      -1.616   0.717   1.853  0.00  0.00     0.077 C 
ATOM      2  C1  UNL d   1      -0.710  -0.019   0.912  0.00  0.00    -0.074 A 
ATOM      3  C2  UNL d   1      -0.807  -1.405   0.757  0.00  0.00    -0.005 A 
ATOM      4  C3  UNL d   1       0.036  -2.075  -0.130  0.00  0.00     0.006 A 
ATOM      5  C4  UNL d   1       0.984  -1.366  -0.869  0.00  0.00    -0.005 A 
ATOM      6  C5  UNL d   1       1.095   0.021  -0.728  0.00  0.00    -0.074 A 
ATOM      7  C6  UNL d   1       2.101   0.799  -1.523  0.00  0.00     0.077 C 
ATOM      8  C7  UNL d   1       0.239   0.687   0.159  0.00  0.00    -0.001 A 
ENDROOT
TORSDOF 0
ENDMDL
