MODEL 1
REMARK minimizedAffinity -6.06158686
REMARK minimizedRMSD -1
REMARK  0 active torsions:
REMARK  status: ('A' for Active; 'I' for Inactive)
ROOT
ATOM      1  C   UNL d   1      -1.333  -0.917   1.067  0.00  0.00     0.077 C 
ATOM      2  C1  UNL d   1      -0.230  -0.642   0.089  0.00  0.00    -0.074 A 
ATOM      3  C2  UNL d   1       0.074   0.666  -0.302  0.00  0.00    -0.005 A 
ATOM      4  C3  UNL d   1       1.109   0.907  -1.206  0.00  0.00     0.006 A 
ATOM      5  C4  UNL d   1       1.849  -0.155  -1.727  0.00  0.00    -0.005 A 
ATOM      6  C5  UNL d   1       1.560  -1.470  -1.347  0.00  0.00    -0.074 A 
ATOM      7  C6  UNL d   1       2.351  -2.622  -1.890  0.00  0.00     0.077 C 
ATOM      8  C7  UNL d   1       0.523  -1.703  -0.433  0.00  0.00    -0.001 A 
ENDROOT
TORSDOF 0
ENDMDL
