MODEL 1
REMARK minimizedAffinity -1.72510922
REMARK minimizedRMSD -1
REMARK  0 active torsions:
REMARK  status: ('A' for Active; 'I' for Inactive)
ROOT
ATOM      1  C   UNL d   1      -4.639   5.236  -6.000  0.00  0.00     0.077 C 
ATOM      2  C1  UNL d   1      -3.621   4.169  -5.726  0.00  0.00    -0.074 A 
ATOM      3  C2  UNL d   1      -2.279   4.496  -5.504  0.00  0.00    -0.005 A 
ATOM      4  C3  UNL d   1      -1.345   3.494  -5.241  0.00  0.00     0.006 A 
ATOM      5  C4  UNL d   1      -1.743   2.157  -5.198  0.00  0.00    -0.005 A 
ATOM      6  C5  UNL d   1      -3.080   1.811  -5.417  0.00  0.00    -0.074 A 
ATOM      7  C6  UNL d   1      -3.526   0.380  -5.364  0.00  0.00     0.077 C 
ATOM      8  C7  UNL d   1      -4.014   2.824  -5.673  0.00  0.00    -0.001 A 
ENDROOT
TORSDOF 0
ENDMDL
