MODEL 1
REMARK minimizedAffinity 6.33097744
REMARK minimizedRMSD -1
REMARK  0 active torsions:
REMARK  status: ('A' for Active; 'I' for Inactive)
ROOT
ATOM      1  C   UNL d   1       2.904  -0.204  -1.066  0.00  0.00     0.077 C 
ATOM      2  C1  UNL d   1       2.032   0.898  -1.590  0.00  0.00    -0.074 A 
ATOM      3  C2  UNL d   1       1.142   0.671  -2.645  0.00  0.00    -0.005 A 
ATOM      4  C3  UNL d   1       0.331   1.703  -3.115  0.00  0.00     0.006 A 
ATOM      5  C4  UNL d   1       0.401   2.971  -2.537  0.00  0.00    -0.005 A 
ATOM      6  C5  UNL d   1       1.285   3.217  -1.481  0.00  0.00    -0.074 A 
ATOM      7  C6  UNL d   1       1.366   4.572  -0.843  0.00  0.00     0.077 C 
ATOM      8  C7  UNL d   1       2.092   2.173  -1.009  0.00  0.00    -0.001 A 
ENDROOT
TORSDOF 0
ENDMDL
