MODEL 1
REMARK minimizedAffinity 2.84024858
REMARK minimizedRMSD -1
REMARK  0 active torsions:
REMARK  status: ('A' for Active; 'I' for Inactive)
ROOT
ATOM      1  C   UNL d   1       0.930  -0.671   0.467  0.00  0.00     0.077 C 
ATOM      2  C1  UNL d   1       1.359   0.307  -0.586  0.00  0.00    -0.074 A 
ATOM      3  C2  UNL d   1       2.212  -0.083  -1.624  0.00  0.00    -0.005 A 
ATOM      4  C3  UNL d   1       2.595   0.836  -2.602  0.00  0.00     0.006 A 
ATOM      5  C4  UNL d   1       2.129   2.150  -2.552  0.00  0.00    -0.005 A 
ATOM      6  C5  UNL d   1       1.275   2.557  -1.522  0.00  0.00    -0.074 A 
ATOM      7  C6  UNL d   1       0.757   3.964  -1.460  0.00  0.00     0.077 C 
ATOM      8  C7  UNL d   1       0.889   1.627  -0.547  0.00  0.00    -0.001 A 
ENDROOT
TORSDOF 0
ENDMDL
