MODEL 1
REMARK minimizedAffinity 9.15291977
REMARK minimizedRMSD -1
REMARK  0 active torsions:
REMARK  status: ('A' for Active; 'I' for Inactive)
ROOT
ATOM      1  C   UNL d   1       2.011  -3.071  -1.529  0.00  0.00     0.077 C 
ATOM      2  C1  UNL d   1       0.633  -2.836  -0.984  0.00  0.00    -0.074 A 
ATOM      3  C2  UNL d   1       0.320  -3.157   0.341  0.00  0.00    -0.005 A 
ATOM      4  C3  UNL d   1      -0.963  -2.924   0.837  0.00  0.00     0.006 A 
ATOM      5  C4  UNL d   1      -1.944  -2.370   0.014  0.00  0.00    -0.005 A 
ATOM      6  C5  UNL d   1      -1.649  -2.042  -1.313  0.00  0.00    -0.074 A 
ATOM      7  C6  UNL d   1      -2.689  -1.436  -2.208  0.00  0.00     0.077 C 
ATOM      8  C7  UNL d   1      -0.356  -2.272  -1.802  0.00  0.00    -0.001 A 
ENDROOT
TORSDOF 0
ENDMDL
