MODEL 1
REMARK minimizedAffinity -0.861934602
REMARK minimizedRMSD -1
REMARK  0 active torsions:
REMARK  status: ('A' for Active; 'I' for Inactive)
ROOT
ATOM      1  C   UNL d   1      -1.108   3.293  -5.971  0.00  0.00     0.077 C 
ATOM      2  C1  UNL d   1      -2.495   2.722  -5.974  0.00  0.00    -0.074 A 
ATOM      3  C2  UNL d   1      -3.616   3.557  -5.986  0.00  0.00    -0.005 A 
ATOM      4  C3  UNL d   1      -4.900   3.011  -5.998  0.00  0.00     0.006 A 
ATOM      5  C4  UNL d   1      -5.074   1.626  -5.999  0.00  0.00    -0.005 A 
ATOM      6  C5  UNL d   1      -3.964   0.775  -5.989  0.00  0.00    -0.074 A 
ATOM      7  C6  UNL d   1      -4.134  -0.715  -6.000  0.00  0.00     0.077 C 
ATOM      8  C7  UNL d   1      -2.678   1.332  -5.983  0.00  0.00    -0.001 A 
ENDROOT
TORSDOF 0
ENDMDL
