MODEL 1
REMARK minimizedAffinity 0.467699528
REMARK minimizedRMSD -1
REMARK  0 active torsions:
REMARK  status: ('A' for Active; 'I' for Inactive)
ROOT
ATOM      1  C   UNL d   1      -0.119  -2.516   0.422  0.00  0.00     0.077 C 
ATOM      2  C1  UNL d   1       0.548  -1.220   0.068  0.00  0.00    -0.074 A 
ATOM      3  C2  UNL d   1       0.078  -0.006   0.580  0.00  0.00    -0.005 A 
ATOM      4  C3  UNL d   1       0.714   1.190   0.249  0.00  0.00     0.006 A 
ATOM      5  C4  UNL d   1       1.825   1.185  -0.595  0.00  0.00    -0.005 A 
ATOM      6  C5  UNL d   1       2.310  -0.019  -1.115  0.00  0.00    -0.074 A 
ATOM      7  C6  UNL d   1       3.510  -0.044  -2.016  0.00  0.00     0.077 C 
ATOM      8  C7  UNL d   1       1.670  -1.218  -0.773  0.00  0.00    -0.001 A 
ENDROOT
TORSDOF 0
ENDMDL
