MODEL 1
REMARK minimizedAffinity -1.99274898
REMARK minimizedRMSD -1
REMARK  0 active torsions:
REMARK  status: ('A' for Active; 'I' for Inactive)
ROOT
ATOM      1  C   UNL d   1       0.456  -2.373  -0.012  0.00  0.00     0.077 C 
ATOM      2  C1  UNL d   1      -0.001  -0.965   0.230  0.00  0.00    -0.074 A 
ATOM      3  C2  UNL d   1       0.805   0.122  -0.121  0.00  0.00    -0.005 A 
ATOM      4  C3  UNL d   1       0.363   1.426   0.102  0.00  0.00     0.006 A 
ATOM      5  C4  UNL d   1      -0.887   1.656   0.678  0.00  0.00    -0.005 A 
ATOM      6  C5  UNL d   1      -1.707   0.581   1.035  0.00  0.00    -0.074 A 
ATOM      7  C6  UNL d   1      -3.058   0.810   1.645  0.00  0.00     0.077 C 
ATOM      8  C7  UNL d   1      -1.259  -0.726   0.801  0.00  0.00    -0.001 A 
ENDROOT
TORSDOF 0
ENDMDL
