MODEL 1
REMARK minimizedAffinity -4.0794158
REMARK minimizedRMSD -1
REMARK  0 active torsions:
REMARK  status: ('A' for Active; 'I' for Inactive)
ROOT
ATOM      1  C   UNL d   1      -4.062   1.077   2.279  0.00  0.00     0.077 C 
ATOM      2  C1  UNL d   1      -2.936   0.275   1.698  0.00  0.00    -0.074 A 
ATOM      3  C2  UNL d   1      -3.171  -0.973   1.110  0.00  0.00    -0.005 A 
ATOM      4  C3  UNL d   1      -2.115  -1.703   0.566  0.00  0.00     0.006 A 
ATOM      5  C4  UNL d   1      -0.816  -1.195   0.603  0.00  0.00    -0.005 A 
ATOM      6  C5  UNL d   1      -0.562   0.051   1.185  0.00  0.00    -0.074 A 
ATOM      7  C6  UNL d   1       0.826   0.616   1.224  0.00  0.00     0.077 C 
ATOM      8  C7  UNL d   1      -1.630   0.782   1.724  0.00  0.00    -0.001 A 
ENDROOT
TORSDOF 0
ENDMDL
