MODEL 1
REMARK minimizedAffinity 6.04805326
REMARK minimizedRMSD -1
REMARK  0 active torsions:
REMARK  status: ('A' for Active; 'I' for Inactive)
ROOT
ATOM      1  C   UNL d   1       0.597   0.156   2.465  0.00  0.00     0.023 A 
ATOM      2  C1  UNL d   1       0.892   0.704   3.713  0.00  0.00     0.003 A 
ATOM      3  C2  UNL d   1       1.415  -0.104   4.725  0.00  0.00     0.048 A 
ATOM      4  C3  UNL d   1       1.641  -1.458   4.481  0.00  0.00     0.023 A 
ATOM      5  C4  UNL d   1       1.348  -2.010   3.233  0.00  0.00     0.048 A 
ATOM      6  C5  UNL d   1       0.824  -1.199   2.225  0.00  0.00     0.003 A 
ATOM      7  I   UNL d   1       2.420  -2.663   5.986  0.00  0.00    -0.146 I 
ENDROOT
TORSDOF 0
ENDMDL
