MODEL 1
REMARK minimizedAffinity 6.50470829
REMARK minimizedRMSD -1
REMARK  0 active torsions:
REMARK  status: ('A' for Active; 'I' for Inactive)
ROOT
ATOM      1  C   UNL d   1      -1.797  -5.478  -5.925  0.00  0.00     0.023 A 
ATOM      2  C1  UNL d   1      -0.434  -5.190  -5.999  0.00  0.00     0.003 A 
ATOM      3  C2  UNL d   1       0.047  -3.963  -5.537  0.00  0.00     0.048 A 
ATOM      4  C3  UNL d   1      -0.839  -3.030  -5.002  0.00  0.00     0.023 A 
ATOM      5  C4  UNL d   1      -2.204  -3.314  -4.925  0.00  0.00     0.048 A 
ATOM      6  C5  UNL d   1      -2.681  -4.541  -5.388  0.00  0.00     0.003 A 
ATOM      7  I   UNL d   1      -0.125  -1.203  -4.314  0.00  0.00    -0.146 I 
ENDROOT
TORSDOF 0
ENDMDL
