MODEL 1
REMARK minimizedAffinity 6.96239471
REMARK minimizedRMSD -1
REMARK  0 active torsions:
REMARK  status: ('A' for Active; 'I' for Inactive)
ROOT
ATOM      1  C   UNL d   1      -1.378  -1.668  -2.798  0.00  0.00     0.023 A 
ATOM      2  C1  UNL d   1      -1.037  -1.005  -3.976  0.00  0.00     0.003 A 
ATOM      3  C2  UNL d   1       0.293  -0.655  -4.222  0.00  0.00     0.048 A 
ATOM      4  C3  UNL d   1       1.276  -0.973  -3.286  0.00  0.00     0.023 A 
ATOM      5  C4  UNL d   1       0.939  -1.637  -2.106  0.00  0.00     0.048 A 
ATOM      6  C5  UNL d   1      -0.391  -1.984  -1.864  0.00  0.00     0.003 A 
ATOM      7  I   UNL d   1       3.255  -0.453  -3.650  0.00  0.00    -0.146 I 
ENDROOT
TORSDOF 0
ENDMDL
