MODEL 1
REMARK minimizedAffinity 10.800456
REMARK minimizedRMSD -1
REMARK  0 active torsions:
REMARK  status: ('A' for Active; 'I' for Inactive)
ROOT
ATOM      1  C   UNL d   1      -2.274  -5.994  -4.446  0.00  0.00     0.023 A 
ATOM      2  C1  UNL d   1      -2.058  -5.227  -5.591  0.00  0.00     0.003 A 
ATOM      3  C2  UNL d   1      -1.611  -3.910  -5.477  0.00  0.00     0.048 A 
ATOM      4  C3  UNL d   1      -1.380  -3.365  -4.214  0.00  0.00     0.023 A 
ATOM      5  C4  UNL d   1      -1.594  -4.128  -3.065  0.00  0.00     0.048 A 
ATOM      6  C5  UNL d   1      -2.042  -5.445  -3.184  0.00  0.00     0.003 A 
ATOM      7  I   UNL d   1      -0.714  -1.404  -4.041  0.00  0.00    -0.146 I 
ENDROOT
TORSDOF 0
ENDMDL
