MODEL 1
REMARK minimizedAffinity 0.846566439
REMARK minimizedRMSD -1
REMARK  0 active torsions:
REMARK  status: ('A' for Active; 'I' for Inactive)
ROOT
ATOM      1  C   UNL d   1       1.466  -0.923   3.352  0.00  0.00     0.023 A 
ATOM      2  C1  UNL d   1       1.139  -2.255   3.609  0.00  0.00     0.003 A 
ATOM      3  C2  UNL d   1       2.003  -3.055   4.359  0.00  0.00     0.048 A 
ATOM      4  C3  UNL d   1       3.192  -2.518   4.850  0.00  0.00     0.023 A 
ATOM      5  C4  UNL d   1       3.523  -1.185   4.596  0.00  0.00     0.048 A 
ATOM      6  C5  UNL d   1       2.657  -0.389   3.845  0.00  0.00     0.003 A 
ATOM      7  I   UNL d   1       4.480  -3.707   5.967  0.00  0.00    -0.146 I 
ENDROOT
TORSDOF 0
ENDMDL
