MODEL 1
REMARK minimizedAffinity 11.1922035
REMARK minimizedRMSD -1
REMARK  0 active torsions:
REMARK  status: ('A' for Active; 'I' for Inactive)
ROOT
ATOM      1  C   UNL d   1       0.072  -0.813  -3.054  0.00  0.00     0.023 A 
ATOM      2  C1  UNL d   1      -0.651  -1.852  -2.467  0.00  0.00     0.003 A 
ATOM      3  C2  UNL d   1      -1.274  -2.811  -3.268  0.00  0.00     0.048 A 
ATOM      4  C3  UNL d   1      -1.169  -2.727  -4.656  0.00  0.00     0.023 A 
ATOM      5  C4  UNL d   1      -0.445  -1.690  -5.248  0.00  0.00     0.048 A 
ATOM      6  C5  UNL d   1       0.174  -0.733  -4.443  0.00  0.00     0.003 A 
ATOM      7  I   UNL d   1      -2.094  -4.154  -5.850  0.00  0.00    -0.146 I 
ENDROOT
TORSDOF 0
ENDMDL
