MODEL 1
REMARK minimizedAffinity 18.1125393
REMARK minimizedRMSD -1
REMARK  0 active torsions:
REMARK  status: ('A' for Active; 'I' for Inactive)
ROOT
ATOM      1  C   UNL d   1      -0.796  -0.889   1.608  0.00  0.00     0.023 A 
ATOM      2  C1  UNL d   1       0.236  -1.817   1.753  0.00  0.00     0.003 A 
ATOM      3  C2  UNL d   1       1.382  -1.481   2.476  0.00  0.00     0.048 A 
ATOM      4  C3  UNL d   1       1.489  -0.216   3.054  0.00  0.00     0.023 A 
ATOM      5  C4  UNL d   1       0.459   0.715   2.912  0.00  0.00     0.048 A 
ATOM      6  C5  UNL d   1      -0.685   0.375   2.187  0.00  0.00     0.003 A 
ATOM      7  I   UNL d   1       3.193   0.286   4.132  0.00  0.00    -0.146 I 
ENDROOT
TORSDOF 0
ENDMDL
