MODEL 1
REMARK minimizedAffinity 15.3348999
REMARK minimizedRMSD -1
REMARK  0 active torsions:
REMARK  status: ('A' for Active; 'I' for Inactive)
ROOT
ATOM      1  C   UNL d   1       5.116  -2.516   5.248  0.00  0.00     0.124 A 
ATOM      2  C1  UNL d   1       4.201  -1.823   4.468  0.00  0.00     0.062 A 
ATOM      3  C2  UNL d   1       3.282  -2.516   3.685  0.00  0.00     0.162 A 
ATOM      4  C3  UNL d   1       3.273  -3.911   3.679  0.00  0.00    -0.034 A 
ATOM      5  C4  UNL d   1       4.198  -4.601   4.466  0.00  0.00     0.162 A 
ATOM      6  C5  UNL d   1       5.114  -3.904   5.247  0.00  0.00     0.062 A 
ATOM      7  F   UNL d   1       5.997  -4.575   6.000  0.00  0.00    -0.097 F 
ATOM      8  F1  UNL d   1       4.217  -5.942   4.484  0.00  0.00    -0.096 F 
ATOM      9  I   UNL d   1       1.901  -4.951   2.510  0.00  0.00    -0.060 I 
ATOM     10  F2  UNL d   1       2.409  -1.821   2.941  0.00  0.00    -0.096 F 
ATOM     11  F3  UNL d   1       4.202  -0.482   4.467  0.00  0.00    -0.097 F 
ATOM     12  F4  UNL d   1       6.000  -1.846   6.000  0.00  0.00    -0.092 F 
ENDROOT
TORSDOF 0
ENDMDL
