MODEL 1
REMARK minimizedAffinity 14.7539091
REMARK minimizedRMSD -1
REMARK  0 active torsions:
REMARK  status: ('A' for Active; 'I' for Inactive)
ROOT
ATOM      1  C   UNL d   1       4.939  -0.420   2.471  0.00  0.00     0.124 A 
ATOM      2  C1  UNL d   1       5.276  -0.286   3.810  0.00  0.00     0.062 A 
ATOM      3  C2  UNL d   1       4.982  -1.306   4.711  0.00  0.00     0.162 A 
ATOM      4  C3  UNL d   1       4.348  -2.469   4.275  0.00  0.00    -0.034 A 
ATOM      5  C4  UNL d   1       4.011  -2.596   2.926  0.00  0.00     0.162 A 
ATOM      6  C5  UNL d   1       4.307  -1.574   2.030  0.00  0.00     0.062 A 
ATOM      7  F   UNL d   1       3.980  -1.705   0.736  0.00  0.00    -0.097 F 
ATOM      8  F1  UNL d   1       3.400  -3.701   2.473  0.00  0.00    -0.096 F 
ATOM      9  I   UNL d   1       3.906  -3.996   5.619  0.00  0.00    -0.060 I 
ATOM     10  F2  UNL d   1       5.319  -1.150   6.000  0.00  0.00    -0.096 F 
ATOM     11  F3  UNL d   1       5.886   0.828   4.239  0.00  0.00    -0.097 F 
ATOM     12  F4  UNL d   1       5.222   0.563   1.606  0.00  0.00    -0.092 F 
ENDROOT
TORSDOF 0
ENDMDL
