MODEL 1
REMARK minimizedAffinity 2.79221892
REMARK minimizedRMSD -1
REMARK  0 active torsions:
REMARK  status: ('A' for Active; 'I' for Inactive)
ROOT
ATOM      1  C   UNL d   1       5.780   2.382   2.379  0.00  0.00     0.124 A 
ATOM      2  C1  UNL d   1       5.809   3.737   2.079  0.00  0.00     0.062 A 
ATOM      3  C2  UNL d   1       5.871   4.678   3.102  0.00  0.00     0.162 A 
ATOM      4  C3  UNL d   1       5.905   4.269   4.435  0.00  0.00    -0.034 A 
ATOM      5  C4  UNL d   1       5.875   2.904   4.728  0.00  0.00     0.162 A 
ATOM      6  C5  UNL d   1       5.813   1.967   3.702  0.00  0.00     0.062 A 
ATOM      7  F   UNL d   1       5.785   0.658   3.994  0.00  0.00    -0.097 F 
ATOM      8  F1  UNL d   1       5.907   2.476   5.999  0.00  0.00    -0.096 F 
ATOM      9  I   UNL d   1       5.998   5.674   5.967  0.00  0.00    -0.060 I 
ATOM     10  F2  UNL d   1       5.898   5.981   2.783  0.00  0.00    -0.096 F 
ATOM     11  F3  UNL d   1       5.776   4.140   0.801  0.00  0.00    -0.097 F 
ATOM     12  F4  UNL d   1       5.719   1.477   1.392  0.00  0.00    -0.092 F 
ENDROOT
TORSDOF 0
ENDMDL
