MODEL 1
REMARK minimizedAffinity 10.5222673
REMARK minimizedRMSD -1
REMARK  0 active torsions:
REMARK  status: ('A' for Active; 'I' for Inactive)
ROOT
ATOM      1  C   UNL d   1       4.540   0.432   2.418  0.00  0.00     0.124 A 
ATOM      2  C1  UNL d   1       4.806   1.758   2.106  0.00  0.00     0.062 A 
ATOM      3  C2  UNL d   1       5.201   2.647   3.102  0.00  0.00     0.162 A 
ATOM      4  C3  UNL d   1       5.332   2.212   4.421  0.00  0.00    -0.034 A 
ATOM      5  C4  UNL d   1       5.061   0.877   4.728  0.00  0.00     0.162 A 
ATOM      6  C5  UNL d   1       4.667  -0.007   3.729  0.00  0.00     0.062 A 
ATOM      7  F   UNL d   1       4.410  -1.287   4.032  0.00  0.00    -0.097 F 
ATOM      8  F1  UNL d   1       5.178   0.426   5.986  0.00  0.00    -0.096 F 
ATOM      9  I   UNL d   1       5.921   3.537   5.914  0.00  0.00    -0.060 I 
ATOM     10  F2  UNL d   1       5.452   3.922   2.771  0.00  0.00    -0.096 F 
ATOM     11  F3  UNL d   1       4.683   2.185   0.841  0.00  0.00    -0.097 F 
ATOM     12  F4  UNL d   1       4.160  -0.420   1.458  0.00  0.00    -0.092 F 
ENDROOT
TORSDOF 0
ENDMDL
