MODEL 1
REMARK minimizedAffinity 9.75610828
REMARK minimizedRMSD -1
REMARK  0 active torsions:
REMARK  status: ('A' for Active; 'I' for Inactive)
ROOT
ATOM      1  C   UNL d   1       0.807   0.143  -1.999  0.00  0.00     0.124 A 
ATOM      2  C1  UNL d   1      -0.318   0.154  -1.187  0.00  0.00     0.062 A 
ATOM      3  C2  UNL d   1      -0.684  -0.990  -0.482  0.00  0.00     0.162 A 
ATOM      4  C3  UNL d   1       0.077  -2.154  -0.586  0.00  0.00    -0.034 A 
ATOM      5  C4  UNL d   1       1.207  -2.157  -1.406  0.00  0.00     0.162 A 
ATOM      6  C5  UNL d   1       1.568  -1.012  -2.108  0.00  0.00     0.062 A 
ATOM      7  F   UNL d   1       2.655  -1.025  -2.893  0.00  0.00    -0.097 F 
ATOM      8  F1  UNL d   1       1.961  -3.260  -1.529  0.00  0.00    -0.096 F 
ATOM      9  I   UNL d   1      -0.466  -3.865   0.466  0.00  0.00    -0.060 I 
ATOM     10  F2  UNL d   1      -1.776  -0.950   0.296  0.00  0.00    -0.096 F 
ATOM     11  F3  UNL d   1      -1.056   1.268  -1.080  0.00  0.00    -0.097 F 
ATOM     12  F4  UNL d   1       1.155   1.244  -2.677  0.00  0.00    -0.092 F 
ENDROOT
TORSDOF 0
ENDMDL
