MODEL 1
REMARK minimizedAffinity 9.18887901
REMARK minimizedRMSD -1
REMARK  0 active torsions:
REMARK  status: ('A' for Active; 'I' for Inactive)
ROOT
ATOM      1  C   UNL d   1       5.073  -0.340   3.379  0.00  0.00     0.124 A 
ATOM      2  C1  UNL d   1       5.406   0.172   4.626  0.00  0.00     0.062 A 
ATOM      3  C2  UNL d   1       5.666   1.531   4.777  0.00  0.00     0.162 A 
ATOM      4  C3  UNL d   1       5.593   2.388   3.679  0.00  0.00    -0.034 A 
ATOM      5  C4  UNL d   1       5.259   1.865   2.428  0.00  0.00     0.162 A 
ATOM      6  C5  UNL d   1       5.000   0.506   2.282  0.00  0.00     0.062 A 
ATOM      7  F   UNL d   1       4.679   0.013   1.077  0.00  0.00    -0.097 F 
ATOM      8  F1  UNL d   1       5.180   2.661   1.351  0.00  0.00    -0.096 F 
ATOM      9  I   UNL d   1       5.981   4.421   3.901  0.00  0.00    -0.060 I 
ATOM     10  F2  UNL d   1       5.985   1.999   5.993  0.00  0.00    -0.096 F 
ATOM     11  F3  UNL d   1       5.478  -0.644   5.687  0.00  0.00    -0.097 F 
ATOM     12  F4  UNL d   1       4.825  -1.648   3.236  0.00  0.00    -0.092 F 
ENDROOT
TORSDOF 0
ENDMDL
