MODEL 1
REMARK minimizedAffinity 9.02346897
REMARK minimizedRMSD -1
REMARK  0 active torsions:
REMARK  status: ('A' for Active; 'I' for Inactive)
ROOT
ATOM      1  C   UNL d   1       1.273   3.111  -0.369  0.00  0.00     0.124 A 
ATOM      2  C1  UNL d   1       1.032   1.929  -1.055  0.00  0.00     0.062 A 
ATOM      3  C2  UNL d   1       0.376   0.876  -0.425  0.00  0.00     0.162 A 
ATOM      4  C3  UNL d   1      -0.043   0.999   0.900  0.00  0.00    -0.034 A 
ATOM      5  C4  UNL d   1       0.205   2.191   1.584  0.00  0.00     0.162 A 
ATOM      6  C5  UNL d   1       0.860   3.241   0.949  0.00  0.00     0.062 A 
ATOM      7  F   UNL d   1       1.093   4.382   1.614  0.00  0.00    -0.097 F 
ATOM      8  F1  UNL d   1      -0.185   2.343   2.858  0.00  0.00    -0.096 F 
ATOM      9  I   UNL d   1      -1.023  -0.574   1.846  0.00  0.00    -0.060 I 
ATOM     10  F2  UNL d   1       0.156  -0.255  -1.112  0.00  0.00    -0.096 F 
ATOM     11  F3  UNL d   1       1.431   1.802  -2.329  0.00  0.00    -0.097 F 
ATOM     12  F4  UNL d   1       1.905   4.124  -0.978  0.00  0.00    -0.092 F 
ENDROOT
TORSDOF 0
ENDMDL
