MODEL 1
REMARK minimizedAffinity 15.0335312
REMARK minimizedRMSD -1
REMARK  0 active torsions:
REMARK  status: ('A' for Active; 'I' for Inactive)
ROOT
ATOM      1  C   UNL d   1       5.037  -1.086   3.583  0.00  0.00     0.124 A 
ATOM      2  C1  UNL d   1       4.774  -0.322   2.454  0.00  0.00     0.062 A 
ATOM      3  C2  UNL d   1       4.895   1.064   2.504  0.00  0.00     0.162 A 
ATOM      4  C3  UNL d   1       5.281   1.695   3.686  0.00  0.00    -0.034 A 
ATOM      5  C4  UNL d   1       5.543   0.920   4.817  0.00  0.00     0.162 A 
ATOM      6  C5  UNL d   1       5.421  -0.465   4.763  0.00  0.00     0.062 A 
ATOM      7  F   UNL d   1       5.675  -1.201   5.854  0.00  0.00    -0.097 F 
ATOM      8  F1  UNL d   1       5.916   1.494   5.970  0.00  0.00    -0.096 F 
ATOM      9  I   UNL d   1       5.462   3.767   3.764  0.00  0.00    -0.060 I 
ATOM     10  F2  UNL d   1       4.634   1.777   1.398  0.00  0.00    -0.096 F 
ATOM     11  F3  UNL d   1       4.402  -0.920   1.313  0.00  0.00    -0.097 F 
ATOM     12  F4  UNL d   1       4.919  -2.419   3.533  0.00  0.00    -0.092 F 
ENDROOT
TORSDOF 0
ENDMDL
