MODEL 1
REMARK minimizedAffinity 4.91843319
REMARK minimizedRMSD -1
REMARK  0 active torsions:
REMARK  status: ('A' for Active; 'I' for Inactive)
ROOT
ATOM      1  C   UNL d   1       4.823  -0.337   3.509  0.00  0.00     0.124 A 
ATOM      2  C1  UNL d   1       4.668   0.481   2.398  0.00  0.00     0.062 A 
ATOM      3  C2  UNL d   1       4.946   1.842   2.487  0.00  0.00     0.162 A 
ATOM      4  C3  UNL d   1       5.383   2.394   3.691  0.00  0.00    -0.034 A 
ATOM      5  C4  UNL d   1       5.535   1.565   4.804  0.00  0.00     0.162 A 
ATOM      6  C5  UNL d   1       5.256   0.206   4.710  0.00  0.00     0.062 A 
ATOM      7  F   UNL d   1       5.406  -0.583   5.784  0.00  0.00    -0.097 F 
ATOM      8  F1  UNL d   1       5.954   2.063   5.977  0.00  0.00    -0.096 F 
ATOM      9  I   UNL d   1       5.800   4.429   3.828  0.00  0.00    -0.060 I 
ATOM     10  F2  UNL d   1       4.788   2.609   1.398  0.00  0.00    -0.096 F 
ATOM     11  F3  UNL d   1       4.249  -0.040   1.236  0.00  0.00    -0.097 F 
ATOM     12  F4  UNL d   1       4.553  -1.646   3.421  0.00  0.00    -0.092 F 
ENDROOT
TORSDOF 0
ENDMDL
