MODEL 1
REMARK minimizedAffinity 15.9908104
REMARK minimizedRMSD -1
REMARK  0 active torsions:
REMARK  status: ('A' for Active; 'I' for Inactive)
ROOT
ATOM      1  C   UNL d   1       1.246  -2.719  -0.031  0.00  0.00     0.124 A 
ATOM      2  C1  UNL d   1       2.279  -1.796  -0.132  0.00  0.00     0.062 A 
ATOM      3  C2  UNL d   1       2.002  -0.432  -0.125  0.00  0.00     0.162 A 
ATOM      4  C3  UNL d   1       0.686   0.018  -0.015  0.00  0.00    -0.034 A 
ATOM      5  C4  UNL d   1      -0.347  -0.915   0.085  0.00  0.00     0.162 A 
ATOM      6  C5  UNL d   1      -0.065  -2.278   0.077  0.00  0.00     0.062 A 
ATOM      7  F   UNL d   1      -1.064  -3.167   0.175  0.00  0.00    -0.097 F 
ATOM      8  F1  UNL d   1      -1.623  -0.517   0.192  0.00  0.00    -0.096 F 
ATOM      9  I   UNL d   1       0.268   2.057  -0.004  0.00  0.00    -0.060 I 
ATOM     10  F2  UNL d   1       3.019   0.437  -0.223  0.00  0.00    -0.096 F 
ATOM     11  F3  UNL d   1       3.546  -2.220  -0.238  0.00  0.00    -0.097 F 
ATOM     12  F4  UNL d   1       1.515  -4.030  -0.039  0.00  0.00    -0.092 F 
ENDROOT
TORSDOF 0
ENDMDL
