MODEL 1
REMARK minimizedAffinity 17.3260937
REMARK minimizedRMSD -1
REMARK  0 active torsions:
REMARK  status: ('A' for Active; 'I' for Inactive)
ROOT
ATOM      1  C   UNL d   1      -0.264  -1.787   0.741  0.00  0.00     0.124 A 
ATOM      2  C1  UNL d   1       0.494  -1.254  -0.292  0.00  0.00     0.062 A 
ATOM      3  C2  UNL d   1       0.813   0.100  -0.301  0.00  0.00     0.162 A 
ATOM      4  C3  UNL d   1       0.375   0.933   0.729  0.00  0.00    -0.034 A 
ATOM      5  C4  UNL d   1      -0.388   0.391   1.765  0.00  0.00     0.162 A 
ATOM      6  C5  UNL d   1      -0.704  -0.964   1.769  0.00  0.00     0.062 A 
ATOM      7  F   UNL d   1      -1.437  -1.476   2.768  0.00  0.00    -0.097 F 
ATOM      8  F1  UNL d   1      -0.825   1.163   2.771  0.00  0.00    -0.096 F 
ATOM      9  I   UNL d   1       0.850   2.959   0.720  0.00  0.00    -0.060 I 
ATOM     10  F2  UNL d   1       1.547   0.587  -1.312  0.00  0.00    -0.096 F 
ATOM     11  F3  UNL d   1       0.920  -2.047  -1.286  0.00  0.00    -0.097 F 
ATOM     12  F4  UNL d   1      -0.570  -3.090   0.746  0.00  0.00    -0.092 F 
ENDROOT
TORSDOF 0
ENDMDL
