MODEL 1
REMARK minimizedAffinity 4.5401268
REMARK minimizedRMSD -1
REMARK  0 active torsions:
REMARK  status: ('A' for Active; 'I' for Inactive)
ROOT
ATOM      1  C   UNL d   1       4.603   2.394   2.657  0.00  0.00     0.124 A 
ATOM      2  C1  UNL d   1       4.487   1.037   2.393  0.00  0.00     0.062 A 
ATOM      3  C2  UNL d   1       4.882   0.102   3.345  0.00  0.00     0.162 A 
ATOM      4  C3  UNL d   1       5.396   0.522   4.573  0.00  0.00    -0.034 A 
ATOM      5  C4  UNL d   1       5.510   1.889   4.831  0.00  0.00     0.162 A 
ATOM      6  C5  UNL d   1       5.114   2.819   3.875  0.00  0.00     0.062 A 
ATOM      7  F   UNL d   1       5.227   4.130   4.132  0.00  0.00    -0.097 F 
ATOM      8  F1  UNL d   1       6.000   2.327   6.000  0.00  0.00    -0.096 F 
ATOM      9  I   UNL d   1       5.987  -0.873   6.000  0.00  0.00    -0.060 I 
ATOM     10  F2  UNL d   1       4.759  -1.203   3.063  0.00  0.00    -0.096 F 
ATOM     11  F3  UNL d   1       3.995   0.624   1.216  0.00  0.00    -0.097 F 
ATOM     12  F4  UNL d   1       4.224   3.292   1.738  0.00  0.00    -0.092 F 
ENDROOT
TORSDOF 0
ENDMDL
