MODEL 1
REMARK minimizedAffinity 9.65269661
REMARK minimizedRMSD -1
REMARK  0 active torsions:
REMARK  status: ('A' for Active; 'I' for Inactive)
ROOT
ATOM      1  C   UNL d   1       5.595   1.667   4.861  0.00  0.00     0.124 A 
ATOM      2  C1  UNL d   1       5.500   2.416   3.696  0.00  0.00     0.062 A 
ATOM      3  C2  UNL d   1       5.082   1.818   2.511  0.00  0.00     0.162 A 
ATOM      4  C3  UNL d   1       4.753   0.463   2.485  0.00  0.00    -0.034 A 
ATOM      5  C4  UNL d   1       4.852  -0.284   3.660  0.00  0.00     0.162 A 
ATOM      6  C5  UNL d   1       5.271   0.318   4.841  0.00  0.00     0.062 A 
ATOM      7  F   UNL d   1       5.361  -0.408   5.966  0.00  0.00    -0.097 F 
ATOM      8  F1  UNL d   1       4.544  -1.590   3.669  0.00  0.00    -0.096 F 
ATOM      9  I   UNL d   1       4.127  -0.435   0.715  0.00  0.00    -0.060 I 
ATOM     10  F2  UNL d   1       5.000   2.567   1.401  0.00  0.00    -0.096 F 
ATOM     11  F3  UNL d   1       5.814   3.720   3.712  0.00  0.00    -0.097 F 
ATOM     12  F4  UNL d   1       5.999   2.245   5.999  0.00  0.00    -0.092 F 
ENDROOT
TORSDOF 0
ENDMDL
