MODEL 1
REMARK minimizedAffinity 5.05902386
REMARK minimizedRMSD -1
REMARK  0 active torsions:
REMARK  status: ('A' for Active; 'I' for Inactive)
ROOT
ATOM      1  C   UNL d   1       4.645   1.464   2.516  0.00  0.00     0.124 A 
ATOM      2  C1  UNL d   1       4.704   0.105   2.243  0.00  0.00     0.062 A 
ATOM      3  C2  UNL d   1       5.088  -0.792   3.236  0.00  0.00     0.162 A 
ATOM      4  C3  UNL d   1       5.417  -0.332   4.511  0.00  0.00    -0.034 A 
ATOM      5  C4  UNL d   1       5.357   1.037   4.777  0.00  0.00     0.162 A 
ATOM      6  C5  UNL d   1       4.972   1.929   3.782  0.00  0.00     0.062 A 
ATOM      7  F   UNL d   1       4.916   3.242   4.047  0.00  0.00    -0.097 F 
ATOM      8  F1  UNL d   1       5.666   1.513   5.992  0.00  0.00    -0.096 F 
ATOM      9  I   UNL d   1       5.993  -1.670   5.998  0.00  0.00    -0.060 I 
ATOM     10  F2  UNL d   1       5.136  -2.101   2.944  0.00  0.00    -0.096 F 
ATOM     11  F3  UNL d   1       4.390  -0.347   1.020  0.00  0.00    -0.097 F 
ATOM     12  F4  UNL d   1       4.276   2.325   1.559  0.00  0.00    -0.092 F 
ENDROOT
TORSDOF 0
ENDMDL
