MODEL 1
REMARK minimizedAffinity 11.6348019
REMARK minimizedRMSD -1
REMARK  0 active torsions:
REMARK  status: ('A' for Active; 'I' for Inactive)
ROOT
ATOM      1  C   UNL d   1       5.421  -0.209   2.377  0.00  0.00     0.124 A 
ATOM      2  C1  UNL d   1       5.618  -1.553   2.090  0.00  0.00     0.062 A 
ATOM      3  C2  UNL d   1       5.772  -2.474   3.123  0.00  0.00     0.162 A 
ATOM      4  C3  UNL d   1       5.728  -2.054   4.452  0.00  0.00    -0.034 A 
ATOM      5  C4  UNL d   1       5.531  -0.701   4.733  0.00  0.00     0.162 A 
ATOM      6  C5  UNL d   1       5.378   0.216   3.697  0.00  0.00     0.062 A 
ATOM      7  F   UNL d   1       5.188   1.513   3.976  0.00  0.00    -0.097 F 
ATOM      8  F1  UNL d   1       5.484  -0.263   6.000  0.00  0.00    -0.096 F 
ATOM      9  I   UNL d   1       5.958  -3.428   5.999  0.00  0.00    -0.060 I 
ATOM     10  F2  UNL d   1       5.960  -3.766   2.816  0.00  0.00    -0.096 F 
ATOM     11  F3  UNL d   1       5.661  -1.966   0.815  0.00  0.00    -0.097 F 
ATOM     12  F4  UNL d   1       5.275   0.675   1.382  0.00  0.00    -0.092 F 
ENDROOT
TORSDOF 0
ENDMDL
