MODEL 1
REMARK minimizedAffinity 14.3920803
REMARK minimizedRMSD -1
REMARK  0 active torsions:
REMARK  status: ('A' for Active; 'I' for Inactive)
ROOT
ATOM      1  C   UNL d   1       4.937  -0.327   2.531  0.00  0.00     0.124 A 
ATOM      2  C1  UNL d   1       5.320  -0.754   3.795  0.00  0.00     0.062 A 
ATOM      3  C2  UNL d   1       5.624   0.175   4.786  0.00  0.00     0.162 A 
ATOM      4  C3  UNL d   1       5.546   1.541   4.517  0.00  0.00    -0.034 A 
ATOM      5  C4  UNL d   1       5.160   1.964   3.244  0.00  0.00     0.162 A 
ATOM      6  C5  UNL d   1       4.857   1.031   2.257  0.00  0.00     0.062 A 
ATOM      7  F   UNL d   1       4.487   1.446   1.037  0.00  0.00    -0.097 F 
ATOM      8  F1  UNL d   1       5.074   3.270   2.952  0.00  0.00    -0.096 F 
ATOM      9  I   UNL d   1       5.999   2.934   5.996  0.00  0.00    -0.060 I 
ATOM     10  F2  UNL d   1       5.992  -0.267   5.998  0.00  0.00    -0.096 F 
ATOM     11  F3  UNL d   1       5.399  -2.066   4.062  0.00  0.00    -0.097 F 
ATOM     12  F4  UNL d   1       4.646  -1.223   1.580  0.00  0.00    -0.092 F 
ENDROOT
TORSDOF 0
ENDMDL
