MODEL 1
REMARK minimizedAffinity -2.52783203
REMARK minimizedRMSD -1
REMARK  1 active torsions:
REMARK  status: ('A' for Active; 'I' for Inactive)
REMARK    1  A    between atoms: C1_2  and  C2_3 
ROOT
ATOM      1  C2  UNL d   1       0.314  -2.429  -1.096  0.00  0.00    -0.073 A 
ATOM      2  C3  UNL d   1      -0.915  -2.732  -1.693  0.00  0.00    -0.002 A 
ATOM      3  C4  UNL d   1      -1.361  -4.053  -1.754  0.00  0.00     0.004 A 
ATOM      4  C5  UNL d   1      -0.588  -5.081  -1.215  0.00  0.00    -0.004 A 
ATOM      5  C6  UNL d   1       0.637  -4.796  -0.604  0.00  0.00    -0.075 A 
ATOM      6  C7  UNL d   1       1.482  -5.891  -0.022  0.00  0.00     0.076 C 
ATOM      7  C8  UNL d   1       1.080  -3.468  -0.549  0.00  0.00     0.001 A 
ENDROOT
BRANCH   1   8
ATOM      8  C1  UNL d   1       0.798  -1.003  -1.022  0.00  0.00     0.053 C 
ATOM      9  C   UNL d   1      -0.098  -0.143  -0.145  0.00  0.00     0.018 C 
ENDBRANCH   1   8
TORSDOF 1
ENDMDL
