MODEL 1
REMARK minimizedAffinity -1.28639257
REMARK minimizedRMSD -1
REMARK  1 active torsions:
REMARK  status: ('A' for Active; 'I' for Inactive)
REMARK    1  A    between atoms: C1_2  and  C2_3 
ROOT
ATOM      1  C2  UNL d   1      -0.896  -1.423  -0.043  0.00  0.00    -0.073 A 
ATOM      2  C3  UNL d   1       0.498  -1.356  -0.153  0.00  0.00    -0.002 A 
ATOM      3  C4  UNL d   1       1.169  -0.161   0.107  0.00  0.00     0.004 A 
ATOM      4  C5  UNL d   1       0.456   0.976   0.486  0.00  0.00    -0.004 A 
ATOM      5  C6  UNL d   1      -0.936   0.926   0.613  0.00  0.00    -0.075 A 
ATOM      6  C7  UNL d   1      -1.718   2.141   1.018  0.00  0.00     0.076 C 
ATOM      7  C8  UNL d   1      -1.603  -0.277   0.347  0.00  0.00     0.001 A 
ENDROOT
BRANCH   1   8
ATOM      8  C1  UNL d   1      -1.624  -2.714  -0.317  0.00  0.00     0.053 C 
ATOM      9  C   UNL d   1      -0.817  -3.646  -1.207  0.00  0.00     0.018 C 
ENDBRANCH   1   8
TORSDOF 1
ENDMDL
