MODEL 1
REMARK minimizedAffinity -4.94049025
REMARK minimizedRMSD -1
REMARK  1 active torsions:
REMARK  status: ('A' for Active; 'I' for Inactive)
REMARK    1  A    between atoms: C1_2  and  C2_3 
ROOT
ATOM      1  C2  UNL d   1       2.940  -1.902  -0.398  0.00  0.00    -0.073 A 
ATOM      2  C3  UNL d   1       2.573  -3.117  -0.987  0.00  0.00    -0.002 A 
ATOM      3  C4  UNL d   1       1.259  -3.330  -1.405  0.00  0.00     0.004 A 
ATOM      4  C5  UNL d   1       0.301  -2.329  -1.245  0.00  0.00    -0.004 A 
ATOM      5  C6  UNL d   1       0.651  -1.103  -0.669  0.00  0.00    -0.075 A 
ATOM      6  C7  UNL d   1      -0.368  -0.017  -0.487  0.00  0.00     0.076 C 
ATOM      7  C8  UNL d   1       1.972  -0.898  -0.250  0.00  0.00     0.001 A 
ENDROOT
BRANCH   1   8
ATOM      8  C1  UNL d   1       4.360  -1.666   0.048  0.00  0.00     0.053 C 
ATOM      9  C   UNL d   1       4.481  -1.620   1.563  0.00  0.00     0.018 C 
ENDBRANCH   1   8
TORSDOF 1
ENDMDL
