MODEL 1
REMARK minimizedAffinity -3.21635628
REMARK minimizedRMSD -1
REMARK  0 active torsions:
REMARK  status: ('A' for Active; 'I' for Inactive)
ROOT
ATOM      1  C   UNL d   1      -3.051   1.165   2.132  0.00  0.00     0.124 A 
ATOM      2  C1  UNL d   1      -1.665   1.130   2.091  0.00  0.00     0.062 A 
ATOM      3  C2  UNL d   1      -1.011   0.251   1.233  0.00  0.00     0.162 A 
ATOM      4  C3  UNL d   1      -1.744  -0.601   0.407  0.00  0.00    -0.034 A 
ATOM      5  C4  UNL d   1      -3.139  -0.561   0.453  0.00  0.00     0.162 A 
ATOM      6  C5  UNL d   1      -3.787   0.320   1.313  0.00  0.00     0.062 A 
ATOM      7  F   UNL d   1      -5.127   0.352   1.351  0.00  0.00    -0.097 F 
ATOM      8  F1  UNL d   1      -3.874  -1.366  -0.328  0.00  0.00    -0.096 F 
ATOM      9  I   UNL d   1      -0.771  -1.918  -0.878  0.00  0.00    -0.060 I 
ATOM     10  F2  UNL d   1       0.330   0.238   1.215  0.00  0.00    -0.096 F 
ATOM     11  F3  UNL d   1      -0.951   1.945   2.882  0.00  0.00    -0.097 F 
ATOM     12  F4  UNL d   1      -3.678   2.012   2.959  0.00  0.00    -0.092 F 
ENDROOT
TORSDOF 0
ENDMDL
