MODEL 1
REMARK minimizedAffinity 7.54521847
REMARK minimizedRMSD -1
REMARK  0 active torsions:
REMARK  status: ('A' for Active; 'I' for Inactive)
ROOT
ATOM      1  C   UNL d   1      -0.468  -0.299  -4.950  0.00  0.00     0.124 A 
ATOM      2  C1  UNL d   1       0.611   0.206  -4.237  0.00  0.00     0.062 A 
ATOM      3  C2  UNL d   1       1.117  -0.493  -3.146  0.00  0.00     0.162 A 
ATOM      4  C3  UNL d   1       0.546  -1.705  -2.759  0.00  0.00    -0.034 A 
ATOM      5  C4  UNL d   1      -0.539  -2.207  -3.480  0.00  0.00     0.162 A 
ATOM      6  C5  UNL d   1      -1.042  -1.505  -4.571  0.00  0.00     0.062 A 
ATOM      7  F   UNL d   1      -2.084  -1.995  -5.258  0.00  0.00    -0.097 F 
ATOM      8  F1  UNL d   1      -1.111  -3.370  -3.136  0.00  0.00    -0.096 F 
ATOM      9  I   UNL d   1       1.301  -2.753  -1.127  0.00  0.00    -0.060 I 
ATOM     10  F2  UNL d   1       2.160   0.020  -2.475  0.00  0.00    -0.096 F 
ATOM     11  F3  UNL d   1       1.166   1.371  -4.601  0.00  0.00    -0.097 F 
ATOM     12  F4  UNL d   1      -0.954   0.375  -6.000  0.00  0.00    -0.092 F 
ENDROOT
TORSDOF 0
ENDMDL
