MODEL 1
REMARK minimizedAffinity -2.5321722
REMARK minimizedRMSD -1
REMARK  0 active torsions:
REMARK  status: ('A' for Active; 'I' for Inactive)
ROOT
ATOM      1  C   UNL d   1      -2.549   0.541   2.344  0.00  0.00     0.124 A 
ATOM      2  C1  UNL d   1      -1.215   0.188   2.495  0.00  0.00     0.062 A 
ATOM      3  C2  UNL d   1      -0.566  -0.540   1.502  0.00  0.00     0.162 A 
ATOM      4  C3  UNL d   1      -1.251  -0.920   0.348  0.00  0.00    -0.034 A 
ATOM      5  C4  UNL d   1      -2.593  -0.562   0.203  0.00  0.00     0.162 A 
ATOM      6  C5  UNL d   1      -3.236   0.166   1.199  0.00  0.00     0.062 A 
ATOM      7  F   UNL d   1      -4.525   0.505   1.051  0.00  0.00    -0.097 F 
ATOM      8  F1  UNL d   1      -3.281  -0.911  -0.894  0.00  0.00    -0.096 F 
ATOM      9  I   UNL d   1      -0.285  -2.009  -1.140  0.00  0.00    -0.060 I 
ATOM     10  F2  UNL d   1       0.723  -0.867   1.675  0.00  0.00    -0.096 F 
ATOM     11  F3  UNL d   1      -0.548   0.549   3.601  0.00  0.00    -0.097 F 
ATOM     12  F4  UNL d   1      -3.170   1.241   3.302  0.00  0.00    -0.092 F 
ENDROOT
TORSDOF 0
ENDMDL
