MODEL 1
REMARK minimizedAffinity -1.92903769
REMARK minimizedRMSD -1
REMARK  0 active torsions:
REMARK  status: ('A' for Active; 'I' for Inactive)
ROOT
ATOM      1  C   UNL d   1       0.157  -0.987   1.049  0.00  0.00     0.124 A 
ATOM      2  C1  UNL d   1      -0.996  -1.507   0.476  0.00  0.00     0.062 A 
ATOM      3  C2  UNL d   1      -2.229  -0.909   0.717  0.00  0.00     0.162 A 
ATOM      4  C3  UNL d   1      -2.317   0.217   1.535  0.00  0.00    -0.034 A 
ATOM      5  C4  UNL d   1      -1.154   0.733   2.109  0.00  0.00     0.162 A 
ATOM      6  C5  UNL d   1       0.076   0.132   1.865  0.00  0.00     0.062 A 
ATOM      7  F   UNL d   1       1.188   0.636   2.420  0.00  0.00    -0.097 F 
ATOM      8  F1  UNL d   1      -1.202   1.815   2.901  0.00  0.00    -0.096 F 
ATOM      9  I   UNL d   1      -4.159   1.114   1.899  0.00  0.00    -0.060 I 
ATOM     10  F2  UNL d   1      -3.326  -1.433   0.150  0.00  0.00    -0.096 F 
ATOM     11  F3  UNL d   1      -0.921  -2.590  -0.313  0.00  0.00    -0.097 F 
ATOM     12  F4  UNL d   1       1.342  -1.565   0.816  0.00  0.00    -0.092 F 
ENDROOT
TORSDOF 0
ENDMDL
