MODEL 1
REMARK minimizedAffinity -4.13175535
REMARK minimizedRMSD -1
REMARK  0 active torsions:
REMARK  status: ('A' for Active; 'I' for Inactive)
ROOT
ATOM      1  C   UNL d   1      -2.228   0.552   2.233  0.00  0.00     0.124 A 
ATOM      2  C1  UNL d   1      -0.919   0.217   2.548  0.00  0.00     0.062 A 
ATOM      3  C2  UNL d   1      -0.114  -0.422   1.609  0.00  0.00     0.162 A 
ATOM      4  C3  UNL d   1      -0.616  -0.728   0.344  0.00  0.00    -0.034 A 
ATOM      5  C4  UNL d   1      -1.935  -0.388   0.034  0.00  0.00     0.162 A 
ATOM      6  C5  UNL d   1      -2.735   0.250   0.977  0.00  0.00     0.062 A 
ATOM      7  F   UNL d   1      -4.000   0.573   0.670  0.00  0.00    -0.097 F 
ATOM      8  F1  UNL d   1      -2.449  -0.668  -1.172  0.00  0.00    -0.096 F 
ATOM      9  I   UNL d   1       0.584  -1.683  -1.063  0.00  0.00    -0.060 I 
ATOM     10  F2  UNL d   1       1.147  -0.734   1.941  0.00  0.00    -0.096 F 
ATOM     11  F3  UNL d   1      -0.428   0.507   3.761  0.00  0.00    -0.097 F 
ATOM     12  F4  UNL d   1      -3.001   1.166   3.139  0.00  0.00    -0.092 F 
ENDROOT
TORSDOF 0
ENDMDL
