MODEL 1
REMARK minimizedAffinity 5.78023386
REMARK minimizedRMSD -1
REMARK  0 active torsions:
REMARK  status: ('A' for Active; 'I' for Inactive)
ROOT
ATOM      1  C   UNL d   1      -0.818   0.056   1.898  0.00  0.00     0.124 A 
ATOM      2  C1  UNL d   1      -0.778  -0.567   0.659  0.00  0.00     0.062 A 
ATOM      3  C2  UNL d   1      -1.851  -1.343   0.230  0.00  0.00     0.162 A 
ATOM      4  C3  UNL d   1      -2.975  -1.499   1.042  0.00  0.00    -0.034 A 
ATOM      5  C4  UNL d   1      -3.007  -0.869   2.288  0.00  0.00     0.162 A 
ATOM      6  C5  UNL d   1      -1.932  -0.095   2.711  0.00  0.00     0.062 A 
ATOM      7  F   UNL d   1      -1.972   0.507   3.909  0.00  0.00    -0.097 F 
ATOM      8  F1  UNL d   1      -4.072  -0.998   3.094  0.00  0.00    -0.096 F 
ATOM      9  I   UNL d   1      -4.582  -2.658   0.406  0.00  0.00    -0.060 I 
ATOM     10  F2  UNL d   1      -1.786  -1.934  -0.972  0.00  0.00    -0.096 F 
ATOM     11  F3  UNL d   1       0.298  -0.423  -0.129  0.00  0.00    -0.097 F 
ATOM     12  F4  UNL d   1       0.217   0.801   2.308  0.00  0.00    -0.092 F 
ENDROOT
TORSDOF 0
ENDMDL
