MODEL 1
REMARK minimizedAffinity -2.9399879
REMARK minimizedRMSD -1
REMARK  0 active torsions:
REMARK  status: ('A' for Active; 'I' for Inactive)
ROOT
ATOM      1  C   UNL d   1       1.471  -1.830   0.543  0.00  0.00     0.124 A 
ATOM      2  C1  UNL d   1       0.719  -1.625  -0.606  0.00  0.00     0.062 A 
ATOM      3  C2  UNL d   1      -0.548  -1.057  -0.520  0.00  0.00     0.162 A 
ATOM      4  C3  UNL d   1      -1.073  -0.689   0.719  0.00  0.00    -0.034 A 
ATOM      5  C4  UNL d   1      -0.311  -0.900   1.870  0.00  0.00     0.162 A 
ATOM      6  C5  UNL d   1       0.955  -1.468   1.779  0.00  0.00     0.062 A 
ATOM      7  F   UNL d   1       1.680  -1.665   2.890  0.00  0.00    -0.097 F 
ATOM      8  F1  UNL d   1      -0.785  -0.558   3.077  0.00  0.00    -0.096 F 
ATOM      9  I   UNL d   1      -2.968   0.160   0.851  0.00  0.00    -0.060 I 
ATOM     10  F2  UNL d   1      -1.253  -0.870  -1.646  0.00  0.00    -0.096 F 
ATOM     11  F3  UNL d   1       1.215  -1.975  -1.801  0.00  0.00    -0.097 F 
ATOM     12  F4  UNL d   1       2.690  -2.378   0.458  0.00  0.00    -0.092 F 
ENDROOT
TORSDOF 0
ENDMDL
