MODEL 1
REMARK minimizedAffinity 2.15486026
REMARK minimizedRMSD -1
REMARK  0 active torsions:
REMARK  status: ('A' for Active; 'I' for Inactive)
ROOT
ATOM      1  C   UNL d   1       0.436  -1.784   0.986  0.00  0.00     0.124 A 
ATOM      2  C1  UNL d   1      -0.117  -1.766  -0.287  0.00  0.00     0.062 A 
ATOM      3  C2  UNL d   1      -1.313  -1.093  -0.521  0.00  0.00     0.162 A 
ATOM      4  C3  UNL d   1      -1.963  -0.431   0.520  0.00  0.00    -0.034 A 
ATOM      5  C4  UNL d   1      -1.401  -0.454   1.798  0.00  0.00     0.162 A 
ATOM      6  C5  UNL d   1      -0.206  -1.129   2.027  0.00  0.00     0.062 A 
ATOM      7  F   UNL d   1       0.326  -1.146   3.257  0.00  0.00    -0.097 F 
ATOM      8  F1  UNL d   1      -2.000   0.172   2.822  0.00  0.00    -0.096 F 
ATOM      9  I   UNL d   1      -3.751   0.577   0.174  0.00  0.00    -0.060 I 
ATOM     10  F2  UNL d   1      -1.824  -1.091  -1.761  0.00  0.00    -0.096 F 
ATOM     11  F3  UNL d   1       0.501  -2.399  -1.294  0.00  0.00    -0.097 F 
ATOM     12  F4  UNL d   1       1.586  -2.434   1.209  0.00  0.00    -0.092 F 
ENDROOT
TORSDOF 0
ENDMDL
