MODEL 1
REMARK minimizedAffinity 0.277548552
REMARK minimizedRMSD -1
REMARK  0 active torsions:
REMARK  status: ('A' for Active; 'I' for Inactive)
ROOT
ATOM      1  C   UNL d   1      -3.162  -0.217   1.675  0.00  0.00     0.124 A 
ATOM      2  C1  UNL d   1      -1.835  -0.399   2.041  0.00  0.00     0.062 A 
ATOM      3  C2  UNL d   1      -0.908  -0.852   1.107  0.00  0.00     0.162 A 
ATOM      4  C3  UNL d   1      -1.303  -1.127  -0.202  0.00  0.00    -0.034 A 
ATOM      5  C4  UNL d   1      -2.640  -0.942  -0.562  0.00  0.00     0.162 A 
ATOM      6  C5  UNL d   1      -3.563  -0.489   0.375  0.00  0.00     0.062 A 
ATOM      7  F   UNL d   1      -4.844  -0.314   0.020  0.00  0.00    -0.097 F 
ATOM      8  F1  UNL d   1      -3.054  -1.196  -1.812  0.00  0.00    -0.096 F 
ATOM      9  I   UNL d   1       0.080  -1.805  -1.601  0.00  0.00    -0.060 I 
ATOM     10  F2  UNL d   1       0.367  -1.019   1.488  0.00  0.00    -0.096 F 
ATOM     11  F3  UNL d   1      -1.446  -0.138   3.297  0.00  0.00    -0.097 F 
ATOM     12  F4  UNL d   1      -4.052   0.218   2.576  0.00  0.00    -0.092 F 
ENDROOT
TORSDOF 0
ENDMDL
