MODEL 1
REMARK minimizedAffinity -1.28793669
REMARK minimizedRMSD -1
REMARK  0 active torsions:
REMARK  status: ('A' for Active; 'I' for Inactive)
ROOT
ATOM      1  C   UNL d   1       0.461  -2.008   0.720  0.00  0.00     0.124 A 
ATOM      2  C1  UNL d   1      -0.137  -1.360   1.792  0.00  0.00     0.062 A 
ATOM      3  C2  UNL d   1      -1.380  -0.752   1.638  0.00  0.00     0.162 A 
ATOM      4  C3  UNL d   1      -2.034  -0.790   0.407  0.00  0.00    -0.034 A 
ATOM      5  C4  UNL d   1      -1.426  -1.443  -0.667  0.00  0.00     0.162 A 
ATOM      6  C5  UNL d   1      -0.184  -2.049  -0.508  0.00  0.00     0.062 A 
ATOM      7  F   UNL d   1       0.392  -2.674  -1.545  0.00  0.00    -0.097 F 
ATOM      8  F1  UNL d   1      -2.028  -1.498  -1.865  0.00  0.00    -0.096 F 
ATOM      9  I   UNL d   1      -3.892   0.117   0.173  0.00  0.00    -0.060 I 
ATOM     10  F2  UNL d   1      -1.934  -0.133   2.691  0.00  0.00    -0.096 F 
ATOM     11  F3  UNL d   1       0.484  -1.318   2.979  0.00  0.00    -0.097 F 
ATOM     12  F4  UNL d   1       1.657  -2.591   0.870  0.00  0.00    -0.092 F 
ENDROOT
TORSDOF 0
ENDMDL
