MODEL 1
REMARK minimizedAffinity -1.77737546
REMARK minimizedRMSD -1
REMARK  0 active torsions:
REMARK  status: ('A' for Active; 'I' for Inactive)
ROOT
ATOM      1  C   UNL d   1       0.782  -2.417   0.550  0.00  0.00     0.124 A 
ATOM      2  C1  UNL d   1       0.588  -1.621   1.671  0.00  0.00     0.062 A 
ATOM      3  C2  UNL d   1      -0.585  -0.884   1.811  0.00  0.00     0.162 A 
ATOM      4  C3  UNL d   1      -1.573  -0.941   0.829  0.00  0.00    -0.034 A 
ATOM      5  C4  UNL d   1      -1.370  -1.743  -0.295  0.00  0.00     0.162 A 
ATOM      6  C5  UNL d   1      -0.197  -2.477  -0.431  0.00  0.00     0.062 A 
ATOM      7  F   UNL d   1      -0.011  -3.246  -1.514  0.00  0.00    -0.097 F 
ATOM      8  F1  UNL d   1      -2.300  -1.821  -1.259  0.00  0.00    -0.096 F 
ATOM      9  I   UNL d   1      -3.328   0.158   1.036  0.00  0.00    -0.060 I 
ATOM     10  F2  UNL d   1      -0.746  -0.124   2.904  0.00  0.00    -0.096 F 
ATOM     11  F3  UNL d   1       1.533  -1.560   2.620  0.00  0.00    -0.097 F 
ATOM     12  F4  UNL d   1       1.912  -3.123   0.417  0.00  0.00    -0.092 F 
ENDROOT
TORSDOF 0
ENDMDL
