MODEL 1
REMARK minimizedAffinity 0.0936972573
REMARK minimizedRMSD -1
REMARK  0 active torsions:
REMARK  status: ('A' for Active; 'I' for Inactive)
ROOT
ATOM      1  C   UNL d   1       0.638  -1.250   2.438  0.00  0.00     0.124 A 
ATOM      2  C1  UNL d   1      -0.346  -0.567   3.138  0.00  0.00     0.062 A 
ATOM      3  C2  UNL d   1      -1.518  -0.176   2.497  0.00  0.00     0.162 A 
ATOM      4  C3  UNL d   1      -1.712  -0.468   1.147  0.00  0.00    -0.034 A 
ATOM      5  C4  UNL d   1      -0.717  -1.154   0.449  0.00  0.00     0.162 A 
ATOM      6  C5  UNL d   1       0.452  -1.543   1.095  0.00  0.00     0.062 A 
ATOM      7  F   UNL d   1       1.402  -2.203   0.416  0.00  0.00    -0.097 F 
ATOM      8  F1  UNL d   1      -0.871  -1.451  -0.850  0.00  0.00    -0.096 F 
ATOM      9  I   UNL d   1      -3.462   0.116   0.184  0.00  0.00    -0.060 I 
ATOM     10  F2  UNL d   1      -2.452   0.484   3.198  0.00  0.00    -0.096 F 
ATOM     11  F3  UNL d   1      -0.168  -0.282   4.437  0.00  0.00    -0.097 F 
ATOM     12  F4  UNL d   1       1.765  -1.625   3.058  0.00  0.00    -0.092 F 
ENDROOT
TORSDOF 0
ENDMDL
