MODEL 1
REMARK minimizedAffinity 1.94998062
REMARK minimizedRMSD -1
REMARK  0 active torsions:
REMARK  status: ('A' for Active; 'I' for Inactive)
ROOT
ATOM      1  C   UNL d   1      -0.074   3.712  -3.900  0.00  0.00     0.124 A 
ATOM      2  C1  UNL d   1       0.136   3.026  -2.712  0.00  0.00     0.062 A 
ATOM      3  C2  UNL d   1      -0.809   2.111  -2.256  0.00  0.00     0.162 A 
ATOM      4  C3  UNL d   1      -1.972   1.876  -2.989  0.00  0.00    -0.034 A 
ATOM      5  C4  UNL d   1      -2.176   2.570  -4.183  0.00  0.00     0.162 A 
ATOM      6  C5  UNL d   1      -1.229   3.484  -4.634  0.00  0.00     0.062 A 
ATOM      7  F   UNL d   1      -1.433   4.146  -5.783  0.00  0.00    -0.097 F 
ATOM      8  F1  UNL d   1      -3.283   2.368  -4.913  0.00  0.00    -0.096 F 
ATOM      9  I   UNL d   1      -3.386   0.508  -2.311  0.00  0.00    -0.060 I 
ATOM     10  F2  UNL d   1      -0.580   1.463  -1.104  0.00  0.00    -0.096 F 
ATOM     11  F3  UNL d   1       1.251   3.246  -2.000  0.00  0.00    -0.097 F 
ATOM     12  F4  UNL d   1       0.836   4.593  -4.336  0.00  0.00    -0.092 F 
ENDROOT
TORSDOF 0
ENDMDL
