MODEL 1
REMARK minimizedAffinity 2.6383872
REMARK minimizedRMSD -1
REMARK  0 active torsions:
REMARK  status: ('A' for Active; 'I' for Inactive)
ROOT
ATOM      1  C   UNL d   1       2.537  -1.332   3.799  0.00  0.00     0.124 A 
ATOM      2  C1  UNL d   1       1.192  -1.307   3.455  0.00  0.00     0.062 A 
ATOM      3  C2  UNL d   1       0.812  -1.137   2.127  0.00  0.00     0.162 A 
ATOM      4  C3  UNL d   1       1.779  -0.992   1.131  0.00  0.00    -0.034 A 
ATOM      5  C4  UNL d   1       3.129  -1.017   1.485  0.00  0.00     0.162 A 
ATOM      6  C5  UNL d   1       3.504  -1.187   2.813  0.00  0.00     0.062 A 
ATOM      7  F   UNL d   1       4.803  -1.211   3.143  0.00  0.00    -0.097 F 
ATOM      8  F1  UNL d   1       4.084  -0.881   0.553  0.00  0.00    -0.096 F 
ATOM      9  I   UNL d   1       1.214  -0.738  -0.856  0.00  0.00    -0.060 I 
ATOM     10  F2  UNL d   1      -0.494  -1.117   1.824  0.00  0.00    -0.096 F 
ATOM     11  F3  UNL d   1       0.257  -1.446   4.405  0.00  0.00    -0.097 F 
ATOM     12  F4  UNL d   1       2.900  -1.495   5.077  0.00  0.00    -0.092 F 
ENDROOT
TORSDOF 0
ENDMDL
