MODEL 1
REMARK minimizedAffinity 3.50165248
REMARK minimizedRMSD -1
REMARK  0 active torsions:
REMARK  status: ('A' for Active; 'I' for Inactive)
ROOT
ATOM      1  C   UNL d   1       3.648  -1.138   3.994  0.00  0.00     0.124 A 
ATOM      2  C1  UNL d   1       4.108  -0.867   2.713  0.00  0.00     0.062 A 
ATOM      3  C2  UNL d   1       3.214  -0.800   1.648  0.00  0.00     0.162 A 
ATOM      4  C3  UNL d   1       1.850  -1.003   1.860  0.00  0.00    -0.034 A 
ATOM      5  C4  UNL d   1       1.395  -1.276   3.151  0.00  0.00     0.162 A 
ATOM      6  C5  UNL d   1       2.293  -1.342   4.212  0.00  0.00     0.062 A 
ATOM      7  F   UNL d   1       1.847  -1.603   5.449  0.00  0.00    -0.097 F 
ATOM      8  F1  UNL d   1       0.091  -1.476   3.390  0.00  0.00    -0.096 F 
ATOM      9  I   UNL d   1       0.511  -0.904   0.270  0.00  0.00    -0.060 I 
ATOM     10  F2  UNL d   1       3.687  -0.536   0.420  0.00  0.00    -0.096 F 
ATOM     11  F3  UNL d   1       5.417  -0.670   2.499  0.00  0.00    -0.097 F 
ATOM     12  F4  UNL d   1       4.510  -1.202   5.017  0.00  0.00    -0.092 F 
ENDROOT
TORSDOF 0
ENDMDL
