MODEL 1
REMARK minimizedAffinity 12.7557373
REMARK minimizedRMSD -1
REMARK  0 active torsions:
REMARK  status: ('A' for Active; 'I' for Inactive)
ROOT
ATOM      1  C   UNL d   1      -3.011  -4.717  -2.620  0.00  0.00     0.124 A 
ATOM      2  C1  UNL d   1      -3.359  -5.254  -3.852  0.00  0.00     0.062 A 
ATOM      3  C2  UNL d   1      -2.383  -5.479  -4.818  0.00  0.00     0.162 A 
ATOM      4  C3  UNL d   1      -1.049  -5.169  -4.556  0.00  0.00    -0.034 A 
ATOM      5  C4  UNL d   1      -0.706  -4.630  -3.315  0.00  0.00     0.162 A 
ATOM      6  C5  UNL d   1      -1.685  -4.406  -2.353  0.00  0.00     0.062 A 
ATOM      7  F   UNL d   1      -1.347  -3.888  -1.163  0.00  0.00    -0.097 F 
ATOM      8  F1  UNL d   1       0.567  -4.320  -3.030  0.00  0.00    -0.096 F 
ATOM      9  I   UNL d   1       0.414  -5.505  -5.999  0.00  0.00    -0.060 I 
ATOM     10  F2  UNL d   1      -2.749  -5.998  -6.000  0.00  0.00    -0.096 F 
ATOM     11  F3  UNL d   1      -4.640  -5.554  -4.113  0.00  0.00    -0.097 F 
ATOM     12  F4  UNL d   1      -3.952  -4.500  -1.692  0.00  0.00    -0.092 F 
ENDROOT
TORSDOF 0
ENDMDL
