MODEL 1
REMARK minimizedAffinity 3.5662291
REMARK minimizedRMSD -1
REMARK  0 active torsions:
REMARK  status: ('A' for Active; 'I' for Inactive)
ROOT
ATOM      1  C   UNL d   1      -1.726  -3.676   0.541  0.00  0.00     0.124 A 
ATOM      2  C1  UNL d   1      -2.635  -4.649   0.151  0.00  0.00     0.062 A 
ATOM      3  C2  UNL d   1      -2.697  -5.057  -1.178  0.00  0.00     0.162 A 
ATOM      4  C3  UNL d   1      -1.847  -4.491  -2.128  0.00  0.00    -0.034 A 
ATOM      5  C4  UNL d   1      -0.936  -3.512  -1.729  0.00  0.00     0.162 A 
ATOM      6  C5  UNL d   1      -0.877  -3.108  -0.399  0.00  0.00     0.062 A 
ATOM      7  F   UNL d   1       0.002  -2.167  -0.024  0.00  0.00    -0.097 F 
ATOM      8  F1  UNL d   1      -0.104  -2.947  -2.616  0.00  0.00    -0.096 F 
ATOM      9  I   UNL d   1      -1.937  -5.098  -4.117  0.00  0.00    -0.060 I 
ATOM     10  F2  UNL d   1      -3.586  -6.000  -1.526  0.00  0.00    -0.096 F 
ATOM     11  F3  UNL d   1      -3.456  -5.199   1.058  0.00  0.00    -0.097 F 
ATOM     12  F4  UNL d   1      -1.668  -3.285   1.821  0.00  0.00    -0.092 F 
ENDROOT
TORSDOF 0
ENDMDL
