MODEL 1
REMARK minimizedAffinity 11.4765377
REMARK minimizedRMSD -1
REMARK  0 active torsions:
REMARK  status: ('A' for Active; 'I' for Inactive)
ROOT
ATOM      1  C   UNL d   1      -2.927  -4.874  -2.564  0.00  0.00     0.124 A 
ATOM      2  C1  UNL d   1      -3.278  -5.359  -3.817  0.00  0.00     0.062 A 
ATOM      3  C2  UNL d   1      -2.306  -5.529  -4.798  0.00  0.00     0.162 A 
ATOM      4  C3  UNL d   1      -0.973  -5.216  -4.531  0.00  0.00    -0.034 A 
ATOM      5  C4  UNL d   1      -0.629  -4.728  -3.270  0.00  0.00     0.162 A 
ATOM      6  C5  UNL d   1      -1.604  -4.559  -2.292  0.00  0.00     0.062 A 
ATOM      7  F   UNL d   1      -1.263  -4.090  -1.083  0.00  0.00    -0.097 F 
ATOM      8  F1  UNL d   1       0.643  -4.416  -2.979  0.00  0.00    -0.096 F 
ATOM      9  I   UNL d   1       0.483  -5.469  -5.997  0.00  0.00    -0.060 I 
ATOM     10  F2  UNL d   1      -2.673  -6.000  -6.000  0.00  0.00    -0.096 F 
ATOM     11  F3  UNL d   1      -4.556  -5.663  -4.083  0.00  0.00    -0.097 F 
ATOM     12  F4  UNL d   1      -3.865  -4.710  -1.622  0.00  0.00    -0.092 F 
ENDROOT
TORSDOF 0
ENDMDL
