MODEL 1
REMARK minimizedAffinity 18.3351059
REMARK minimizedRMSD -1
REMARK  0 active torsions:
REMARK  status: ('A' for Active; 'I' for Inactive)
ROOT
ATOM      1  C   UNL d   1      -1.129   4.076  -4.277  0.00  0.00     0.124 A 
ATOM      2  C1  UNL d   1      -2.447   4.046  -4.711  0.00  0.00     0.062 A 
ATOM      3  C2  UNL d   1      -3.283   2.997  -4.339  0.00  0.00     0.162 A 
ATOM      4  C3  UNL d   1      -2.803   1.969  -3.527  0.00  0.00    -0.034 A 
ATOM      5  C4  UNL d   1      -1.476   2.006  -3.095  0.00  0.00     0.162 A 
ATOM      6  C5  UNL d   1      -0.645   3.057  -3.470  0.00  0.00     0.062 A 
ATOM      7  F   UNL d   1       0.628   3.084  -3.050  0.00  0.00    -0.097 F 
ATOM      8  F1  UNL d   1      -0.982   1.034  -2.314  0.00  0.00    -0.096 F 
ATOM      9  I   UNL d   1      -4.049   0.399  -2.969  0.00  0.00    -0.060 I 
ATOM     10  F2  UNL d   1      -4.552   2.994  -4.773  0.00  0.00    -0.096 F 
ATOM     11  F3  UNL d   1      -2.917   5.030  -5.492  0.00  0.00    -0.097 F 
ATOM     12  F4  UNL d   1      -0.327   5.087  -4.637  0.00  0.00    -0.092 F 
ENDROOT
TORSDOF 0
ENDMDL
