MODEL 1
REMARK minimizedAffinity 11.2052794
REMARK minimizedRMSD -1
REMARK  0 active torsions:
REMARK  status: ('A' for Active; 'I' for Inactive)
ROOT
ATOM      1  C   UNL d   1      -0.067  -2.530   0.160  0.00  0.00     0.124 A 
ATOM      2  C1  UNL d   1      -1.264  -3.156  -0.159  0.00  0.00     0.062 A 
ATOM      3  C2  UNL d   1      -2.467  -2.466  -0.042  0.00  0.00     0.162 A 
ATOM      4  C3  UNL d   1      -2.480  -1.142   0.397  0.00  0.00    -0.034 A 
ATOM      5  C4  UNL d   1      -1.272  -0.520   0.718  0.00  0.00     0.162 A 
ATOM      6  C5  UNL d   1      -0.072  -1.213   0.598  0.00  0.00     0.062 A 
ATOM      7  F   UNL d   1       1.083  -0.607   0.908  0.00  0.00    -0.097 F 
ATOM      8  F1  UNL d   1      -1.248   0.752   1.143  0.00  0.00    -0.096 F 
ATOM      9  I   UNL d   1      -4.277  -0.108   0.575  0.00  0.00    -0.060 I 
ATOM     10  F2  UNL d   1      -3.609  -3.096  -0.357  0.00  0.00    -0.096 F 
ATOM     11  F3  UNL d   1      -1.262  -4.428  -0.582  0.00  0.00    -0.097 F 
ATOM     12  F4  UNL d   1       1.089  -3.196   0.047  0.00  0.00    -0.092 F 
ENDROOT
TORSDOF 0
ENDMDL
