MODEL 1
REMARK minimizedAffinity 13.6790981
REMARK minimizedRMSD -1
REMARK  0 active torsions:
REMARK  status: ('A' for Active; 'I' for Inactive)
ROOT
ATOM      1  C   UNL d   1      -4.852   0.877  -2.552  0.00  0.00     0.124 A 
ATOM      2  C1  UNL d   1      -3.661   1.261  -3.152  0.00  0.00     0.062 A 
ATOM      3  C2  UNL d   1      -2.466   1.200  -2.441  0.00  0.00     0.162 A 
ATOM      4  C3  UNL d   1      -2.456   0.751  -1.120  0.00  0.00    -0.034 A 
ATOM      5  C4  UNL d   1      -3.658   0.367  -0.523  0.00  0.00     0.162 A 
ATOM      6  C5  UNL d   1      -4.849   0.430  -1.238  0.00  0.00     0.062 A 
ATOM      7  F   UNL d   1      -5.999   0.058  -0.656  0.00  0.00    -0.097 F 
ATOM      8  F1  UNL d   1      -3.684  -0.070   0.745  0.00  0.00    -0.096 F 
ATOM      9  I   UNL d   1      -0.672   0.657  -0.053  0.00  0.00    -0.060 I 
ATOM     10  F2  UNL d   1      -1.331   1.577  -3.046  0.00  0.00    -0.096 F 
ATOM     11  F3  UNL d   1      -3.661   1.694  -4.421  0.00  0.00    -0.097 F 
ATOM     12  F4  UNL d   1      -6.000   0.938  -3.239  0.00  0.00    -0.092 F 
ENDROOT
TORSDOF 0
ENDMDL
