MODEL 1
REMARK minimizedAffinity 10.5889797
REMARK minimizedRMSD -1
REMARK  0 active torsions:
REMARK  status: ('A' for Active; 'I' for Inactive)
ROOT
ATOM      1  C   UNL d   1       0.262  -2.612   0.114  0.00  0.00     0.124 A 
ATOM      2  C1  UNL d   1       0.326  -1.257  -0.180  0.00  0.00     0.062 A 
ATOM      3  C2  UNL d   1      -0.842  -0.505  -0.275  0.00  0.00     0.162 A 
ATOM      4  C3  UNL d   1      -2.085  -1.107  -0.076  0.00  0.00    -0.034 A 
ATOM      5  C4  UNL d   1      -2.141  -2.471   0.218  0.00  0.00     0.162 A 
ATOM      6  C5  UNL d   1      -0.971  -3.217   0.313  0.00  0.00     0.062 A 
ATOM      7  F   UNL d   1      -1.034  -4.526   0.596  0.00  0.00    -0.097 F 
ATOM      8  F1  UNL d   1      -3.319  -3.081   0.416  0.00  0.00    -0.096 F 
ATOM      9  I   UNL d   1      -3.833   0.013  -0.217  0.00  0.00    -0.060 I 
ATOM     10  F2  UNL d   1      -0.751   0.802  -0.560  0.00  0.00    -0.096 F 
ATOM     11  F3  UNL d   1       1.515  -0.669  -0.374  0.00  0.00    -0.097 F 
ATOM     12  F4  UNL d   1       1.387  -3.332   0.204  0.00  0.00    -0.092 F 
ENDROOT
TORSDOF 0
ENDMDL
