MODEL 1
REMARK minimizedAffinity 21.13661
REMARK minimizedRMSD -1
REMARK  0 active torsions:
REMARK  status: ('A' for Active; 'I' for Inactive)
ROOT
ATOM      1  C   UNL d   1       0.097   3.571  -3.640  0.00  0.00     0.124 A 
ATOM      2  C1  UNL d   1      -0.139   2.440  -2.871  0.00  0.00     0.062 A 
ATOM      3  C2  UNL d   1      -1.434   1.950  -2.726  0.00  0.00     0.162 A 
ATOM      4  C3  UNL d   1      -2.503   2.590  -3.353  0.00  0.00    -0.034 A 
ATOM      5  C4  UNL d   1      -2.258   3.727  -4.125  0.00  0.00     0.162 A 
ATOM      6  C5  UNL d   1      -0.962   4.213  -4.266  0.00  0.00     0.062 A 
ATOM      7  F   UNL d   1      -0.735   5.306  -5.010  0.00  0.00    -0.097 F 
ATOM      8  F1  UNL d   1      -3.262   4.367  -4.741  0.00  0.00    -0.096 F 
ATOM      9  I   UNL d   1      -4.440   1.860  -3.139  0.00  0.00    -0.060 I 
ATOM     10  F2  UNL d   1      -1.633   0.855  -1.977  0.00  0.00    -0.096 F 
ATOM     11  F3  UNL d   1       0.882   1.818  -2.264  0.00  0.00    -0.097 F 
ATOM     12  F4  UNL d   1       1.344   4.041  -3.777  0.00  0.00    -0.092 F 
ENDROOT
TORSDOF 0
ENDMDL
