MODEL 1
REMARK minimizedAffinity 11.9678116
REMARK minimizedRMSD -1
REMARK  0 active torsions:
REMARK  status: ('A' for Active; 'I' for Inactive)
ROOT
ATOM      1  C   UNL d   1       4.411  -0.957   3.039  0.00  0.00     0.124 A 
ATOM      2  C1  UNL d   1       4.480  -0.504   1.729  0.00  0.00     0.062 A 
ATOM      3  C2  UNL d   1       3.328  -0.433   0.951  0.00  0.00     0.162 A 
ATOM      4  C3  UNL d   1       2.096  -0.814   1.482  0.00  0.00    -0.034 A 
ATOM      5  C4  UNL d   1       2.034  -1.270   2.800  0.00  0.00     0.162 A 
ATOM      6  C5  UNL d   1       3.189  -1.339   3.573  0.00  0.00     0.062 A 
ATOM      7  F   UNL d   1       3.120  -1.777   4.839  0.00  0.00    -0.097 F 
ATOM      8  F1  UNL d   1       0.866  -1.645   3.342  0.00  0.00    -0.096 F 
ATOM      9  I   UNL d   1       0.371  -0.710   0.322  0.00  0.00    -0.060 I 
ATOM     10  F2  UNL d   1       3.424   0.009  -0.312  0.00  0.00    -0.096 F 
ATOM     11  F3  UNL d   1       5.660  -0.135   1.210  0.00  0.00    -0.097 F 
ATOM     12  F4  UNL d   1       5.521  -1.025   3.785  0.00  0.00    -0.092 F 
ENDROOT
TORSDOF 0
ENDMDL
