MODEL 1
REMARK minimizedAffinity 9.59925175
REMARK minimizedRMSD -1
REMARK  0 active torsions:
REMARK  status: ('A' for Active; 'I' for Inactive)
ROOT
ATOM      1  C   UNL d   1       0.987  -1.552   0.681  0.00  0.00     0.124 A 
ATOM      2  C1  UNL d   1       2.348  -1.675   0.924  0.00  0.00     0.062 A 
ATOM      3  C2  UNL d   1       3.175  -0.558   0.854  0.00  0.00     0.162 A 
ATOM      4  C3  UNL d   1       2.643   0.693   0.540  0.00  0.00    -0.034 A 
ATOM      5  C4  UNL d   1       1.273   0.808   0.297  0.00  0.00     0.162 A 
ATOM      6  C5  UNL d   1       0.451  -0.311   0.368  0.00  0.00     0.062 A 
ATOM      7  F   UNL d   1      -0.864  -0.191   0.133  0.00  0.00    -0.097 F 
ATOM      8  F1  UNL d   1       0.729   1.996  -0.007  0.00  0.00    -0.096 F 
ATOM      9  I   UNL d   1       3.876   2.366   0.435  0.00  0.00    -0.060 I 
ATOM     10  F2  UNL d   1       4.487  -0.706   1.093  0.00  0.00    -0.096 F 
ATOM     11  F3  UNL d   1       2.869  -2.873   1.225  0.00  0.00    -0.097 F 
ATOM     12  F4  UNL d   1       0.194  -2.629   0.748  0.00  0.00    -0.092 F 
ENDROOT
TORSDOF 0
ENDMDL
