MODEL 1
REMARK minimizedAffinity 10.0312881
REMARK minimizedRMSD -1
REMARK  0 active torsions:
REMARK  status: ('A' for Active; 'I' for Inactive)
ROOT
ATOM      1  C   UNL d   1      -2.444  -4.722  -1.658  0.00  0.00     0.124 A 
ATOM      2  C1  UNL d   1      -1.099  -4.442  -1.859  0.00  0.00     0.062 A 
ATOM      3  C2  UNL d   1      -0.511  -4.687  -3.096  0.00  0.00     0.162 A 
ATOM      4  C3  UNL d   1      -1.267  -5.213  -4.144  0.00  0.00    -0.034 A 
ATOM      5  C4  UNL d   1      -2.619  -5.493  -3.934  0.00  0.00     0.162 A 
ATOM      6  C5  UNL d   1      -3.202  -5.246  -2.695  0.00  0.00     0.062 A 
ATOM      7  F   UNL d   1      -4.501  -5.517  -2.503  0.00  0.00    -0.097 F 
ATOM      8  F1  UNL d   1      -3.375  -5.999  -4.919  0.00  0.00    -0.096 F 
ATOM      9  I   UNL d   1      -0.391  -5.581  -5.995  0.00  0.00    -0.060 I 
ATOM     10  F2  UNL d   1       0.790  -4.407  -3.262  0.00  0.00    -0.096 F 
ATOM     11  F3  UNL d   1      -0.364  -3.936  -0.858  0.00  0.00    -0.097 F 
ATOM     12  F4  UNL d   1      -3.007  -4.486  -0.466  0.00  0.00    -0.092 F 
ENDROOT
TORSDOF 0
ENDMDL
