MODEL 1
REMARK minimizedAffinity 15.5511847
REMARK minimizedRMSD -1
REMARK  0 active torsions:
REMARK  status: ('A' for Active; 'I' for Inactive)
ROOT
ATOM      1  C   UNL d   1      -0.086  -2.322   0.153  0.00  0.00     0.124 A 
ATOM      2  C1  UNL d   1      -1.307  -2.955  -0.030  0.00  0.00     0.062 A 
ATOM      3  C2  UNL d   1      -2.494  -2.244   0.123  0.00  0.00     0.162 A 
ATOM      4  C3  UNL d   1      -2.466  -0.891   0.459  0.00  0.00    -0.034 A 
ATOM      5  C4  UNL d   1      -1.233  -0.261   0.643  0.00  0.00     0.162 A 
ATOM      6  C5  UNL d   1      -0.050  -0.976   0.489  0.00  0.00     0.062 A 
ATOM      7  F   UNL d   1       1.129  -0.362   0.666  0.00  0.00    -0.097 F 
ATOM      8  F1  UNL d   1      -1.170   1.039   0.967  0.00  0.00    -0.096 F 
ATOM      9  I   UNL d   1      -4.238   0.176   0.689  0.00  0.00    -0.060 I 
ATOM     10  F2  UNL d   1      -3.660  -2.882  -0.061  0.00  0.00    -0.096 F 
ATOM     11  F3  UNL d   1      -1.345  -4.256  -0.354  0.00  0.00    -0.097 F 
ATOM     12  F4  UNL d   1       1.055  -3.009   0.006  0.00  0.00    -0.092 F 
ENDROOT
TORSDOF 0
ENDMDL
