MODEL 1
REMARK minimizedAffinity 12.4649954
REMARK minimizedRMSD -1
REMARK  0 active torsions:
REMARK  status: ('A' for Active; 'I' for Inactive)
ROOT
ATOM      1  C   UNL d   1      -1.052   2.248  -3.361  0.00  0.00     0.124 A 
ATOM      2  C1  UNL d   1      -2.287   2.491  -3.945  0.00  0.00     0.062 A 
ATOM      3  C2  UNL d   1      -3.401   1.750  -3.560  0.00  0.00     0.162 A 
ATOM      4  C3  UNL d   1      -3.285   0.759  -2.585  0.00  0.00    -0.034 A 
ATOM      5  C4  UNL d   1      -2.038   0.519  -2.004  0.00  0.00     0.162 A 
ATOM      6  C5  UNL d   1      -0.928   1.262  -2.392  0.00  0.00     0.062 A 
ATOM      7  F   UNL d   1       0.265   1.026  -1.827  0.00  0.00    -0.097 F 
ATOM      8  F1  UNL d   1      -1.891  -0.426  -1.064  0.00  0.00    -0.096 F 
ATOM      9  I   UNL d   1      -4.948  -0.351  -2.007  0.00  0.00    -0.060 I 
ATOM     10  F2  UNL d   1      -4.583   2.007  -4.140  0.00  0.00    -0.096 F 
ATOM     11  F3  UNL d   1      -2.409   3.442  -4.882  0.00  0.00    -0.097 F 
ATOM     12  F4  UNL d   1       0.019   2.961  -3.734  0.00  0.00    -0.092 F 
ENDROOT
TORSDOF 0
ENDMDL
