MODEL 1
REMARK minimizedAffinity 11.7621212
REMARK minimizedRMSD -1
REMARK  0 active torsions:
REMARK  status: ('A' for Active; 'I' for Inactive)
ROOT
ATOM      1  C   UNL d   1       0.356  -2.221   0.114  0.00  0.00     0.124 A 
ATOM      2  C1  UNL d   1      -0.908  -2.774  -0.032  0.00  0.00     0.062 A 
ATOM      3  C2  UNL d   1      -2.037  -1.960   0.007  0.00  0.00     0.162 A 
ATOM      4  C3  UNL d   1      -1.905  -0.583   0.192  0.00  0.00    -0.034 A 
ATOM      5  C4  UNL d   1      -0.630  -0.035   0.340  0.00  0.00     0.162 A 
ATOM      6  C5  UNL d   1       0.494  -0.853   0.300  0.00  0.00     0.062 A 
ATOM      7  F   UNL d   1       1.716  -0.318   0.443  0.00  0.00    -0.097 F 
ATOM      8  F1  UNL d   1      -0.468   1.284   0.520  0.00  0.00    -0.096 F 
ATOM      9  I   UNL d   1      -3.590   0.637   0.251  0.00  0.00    -0.060 I 
ATOM     10  F2  UNL d   1      -3.247  -2.521  -0.138  0.00  0.00    -0.096 F 
ATOM     11  F3  UNL d   1      -1.045  -4.096  -0.211  0.00  0.00    -0.097 F 
ATOM     12  F4  UNL d   1       1.440  -3.007   0.077  0.00  0.00    -0.092 F 
ENDROOT
TORSDOF 0
ENDMDL
