MODEL 1
REMARK minimizedAffinity 13.0763712
REMARK minimizedRMSD -1
REMARK  0 active torsions:
REMARK  status: ('A' for Active; 'I' for Inactive)
ROOT
ATOM      1  C   UNL d   1      -3.732   1.248  -3.523  0.00  0.00     0.124 A 
ATOM      2  C1  UNL d   1      -2.432   1.734  -3.556  0.00  0.00     0.062 A 
ATOM      3  C2  UNL d   1      -1.520   1.358  -2.574  0.00  0.00     0.162 A 
ATOM      4  C3  UNL d   1      -1.904   0.491  -1.551  0.00  0.00    -0.034 A 
ATOM      5  C4  UNL d   1      -3.213   0.008  -1.524  0.00  0.00     0.162 A 
ATOM      6  C5  UNL d   1      -4.121   0.386  -2.507  0.00  0.00     0.062 A 
ATOM      7  F   UNL d   1      -5.377  -0.084  -2.474  0.00  0.00    -0.097 F 
ATOM      8  F1  UNL d   1      -3.615  -0.827  -0.555  0.00  0.00    -0.096 F 
ATOM      9  I   UNL d   1      -0.542  -0.073  -0.081  0.00  0.00    -0.060 I 
ATOM     10  F2  UNL d   1      -0.270   1.843  -2.631  0.00  0.00    -0.096 F 
ATOM     11  F3  UNL d   1      -2.054   2.567  -4.535  0.00  0.00    -0.097 F 
ATOM     12  F4  UNL d   1      -4.608   1.612  -4.468  0.00  0.00    -0.092 F 
ENDROOT
TORSDOF 0
ENDMDL
