MODEL 1
REMARK minimizedAffinity 14.0980968
REMARK minimizedRMSD -1
REMARK  0 active torsions:
REMARK  status: ('A' for Active; 'I' for Inactive)
ROOT
ATOM      1  C   UNL d   1      -1.500  -3.555   0.633  0.00  0.00     0.124 A 
ATOM      2  C1  UNL d   1      -2.625  -4.326   0.375  0.00  0.00     0.062 A 
ATOM      3  C2  UNL d   1      -2.796  -4.917  -0.873  0.00  0.00     0.162 A 
ATOM      4  C3  UNL d   1      -1.839  -4.742  -1.873  0.00  0.00    -0.034 A 
ATOM      5  C4  UNL d   1      -0.711  -3.964  -1.606  0.00  0.00     0.162 A 
ATOM      6  C5  UNL d   1      -0.544  -3.375  -0.357  0.00  0.00     0.062 A 
ATOM      7  F   UNL d   1       0.543  -2.631  -0.109  0.00  0.00    -0.097 F 
ATOM      8  F1  UNL d   1       0.229  -3.775  -2.544  0.00  0.00    -0.096 F 
ATOM      9  I   UNL d   1      -2.092  -5.625  -3.740  0.00  0.00    -0.060 I 
ATOM     10  F2  UNL d   1      -3.893  -5.657  -1.095  0.00  0.00    -0.096 F 
ATOM     11  F3  UNL d   1      -3.550  -4.500   1.329  0.00  0.00    -0.097 F 
ATOM     12  F4  UNL d   1      -1.338  -2.986   1.835  0.00  0.00    -0.092 F 
ENDROOT
TORSDOF 0
ENDMDL
