MODEL 1
REMARK minimizedAffinity 15.3342543
REMARK minimizedRMSD -1
REMARK  0 active torsions:
REMARK  status: ('A' for Active; 'I' for Inactive)
ROOT
ATOM      1  C   UNL d   1       1.830  -2.616   3.920  0.00  0.00    -0.002 A 
ATOM      2  C1  UNL d   1       1.030  -3.711   4.214  0.00  0.00     0.010 A 
ATOM      3  C2  UNL d   1      -0.297  -3.757   3.783  0.00  0.00     0.041 A 
ATOM      4  C3  UNL d   1      -0.812  -2.674   3.042  0.00  0.00    -0.075 A 
ATOM      5  S   UNL d   1      -2.407  -2.512   2.410  0.00  0.00     0.015 SA
ATOM      6  C4  UNL d   1      -2.065  -0.986   1.734  0.00  0.00     0.022 A 
ATOM      7  C5  UNL d   1      -0.769  -0.594   1.976  0.00  0.00     0.026 A 
ATOM      8  C6  UNL d   1      -0.026  -1.561   2.733  0.00  0.00    -0.082 A 
ATOM      9  C7  UNL d   1       1.316  -1.543   3.185  0.00  0.00     0.045 A 
ENDROOT
TORSDOF 0
ENDMDL
