MODEL 1
REMARK minimizedAffinity 13.6114264
REMARK minimizedRMSD -1
REMARK  0 active torsions:
REMARK  status: ('A' for Active; 'I' for Inactive)
ROOT
ATOM      1  C   UNL d   1       0.638  -1.647   2.447  0.00  0.00    -0.002 A 
ATOM      2  C1  UNL d   1       1.260  -1.892   3.663  0.00  0.00     0.010 A 
ATOM      3  C2  UNL d   1       1.228  -0.940   4.683  0.00  0.00     0.041 A 
ATOM      4  C3  UNL d   1       0.552   0.276   4.459  0.00  0.00    -0.075 A 
ATOM      5  S   UNL d   1       0.381   1.589   5.563  0.00  0.00     0.015 SA
ATOM      6  C4  UNL d   1      -0.523   2.507   4.448  0.00  0.00     0.022 A 
ATOM      7  C5  UNL d   1      -0.700   1.843   3.257  0.00  0.00     0.026 A 
ATOM      8  C6  UNL d   1      -0.084   0.546   3.244  0.00  0.00    -0.082 A 
ATOM      9  C7  UNL d   1      -0.033  -0.440   2.229  0.00  0.00     0.045 A 
ENDROOT
TORSDOF 0
ENDMDL
