MODEL 1
REMARK minimizedAffinity 12.3833284
REMARK minimizedRMSD -1
REMARK  0 active torsions:
REMARK  status: ('A' for Active; 'I' for Inactive)
ROOT
ATOM      1  C   UNL d   1       1.530  -0.041   3.062  0.00  0.00    -0.002 A 
ATOM      2  C1  UNL d   1       1.314  -1.395   2.847  0.00  0.00     0.010 A 
ATOM      3  C2  UNL d   1       0.086  -1.850   2.363  0.00  0.00     0.041 A 
ATOM      4  C3  UNL d   1      -0.930  -0.912   2.093  0.00  0.00    -0.075 A 
ATOM      5  S   UNL d   1      -2.513  -1.238   1.493  0.00  0.00     0.015 SA
ATOM      6  C4  UNL d   1      -2.939   0.412   1.507  0.00  0.00     0.022 A 
ATOM      7  C5  UNL d   1      -1.911   1.207   1.956  0.00  0.00     0.026 A 
ATOM      8  C6  UNL d   1      -0.736   0.457   2.300  0.00  0.00    -0.082 A 
ATOM      9  C7  UNL d   1       0.520   0.887   2.793  0.00  0.00     0.045 A 
ENDROOT
TORSDOF 0
ENDMDL
