MODEL 1
REMARK minimizedAffinity 11.8188
REMARK minimizedRMSD -1
REMARK  0 active torsions:
REMARK  status: ('A' for Active; 'I' for Inactive)
ROOT
ATOM      1  C   UNL d   1      -4.739   1.618  -0.484  0.00  0.00    -0.002 A 
ATOM      2  C1  UNL d   1      -4.775   0.798  -1.603  0.00  0.00     0.010 A 
ATOM      3  C2  UNL d   1      -4.266  -0.501  -1.547  0.00  0.00     0.041 A 
ATOM      4  C3  UNL d   1      -3.717  -0.967  -0.336  0.00  0.00    -0.075 A 
ATOM      5  S   UNL d   1      -3.036  -2.522  -0.034  0.00  0.00     0.015 SA
ATOM      6  C4  UNL d   1      -2.683  -2.134   1.588  0.00  0.00     0.022 A 
ATOM      7  C5  UNL d   1      -3.068  -0.854   1.908  0.00  0.00     0.026 A 
ATOM      8  C6  UNL d   1      -3.671  -0.160   0.804  0.00  0.00    -0.082 A 
ATOM      9  C7  UNL d   1      -4.194   1.153   0.716  0.00  0.00     0.045 A 
ENDROOT
TORSDOF 0
ENDMDL
