MODEL 1
REMARK minimizedAffinity 13.096899
REMARK minimizedRMSD -1
REMARK  0 active torsions:
REMARK  status: ('A' for Active; 'I' for Inactive)
ROOT
ATOM      1  C   UNL d   1       1.261  -1.395   2.991  0.00  0.00    -0.002 A 
ATOM      2  C1  UNL d   1       0.253  -0.839   2.216  0.00  0.00     0.010 A 
ATOM      3  C2  UNL d   1      -0.395   0.328   2.623  0.00  0.00     0.041 A 
ATOM      4  C3  UNL d   1      -0.008   0.936   3.834  0.00  0.00    -0.075 A 
ATOM      5  S   UNL d   1      -0.659   2.371   4.532  0.00  0.00     0.015 SA
ATOM      6  C4  UNL d   1       0.386   2.281   5.876  0.00  0.00     0.022 A 
ATOM      7  C5  UNL d   1       1.218   1.189   5.810  0.00  0.00     0.026 A 
ATOM      8  C6  UNL d   1       1.006   0.396   4.632  0.00  0.00    -0.082 A 
ATOM      9  C7  UNL d   1       1.643  -0.789   4.191  0.00  0.00     0.045 A 
ENDROOT
TORSDOF 0
ENDMDL
