MODEL 1
REMARK minimizedAffinity 22.4811916
REMARK minimizedRMSD -1
REMARK  0 active torsions:
REMARK  status: ('A' for Active; 'I' for Inactive)
ROOT
ATOM      1  C   UNL d   1      -1.162   3.251   4.854  0.00  0.00    -0.002 A 
ATOM      2  C1  UNL d   1      -0.364   2.658   5.822  0.00  0.00     0.010 A 
ATOM      3  C2  UNL d   1       0.185   1.391   5.612  0.00  0.00     0.041 A 
ATOM      4  C3  UNL d   1      -0.083   0.725   4.400  0.00  0.00    -0.075 A 
ATOM      5  S   UNL d   1       0.482  -0.832   3.923  0.00  0.00     0.015 SA
ATOM      6  C4  UNL d   1      -0.322  -0.747   2.422  0.00  0.00     0.022 A 
ATOM      7  C5  UNL d   1      -1.010   0.434   2.272  0.00  0.00     0.026 A 
ATOM      8  C6  UNL d   1      -0.883   1.302   3.409  0.00  0.00    -0.082 A 
ATOM      9  C7  UNL d   1      -1.426   2.587   3.653  0.00  0.00     0.045 A 
ENDROOT
TORSDOF 0
ENDMDL
