MODEL 1
REMARK minimizedAffinity 2.31058741
REMARK minimizedRMSD -1
REMARK  1 active torsions:
REMARK  status: ('A' for Active; 'I' for Inactive)
REMARK    1  A    between atoms: N_2  and  C1_3 
ROOT
ATOM      1  C1  UNL d   1       0.726  -2.256   0.231  0.00  0.00     0.143 A 
ATOM      2  C2  UNL d   1      -0.561  -1.747   0.436  0.00  0.00    -0.057 A 
ATOM      3  C3  UNL d   1      -1.402  -1.444  -0.642  0.00  0.00     0.033 A 
ATOM      4  C4  UNL d   1      -0.957  -1.618  -1.949  0.00  0.00    -0.042 A 
ATOM      5  C5  UNL d   1       0.327  -2.098  -2.176  0.00  0.00     0.033 A 
ATOM      6  C6  UNL d   1       1.160  -2.405  -1.095  0.00  0.00    -0.057 A 
ENDROOT
BRANCH   1   7
ATOM      7  N   UNL d   1       1.644  -2.483   1.259  0.00  0.00    -0.732 N 
ATOM      8  C   UNL d   1       2.653  -1.496   1.579  0.00  0.00     0.284 C 
ATOM      9  H3  UNL d   1       1.217  -2.919   2.073  0.00  0.00     0.395 HD
ENDBRANCH   1   7
TORSDOF 1
ENDMDL
