MODEL 1
REMARK minimizedAffinity 1.19212568
REMARK minimizedRMSD -1
REMARK  1 active torsions:
REMARK  status: ('A' for Active; 'I' for Inactive)
REMARK    1  A    between atoms: N_2  and  C1_3 
ROOT
ATOM      1  C1  UNL d   1       1.803  -0.305   1.427  0.00  0.00     0.143 A 
ATOM      2  C2  UNL d   1       0.499  -0.338   0.921  0.00  0.00    -0.057 A 
ATOM      3  C3  UNL d   1      -0.358  -1.411   1.193  0.00  0.00     0.033 A 
ATOM      4  C4  UNL d   1       0.085  -2.488   1.953  0.00  0.00    -0.042 A 
ATOM      5  C5  UNL d   1       1.385  -2.489   2.445  0.00  0.00     0.033 A 
ATOM      6  C6  UNL d   1       2.234  -1.411   2.176  0.00  0.00    -0.057 A 
ENDROOT
BRANCH   1   7
ATOM      7  N   UNL d   1       2.735   0.686   1.111  0.00  0.00    -0.732 N 
ATOM      8  C   UNL d   1       2.337   1.864   0.371  0.00  0.00     0.284 C 
ATOM      9  H3  UNL d   1       3.377   0.874   1.878  0.00  0.00     0.395 HD
ENDBRANCH   1   7
TORSDOF 1
ENDMDL
