MODEL 1
REMARK minimizedAffinity 1.07593465
REMARK minimizedRMSD -1
REMARK  1 active torsions:
REMARK  status: ('A' for Active; 'I' for Inactive)
REMARK    1  A    between atoms: N_2  and  C1_3 
ROOT
ATOM      1  C1  UNL d   1       0.906  -0.952   1.394  0.00  0.00     0.143 A 
ATOM      2  C2  UNL d   1       2.203  -1.114   1.893  0.00  0.00    -0.057 A 
ATOM      3  C3  UNL d   1       3.141  -0.076   1.828  0.00  0.00     0.033 A 
ATOM      4  C4  UNL d   1       2.805   1.136   1.234  0.00  0.00    -0.042 A 
ATOM      5  C5  UNL d   1       1.529   1.311   0.709  0.00  0.00     0.033 A 
ATOM      6  C6  UNL d   1       0.595   0.273   0.784  0.00  0.00    -0.057 A 
ENDROOT
BRANCH   1   7
ATOM      7  N   UNL d   1      -0.041  -1.978   1.341  0.00  0.00    -0.732 N 
ATOM      8  C   UNL d   1      -1.375  -1.725   0.841  0.00  0.00     0.284 C 
ATOM      9  H3  UNL d   1       0.360  -2.860   1.030  0.00  0.00     0.395 HD
ENDBRANCH   1   7
TORSDOF 1
ENDMDL
