MODEL 1
REMARK minimizedAffinity -1.2573458
REMARK minimizedRMSD -1
REMARK  1 active torsions:
REMARK  status: ('A' for Active; 'I' for Inactive)
REMARK    1  A    between atoms: C1_2  and  C2_3 
ROOT
ATOM      1  C2  UNL d   1      -0.704  -1.406   0.419  0.00  0.00    -0.076 A 
ATOM      2  C3  UNL d   1      -1.450  -0.468   1.155  0.00  0.00     0.004 A 
ATOM      3  C4  UNL d   1      -1.102   0.882   1.157  0.00  0.00    -0.003 A 
ATOM      4  C5  UNL d   1      -0.004   1.316   0.424  0.00  0.00     0.000 A 
ATOM      5  C6  UNL d   1       0.737   0.403  -0.325  0.00  0.00     0.000 A 
ATOM      6  C7  UNL d   1       0.390  -0.959  -0.352  0.00  0.00    -0.073 A 
ATOM      7  C8  UNL d   1       1.228  -1.901  -1.172  0.00  0.00     0.078 C 
ENDROOT
BRANCH   1   8
ATOM      8  C1  UNL d   1      -1.112  -2.860   0.476  0.00  0.00     0.053 C 
ATOM      9  C   UNL d   1      -2.594  -3.061   0.196  0.00  0.00     0.018 C 
ENDBRANCH   1   8
TORSDOF 1
ENDMDL
