MODEL 1
REMARK minimizedAffinity -4.05075741
REMARK minimizedRMSD -1
REMARK  1 active torsions:
REMARK  status: ('A' for Active; 'I' for Inactive)
REMARK    1  A    between atoms: C1_2  and  C2_3 
ROOT
ATOM      1  C2  UNL d   1       0.036  -0.914   0.821  0.00  0.00    -0.076 A 
ATOM      2  C3  UNL d   1       0.153  -2.304   0.997  0.00  0.00     0.004 A 
ATOM      3  C4  UNL d   1       0.584  -3.125  -0.044  0.00  0.00    -0.003 A 
ATOM      4  C5  UNL d   1       0.906  -2.569  -1.277  0.00  0.00     0.000 A 
ATOM      5  C6  UNL d   1       0.813  -1.190  -1.464  0.00  0.00     0.000 A 
ATOM      6  C7  UNL d   1       0.395  -0.347  -0.420  0.00  0.00    -0.073 A 
ATOM      7  C8  UNL d   1       0.307   1.132  -0.678  0.00  0.00     0.078 C 
ENDROOT
BRANCH   1   8
ATOM      8  C1  UNL d   1      -0.463  -0.078   1.978  0.00  0.00     0.053 C 
ATOM      9  C   UNL d   1      -1.961   0.176   1.910  0.00  0.00     0.018 C 
ENDBRANCH   1   8
TORSDOF 1
ENDMDL
