MODEL 1
REMARK minimizedAffinity -4.49145269
REMARK minimizedRMSD -1
REMARK  1 active torsions:
REMARK  status: ('A' for Active; 'I' for Inactive)
REMARK    1  A    between atoms: C1_2  and  C2_3 
ROOT
ATOM      1  C2  UNL d   1       0.517   1.041   0.155  0.00  0.00    -0.076 A 
ATOM      2  C3  UNL d   1       0.855   0.274   1.284  0.00  0.00     0.004 A 
ATOM      3  C4  UNL d   1       0.846  -1.119   1.232  0.00  0.00    -0.003 A 
ATOM      4  C5  UNL d   1       0.501  -1.767   0.051  0.00  0.00     0.000 A 
ATOM      5  C6  UNL d   1       0.181  -1.021  -1.083  0.00  0.00     0.000 A 
ATOM      6  C7  UNL d   1       0.200   0.384  -1.052  0.00  0.00    -0.073 A 
ATOM      7  C8  UNL d   1      -0.160   1.138  -2.303  0.00  0.00     0.078 C 
ENDROOT
BRANCH   1   8
ATOM      8  C1  UNL d   1       0.517   2.548   0.278  0.00  0.00     0.053 C 
ATOM      9  C   UNL d   1       1.877   3.158  -0.028  0.00  0.00     0.018 C 
ENDBRANCH   1   8
TORSDOF 1
ENDMDL
