MODEL 1
REMARK minimizedAffinity -1.88258696
REMARK minimizedRMSD -1
REMARK  1 active torsions:
REMARK  status: ('A' for Active; 'I' for Inactive)
REMARK    1  A    between atoms: C1_2  and  C2_3 
ROOT
ATOM      1  C2  UNL d   1       0.232  -1.333   0.209  0.00  0.00    -0.076 A 
ATOM      2  C3  UNL d   1      -0.195  -0.471   1.233  0.00  0.00     0.004 A 
ATOM      3  C4  UNL d   1      -0.217   0.910   1.046  0.00  0.00    -0.003 A 
ATOM      4  C5  UNL d   1       0.187   1.451  -0.169  0.00  0.00     0.000 A 
ATOM      5  C6  UNL d   1       0.597   0.610  -1.203  0.00  0.00     0.000 A 
ATOM      6  C7  UNL d   1       0.609  -0.786  -1.036  0.00  0.00    -0.073 A 
ATOM      7  C8  UNL d   1       1.066  -1.646  -2.183  0.00  0.00     0.078 C 
ENDROOT
BRANCH   1   8
ATOM      8  C1  UNL d   1       0.260  -2.821   0.479  0.00  0.00     0.053 C 
ATOM      9  C   UNL d   1      -1.126  -3.395   0.726  0.00  0.00     0.018 C 
ENDBRANCH   1   8
TORSDOF 1
ENDMDL
