MODEL 1
REMARK minimizedAffinity -3.08670545
REMARK minimizedRMSD -1
REMARK  1 active torsions:
REMARK  status: ('A' for Active; 'I' for Inactive)
REMARK    1  A    between atoms: C1_2  and  C2_3 
ROOT
ATOM      1  C2  UNL d   1       0.250  -0.376  -0.607  0.00  0.00    -0.076 A 
ATOM      2  C3  UNL d   1      -0.161   0.261  -1.791  0.00  0.00     0.004 A 
ATOM      3  C4  UNL d   1       0.304  -0.165  -3.034  0.00  0.00    -0.003 A 
ATOM      4  C5  UNL d   1       1.188  -1.235  -3.114  0.00  0.00     0.000 A 
ATOM      5  C6  UNL d   1       1.593  -1.890  -1.951  0.00  0.00     0.000 A 
ATOM      6  C7  UNL d   1       1.121  -1.484  -0.691  0.00  0.00    -0.073 A 
ATOM      7  C8  UNL d   1       1.595  -2.223   0.530  0.00  0.00     0.078 C 
ENDROOT
BRANCH   1   8
ATOM      8  C1  UNL d   1      -0.266   0.147   0.714  0.00  0.00     0.053 C 
ATOM      9  C   UNL d   1      -1.674  -0.339   1.023  0.00  0.00     0.018 C 
ENDBRANCH   1   8
TORSDOF 1
ENDMDL
