MODEL 1
REMARK minimizedAffinity -4.0130043
REMARK minimizedRMSD -1
REMARK  1 active torsions:
REMARK  status: ('A' for Active; 'I' for Inactive)
REMARK    1  A    between atoms: C1_2  and  C2_3 
ROOT
ATOM      1  C2  UNL d   1      -0.034  -1.223  -0.102  0.00  0.00    -0.076 A 
ATOM      2  C3  UNL d   1      -0.029  -2.629  -0.109  0.00  0.00     0.004 A 
ATOM      3  C4  UNL d   1       0.277  -3.339  -1.269  0.00  0.00    -0.003 A 
ATOM      4  C5  UNL d   1       0.584  -2.655  -2.440  0.00  0.00     0.000 A 
ATOM      5  C6  UNL d   1       0.601  -1.261  -2.446  0.00  0.00     0.000 A 
ATOM      6  C7  UNL d   1       0.311  -0.530  -1.281  0.00  0.00    -0.073 A 
ATOM      7  C8  UNL d   1       0.338   0.973  -1.347  0.00  0.00     0.078 C 
ENDROOT
BRANCH   1   8
ATOM      8  C1  UNL d   1      -0.400  -0.507   1.179  0.00  0.00     0.053 C 
ATOM      9  C   UNL d   1      -1.883  -0.612   1.502  0.00  0.00     0.018 C 
ENDBRANCH   1   8
TORSDOF 1
ENDMDL
