MODEL 1
REMARK minimizedAffinity -5.16442394
REMARK minimizedRMSD -1
REMARK  1 active torsions:
REMARK  status: ('A' for Active; 'I' for Inactive)
REMARK    1  A    between atoms: C1_2  and  C2_3 
ROOT
ATOM      1  C2  UNL d   1      -0.361   0.027  -0.363  0.00  0.00    -0.076 A 
ATOM      2  C3  UNL d   1      -0.558  -0.242   1.003  0.00  0.00     0.004 A 
ATOM      3  C4  UNL d   1      -0.409  -1.531   1.510  0.00  0.00    -0.003 A 
ATOM      4  C5  UNL d   1      -0.058  -2.574   0.659  0.00  0.00     0.000 A 
ATOM      5  C6  UNL d   1       0.159  -2.323  -0.695  0.00  0.00     0.000 A 
ATOM      6  C7  UNL d   1       0.028  -1.026  -1.219  0.00  0.00    -0.073 A 
ATOM      7  C8  UNL d   1       0.268  -0.813  -2.689  0.00  0.00     0.078 C 
ENDROOT
BRANCH   1   8
ATOM      8  C1  UNL d   1      -0.564   1.440  -0.860  0.00  0.00     0.053 C 
ATOM      9  C   UNL d   1       0.141   2.470   0.008  0.00  0.00     0.018 C 
ENDBRANCH   1   8
TORSDOF 1
ENDMDL
