MODEL 1
REMARK minimizedAffinity -2.28756332
REMARK minimizedRMSD -1
REMARK  1 active torsions:
REMARK  status: ('A' for Active; 'I' for Inactive)
REMARK    1  A    between atoms: C1_2  and  C2_3 
ROOT
ATOM      1  C2  UNL d   1      -0.049  -0.169  -0.220  0.00  0.00    -0.076 A 
ATOM      2  C3  UNL d   1       0.995  -1.073  -0.482  0.00  0.00     0.004 A 
ATOM      3  C4  UNL d   1       0.983  -2.359   0.056  0.00  0.00    -0.003 A 
ATOM      4  C5  UNL d   1      -0.074  -2.762   0.864  0.00  0.00     0.000 A 
ATOM      5  C6  UNL d   1      -1.127  -1.884   1.121  0.00  0.00     0.000 A 
ATOM      6  C7  UNL d   1      -1.138  -0.590   0.573  0.00  0.00    -0.073 A 
ATOM      7  C8  UNL d   1      -2.296   0.317   0.888  0.00  0.00     0.078 C 
ENDROOT
BRANCH   1   8
ATOM      8  C1  UNL d   1       0.032   1.221  -0.808  0.00  0.00     0.053 C 
ATOM      9  C   UNL d   1       1.212   2.014  -0.270  0.00  0.00     0.018 C 
ENDBRANCH   1   8
TORSDOF 1
ENDMDL
