MODEL 1
REMARK minimizedAffinity -3.3467741
REMARK minimizedRMSD -1
REMARK  1 active torsions:
REMARK  status: ('A' for Active; 'I' for Inactive)
REMARK    1  A    between atoms: C1_2  and  C2_3 
ROOT
ATOM      1  C2  UNL d   1      -0.262  -0.127   0.098  0.00  0.00    -0.076 A 
ATOM      2  C3  UNL d   1       0.585  -0.918  -0.698  0.00  0.00     0.004 A 
ATOM      3  C4  UNL d   1       0.650  -2.299  -0.522  0.00  0.00    -0.003 A 
ATOM      4  C5  UNL d   1      -0.131  -2.912   0.451  0.00  0.00     0.000 A 
ATOM      5  C6  UNL d   1      -0.990  -2.145   1.237  0.00  0.00     0.000 A 
ATOM      6  C7  UNL d   1      -1.080  -0.753   1.063  0.00  0.00    -0.073 A 
ATOM      7  C8  UNL d   1      -2.019   0.026   1.943  0.00  0.00     0.078 C 
ENDROOT
BRANCH   1   8
ATOM      8  C1  UNL d   1      -0.271   1.370  -0.119  0.00  0.00     0.053 C 
ATOM      9  C   UNL d   1       1.114   1.986   0.012  0.00  0.00     0.018 C 
ENDBRANCH   1   8
TORSDOF 1
ENDMDL
