MODEL 1
REMARK minimizedAffinity -0.0428035632
REMARK minimizedRMSD -1
REMARK  1 active torsions:
REMARK  status: ('A' for Active; 'I' for Inactive)
REMARK    1  A    between atoms: C1_2  and  C2_3 
ROOT
ATOM      1  C2  UNL d   1      -0.137  -0.907   0.356  0.00  0.00    -0.076 A 
ATOM      2  C3  UNL d   1      -1.467  -1.350   0.472  0.00  0.00     0.004 A 
ATOM      3  C4  UNL d   1      -1.768  -2.709   0.525  0.00  0.00    -0.003 A 
ATOM      4  C5  UNL d   1      -0.745  -3.649   0.462  0.00  0.00     0.000 A 
ATOM      5  C6  UNL d   1       0.581  -3.228   0.365  0.00  0.00     0.000 A 
ATOM      6  C7  UNL d   1       0.903  -1.860   0.327  0.00  0.00    -0.073 A 
ATOM      7  C8  UNL d   1       2.349  -1.462   0.215  0.00  0.00     0.078 C 
ENDROOT
BRANCH   1   8
ATOM      8  C1  UNL d   1       0.127   0.580   0.276  0.00  0.00     0.053 C 
ATOM      9  C   UNL d   1       0.602   1.014  -1.102  0.00  0.00     0.018 C 
ENDBRANCH   1   8
TORSDOF 1
ENDMDL
