MODEL 1
REMARK minimizedAffinity -5.67879868
REMARK minimizedRMSD -1
REMARK  1 active torsions:
REMARK  status: ('A' for Active; 'I' for Inactive)
REMARK    1  A    between atoms: C1_2  and  C2_3 
ROOT
ATOM      1  C2  UNL d   1      -0.020  -0.671  -0.783  0.00  0.00    -0.076 A 
ATOM      2  C3  UNL d   1      -0.295  -0.977   0.561  0.00  0.00     0.004 A 
ATOM      3  C4  UNL d   1      -0.376  -2.300   0.994  0.00  0.00    -0.003 A 
ATOM      4  C5  UNL d   1      -0.182  -3.338   0.089  0.00  0.00     0.000 A 
ATOM      5  C6  UNL d   1       0.109  -3.052  -1.245  0.00  0.00     0.000 A 
ATOM      6  C7  UNL d   1       0.210  -1.724  -1.694  0.00  0.00    -0.073 A 
ATOM      7  C8  UNL d   1       0.520  -1.474  -3.144  0.00  0.00     0.078 C 
ENDROOT
BRANCH   1   8
ATOM      8  C1  UNL d   1       0.029   0.782  -1.199  0.00  0.00     0.053 C 
ATOM      9  C   UNL d   1       0.370   1.708  -0.043  0.00  0.00     0.018 C 
ENDBRANCH   1   8
TORSDOF 1
ENDMDL
