MODEL 1
REMARK minimizedAffinity -1.57217216
REMARK minimizedRMSD -1
REMARK  1 active torsions:
REMARK  status: ('A' for Active; 'I' for Inactive)
REMARK    1  A    between atoms: C1_2  and  C2_3 
ROOT
ATOM      1  C2  UNL d   1       0.226  -0.374  -0.016  0.00  0.00    -0.076 A 
ATOM      2  C3  UNL d   1       1.213  -1.305  -0.384  0.00  0.00     0.004 A 
ATOM      3  C4  UNL d   1       1.049  -2.664  -0.123  0.00  0.00    -0.003 A 
ATOM      4  C5  UNL d   1      -0.105  -3.115   0.509  0.00  0.00     0.000 A 
ATOM      5  C6  UNL d   1      -1.102  -2.207   0.865  0.00  0.00     0.000 A 
ATOM      6  C7  UNL d   1      -0.959  -0.835   0.595  0.00  0.00    -0.073 A 
ATOM      7  C8  UNL d   1      -2.064   0.100   1.006  0.00  0.00     0.078 C 
ENDROOT
BRANCH   1   8
ATOM      8  C1  UNL d   1       0.471   1.091  -0.300  0.00  0.00     0.053 C 
ATOM      9  C   UNL d   1       1.871   1.535   0.096  0.00  0.00     0.018 C 
ENDBRANCH   1   8
TORSDOF 1
ENDMDL
