MODEL 1
REMARK minimizedAffinity -5.42529964
REMARK minimizedRMSD -1
REMARK  1 active torsions:
REMARK  status: ('A' for Active; 'I' for Inactive)
REMARK    1  A    between atoms: C1_2  and  C2_3 
ROOT
ATOM      1  C2  UNL d   1      -0.309   0.232   0.258  0.00  0.00    -0.076 A 
ATOM      2  C3  UNL d   1       0.432  -0.594  -0.605  0.00  0.00     0.004 A 
ATOM      3  C4  UNL d   1       0.485  -1.973  -0.409  0.00  0.00    -0.003 A 
ATOM      4  C5  UNL d   1      -0.204  -2.549   0.652  0.00  0.00     0.000 A 
ATOM      5  C6  UNL d   1      -0.959  -1.747   1.508  0.00  0.00     0.000 A 
ATOM      6  C7  UNL d   1      -1.036  -0.357   1.315  0.00  0.00    -0.073 A 
ATOM      7  C8  UNL d   1      -1.860   0.460   2.271  0.00  0.00     0.078 C 
ENDROOT
BRANCH   1   8
ATOM      8  C1  UNL d   1      -0.307   1.724   0.012  0.00  0.00     0.053 C 
ATOM      9  C   UNL d   1       1.093   2.317   0.041  0.00  0.00     0.018 C 
ENDBRANCH   1   8
TORSDOF 1
ENDMDL
