MODEL 1
REMARK minimizedAffinity -5.28225803
REMARK minimizedRMSD -1
REMARK  1 active torsions:
REMARK  status: ('A' for Active; 'I' for Inactive)
REMARK    1  A    between atoms: C1_2  and  C2_3 
ROOT
ATOM      1  C2  UNL d   1      -1.009  -0.553   1.055  0.00  0.00    -0.076 A 
ATOM      2  C3  UNL d   1      -1.089  -1.930   1.329  0.00  0.00     0.004 A 
ATOM      3  C4  UNL d   1      -0.296  -2.846   0.640  0.00  0.00    -0.003 A 
ATOM      4  C5  UNL d   1       0.589  -2.401  -0.335  0.00  0.00     0.000 A 
ATOM      5  C6  UNL d   1       0.695  -1.037  -0.608  0.00  0.00     0.000 A 
ATOM      6  C7  UNL d   1      -0.085  -0.099   0.089  0.00  0.00    -0.073 A 
ATOM      7  C8  UNL d   1       0.065   1.359  -0.251  0.00  0.00     0.078 C 
ENDROOT
BRANCH   1   8
ATOM      8  C1  UNL d   1      -1.912   0.391   1.815  0.00  0.00     0.053 C 
ATOM      9  C   UNL d   1      -2.053   0.009   3.281  0.00  0.00     0.018 C 
ENDBRANCH   1   8
TORSDOF 1
ENDMDL
