MODEL 1
REMARK minimizedAffinity -1.1548624
REMARK minimizedRMSD -1
REMARK  0 active torsions:
REMARK  status: ('A' for Active; 'I' for Inactive)
ROOT
ATOM      1  C4' PXY d   1      -3.291   0.624  -0.513  0.00  0.00     0.077 C 
ATOM      2  C1' PXY d   1       2.172   0.996   1.341  0.00  0.00     0.077 C 
ATOM      3  C1  PXY d   1       0.738   0.911   0.857  0.00  0.00    -0.082 A 
ATOM      4  C2  PXY d   1       0.099  -0.247   0.904  0.00  0.00     0.003 A 
ATOM      5  C3  PXY d   1      -1.188  -0.348   0.441  0.00  0.00     0.003 A 
ATOM      6  C4  PXY d   1      -1.845   0.758  -0.026  0.00  0.00    -0.082 A 
ATOM      7  C5  PXY d   1      -1.203   1.945  -0.068  0.00  0.00     0.003 A 
ATOM      8  C6  PXY d   1       0.116   2.018   0.369  0.00  0.00     0.003 A 
ENDROOT
TORSDOF 0
ENDMDL
