MODEL 1
REMARK minimizedAffinity -5.08239603
REMARK minimizedRMSD -1
REMARK  0 active torsions:
REMARK  status: ('A' for Active; 'I' for Inactive)
ROOT
ATOM      1  C4' PXY d   1       2.464  -2.022  -1.074  0.00  0.00     0.077 C 
ATOM      2  C1' PXY d   1      -2.284   0.955   0.341  0.00  0.00     0.077 C 
ATOM      3  C1  PXY d   1      -1.031   0.184  -0.025  0.00  0.00    -0.082 A 
ATOM      4  C2  PXY d   1      -1.074  -0.707  -1.002  0.00  0.00     0.003 A 
ATOM      5  C3  PXY d   1       0.041  -1.437  -1.325  0.00  0.00     0.003 A 
ATOM      6  C4  PXY d   1       1.226  -1.213  -0.677  0.00  0.00    -0.082 A 
ATOM      7  C5  PXY d   1       1.281  -0.298   0.314  0.00  0.00     0.003 A 
ATOM      8  C6  PXY d   1       0.127   0.402   0.655  0.00  0.00     0.003 A 
ENDROOT
TORSDOF 0
ENDMDL
