MODEL 1
REMARK minimizedAffinity -4.8888731
REMARK minimizedRMSD -1
REMARK  0 active torsions:
REMARK  status: ('A' for Active; 'I' for Inactive)
ROOT
ATOM      1  C4' PXY d   1       0.304  -3.051  -1.422  0.00  0.00     0.077 C 
ATOM      2  C1' PXY d   1       3.320   1.314   0.872  0.00  0.00     0.077 C 
ATOM      3  C1  PXY d   1       2.518   0.174   0.277  0.00  0.00    -0.082 A 
ATOM      4  C2  PXY d   1       3.137  -0.933  -0.102  0.00  0.00     0.003 A 
ATOM      5  C3  PXY d   1       2.432  -1.961  -0.672  0.00  0.00     0.003 A 
ATOM      6  C4  PXY d   1       1.072  -1.878  -0.807  0.00  0.00    -0.082 A 
ATOM      7  C5  PXY d   1       0.432  -0.756  -0.413  0.00  0.00     0.003 A 
ATOM      8  C6  PXY d   1       1.171   0.293   0.125  0.00  0.00     0.003 A 
ENDROOT
TORSDOF 0
ENDMDL
