MODEL 1
REMARK minimizedAffinity -4.44283247
REMARK minimizedRMSD -1
REMARK  0 active torsions:
REMARK  status: ('A' for Active; 'I' for Inactive)
ROOT
ATOM      1  C4' PXY d   1       2.549  -2.021   1.785  0.00  0.00     0.077 C 
ATOM      2  C1' PXY d   1      -1.209   1.124  -1.282  0.00  0.00     0.077 C 
ATOM      3  C1  PXY d   1      -0.226   0.289  -0.485  0.00  0.00    -0.082 A 
ATOM      4  C2  PXY d   1       0.116   0.669   0.735  0.00  0.00     0.003 A 
ATOM      5  C3  PXY d   1       1.027  -0.057   1.458  0.00  0.00     0.003 A 
ATOM      6  C4  PXY d   1       1.554  -1.213   0.947  0.00  0.00    -0.082 A 
ATOM      7  C5  PXY d   1       1.201  -1.614  -0.293  0.00  0.00     0.003 A 
ATOM      8  C6  PXY d   1       0.306  -0.840  -1.027  0.00  0.00     0.003 A 
ENDROOT
TORSDOF 0
ENDMDL
