MODEL 1
REMARK minimizedAffinity -3.8543067
REMARK minimizedRMSD -1
REMARK  0 active torsions:
REMARK  status: ('A' for Active; 'I' for Inactive)
ROOT
ATOM      1  C4' PXY d   1       3.407  -1.742   1.083  0.00  0.00     0.077 C 
ATOM      2  C1' PXY d   1      -1.758   0.067  -0.779  0.00  0.00     0.077 C 
ATOM      3  C1  PXY d   1      -0.407  -0.420  -0.293  0.00  0.00    -0.082 A 
ATOM      4  C2  PXY d   1       0.308   0.340   0.521  0.00  0.00     0.003 A 
ATOM      5  C3  PXY d   1       1.546  -0.071   0.945  0.00  0.00     0.003 A 
ATOM      6  C4  PXY d   1       2.034  -1.295   0.575  0.00  0.00    -0.082 A 
ATOM      7  C5  PXY d   1       1.306  -2.081  -0.247  0.00  0.00     0.003 A 
ATOM      8  C6  PXY d   1       0.070  -1.628  -0.699  0.00  0.00     0.003 A 
ENDROOT
TORSDOF 0
ENDMDL
