MODEL 1
REMARK minimizedAffinity -4.15959835
REMARK minimizedRMSD -1
REMARK  0 active torsions:
REMARK  status: ('A' for Active; 'I' for Inactive)
ROOT
ATOM      1  C4' PXY d   1       2.966  -1.627   0.635  0.00  0.00     0.077 C 
ATOM      2  C1' PXY d   1      -2.307   0.548  -0.307  0.00  0.00     0.077 C 
ATOM      3  C1  PXY d   1      -0.929  -0.034  -0.062  0.00  0.00    -0.082 A 
ATOM      4  C2  PXY d   1      -0.050   0.645   0.657  0.00  0.00     0.003 A 
ATOM      5  C3  PXY d   1       1.212   0.148   0.861  0.00  0.00     0.003 A 
ATOM      6  C4  PXY d   1       1.560  -1.082   0.370  0.00  0.00    -0.082 A 
ATOM      7  C5  PXY d   1       0.665  -1.786  -0.355  0.00  0.00     0.003 A 
ATOM      8  C6  PXY d   1      -0.597  -1.245  -0.586  0.00  0.00     0.003 A 
ENDROOT
TORSDOF 0
ENDMDL
