MODEL 1
REMARK minimizedAffinity -2.5081203
REMARK minimizedRMSD -1
REMARK  0 active torsions:
REMARK  status: ('A' for Active; 'I' for Inactive)
ROOT
ATOM      1  C4' PXY d   1       2.719  -2.281   1.296  0.00  0.00     0.077 C 
ATOM      2  C1' PXY d   1      -1.069   1.307  -1.192  0.00  0.00     0.077 C 
ATOM      3  C1  PXY d   1      -0.082   0.356  -0.544  0.00  0.00    -0.082 A 
ATOM      4  C2  PXY d   1       0.660   0.773   0.469  0.00  0.00     0.003 A 
ATOM      5  C3  PXY d   1       1.579  -0.064   1.047  0.00  0.00     0.003 A 
ATOM      6  C4  PXY d   1       1.704  -1.358   0.617  0.00  0.00    -0.082 A 
ATOM      7  C5  PXY d   1       0.943  -1.795  -0.409  0.00  0.00     0.003 A 
ATOM      8  C6  PXY d   1       0.044  -0.917  -1.008  0.00  0.00     0.003 A 
ENDROOT
TORSDOF 0
ENDMDL
