MODEL 1
REMARK minimizedAffinity -3.28661323
REMARK minimizedRMSD -1
REMARK  0 active torsions:
REMARK  status: ('A' for Active; 'I' for Inactive)
ROOT
ATOM      1  C4' PXY d   1      -2.272   1.141  -0.646  0.00  0.00     0.077 C 
ATOM      2  C1' PXY d   1       3.197  -0.264   0.589  0.00  0.00     0.077 C 
ATOM      3  C1  PXY d   1       1.765   0.116   0.270  0.00  0.00    -0.082 A 
ATOM      4  C2  PXY d   1       0.853  -0.832   0.127  0.00  0.00     0.003 A 
ATOM      5  C3  PXY d   1      -0.440  -0.507  -0.192  0.00  0.00     0.003 A 
ATOM      6  C4  PXY d   1      -0.816   0.804  -0.315  0.00  0.00    -0.082 A 
ATOM      7  C5  PXY d   1       0.107   1.777  -0.160  0.00  0.00     0.003 A 
ATOM      8  C6  PXY d   1       1.423   1.425   0.124  0.00  0.00     0.003 A 
ENDROOT
TORSDOF 0
ENDMDL
