MODEL 1
REMARK minimizedAffinity -3.29649353
REMARK minimizedRMSD -1
REMARK  0 active torsions:
REMARK  status: ('A' for Active; 'I' for Inactive)
ROOT
ATOM      1  C4' PXY d   1       2.389  -2.319  -1.083  0.00  0.00     0.077 C 
ATOM      2  C1' PXY d   1      -1.782   1.309   0.606  0.00  0.00     0.077 C 
ATOM      3  C1  PXY d   1      -0.680   0.364   0.171  0.00  0.00    -0.082 A 
ATOM      4  C2  PXY d   1      -0.759  -0.236  -1.006  0.00  0.00     0.003 A 
ATOM      5  C3  PXY d   1       0.213  -1.119  -1.401  0.00  0.00     0.003 A 
ATOM      6  C4  PXY d   1       1.304  -1.349  -0.607  0.00  0.00    -0.082 A 
ATOM      7  C5  PXY d   1       1.397  -0.733   0.591  0.00  0.00     0.003 A 
ATOM      8  C6  PXY d   1       0.379   0.128   0.992  0.00  0.00     0.003 A 
ENDROOT
TORSDOF 0
ENDMDL
