MODEL 1
REMARK minimizedAffinity -4.27942371
REMARK minimizedRMSD -1
REMARK  0 active torsions:
REMARK  status: ('A' for Active; 'I' for Inactive)
ROOT
ATOM      1  C4' PXY d   1       2.831  -1.727   0.298  0.00  0.00     0.077 C 
ATOM      2  C1' PXY d   1      -2.404   0.613  -0.430  0.00  0.00     0.077 C 
ATOM      3  C1  PXY d   1      -1.036  -0.012  -0.240  0.00  0.00    -0.082 A 
ATOM      4  C2  PXY d   1      -0.084   0.671   0.373  0.00  0.00     0.003 A 
ATOM      5  C3  PXY d   1       1.168   0.133   0.526  0.00  0.00     0.003 A 
ATOM      6  C4  PXY d   1       1.433  -1.139   0.093  0.00  0.00    -0.082 A 
ATOM      7  C5  PXY d   1       0.463  -1.847  -0.524  0.00  0.00     0.003 A 
ATOM      8  C6  PXY d   1      -0.789  -1.267  -0.706  0.00  0.00     0.003 A 
ENDROOT
TORSDOF 0
ENDMDL
