MODEL 1
REMARK minimizedAffinity -4.85467339
REMARK minimizedRMSD -1
REMARK  0 active torsions:
REMARK  status: ('A' for Active; 'I' for Inactive)
ROOT
ATOM      1  C4' PXY d   1      -1.871   0.681  -0.549  0.00  0.00     0.077 C 
ATOM      2  C1' PXY d   1       3.488  -1.339   0.235  0.00  0.00     0.077 C 
ATOM      3  C1  PXY d   1       2.085  -0.799   0.037  0.00  0.00    -0.082 A 
ATOM      4  C2  PXY d   1       1.094  -1.634  -0.229  0.00  0.00     0.003 A 
ATOM      5  C3  PXY d   1      -0.174  -1.159  -0.443  0.00  0.00     0.003 A 
ATOM      6  C4  PXY d   1      -0.441   0.179  -0.332  0.00  0.00    -0.082 A 
ATOM      7  C5  PXY d   1       0.563   1.037  -0.050  0.00  0.00     0.003 A 
ATOM      8  C6  PXY d   1       1.851   0.539   0.123  0.00  0.00     0.003 A 
ENDROOT
TORSDOF 0
ENDMDL
