MODEL 1
REMARK minimizedAffinity -5.21115732
REMARK minimizedRMSD -1
REMARK  0 active torsions:
REMARK  status: ('A' for Active; 'I' for Inactive)
ROOT
ATOM      1  C4' PXY d   1      -1.807   0.383  -0.997  0.00  0.00     0.077 C 
ATOM      2  C1' PXY d   1       3.269  -1.154   1.303  0.00  0.00     0.077 C 
ATOM      3  C1  PXY d   1       1.939  -0.760   0.691  0.00  0.00    -0.082 A 
ATOM      4  C2  PXY d   1       1.491   0.476   0.839  0.00  0.00     0.003 A 
ATOM      5  C3  PXY d   1       0.275   0.840   0.319  0.00  0.00     0.003 A 
ATOM      6  C4  PXY d   1      -0.465  -0.056  -0.404  0.00  0.00    -0.082 A 
ATOM      7  C5  PXY d   1      -0.010  -1.316  -0.568  0.00  0.00     0.003 A 
ATOM      8  C6  PXY d   1       1.207  -1.677   0.002  0.00  0.00     0.003 A 
ENDROOT
TORSDOF 0
ENDMDL
