MODEL 1
REMARK minimizedAffinity 13.3471775
REMARK minimizedRMSD -1
REMARK  0 active torsions:
REMARK  status: ('A' for Active; 'I' for Inactive)
ROOT
ATOM      1  C   UNL d   1       4.503  -5.002  -5.048  0.00  0.00     0.077 C 
ATOM      2  C1  UNL d   1       4.526  -4.905  -3.551  0.00  0.00    -0.074 A 
ATOM      3  C2  UNL d   1       4.902  -6.000  -2.766  0.00  0.00    -0.005 A 
ATOM      4  C3  UNL d   1       4.927  -5.892  -1.375  0.00  0.00     0.006 A 
ATOM      5  C4  UNL d   1       4.578  -4.691  -0.757  0.00  0.00    -0.005 A 
ATOM      6  C5  UNL d   1       4.201  -3.585  -1.526  0.00  0.00    -0.074 A 
ATOM      7  C6  UNL d   1       3.832  -2.284  -0.878  0.00  0.00     0.077 C 
ATOM      8  C7  UNL d   1       4.184  -3.699  -2.923  0.00  0.00    -0.001 A 
ENDROOT
TORSDOF 0
ENDMDL
