MODEL 1
REMARK minimizedAffinity 20.2114029
REMARK minimizedRMSD -1
REMARK  0 active torsions:
REMARK  status: ('A' for Active; 'I' for Inactive)
ROOT
ATOM      1  C   UNL d   1       4.355  -5.259  -4.878  0.00  0.00     0.077 C 
ATOM      2  C1  UNL d   1       4.529  -5.043  -3.404  0.00  0.00    -0.074 A 
ATOM      3  C2  UNL d   1       4.096  -6.000  -2.481  0.00  0.00    -0.005 A 
ATOM      4  C3  UNL d   1       4.273  -5.789  -1.114  0.00  0.00     0.006 A 
ATOM      5  C4  UNL d   1       4.884  -4.620  -0.657  0.00  0.00    -0.005 A 
ATOM      6  C5  UNL d   1       5.325  -3.653  -1.565  0.00  0.00    -0.074 A 
ATOM      7  C6  UNL d   1       5.992  -2.396  -1.091  0.00  0.00     0.077 C 
ATOM      8  C7  UNL d   1       5.149  -3.875  -2.938  0.00  0.00    -0.001 A 
ENDROOT
TORSDOF 0
ENDMDL
