MODEL 1
REMARK minimizedAffinity 6.34876919
REMARK minimizedRMSD -1
REMARK  0 active torsions:
REMARK  status: ('A' for Active; 'I' for Inactive)
ROOT
ATOM      1  C   UNL d   1      -4.814   0.455   2.901  0.00  0.00     0.077 C 
ATOM      2  C1  UNL d   1      -4.827  -0.578   3.987  0.00  0.00    -0.074 A 
ATOM      3  C2  UNL d   1      -6.000  -0.863   4.694  0.00  0.00    -0.005 A 
ATOM      4  C3  UNL d   1      -5.999  -1.834   5.696  0.00  0.00     0.006 A 
ATOM      5  C4  UNL d   1      -4.828  -2.529   6.000  0.00  0.00    -0.005 A 
ATOM      6  C5  UNL d   1      -3.646  -2.258   5.303  0.00  0.00    -0.074 A 
ATOM      7  C6  UNL d   1      -2.381  -3.003   5.611  0.00  0.00     0.077 C 
ATOM      8  C7  UNL d   1      -3.656  -1.286   4.293  0.00  0.00    -0.001 A 
ENDROOT
TORSDOF 0
ENDMDL
