MODEL 1
REMARK minimizedAffinity 2.99701309
REMARK minimizedRMSD -1
REMARK  0 active torsions:
REMARK  status: ('A' for Active; 'I' for Inactive)
ROOT
ATOM      1  C   UNL d   1      -1.786   4.509  -2.211  0.00  0.00     0.077 C 
ATOM      2  C1  UNL d   1      -3.255   4.409  -2.497  0.00  0.00    -0.074 A 
ATOM      3  C2  UNL d   1      -4.093   3.635  -1.688  0.00  0.00    -0.005 A 
ATOM      4  C3  UNL d   1      -5.459   3.558  -1.961  0.00  0.00     0.006 A 
ATOM      5  C4  UNL d   1      -5.999   4.253  -3.044  0.00  0.00    -0.005 A 
ATOM      6  C5  UNL d   1      -5.177   5.033  -3.863  0.00  0.00    -0.074 A 
ATOM      7  C6  UNL d   1      -5.743   5.794  -5.025  0.00  0.00     0.077 C 
ATOM      8  C7  UNL d   1      -3.807   5.110  -3.578  0.00  0.00    -0.001 A 
ENDROOT
TORSDOF 0
ENDMDL
