MODEL 1
REMARK minimizedAffinity 6.68443155
REMARK minimizedRMSD -1
REMARK  0 active torsions:
REMARK  status: ('A' for Active; 'I' for Inactive)
ROOT
ATOM      1  C   UNL d   1      -2.634  -6.000  -4.688  0.00  0.00     0.077 C 
ATOM      2  C1  UNL d   1      -1.732  -5.244  -3.759  0.00  0.00    -0.074 A 
ATOM      3  C2  UNL d   1      -1.859  -3.860  -3.601  0.00  0.00    -0.005 A 
ATOM      4  C3  UNL d   1      -1.019  -3.173  -2.725  0.00  0.00     0.006 A 
ATOM      5  C4  UNL d   1      -0.045  -3.860  -2.001  0.00  0.00    -0.005 A 
ATOM      6  C5  UNL d   1       0.097  -5.244  -2.145  0.00  0.00    -0.074 A 
ATOM      7  C6  UNL d   1       1.132  -6.000  -1.367  0.00  0.00     0.077 C 
ATOM      8  C7  UNL d   1      -0.756  -5.929  -3.022  0.00  0.00    -0.001 A 
ENDROOT
TORSDOF 0
ENDMDL
