MODEL 1
REMARK minimizedAffinity 5.3490448
REMARK minimizedRMSD -1
REMARK  0 active torsions:
REMARK  status: ('A' for Active; 'I' for Inactive)
ROOT
ATOM      1  C   UNL d   1       0.394   3.744  -0.079  0.00  0.00     0.077 C 
ATOM      2  C1  UNL d   1      -0.228   4.507  -1.211  0.00  0.00    -0.074 A 
ATOM      3  C2  UNL d   1      -1.580   4.864  -1.181  0.00  0.00    -0.005 A 
ATOM      4  C3  UNL d   1      -2.141   5.582  -2.236  0.00  0.00     0.006 A 
ATOM      5  C4  UNL d   1      -1.358   5.950  -3.331  0.00  0.00    -0.005 A 
ATOM      6  C5  UNL d   1      -0.004   5.603  -3.378  0.00  0.00    -0.074 A 
ATOM      7  C6  UNL d   1       0.854   6.000  -4.543  0.00  0.00     0.077 C 
ATOM      8  C7  UNL d   1       0.555   4.888  -2.311  0.00  0.00    -0.001 A 
ENDROOT
TORSDOF 0
ENDMDL
