MODEL 1
REMARK minimizedAffinity 7.49261808
REMARK minimizedRMSD -1
REMARK  0 active torsions:
REMARK  status: ('A' for Active; 'I' for Inactive)
ROOT
ATOM      1  C   UNL d   1      -5.972   2.272  -5.992  0.00  0.00     0.077 C 
ATOM      2  C1  UNL d   1      -5.976   1.742  -4.589  0.00  0.00    -0.074 A 
ATOM      3  C2  UNL d   1      -5.995   0.366  -4.340  0.00  0.00    -0.005 A 
ATOM      4  C3  UNL d   1      -5.988  -0.112  -3.029  0.00  0.00     0.006 A 
ATOM      5  C4  UNL d   1      -5.963   0.780  -1.957  0.00  0.00    -0.005 A 
ATOM      6  C5  UNL d   1      -5.943   2.159  -2.186  0.00  0.00    -0.074 A 
ATOM      7  C6  UNL d   1      -5.906   3.131  -1.044  0.00  0.00     0.077 C 
ATOM      8  C7  UNL d   1      -5.943   2.632  -3.506  0.00  0.00    -0.001 A 
ENDROOT
TORSDOF 0
ENDMDL
