MODEL 1
REMARK minimizedAffinity -2.08096623
REMARK minimizedRMSD -1
REMARK  0 active torsions:
REMARK  status: ('A' for Active; 'I' for Inactive)
ROOT
ATOM      1  O1  BZF d   1       5.801  -5.841   4.000  0.00  0.00    -0.204 OA
ATOM      2  C2  BZF d   1       5.728  -6.000   5.370  0.00  0.00     0.174 A 
ATOM      3  C3  BZF d   1       5.790  -4.806   5.994  0.00  0.00    -0.012 A 
ATOM      4  C3A BZF d   1       5.815  -3.834   4.945  0.00  0.00    -0.107 A 
ATOM      5  C4  BZF d   1       5.859  -2.469   4.931  0.00  0.00     0.055 A 
ATOM      6  C5  BZF d   1       5.947  -1.823   3.739  0.00  0.00    -0.016 A 
ATOM      7  C6  BZF d   1       6.000  -2.510   2.543  0.00  0.00     0.022 A 
ATOM      8  C7  BZF d   1       5.954  -3.864   2.506  0.00  0.00     0.029 A 
ATOM      9  C7A BZF d   1       5.831  -4.518   3.708  0.00  0.00     0.058 A 
ENDROOT
TORSDOF 0
ENDMDL
