MODEL 1
REMARK minimizedAffinity -3.71223521
REMARK minimizedRMSD -1
REMARK  0 active torsions:
REMARK  status: ('A' for Active; 'I' for Inactive)
ROOT
ATOM      1  O1  BZF d   1       5.981  -3.940   2.211  0.00  0.00    -0.204 OA
ATOM      2  C2  BZF d   1       6.000  -5.304   1.992  0.00  0.00     0.174 A 
ATOM      3  C3  BZF d   1       5.623  -5.972   3.101  0.00  0.00    -0.012 A 
ATOM      4  C3A BZF d   1       5.263  -4.959   4.046  0.00  0.00    -0.107 A 
ATOM      5  C4  BZF d   1       4.794  -4.996   5.328  0.00  0.00     0.055 A 
ATOM      6  C5  BZF d   1       4.612  -3.828   5.998  0.00  0.00    -0.016 A 
ATOM      7  C6  BZF d   1       4.894  -2.607   5.420  0.00  0.00     0.022 A 
ATOM      8  C7  BZF d   1       5.357  -2.521   4.149  0.00  0.00     0.029 A 
ATOM      9  C7A BZF d   1       5.510  -3.697   3.458  0.00  0.00     0.058 A 
ENDROOT
TORSDOF 0
ENDMDL
