MODEL 1
REMARK minimizedAffinity -4.03394747
REMARK minimizedRMSD -1
REMARK  0 active torsions:
REMARK  status: ('A' for Active; 'I' for Inactive)
ROOT
ATOM      1  O1  BZF d   1       5.275  -2.036   5.018  0.00  0.00    -0.204 OA
ATOM      2  C2  BZF d   1       5.150  -3.001   5.999  0.00  0.00     0.174 A 
ATOM      3  C3  BZF d   1       5.264  -4.237   5.472  0.00  0.00    -0.012 A 
ATOM      4  C3A BZF d   1       5.566  -4.030   4.089  0.00  0.00    -0.107 A 
ATOM      5  C4  BZF d   1       5.809  -4.875   3.045  0.00  0.00     0.055 A 
ATOM      6  C5  BZF d   1       5.998  -4.355   1.804  0.00  0.00    -0.016 A 
ATOM      7  C6  BZF d   1       5.947  -2.996   1.571  0.00  0.00     0.022 A 
ATOM      8  C7  BZF d   1       5.715  -2.118   2.577  0.00  0.00     0.029 A 
ATOM      9  C7A BZF d   1       5.555  -2.639   3.837  0.00  0.00     0.058 A 
ENDROOT
TORSDOF 0
ENDMDL
