MODEL 1
REMARK minimizedAffinity -3.37266588
REMARK minimizedRMSD -1
REMARK  0 active torsions:
REMARK  status: ('A' for Active; 'I' for Inactive)
ROOT
ATOM      1  O1  BZF d   1       5.438  -5.362   4.720  0.00  0.00    -0.204 OA
ATOM      2  C2  BZF d   1       5.299  -4.824   5.985  0.00  0.00     0.174 A 
ATOM      3  C3  BZF d   1       5.445  -3.484   5.954  0.00  0.00    -0.012 A 
ATOM      4  C3A BZF d   1       5.599  -3.154   4.570  0.00  0.00    -0.107 A 
ATOM      5  C4  BZF d   1       5.768  -1.977   3.898  0.00  0.00     0.055 A 
ATOM      6  C5  BZF d   1       5.960  -2.006   2.553  0.00  0.00    -0.016 A 
ATOM      7  C6  BZF d   1       5.995  -3.192   1.850  0.00  0.00     0.022 A 
ATOM      8  C7  BZF d   1       5.827  -4.385   2.472  0.00  0.00     0.029 A 
ATOM      9  C7A BZF d   1       5.600  -4.357   3.826  0.00  0.00     0.058 A 
ENDROOT
TORSDOF 0
ENDMDL
