MODEL 1
REMARK minimizedAffinity -0.244792342
REMARK minimizedRMSD -1
REMARK  0 active torsions:
REMARK  status: ('A' for Active; 'I' for Inactive)
ROOT
ATOM      1  O1  BZF d   1       6.000  -2.478   2.215  0.00  0.00    -0.204 OA
ATOM      2  C2  BZF d   1       5.990  -3.667   1.513  0.00  0.00     0.174 A 
ATOM      3  C3  BZF d   1       5.999  -4.720   2.356  0.00  0.00    -0.012 A 
ATOM      4  C3A BZF d   1       5.921  -4.153   3.667  0.00  0.00    -0.107 A 
ATOM      5  C4  BZF d   1       5.877  -4.691   4.922  0.00  0.00     0.055 A 
ATOM      6  C5  BZF d   1       5.878  -3.860   5.997  0.00  0.00    -0.016 A 
ATOM      7  C6  BZF d   1       5.928  -2.488   5.855  0.00  0.00     0.022 A 
ATOM      8  C7  BZF d   1       5.968  -1.908   4.630  0.00  0.00     0.029 A 
ATOM      9  C7A BZF d   1       5.934  -2.744   3.541  0.00  0.00     0.058 A 
ENDROOT
TORSDOF 0
ENDMDL
