MODEL 1
REMARK minimizedAffinity -3.24139309
REMARK minimizedRMSD -1
REMARK  0 active torsions:
REMARK  status: ('A' for Active; 'I' for Inactive)
ROOT
ATOM      1  O1  BZF d   1       5.971  -5.504   4.796  0.00  0.00    -0.204 OA
ATOM      2  C2  BZF d   1       5.956  -4.825   5.999  0.00  0.00     0.174 A 
ATOM      3  C3  BZF d   1       6.000  -3.493   5.797  0.00  0.00    -0.012 A 
ATOM      4  C3A BZF d   1       5.951  -3.326   4.377  0.00  0.00    -0.107 A 
ATOM      5  C4  BZF d   1       5.946  -2.232   3.559  0.00  0.00     0.055 A 
ATOM      6  C5  BZF d   1       5.966  -2.413   2.213  0.00  0.00    -0.016 A 
ATOM      7  C6  BZF d   1       5.997  -3.672   1.650  0.00  0.00     0.022 A 
ATOM      8  C7  BZF d   1       5.998  -4.788   2.420  0.00  0.00     0.029 A 
ATOM      9  C7A BZF d   1       5.944  -4.608   3.781  0.00  0.00     0.058 A 
ENDROOT
TORSDOF 0
ENDMDL
