MODEL 1
REMARK minimizedAffinity -3.16333914
REMARK minimizedRMSD -1
REMARK  0 active torsions:
REMARK  status: ('A' for Active; 'I' for Inactive)
ROOT
ATOM      1  O1  BZF d   1       5.904  -3.407   2.331  0.00  0.00    -0.204 OA
ATOM      2  C2  BZF d   1       6.000  -4.671   1.780  0.00  0.00     0.174 A 
ATOM      3  C3  BZF d   1       5.655  -5.613   2.681  0.00  0.00    -0.012 A 
ATOM      4  C3A BZF d   1       5.234  -4.888   3.841  0.00  0.00    -0.107 A 
ATOM      5  C4  BZF d   1       4.760  -5.268   5.064  0.00  0.00     0.055 A 
ATOM      6  C5  BZF d   1       4.510  -4.315   6.000  0.00  0.00    -0.016 A 
ATOM      7  C6  BZF d   1       4.726  -2.976   5.748  0.00  0.00     0.022 A 
ATOM      8  C7  BZF d   1       5.190  -2.551   4.548  0.00  0.00     0.029 A 
ATOM      9  C7A BZF d   1       5.413  -3.508   3.589  0.00  0.00     0.058 A 
ENDROOT
TORSDOF 0
ENDMDL
