MODEL 1
REMARK minimizedAffinity -3.09119534
REMARK minimizedRMSD -1
REMARK  0 active torsions:
REMARK  status: ('A' for Active; 'I' for Inactive)
ROOT
ATOM      1  O1  BZF d   1       4.861  -2.676   5.175  0.00  0.00    -0.204 OA
ATOM      2  C2  BZF d   1       4.598  -3.753   5.998  0.00  0.00     0.174 A 
ATOM      3  C3  BZF d   1       4.775  -4.915   5.337  0.00  0.00    -0.012 A 
ATOM      4  C3A BZF d   1       5.263  -4.543   4.045  0.00  0.00    -0.107 A 
ATOM      5  C4  BZF d   1       5.640  -5.255   2.943  0.00  0.00     0.055 A 
ATOM      6  C5  BZF d   1       6.000  -4.587   1.816  0.00  0.00    -0.016 A 
ATOM      7  C6  BZF d   1       5.989  -3.209   1.754  0.00  0.00     0.022 A 
ATOM      8  C7  BZF d   1       5.628  -2.459   2.824  0.00  0.00     0.029 A 
ATOM      9  C7A BZF d   1       5.295  -3.131   3.975  0.00  0.00     0.058 A 
ENDROOT
TORSDOF 0
ENDMDL
