MODEL 1
REMARK minimizedAffinity -3.57988119
REMARK minimizedRMSD -1
REMARK  0 active torsions:
REMARK  status: ('A' for Active; 'I' for Inactive)
ROOT
ATOM      1  O1  BZF d   1       5.554  -2.593   6.000  0.00  0.00    -0.204 OA
ATOM      2  C2  BZF d   1       5.636  -1.513   5.143  0.00  0.00     0.174 A 
ATOM      3  C3  BZF d   1       5.870  -1.921   3.879  0.00  0.00    -0.012 A 
ATOM      4  C3A BZF d   1       5.847  -3.350   3.935  0.00  0.00    -0.107 A 
ATOM      5  C4  BZF d   1       5.999  -4.329   2.995  0.00  0.00     0.055 A 
ATOM      6  C5  BZF d   1       5.994  -5.630   3.390  0.00  0.00    -0.016 A 
ATOM      7  C6  BZF d   1       5.845  -5.987   4.714  0.00  0.00     0.022 A 
ATOM      8  C7  BZF d   1       5.685  -5.051   5.681  0.00  0.00     0.029 A 
ATOM      9  C7A BZF d   1       5.656  -3.737   5.282  0.00  0.00     0.058 A 
ENDROOT
TORSDOF 0
ENDMDL
