MODEL 1
REMARK minimizedAffinity -3.40481544
REMARK minimizedRMSD -1
REMARK  0 active torsions:
REMARK  status: ('A' for Active; 'I' for Inactive)
ROOT
ATOM      1  O1  BZF d   1       5.643  -5.215   2.527  0.00  0.00    -0.204 OA
ATOM      2  C2  BZF d   1       6.000  -4.213   1.645  0.00  0.00     0.174 A 
ATOM      3  C3  BZF d   1       5.960  -3.008   2.249  0.00  0.00    -0.012 A 
ATOM      4  C3A BZF d   1       5.642  -3.283   3.617  0.00  0.00    -0.107 A 
ATOM      5  C4  BZF d   1       5.478  -2.494   4.719  0.00  0.00     0.055 A 
ATOM      6  C5  BZF d   1       5.099  -3.068   5.891  0.00  0.00    -0.016 A 
ATOM      7  C6  BZF d   1       4.870  -4.424   5.996  0.00  0.00     0.022 A 
ATOM      8  C7  BZF d   1       5.026  -5.248   4.931  0.00  0.00     0.029 A 
ATOM      9  C7A BZF d   1       5.441  -4.676   3.753  0.00  0.00     0.058 A 
ENDROOT
TORSDOF 0
ENDMDL
