MODEL 1
REMARK minimizedAffinity 0.562240779
REMARK minimizedRMSD -1
REMARK  0 active torsions:
REMARK  status: ('A' for Active; 'I' for Inactive)
ROOT
ATOM      1  O1  BZF d   1       4.817  -5.641   3.963  0.00  0.00    -0.204 OA
ATOM      2  C2  BZF d   1       3.789  -5.469   4.870  0.00  0.00     0.174 A 
ATOM      3  C3  BZF d   1       3.388  -4.182   4.900  0.00  0.00    -0.012 A 
ATOM      4  C3A BZF d   1       4.154  -3.525   3.886  0.00  0.00    -0.107 A 
ATOM      5  C4  BZF d   1       4.197  -2.240   3.426  0.00  0.00     0.055 A 
ATOM      6  C5  BZF d   1       5.110  -1.909   2.476  0.00  0.00    -0.016 A 
ATOM      7  C6  BZF d   1       5.998  -2.834   1.968  0.00  0.00     0.022 A 
ATOM      8  C7  BZF d   1       5.991  -4.122   2.390  0.00  0.00     0.029 A 
ATOM      9  C7A BZF d   1       5.047  -4.468   3.327  0.00  0.00     0.058 A 
ENDROOT
TORSDOF 0
ENDMDL
