MODEL 1
REMARK minimizedAffinity 9.54609776
REMARK minimizedRMSD -1
REMARK  0 active torsions:
REMARK  status: ('A' for Active; 'I' for Inactive)
ROOT
ATOM      1  O1  BZF d   1       2.123   5.083   2.085  0.00  0.00    -0.204 OA
ATOM      2  C2  BZF d   1       2.964   4.443   1.196  0.00  0.00     0.174 A 
ATOM      3  C3  BZF d   1       2.287   3.529   0.471  0.00  0.00    -0.012 A 
ATOM      4  C3A BZF d   1       0.920   3.668   0.871  0.00  0.00    -0.107 A 
ATOM      5  C4  BZF d   1      -0.236   3.046   0.495  0.00  0.00     0.055 A 
ATOM      6  C5  BZF d   1      -1.394   3.364   1.132  0.00  0.00    -0.016 A 
ATOM      7  C6  BZF d   1      -1.430   4.292   2.152  0.00  0.00     0.022 A 
ATOM      8  C7  BZF d   1      -0.310   4.938   2.556  0.00  0.00     0.029 A 
ATOM      9  C7A BZF d   1       0.856   4.644   1.892  0.00  0.00     0.058 A 
ENDROOT
TORSDOF 0
ENDMDL
