MODEL 1
REMARK minimizedAffinity -3.85054708
REMARK minimizedRMSD -1
REMARK  0 active torsions:
REMARK  status: ('A' for Active; 'I' for Inactive)
ROOT
ATOM      1  O1  BZF d   1       5.053  -5.642   4.161  0.00  0.00    -0.204 OA
ATOM      2  C2  BZF d   1       4.847  -5.380   5.501  0.00  0.00     0.174 A 
ATOM      3  C3  BZF d   1       5.090  -4.083   5.778  0.00  0.00    -0.012 A 
ATOM      4  C3A BZF d   1       5.382  -3.477   4.515  0.00  0.00    -0.107 A 
ATOM      5  C4  BZF d   1       5.689  -2.202   4.134  0.00  0.00     0.055 A 
ATOM      6  C5  BZF d   1       5.990  -1.956   2.832  0.00  0.00    -0.016 A 
ATOM      7  C6  BZF d   1       5.999  -2.961   1.887  0.00  0.00     0.022 A 
ATOM      8  C7  BZF d   1       5.697  -4.240   2.216  0.00  0.00     0.029 A 
ATOM      9  C7A BZF d   1       5.359  -4.486   3.525  0.00  0.00     0.058 A 
ENDROOT
TORSDOF 0
ENDMDL
