MODEL 1
REMARK minimizedAffinity -3.31049061
REMARK minimizedRMSD -1
REMARK  0 active torsions:
REMARK  status: ('A' for Active; 'I' for Inactive)
ROOT
ATOM      1  O1  BZF d   1       4.837  -2.569   4.963  0.00  0.00    -0.204 OA
ATOM      2  C2  BZF d   1       4.590  -1.784   3.854  0.00  0.00     0.174 A 
ATOM      3  C3  BZF d   1       4.882  -2.453   2.720  0.00  0.00    -0.012 A 
ATOM      4  C3A BZF d   1       5.253  -3.768   3.144  0.00  0.00    -0.107 A 
ATOM      5  C4  BZF d   1       5.635  -4.897   2.477  0.00  0.00     0.055 A 
ATOM      6  C5  BZF d   1       6.000  -5.994   3.190  0.00  0.00    -0.016 A 
ATOM      7  C6  BZF d   1       6.000  -5.996   4.570  0.00  0.00     0.022 A 
ATOM      8  C7  BZF d   1       5.624  -4.902   5.276  0.00  0.00     0.029 A 
ATOM      9  C7A BZF d   1       5.223  -3.802   4.557  0.00  0.00     0.058 A 
ENDROOT
TORSDOF 0
ENDMDL
