MODEL 1
REMARK minimizedAffinity -3.44168115
REMARK minimizedRMSD -1
REMARK  0 active torsions:
REMARK  status: ('A' for Active; 'I' for Inactive)
ROOT
ATOM      1  O1  BZF d   1       6.000  -2.581   3.840  0.00  0.00    -0.204 OA
ATOM      2  C2  BZF d   1       5.797  -3.044   5.126  0.00  0.00     0.174 A 
ATOM      3  C3  BZF d   1       5.499  -4.359   5.120  0.00  0.00    -0.012 A 
ATOM      4  C3A BZF d   1       5.608  -4.763   3.751  0.00  0.00    -0.107 A 
ATOM      5  C4  BZF d   1       5.446  -5.957   3.109  0.00  0.00     0.055 A 
ATOM      6  C5  BZF d   1       5.552  -5.999   1.755  0.00  0.00    -0.016 A 
ATOM      7  C6  BZF d   1       5.814  -4.867   1.012  0.00  0.00     0.022 A 
ATOM      8  C7  BZF d   1       5.988  -3.660   1.605  0.00  0.00     0.029 A 
ATOM      9  C7A BZF d   1       5.913  -3.621   2.976  0.00  0.00     0.058 A 
ENDROOT
TORSDOF 0
ENDMDL
