MODEL 1
REMARK minimizedAffinity -3.93384147
REMARK minimizedRMSD -1
REMARK  0 active torsions:
REMARK  status: ('A' for Active; 'I' for Inactive)
ROOT
ATOM      1  O1  BZF d   1       5.900  -5.443   2.585  0.00  0.00    -0.204 OA
ATOM      2  C2  BZF d   1       5.999  -4.530   1.554  0.00  0.00     0.174 A 
ATOM      3  C3  BZF d   1       5.665  -3.293   1.977  0.00  0.00    -0.012 A 
ATOM      4  C3A BZF d   1       5.426  -3.427   3.381  0.00  0.00    -0.107 A 
ATOM      5  C4  BZF d   1       5.074  -2.545   4.362  0.00  0.00     0.055 A 
ATOM      6  C5  BZF d   1       4.849  -3.010   5.619  0.00  0.00    -0.016 A 
ATOM      7  C6  BZF d   1       4.961  -4.349   5.928  0.00  0.00     0.022 A 
ATOM      8  C7  BZF d   1       5.313  -5.262   4.990  0.00  0.00     0.029 A 
ATOM      9  C7A BZF d   1       5.573  -4.791   3.726  0.00  0.00     0.058 A 
ENDROOT
TORSDOF 0
ENDMDL
