MODEL 1
REMARK minimizedAffinity -0.858317912
REMARK minimizedRMSD -1
REMARK  0 active torsions:
REMARK  status: ('A' for Active; 'I' for Inactive)
ROOT
ATOM      1  O1  BZF d   1       5.985  -4.557   2.052  0.00  0.00    -0.204 OA
ATOM      2  C2  BZF d   1       6.000  -3.332   1.413  0.00  0.00     0.174 A 
ATOM      3  C3  BZF d   1       5.945  -2.325   2.309  0.00  0.00    -0.012 A 
ATOM      4  C3A BZF d   1       5.985  -2.959   3.591  0.00  0.00    -0.107 A 
ATOM      5  C4  BZF d   1       5.977  -2.486   4.872  0.00  0.00     0.055 A 
ATOM      6  C5  BZF d   1       5.951  -3.372   5.902  0.00  0.00    -0.016 A 
ATOM      7  C6  BZF d   1       5.928  -4.735   5.688  0.00  0.00     0.022 A 
ATOM      8  C7  BZF d   1       5.941  -5.251   4.435  0.00  0.00     0.029 A 
ATOM      9  C7A BZF d   1       6.000  -4.359   3.392  0.00  0.00     0.058 A 
ENDROOT
TORSDOF 0
ENDMDL
