MODEL 1
REMARK minimizedAffinity -3.5646193
REMARK minimizedRMSD -1
REMARK  0 active torsions:
REMARK  status: ('A' for Active; 'I' for Inactive)
ROOT
ATOM      1  O1  BZF d   1       5.555  -5.640   4.793  0.00  0.00    -0.204 OA
ATOM      2  C2  BZF d   1       5.156  -5.085   5.994  0.00  0.00     0.174 A 
ATOM      3  C3  BZF d   1       5.021  -3.748   5.882  0.00  0.00    -0.012 A 
ATOM      4  C3A BZF d   1       5.269  -3.459   4.502  0.00  0.00    -0.107 A 
ATOM      5  C4  BZF d   1       5.267  -2.307   3.769  0.00  0.00     0.055 A 
ATOM      6  C5  BZF d   1       5.622  -2.357   2.459  0.00  0.00    -0.016 A 
ATOM      7  C6  BZF d   1       5.988  -3.540   1.851  0.00  0.00     0.022 A 
ATOM      8  C7  BZF d   1       6.000  -4.710   2.535  0.00  0.00     0.029 A 
ATOM      9  C7A BZF d   1       5.610  -4.667   3.852  0.00  0.00     0.058 A 
ENDROOT
TORSDOF 0
ENDMDL
