MODEL 1
REMARK minimizedAffinity -4.45891047
REMARK minimizedRMSD -1
REMARK  1 active torsions:
REMARK  status: ('A' for Active; 'I' for Inactive)
REMARK    1  A    between atoms: N_2  and  C1_3 
ROOT
ATOM      1  C1  UNL d   1      -0.210   0.127  -0.393  0.00  0.00     0.143 A 
ATOM      2  C2  UNL d   1       1.142  -0.194  -0.231  0.00  0.00    -0.057 A 
ATOM      3  C3  UNL d   1       1.649  -0.593   1.011  0.00  0.00     0.033 A 
ATOM      4  C4  UNL d   1       0.817  -0.650   2.124  0.00  0.00    -0.042 A 
ATOM      5  C5  UNL d   1      -0.525  -0.311   1.992  0.00  0.00     0.033 A 
ATOM      6  C6  UNL d   1      -1.028   0.080   0.747  0.00  0.00    -0.057 A 
ENDROOT
BRANCH   1   7
ATOM      7  N   UNL d   1      -0.755   0.624  -1.580  0.00  0.00    -0.732 N 
ATOM      8  C   UNL d   1      -0.205   1.810  -2.202  0.00  0.00     0.284 C 
ATOM      9  H3  UNL d   1      -0.998  -0.115  -2.235  0.00  0.00     0.395 HD
ENDBRANCH   1   7
TORSDOF 1
ENDMDL
