MODEL 1
REMARK minimizedAffinity -3.33533025
REMARK minimizedRMSD -1
REMARK  1 active torsions:
REMARK  status: ('A' for Active; 'I' for Inactive)
REMARK    1  A    between atoms: N_2  and  C1_3 
ROOT
ATOM      1  C1  UNL d   1       0.146   0.433  -0.344  0.00  0.00     0.143 A 
ATOM      2  C2  UNL d   1       1.261   0.476   0.499  0.00  0.00    -0.057 A 
ATOM      3  C3  UNL d   1       1.223  -0.081   1.783  0.00  0.00     0.033 A 
ATOM      4  C4  UNL d   1       0.055  -0.668   2.258  0.00  0.00    -0.042 A 
ATOM      5  C5  UNL d   1      -1.074  -0.700   1.446  0.00  0.00     0.033 A 
ATOM      6  C6  UNL d   1      -1.027  -0.148   0.163  0.00  0.00    -0.057 A 
ENDROOT
BRANCH   1   7
ATOM      7  N   UNL d   1       0.091   1.057  -1.593  0.00  0.00    -0.732 N 
ATOM      8  C   UNL d   1      -0.674   2.271  -1.778  0.00  0.00     0.284 C 
ATOM      9  H3  UNL d   1       0.992   1.057  -2.067  0.00  0.00     0.395 HD
ENDBRANCH   1   7
TORSDOF 1
ENDMDL
