MODEL 1
REMARK minimizedAffinity -3.3978138
REMARK minimizedRMSD -1
REMARK  1 active torsions:
REMARK  status: ('A' for Active; 'I' for Inactive)
REMARK    1  A    between atoms: N_2  and  C1_3 
ROOT
ATOM      1  C1  UNL d   1      -0.090   0.055   0.272  0.00  0.00     0.143 A 
ATOM      2  C2  UNL d   1       1.157   0.541   0.679  0.00  0.00    -0.057 A 
ATOM      3  C3  UNL d   1       1.755   0.102   1.867  0.00  0.00     0.033 A 
ATOM      4  C4  UNL d   1       1.099  -0.812   2.686  0.00  0.00    -0.042 A 
ATOM      5  C5  UNL d   1      -0.153  -1.289   2.313  0.00  0.00     0.033 A 
ATOM      6  C6  UNL d   1      -0.741  -0.852   1.122  0.00  0.00    -0.057 A 
ENDROOT
BRANCH   1   7
ATOM      7  N   UNL d   1      -0.780   0.526  -0.848  0.00  0.00    -0.732 N 
ATOM      8  C   UNL d   1      -0.368   1.747  -1.508  0.00  0.00     0.284 C 
ATOM      9  H3  UNL d   1      -1.044  -0.222  -1.485  0.00  0.00     0.395 HD
ENDBRANCH   1   7
TORSDOF 1
ENDMDL
