MODEL 1
REMARK minimizedAffinity -5.41590214
REMARK minimizedRMSD -1
REMARK  1 active torsions:
REMARK  status: ('A' for Active; 'I' for Inactive)
REMARK    1  A    between atoms: N_2  and  C1_3 
ROOT
ATOM      1  C1  UNL d   1      -0.114  -0.168  -0.024  0.00  0.00     0.143 A 
ATOM      2  C2  UNL d   1      -0.817  -0.059   1.181  0.00  0.00    -0.057 A 
ATOM      3  C3  UNL d   1      -0.197  -0.318   2.409  0.00  0.00     0.033 A 
ATOM      4  C4  UNL d   1       1.134  -0.719   2.452  0.00  0.00    -0.042 A 
ATOM      5  C5  UNL d   1       1.845  -0.857   1.265  0.00  0.00     0.033 A 
ATOM      6  C6  UNL d   1       1.222  -0.591   0.042  0.00  0.00    -0.057 A 
ENDROOT
BRANCH   1   7
ATOM      7  N   UNL d   1      -0.702  -0.020  -1.283  0.00  0.00    -0.732 N 
ATOM      8  C   UNL d   1      -0.696   1.263  -1.953  0.00  0.00     0.284 C 
ATOM      9  H3  UNL d   1      -0.511  -0.810  -1.896  0.00  0.00     0.395 HD
ENDBRANCH   1   7
TORSDOF 1
ENDMDL
