MODEL 1
REMARK minimizedAffinity -2.87837791
REMARK minimizedRMSD -1
REMARK  1 active torsions:
REMARK  status: ('A' for Active; 'I' for Inactive)
REMARK    1  A    between atoms: N_2  and  C1_3 
ROOT
ATOM      1  C1  UNL d   1      -0.090   0.619  -0.700  0.00  0.00     0.143 A 
ATOM      2  C2  UNL d   1       0.906  -0.291  -1.071  0.00  0.00    -0.057 A 
ATOM      3  C3  UNL d   1       1.529  -1.113  -0.124  0.00  0.00     0.033 A 
ATOM      4  C4  UNL d   1       1.184  -1.019   1.221  0.00  0.00    -0.042 A 
ATOM      5  C5  UNL d   1       0.215  -0.105   1.616  0.00  0.00     0.033 A 
ATOM      6  C6  UNL d   1      -0.408   0.709   0.665  0.00  0.00    -0.057 A 
ENDROOT
BRANCH   1   7
ATOM      7  N   UNL d   1      -0.676   1.532  -1.579  0.00  0.00    -0.732 N 
ATOM      8  C   UNL d   1       0.116   2.575  -2.195  0.00  0.00     0.284 C 
ATOM      9  H3  UNL d   1      -1.345   1.093  -2.207  0.00  0.00     0.395 HD
ENDBRANCH   1   7
TORSDOF 1
ENDMDL
