MODEL 1
REMARK minimizedAffinity -4.87518835
REMARK minimizedRMSD -1
REMARK  1 active torsions:
REMARK  status: ('A' for Active; 'I' for Inactive)
REMARK    1  A    between atoms: N_2  and  C1_3 
ROOT
ATOM      1  C1  UNL d   1       0.008  -0.193  -0.387  0.00  0.00     0.143 A 
ATOM      2  C2  UNL d   1      -0.673  -0.141   0.835  0.00  0.00    -0.057 A 
ATOM      3  C3  UNL d   1      -0.205  -0.834   1.957  0.00  0.00     0.033 A 
ATOM      4  C4  UNL d   1       0.940  -1.619   1.870  0.00  0.00    -0.042 A 
ATOM      5  C5  UNL d   1       1.619  -1.706   0.660  0.00  0.00     0.033 A 
ATOM      6  C6  UNL d   1       1.150  -1.006  -0.456  0.00  0.00    -0.057 A 
ENDROOT
BRANCH   1   7
ATOM      7  N   UNL d   1      -0.461   0.394  -1.564  0.00  0.00    -0.732 N 
ATOM      8  C   UNL d   1      -0.161   1.777  -1.868  0.00  0.00     0.284 C 
ATOM      9  H3  UNL d   1      -0.394  -0.232  -2.364  0.00  0.00     0.395 HD
ENDBRANCH   1   7
TORSDOF 1
ENDMDL
