MODEL 1
REMARK minimizedAffinity 6.63396025
REMARK minimizedRMSD -1
REMARK  0 active torsions:
REMARK  status: ('A' for Active; 'I' for Inactive)
ROOT
ATOM      1  C1  DEN d   1       5.996   5.561   0.326  0.00  0.00     0.130 A 
ATOM      2  C2  DEN d   1       5.828   5.030   1.676  0.00  0.00    -0.031 A 
ATOM      3  C3  DEN d   1       4.403   4.687   1.857  0.00  0.00     0.027 A 
ATOM      4  C4  DEN d   1       2.452   4.921   0.186  0.00  0.00     0.027 A 
ATOM      5  C5  DEN d   1       2.103   5.332  -1.082  0.00  0.00    -0.003 A 
ATOM      6  C6  DEN d   1       3.013   5.875  -1.950  0.00  0.00     0.001 A 
ATOM      7  C7  DEN d   1       4.327   5.980  -1.577  0.00  0.00     0.017 A 
ATOM      8  C8  DEN d   1       4.685   5.575  -0.299  0.00  0.00    -0.094 A 
ATOM      9  C9  DEN d   1       3.753   5.017   0.560  0.00  0.00    -0.072 A 
ENDROOT
TORSDOF 0
ENDMDL
