MODEL 1
REMARK minimizedAffinity 5.45775127
REMARK minimizedRMSD -1
REMARK  0 active torsions:
REMARK  status: ('A' for Active; 'I' for Inactive)
ROOT
ATOM      1  C1  DEN d   1       0.650   2.487  -2.840  0.00  0.00     0.130 A 
ATOM      2  C2  DEN d   1       1.797   3.389  -2.782  0.00  0.00    -0.031 A 
ATOM      3  C3  DEN d   1       2.937   2.643  -2.214  0.00  0.00     0.027 A 
ATOM      4  C4  DEN d   1       3.040   0.189  -1.427  0.00  0.00     0.027 A 
ATOM      5  C5  DEN d   1       2.314  -0.971  -1.269  0.00  0.00    -0.003 A 
ATOM      6  C6  DEN d   1       0.984  -1.049  -1.589  0.00  0.00     0.001 A 
ATOM      7  C7  DEN d   1       0.351   0.040  -2.127  0.00  0.00     0.017 A 
ATOM      8  C8  DEN d   1       1.074   1.215  -2.282  0.00  0.00    -0.094 A 
ATOM      9  C9  DEN d   1       2.421   1.271  -1.964  0.00  0.00    -0.072 A 
ENDROOT
TORSDOF 0
ENDMDL
