MODEL 1
REMARK minimizedAffinity 17.809288
REMARK minimizedRMSD -1
REMARK  0 active torsions:
REMARK  status: ('A' for Active; 'I' for Inactive)
ROOT
ATOM      1  C1  DEN d   1      -5.913   0.399   2.772  0.00  0.00     0.130 A 
ATOM      2  C2  DEN d   1      -5.496  -0.851   3.400  0.00  0.00    -0.031 A 
ATOM      3  C3  DEN d   1      -4.091  -0.700   3.830  0.00  0.00     0.027 A 
ATOM      4  C4  DEN d   1      -2.531   1.340   3.589  0.00  0.00     0.027 A 
ATOM      5  C5  DEN d   1      -2.434   2.629   3.113  0.00  0.00    -0.003 A 
ATOM      6  C6  DEN d   1      -3.470   3.248   2.464  0.00  0.00     0.001 A 
ATOM      7  C7  DEN d   1      -4.664   2.594   2.314  0.00  0.00     0.017 A 
ATOM      8  C8  DEN d   1      -4.768   1.292   2.786  0.00  0.00    -0.094 A 
ATOM      9  C9  DEN d   1      -3.713   0.688   3.449  0.00  0.00    -0.072 A 
ENDROOT
TORSDOF 0
ENDMDL
