MODEL 1
REMARK minimizedAffinity -1.34997904
REMARK minimizedRMSD -1
REMARK  0 active torsions:
REMARK  status: ('A' for Active; 'I' for Inactive)
ROOT
ATOM      1  C1  DEN d   1       3.043   1.467  -1.428  0.00  0.00     0.130 A 
ATOM      2  C2  DEN d   1       2.610   0.311  -2.209  0.00  0.00    -0.031 A 
ATOM      3  C3  DEN d   1       1.134   0.272  -2.187  0.00  0.00     0.027 A 
ATOM      4  C4  DEN d   1      -0.515   1.881  -1.028  0.00  0.00     0.027 A 
ATOM      5  C5  DEN d   1      -0.619   3.004  -0.237  0.00  0.00    -0.003 A 
ATOM      6  C6  DEN d   1       0.482   3.669   0.236  0.00  0.00     0.001 A 
ATOM      7  C7  DEN d   1       1.735   3.241  -0.115  0.00  0.00     0.017 A 
ATOM      8  C8  DEN d   1       1.848   2.105  -0.905  0.00  0.00    -0.094 A 
ATOM      9  C9  DEN d   1       0.723   1.455  -1.384  0.00  0.00    -0.072 A 
ENDROOT
TORSDOF 0
ENDMDL
