MODEL 1
REMARK minimizedAffinity 16.8923721
REMARK minimizedRMSD -1
REMARK  0 active torsions:
REMARK  status: ('A' for Active; 'I' for Inactive)
ROOT
ATOM      1  C1  DEN d   1      -4.206   6.000   5.612  0.00  0.00     0.130 A 
ATOM      2  C2  DEN d   1      -2.814   5.789   5.999  0.00  0.00    -0.031 A 
ATOM      3  C3  DEN d   1      -2.219   4.824   5.053  0.00  0.00     0.027 A 
ATOM      4  C4  DEN d   1      -3.311   3.646   3.035  0.00  0.00     0.027 A 
ATOM      5  C5  DEN d   1      -4.477   3.498   2.318  0.00  0.00    -0.003 A 
ATOM      6  C6  DEN d   1      -5.635   4.142   2.666  0.00  0.00     0.001 A 
ATOM      7  C7  DEN d   1      -5.640   5.000   3.734  0.00  0.00     0.017 A 
ATOM      8  C8  DEN d   1      -4.469   5.148   4.466  0.00  0.00    -0.094 A 
ATOM      9  C9  DEN d   1      -3.306   4.498   4.091  0.00  0.00    -0.072 A 
ENDROOT
TORSDOF 0
ENDMDL
