MODEL 1
REMARK minimizedAffinity 13.5154877
REMARK minimizedRMSD -1
REMARK  0 active torsions:
REMARK  status: ('A' for Active; 'I' for Inactive)
ROOT
ATOM      1  C1  DEN d   1       1.554   1.261  -3.066  0.00  0.00     0.130 A 
ATOM      2  C2  DEN d   1       0.358   0.690  -2.452  0.00  0.00    -0.031 A 
ATOM      3  C3  DEN d   1       0.790  -0.337  -1.482  0.00  0.00     0.027 A 
ATOM      4  C4  DEN d   1       3.180  -1.090  -0.871  0.00  0.00     0.027 A 
ATOM      5  C5  DEN d   1       4.518  -0.902  -1.137  0.00  0.00    -0.003 A 
ATOM      6  C6  DEN d   1       4.957  -0.012  -2.080  0.00  0.00     0.001 A 
ATOM      7  C7  DEN d   1       4.051   0.758  -2.761  0.00  0.00     0.017 A 
ATOM      8  C8  DEN d   1       2.700   0.569  -2.504  0.00  0.00    -0.094 A 
ATOM      9  C9  DEN d   1       2.276  -0.327  -1.538  0.00  0.00    -0.072 A 
ENDROOT
TORSDOF 0
ENDMDL
