MODEL 1
REMARK minimizedAffinity 19.9081326
REMARK minimizedRMSD -1
REMARK  0 active torsions:
REMARK  status: ('A' for Active; 'I' for Inactive)
ROOT
ATOM      1  C1  DEN d   1      -1.186  -0.119  -0.458  0.00  0.00     0.130 A 
ATOM      2  C2  DEN d   1      -2.321   0.770  -0.690  0.00  0.00    -0.031 A 
ATOM      3  C3  DEN d   1      -1.912   1.781  -1.687  0.00  0.00     0.027 A 
ATOM      4  C4  DEN d   1       0.353   2.050  -2.889  0.00  0.00     0.027 A 
ATOM      5  C5  DEN d   1       1.627   1.541  -3.011  0.00  0.00    -0.003 A 
ATOM      6  C6  DEN d   1       2.060   0.472  -2.271  0.00  0.00     0.001 A 
ATOM      7  C7  DEN d   1       1.197  -0.151  -1.409  0.00  0.00     0.017 A 
ATOM      8  C8  DEN d   1      -0.087   0.362  -1.276  0.00  0.00    -0.094 A 
ATOM      9  C9  DEN d   1      -0.509   1.436  -2.041  0.00  0.00    -0.072 A 
ENDROOT
TORSDOF 0
ENDMDL
