MODEL 1
REMARK minimizedAffinity 6.05621243
REMARK minimizedRMSD -1
REMARK  0 active torsions:
REMARK  status: ('A' for Active; 'I' for Inactive)
ROOT
ATOM      1  C1  DEN d   1       4.684   5.868  -1.257  0.00  0.00     0.130 A 
ATOM      2  C2  DEN d   1       3.423   5.248  -1.655  0.00  0.00    -0.031 A 
ATOM      3  C3  DEN d   1       2.889   4.513  -0.492  0.00  0.00     0.027 A 
ATOM      4  C4  DEN d   1       3.883   4.279   1.877  0.00  0.00     0.027 A 
ATOM      5  C5  DEN d   1       4.944   4.619   2.687  0.00  0.00    -0.003 A 
ATOM      6  C6  DEN d   1       6.000   5.364   2.234  0.00  0.00     0.001 A 
ATOM      7  C7  DEN d   1       5.997   5.832   0.947  0.00  0.00     0.017 A 
ATOM      8  C8  DEN d   1       4.935   5.488   0.121  0.00  0.00    -0.094 A 
ATOM      9  C9  DEN d   1       3.871   4.744   0.602  0.00  0.00    -0.072 A 
ENDROOT
TORSDOF 0
ENDMDL
