MODEL 1
REMARK minimizedAffinity 10.1240292
REMARK minimizedRMSD -1
REMARK  0 active torsions:
REMARK  status: ('A' for Active; 'I' for Inactive)
ROOT
ATOM      1  C1  DEN d   1      -5.498   0.878   2.630  0.00  0.00     0.130 A 
ATOM      2  C2  DEN d   1      -5.849  -0.329   1.886  0.00  0.00    -0.031 A 
ATOM      3  C3  DEN d   1      -4.917  -1.401   2.289  0.00  0.00     0.027 A 
ATOM      4  C4  DEN d   1      -2.978  -1.312   3.987  0.00  0.00     0.027 A 
ATOM      5  C5  DEN d   1      -2.288  -0.502   4.862  0.00  0.00    -0.003 A 
ATOM      6  C6  DEN d   1      -2.595   0.823   5.027  0.00  0.00     0.001 A 
ATOM      7  C7  DEN d   1      -3.648   1.366   4.340  0.00  0.00     0.017 A 
ATOM      8  C8  DEN d   1      -4.344   0.557   3.451  0.00  0.00    -0.094 A 
ATOM      9  C9  DEN d   1      -4.026  -0.783   3.308  0.00  0.00    -0.072 A 
ENDROOT
TORSDOF 0
ENDMDL
