MODEL 1
REMARK minimizedAffinity 8.7621994
REMARK minimizedRMSD -1
REMARK  0 active torsions:
REMARK  status: ('A' for Active; 'I' for Inactive)
ROOT
ATOM      1  C1  DEN d   1       0.375   0.890  -1.906  0.00  0.00     0.130 A 
ATOM      2  C2  DEN d   1       0.546   0.609  -3.328  0.00  0.00    -0.031 A 
ATOM      3  C3  DEN d   1       1.363   1.691  -3.913  0.00  0.00     0.027 A 
ATOM      4  C4  DEN d   1       2.377   3.763  -2.759  0.00  0.00     0.027 A 
ATOM      5  C5  DEN d   1       2.494   4.438  -1.565  0.00  0.00    -0.003 A 
ATOM      6  C6  DEN d   1       1.889   4.000  -0.416  0.00  0.00     0.001 A 
ATOM      7  C7  DEN d   1       1.177   2.829  -0.428  0.00  0.00     0.017 A 
ATOM      8  C8  DEN d   1       1.049   2.147  -1.631  0.00  0.00    -0.094 A 
ATOM      9  C9  DEN d   1       1.678   2.600  -2.778  0.00  0.00    -0.072 A 
ENDROOT
TORSDOF 0
ENDMDL
