MODEL 1
REMARK minimizedAffinity 2.39358044
REMARK minimizedRMSD -1
REMARK  0 active torsions:
REMARK  status: ('A' for Active; 'I' for Inactive)
ROOT
ATOM      1  C1  DEN d   1       1.592   1.440  -4.602  0.00  0.00     0.130 A 
ATOM      2  C2  DEN d   1       2.387   2.618  -4.936  0.00  0.00    -0.031 A 
ATOM      3  C3  DEN d   1       2.454   3.478  -3.737  0.00  0.00     0.027 A 
ATOM      4  C4  DEN d   1       1.414   3.099  -1.408  0.00  0.00     0.027 A 
ATOM      5  C5  DEN d   1       0.642   2.247  -0.648  0.00  0.00    -0.003 A 
ATOM      6  C6  DEN d   1       0.109   1.094  -1.159  0.00  0.00     0.001 A 
ATOM      7  C7  DEN d   1       0.378   0.737  -2.454  0.00  0.00     0.017 A 
ATOM      8  C8  DEN d   1       1.149   1.593  -3.228  0.00  0.00    -0.094 A 
ATOM      9  C9  DEN d   1       1.689   2.749  -2.690  0.00  0.00    -0.072 A 
ENDROOT
TORSDOF 0
ENDMDL
