MODEL 1
REMARK minimizedAffinity 3.66661787
REMARK minimizedRMSD -1
REMARK  0 active torsions:
REMARK  status: ('A' for Active; 'I' for Inactive)
ROOT
ATOM      1  C1  DEN d   1      -4.872  -1.836   2.303  0.00  0.00     0.130 A 
ATOM      2  C2  DEN d   1      -5.999  -0.944   2.044  0.00  0.00    -0.031 A 
ATOM      3  C3  DEN d   1      -5.675   0.379   2.615  0.00  0.00     0.027 A 
ATOM      4  C4  DEN d   1      -3.547   1.131   3.863  0.00  0.00     0.027 A 
ATOM      5  C5  DEN d   1      -2.319   0.723   4.334  0.00  0.00    -0.003 A 
ATOM      6  C6  DEN d   1      -1.873  -0.565   4.193  0.00  0.00     0.001 A 
ATOM      7  C7  DEN d   1      -2.643  -1.480   3.524  0.00  0.00     0.017 A 
ATOM      8  C8  DEN d   1      -3.886  -1.078   3.053  0.00  0.00    -0.094 A 
ATOM      9  C9  DEN d   1      -4.313   0.232   3.195  0.00  0.00    -0.072 A 
ENDROOT
TORSDOF 0
ENDMDL
