MODEL 1
REMARK minimizedAffinity 4.44553089
REMARK minimizedRMSD -1
REMARK  0 active torsions:
REMARK  status: ('A' for Active; 'I' for Inactive)
ROOT
ATOM      1  C4' PXY d   1       2.096  -3.074   0.652  0.00  0.00     0.077 C 
ATOM      2  C1' PXY d   1      -1.478  -1.378   4.866  0.00  0.00     0.077 C 
ATOM      3  C1  PXY d   1      -0.537  -1.832   3.769  0.00  0.00    -0.082 A 
ATOM      4  C2  PXY d   1      -0.168  -0.978   2.828  0.00  0.00     0.003 A 
ATOM      5  C3  PXY d   1       0.657  -1.380   1.810  0.00  0.00     0.003 A 
ATOM      6  C4  PXY d   1       1.154  -2.656   1.784  0.00  0.00    -0.082 A 
ATOM      7  C5  PXY d   1       0.791  -3.531   2.747  0.00  0.00     0.003 A 
ATOM      8  C6  PXY d   1      -0.081  -3.114   3.748  0.00  0.00     0.003 A 
ENDROOT
TORSDOF 0
ENDMDL
