MODEL 1
REMARK minimizedAffinity 11.5889463
REMARK minimizedRMSD -1
REMARK  0 active torsions:
REMARK  status: ('A' for Active; 'I' for Inactive)
ROOT
ATOM      1  C4' PXY d   1       0.843  -0.515   4.764  0.00  0.00     0.077 C 
ATOM      2  C1' PXY d   1      -3.727  -2.607   1.908  0.00  0.00     0.077 C 
ATOM      3  C1  PXY d   1      -2.520  -2.062   2.648  0.00  0.00    -0.082 A 
ATOM      4  C2  PXY d   1      -2.583  -1.879   3.957  0.00  0.00     0.003 A 
ATOM      5  C3  PXY d   1      -1.513  -1.358   4.636  0.00  0.00     0.003 A 
ATOM      6  C4  PXY d   1      -0.347  -1.071   3.978  0.00  0.00    -0.082 A 
ATOM      7  C5  PXY d   1      -0.271  -1.265   2.644  0.00  0.00     0.003 A 
ATOM      8  C6  PXY d   1      -1.383  -1.757   1.966  0.00  0.00     0.003 A 
ENDROOT
TORSDOF 0
ENDMDL
