MODEL 1
REMARK minimizedAffinity 3.29047728
REMARK minimizedRMSD -1
REMARK  0 active torsions:
REMARK  status: ('A' for Active; 'I' for Inactive)
ROOT
ATOM      1  C4' PXY d   1      -2.995  -3.250   0.014  0.00  0.00     0.077 C 
ATOM      2  C1' PXY d   1      -0.249  -0.725   4.430  0.00  0.00     0.077 C 
ATOM      3  C1  PXY d   1      -0.975  -1.395   3.280  0.00  0.00    -0.082 A 
ATOM      4  C2  PXY d   1      -0.432  -1.394   2.074  0.00  0.00     0.003 A 
ATOM      5  C3  PXY d   1      -1.090  -1.967   1.016  0.00  0.00     0.003 A 
ATOM      6  C4  PXY d   1      -2.293  -2.594   1.206  0.00  0.00    -0.082 A 
ATOM      7  C5  PXY d   1      -2.849  -2.608   2.436  0.00  0.00     0.003 A 
ATOM      8  C6  PXY d   1      -2.184  -1.985   3.488  0.00  0.00     0.003 A 
ENDROOT
TORSDOF 0
ENDMDL
