MODEL 1
REMARK minimizedAffinity 17.4521904
REMARK minimizedRMSD -1
REMARK  0 active torsions:
REMARK  status: ('A' for Active; 'I' for Inactive)
ROOT
ATOM      1  C4' PXY d   1       0.753  -5.999   2.978  0.00  0.00     0.077 C 
ATOM      2  C1' PXY d   1       0.381  -0.672   0.764  0.00  0.00     0.077 C 
ATOM      3  C1  PXY d   1       0.479  -2.074   1.333  0.00  0.00    -0.082 A 
ATOM      4  C2  PXY d   1       0.036  -2.316   2.556  0.00  0.00     0.003 A 
ATOM      5  C3  PXY d   1       0.146  -3.571   3.098  0.00  0.00     0.003 A 
ATOM      6  C4  PXY d   1       0.666  -4.600   2.360  0.00  0.00    -0.082 A 
ATOM      7  C5  PXY d   1       1.110  -4.364   1.107  0.00  0.00     0.003 A 
ATOM      8  C6  PXY d   1       1.027  -3.074   0.591  0.00  0.00     0.003 A 
ENDROOT
TORSDOF 0
ENDMDL
