MODEL 1
REMARK minimizedAffinity 16.3220863
REMARK minimizedRMSD -1
REMARK  0 active torsions:
REMARK  status: ('A' for Active; 'I' for Inactive)
ROOT
ATOM      1  C4' PXY d   1       4.857   1.927   0.543  0.00  0.00     0.077 C 
ATOM      2  C1' PXY d   1       0.118  -1.285   1.342  0.00  0.00     0.077 C 
ATOM      3  C1  PXY d   1       1.355  -0.436   1.123  0.00  0.00    -0.082 A 
ATOM      4  C2  PXY d   1       2.544  -0.916   1.451  0.00  0.00     0.003 A 
ATOM      5  C3  PXY d   1       3.669  -0.149   1.289  0.00  0.00     0.003 A 
ATOM      6  C4  PXY d   1       3.583   1.101   0.738  0.00  0.00    -0.082 A 
ATOM      7  C5  PXY d   1       2.374   1.593   0.391  0.00  0.00     0.003 A 
ATOM      8  C6  PXY d   1       1.240   0.815   0.601  0.00  0.00     0.003 A 
ENDROOT
TORSDOF 0
ENDMDL
