MODEL 1
REMARK minimizedAffinity 12.9214153
REMARK minimizedRMSD -1
REMARK  0 active torsions:
REMARK  status: ('A' for Active; 'I' for Inactive)
ROOT
ATOM      1  C4' PXY d   1      -1.924   2.836  -3.060  0.00  0.00     0.077 C 
ATOM      2  C1' PXY d   1       2.191   3.498   0.946  0.00  0.00     0.077 C 
ATOM      3  C1  PXY d   1       1.114   3.311  -0.105  0.00  0.00    -0.082 A 
ATOM      4  C2  PXY d   1       0.748   4.338  -0.855  0.00  0.00     0.003 A 
ATOM      5  C3  PXY d   1      -0.246   4.195  -1.788  0.00  0.00     0.003 A 
ATOM      6  C4  PXY d   1      -0.835   2.976  -1.993  0.00  0.00    -0.082 A 
ATOM      7  C5  PXY d   1      -0.459   1.921  -1.239  0.00  0.00     0.003 A 
ATOM      8  C6  PXY d   1       0.523   2.097  -0.268  0.00  0.00     0.003 A 
ENDROOT
TORSDOF 0
ENDMDL
