MODEL 1
REMARK minimizedAffinity 12.1673489
REMARK minimizedRMSD -1
REMARK  0 active torsions:
REMARK  status: ('A' for Active; 'I' for Inactive)
ROOT
ATOM      1  C4' PXY d   1      -5.999  -5.999   6.000  0.00  0.00     0.077 C 
ATOM      2  C1' PXY d   1      -2.432  -2.846   2.721  0.00  0.00     0.077 C 
ATOM      3  C1  PXY d   1      -3.370  -3.681   3.571  0.00  0.00    -0.082 A 
ATOM      4  C2  PXY d   1      -3.917  -3.152   4.653  0.00  0.00     0.003 A 
ATOM      5  C3  PXY d   1      -4.742  -3.903   5.451  0.00  0.00     0.003 A 
ATOM      6  C4  PXY d   1      -5.053  -5.191   5.107  0.00  0.00    -0.082 A 
ATOM      7  C5  PXY d   1      -4.508  -5.734   3.998  0.00  0.00     0.003 A 
ATOM      8  C6  PXY d   1      -3.641  -4.969   3.225  0.00  0.00     0.003 A 
ENDROOT
TORSDOF 0
ENDMDL
