MODEL 1
REMARK minimizedAffinity 12.9938498
REMARK minimizedRMSD -1
REMARK  0 active torsions:
REMARK  status: ('A' for Active; 'I' for Inactive)
ROOT
ATOM      1  C4' PXY d   1       2.415  -0.705   1.393  0.00  0.00     0.077 C 
ATOM      2  C1' PXY d   1      -2.736  -3.018   2.630  0.00  0.00     0.077 C 
ATOM      3  C1  PXY d   1      -1.391  -2.399   2.305  0.00  0.00    -0.082 A 
ATOM      4  C2  PXY d   1      -0.444  -3.144   1.759  0.00  0.00     0.003 A 
ATOM      5  C3  PXY d   1       0.789  -2.609   1.488  0.00  0.00     0.003 A 
ATOM      6  C4  PXY d   1       1.038  -1.285   1.729  0.00  0.00    -0.082 A 
ATOM      7  C5  PXY d   1       0.073  -0.515   2.276  0.00  0.00     0.003 A 
ATOM      8  C6  PXY d   1      -1.158  -1.088   2.582  0.00  0.00     0.003 A 
ENDROOT
TORSDOF 0
ENDMDL
