MODEL 1
REMARK minimizedAffinity 9.90787315
REMARK minimizedRMSD -1
REMARK  0 active torsions:
REMARK  status: ('A' for Active; 'I' for Inactive)
ROOT
ATOM      1  C4' PXY d   1      -2.609  -2.727   2.682  0.00  0.00     0.077 C 
ATOM      2  C1' PXY d   1       2.185   0.310   1.582  0.00  0.00     0.077 C 
ATOM      3  C1  PXY d   1       0.930  -0.486   1.883  0.00  0.00    -0.082 A 
ATOM      4  C2  PXY d   1       0.417  -1.275   0.953  0.00  0.00     0.003 A 
ATOM      5  C3  PXY d   1      -0.735  -1.977   1.198  0.00  0.00     0.003 A 
ATOM      6  C4  PXY d   1      -1.338  -1.912   2.425  0.00  0.00    -0.082 A 
ATOM      7  C5  PXY d   1      -0.815  -1.118   3.383  0.00  0.00     0.003 A 
ATOM      8  C6  PXY d   1       0.332  -0.382   3.101  0.00  0.00     0.003 A 
ENDROOT
TORSDOF 0
ENDMDL
