MODEL 1
REMARK minimizedAffinity 16.2020111
REMARK minimizedRMSD -1
REMARK  0 active torsions:
REMARK  status: ('A' for Active; 'I' for Inactive)
ROOT
ATOM      1  C4' PXY d   1       3.187   0.218   1.945  0.00  0.00     0.077 C 
ATOM      2  C1' PXY d   1      -1.873  -2.543   2.389  0.00  0.00     0.077 C 
ATOM      3  C1  PXY d   1      -0.540  -1.830   2.268  0.00  0.00    -0.082 A 
ATOM      4  C2  PXY d   1      -0.291  -0.777   3.029  0.00  0.00     0.003 A 
ATOM      5  C3  PXY d   1       0.896  -0.101   2.910  0.00  0.00     0.003 A 
ATOM      6  C4  PXY d   1       1.859  -0.539   2.040  0.00  0.00    -0.082 A 
ATOM      7  C5  PXY d   1       1.616  -1.619   1.268  0.00  0.00     0.003 A 
ATOM      8  C6  PXY d   1       0.389  -2.267   1.375  0.00  0.00     0.003 A 
ENDROOT
TORSDOF 0
ENDMDL
