MODEL 1
REMARK minimizedAffinity 17.7385769
REMARK minimizedRMSD -1
REMARK  0 active torsions:
REMARK  status: ('A' for Active; 'I' for Inactive)
ROOT
ATOM      1  C4' PXY d   1       2.075   6.000   1.142  0.00  0.00     0.077 C 
ATOM      2  C1' PXY d   1      -0.939   2.902  -2.696  0.00  0.00     0.077 C 
ATOM      3  C1  PXY d   1      -0.151   3.705  -1.681  0.00  0.00    -0.082 A 
ATOM      4  C2  PXY d   1       0.007   5.007  -1.857  0.00  0.00     0.003 A 
ATOM      5  C3  PXY d   1       0.744   5.743  -0.965  0.00  0.00     0.003 A 
ATOM      6  C4  PXY d   1       1.279   5.151   0.147  0.00  0.00    -0.082 A 
ATOM      7  C5  PXY d   1       1.113   3.825   0.339  0.00  0.00     0.003 A 
ATOM      8  C6  PXY d   1       0.397   3.088  -0.599  0.00  0.00     0.003 A 
ENDROOT
TORSDOF 0
ENDMDL
