MODEL 1
REMARK minimizedAffinity 12.9881935
REMARK minimizedRMSD -1
REMARK  0 active torsions:
REMARK  status: ('A' for Active; 'I' for Inactive)
ROOT
ATOM      1  C4' PXY d   1      -2.399  -2.982   2.471  0.00  0.00     0.077 C 
ATOM      2  C1' PXY d   1       2.655  -0.349   1.499  0.00  0.00     0.077 C 
ATOM      3  C1  PXY d   1       1.329  -1.034   1.766  0.00  0.00    -0.082 A 
ATOM      4  C2  PXY d   1       1.017  -2.137   1.104  0.00  0.00     0.003 A 
ATOM      5  C3  PXY d   1      -0.191  -2.751   1.309  0.00  0.00     0.003 A 
ATOM      6  C4  PXY d   1      -1.068  -2.262   2.241  0.00  0.00    -0.082 A 
ATOM      7  C5  PXY d   1      -0.752  -1.144   2.928  0.00  0.00     0.003 A 
ATOM      8  C6  PXY d   1       0.462  -0.512   2.675  0.00  0.00     0.003 A 
ENDROOT
TORSDOF 0
ENDMDL
