MODEL 1
REMARK minimizedAffinity 11.8056459
REMARK minimizedRMSD -1
REMARK  0 active torsions:
REMARK  status: ('A' for Active; 'I' for Inactive)
ROOT
ATOM      1  C4' PXY d   1      -3.572  -3.008   3.158  0.00  0.00     0.077 C 
ATOM      2  C1' PXY d   1       1.621  -0.740   2.017  0.00  0.00     0.077 C 
ATOM      3  C1  PXY d   1       0.258  -1.327   2.327  0.00  0.00    -0.082 A 
ATOM      4  C2  PXY d   1      -0.050  -2.535   1.884  0.00  0.00     0.003 A 
ATOM      5  C3  PXY d   1      -1.289  -3.068   2.128  0.00  0.00     0.003 A 
ATOM      6  C4  PXY d   1      -2.205  -2.379   2.877  0.00  0.00    -0.082 A 
ATOM      7  C5  PXY d   1      -1.894  -1.150   3.341  0.00  0.00     0.003 A 
ATOM      8  C6  PXY d   1      -0.646  -0.609   3.048  0.00  0.00     0.003 A 
ENDROOT
TORSDOF 0
ENDMDL
