MODEL 1
REMARK minimizedAffinity 10.2756653
REMARK minimizedRMSD -1
REMARK  0 active torsions:
REMARK  status: ('A' for Active; 'I' for Inactive)
ROOT
ATOM      1  C4' PXY d   1       2.340  -3.000  -0.383  0.00  0.00     0.077 C 
ATOM      2  C1' PXY d   1      -0.795  -0.217   3.597  0.00  0.00     0.077 C 
ATOM      3  C1  PXY d   1       0.031  -0.936   2.548  0.00  0.00    -0.082 A 
ATOM      4  C2  PXY d   1      -0.237  -2.198   2.257  0.00  0.00     0.003 A 
ATOM      5  C3  PXY d   1       0.520  -2.873   1.334  0.00  0.00     0.003 A 
ATOM      6  C4  PXY d   1       1.527  -2.232   0.663  0.00  0.00    -0.082 A 
ATOM      7  C5  PXY d   1       1.799  -0.941   0.946  0.00  0.00     0.003 A 
ATOM      8  C6  PXY d   1       1.046  -0.286   1.916  0.00  0.00     0.003 A 
ENDROOT
TORSDOF 0
ENDMDL
