MODEL 1
REMARK minimizedAffinity 12.1770678
REMARK minimizedRMSD -1
REMARK  0 active torsions:
REMARK  status: ('A' for Active; 'I' for Inactive)
ROOT
ATOM      1  C4' PXY d   1      -1.612   4.546  -6.000  0.00  0.00     0.077 C 
ATOM      2  C1' PXY d   1      -3.983   4.979  -0.745  0.00  0.00     0.077 C 
ATOM      3  C1  PXY d   1      -3.363   4.878  -2.125  0.00  0.00    -0.082 A 
ATOM      4  C2  PXY d   1      -3.346   3.712  -2.751  0.00  0.00     0.003 A 
ATOM      5  C3  PXY d   1      -2.762   3.597  -3.986  0.00  0.00     0.003 A 
ATOM      6  C4  PXY d   1      -2.235   4.696  -4.609  0.00  0.00    -0.082 A 
ATOM      7  C5  PXY d   1      -2.258   5.891  -3.982  0.00  0.00     0.003 A 
ATOM      8  C6  PXY d   1      -2.819   5.979  -2.711  0.00  0.00     0.003 A 
ENDROOT
TORSDOF 0
ENDMDL
