MODEL 1
REMARK minimizedAffinity 13.8777981
REMARK minimizedRMSD -1
REMARK  0 active torsions:
REMARK  status: ('A' for Active; 'I' for Inactive)
ROOT
ATOM      1  C4' PXY d   1       4.759  -0.459  -2.624  0.00  0.00     0.077 C 
ATOM      2  C1' PXY d   1       0.562   3.110  -0.874  0.00  0.00     0.077 C 
ATOM      3  C1  PXY d   1       1.658   2.176  -1.345  0.00  0.00    -0.082 A 
ATOM      4  C2  PXY d   1       2.171   1.292  -0.504  0.00  0.00     0.003 A 
ATOM      5  C3  PXY d   1       3.186   0.461  -0.904  0.00  0.00     0.003 A 
ATOM      6  C4  PXY d   1       3.643   0.498  -2.194  0.00  0.00    -0.082 A 
ATOM      7  C5  PXY d   1       3.118   1.389  -3.061  0.00  0.00     0.003 A 
ATOM      8  C6  PXY d   1       2.117   2.252  -2.624  0.00  0.00     0.003 A 
ENDROOT
TORSDOF 0
ENDMDL
