MODEL 1
REMARK minimizedAffinity 9.8251276
REMARK minimizedRMSD -1
REMARK  0 active torsions:
REMARK  status: ('A' for Active; 'I' for Inactive)
ROOT
ATOM      1  C4' PXY d   1      -3.901   4.785  -0.742  0.00  0.00     0.077 C 
ATOM      2  C1' PXY d   1      -1.500   4.675  -5.999  0.00  0.00     0.077 C 
ATOM      3  C1  PXY d   1      -2.123   4.714  -4.617  0.00  0.00    -0.082 A 
ATOM      4  C2  PXY d   1      -2.649   3.613  -4.105  0.00  0.00     0.003 A 
ATOM      5  C3  PXY d   1      -3.245   3.639  -2.870  0.00  0.00     0.003 A 
ATOM      6  C4  PXY d   1      -3.254   4.790  -2.129  0.00  0.00    -0.082 A 
ATOM      7  C5  PXY d   1      -2.709   5.914  -2.640  0.00  0.00     0.003 A 
ATOM      8  C6  PXY d   1      -2.146   5.878  -3.912  0.00  0.00     0.003 A 
ENDROOT
TORSDOF 0
ENDMDL
