MODEL 1
REMARK minimizedAffinity 13.7042093
REMARK minimizedRMSD -1
REMARK  0 active torsions:
REMARK  status: ('A' for Active; 'I' for Inactive)
ROOT
ATOM      1  C4' PXY d   1      -1.131   4.793  -5.999  0.00  0.00     0.077 C 
ATOM      2  C1' PXY d   1      -4.026   4.835  -0.996  0.00  0.00     0.077 C 
ATOM      3  C1  PXY d   1      -3.270   4.837  -2.310  0.00  0.00    -0.082 A 
ATOM      4  C2  PXY d   1      -3.121   3.706  -2.980  0.00  0.00     0.003 A 
ATOM      5  C3  PXY d   1      -2.412   3.684  -4.154  0.00  0.00     0.003 A 
ATOM      6  C4  PXY d   1      -1.896   4.840  -4.673  0.00  0.00    -0.082 A 
ATOM      7  C5  PXY d   1      -2.052   6.000  -4.000  0.00  0.00     0.003 A 
ATOM      8  C6  PXY d   1      -2.740   5.994  -2.790  0.00  0.00     0.003 A 
ENDROOT
TORSDOF 0
ENDMDL
