MODEL 1
REMARK minimizedAffinity 4.46852636
REMARK minimizedRMSD -1
REMARK  0 active torsions:
REMARK  status: ('A' for Active; 'I' for Inactive)
ROOT
ATOM      1  C4' PXY d   1      -4.810  -3.878   4.907  0.00  0.00     0.077 C 
ATOM      2  C1' PXY d   1      -3.746  -5.103  -0.641  0.00  0.00     0.077 C 
ATOM      3  C1  PXY d   1      -4.032  -4.793   0.815  0.00  0.00    -0.082 A 
ATOM      4  C2  PXY d   1      -4.026  -3.537   1.230  0.00  0.00     0.003 A 
ATOM      5  C3  PXY d   1      -4.250  -3.241   2.550  0.00  0.00     0.003 A 
ATOM      6  C4  PXY d   1      -4.536  -4.237   3.444  0.00  0.00    -0.082 A 
ATOM      7  C5  PXY d   1      -4.555  -5.521   3.027  0.00  0.00     0.003 A 
ATOM      8  C6  PXY d   1      -4.284  -5.804   1.691  0.00  0.00     0.003 A 
ENDROOT
TORSDOF 0
ENDMDL
