MODEL 1
REMARK minimizedAffinity -1.41204393
REMARK minimizedRMSD -1
REMARK  0 active torsions:
REMARK  status: ('A' for Active; 'I' for Inactive)
ROOT
ATOM      1  C4' PXY d   1      -4.438  -4.472   3.371  0.00  0.00     0.077 C 
ATOM      2  C1' PXY d   1      -5.305  -6.000  -2.137  0.00  0.00     0.077 C 
ATOM      3  C1  PXY d   1      -5.069  -5.609  -0.691  0.00  0.00    -0.082 A 
ATOM      4  C2  PXY d   1      -6.000  -4.935  -0.036  0.00  0.00     0.003 A 
ATOM      5  C3  PXY d   1      -5.790  -4.546   1.262  0.00  0.00     0.003 A 
ATOM      6  C4  PXY d   1      -4.637  -4.896   1.913  0.00  0.00    -0.082 A 
ATOM      7  C5  PXY d   1      -3.687  -5.593   1.254  0.00  0.00     0.003 A 
ATOM      8  C6  PXY d   1      -3.902  -5.943  -0.076  0.00  0.00     0.003 A 
ENDROOT
TORSDOF 0
ENDMDL
