MODEL 1
REMARK minimizedAffinity 3.90361667
REMARK minimizedRMSD -1
REMARK  1 active torsions:
REMARK  status: ('A' for Active; 'I' for Inactive)
REMARK    1  A    between atoms: C1_2  and  C2_3 
ROOT
ATOM      1  C2  UNL d   1       3.368   5.539  -3.487  0.00  0.00    -0.073 A 
ATOM      2  C3  UNL d   1       4.418   5.990  -2.678  0.00  0.00    -0.002 A 
ATOM      3  C4  UNL d   1       5.725   5.565  -2.919  0.00  0.00     0.004 A 
ATOM      4  C5  UNL d   1       5.998   4.693  -3.972  0.00  0.00    -0.004 A 
ATOM      5  C6  UNL d   1       4.964   4.241  -4.799  0.00  0.00    -0.075 A 
ATOM      6  C7  UNL d   1       5.240   3.301  -5.936  0.00  0.00     0.076 C 
ATOM      7  C8  UNL d   1       3.653   4.670  -4.549  0.00  0.00     0.001 A 
ENDROOT
BRANCH   1   8
ATOM      8  C1  UNL d   1       1.956   6.000  -3.235  0.00  0.00     0.053 C 
ATOM      9  C   UNL d   1       1.508   5.711  -1.811  0.00  0.00     0.018 C 
ENDBRANCH   1   8
TORSDOF 1
ENDMDL
