MODEL 1
REMARK minimizedAffinity 6.60828876
REMARK minimizedRMSD -1
REMARK  1 active torsions:
REMARK  status: ('A' for Active; 'I' for Inactive)
REMARK    1  A    between atoms: C1_2  and  C2_3 
ROOT
ATOM      1  C2  UNL d   1       4.955   5.652  -2.227  0.00  0.00    -0.073 A 
ATOM      2  C3  UNL d   1       3.616   5.915  -1.916  0.00  0.00    -0.002 A 
ATOM      3  C4  UNL d   1       2.650   5.943  -2.923  0.00  0.00     0.004 A 
ATOM      4  C5  UNL d   1       3.012   5.703  -4.249  0.00  0.00    -0.004 A 
ATOM      5  C6  UNL d   1       4.342   5.428  -4.578  0.00  0.00    -0.075 A 
ATOM      6  C7  UNL d   1       4.748   5.170  -6.000  0.00  0.00     0.076 C 
ATOM      7  C8  UNL d   1       5.307   5.403  -3.562  0.00  0.00     0.001 A 
ENDROOT
BRANCH   1   8
ATOM      8  C1  UNL d   1       6.000   5.614  -1.142  0.00  0.00     0.053 C 
ATOM      9  C   UNL d   1       5.999   4.289  -0.397  0.00  0.00     0.018 C 
ENDBRANCH   1   8
TORSDOF 1
ENDMDL
