MODEL 1
REMARK minimizedAffinity 12.4767485
REMARK minimizedRMSD -1
REMARK  1 active torsions:
REMARK  status: ('A' for Active; 'I' for Inactive)
REMARK    1  A    between atoms: C1_2  and  C2_3 
ROOT
ATOM      1  C2  UNL d   1       1.889  -2.193  -3.015  0.00  0.00    -0.073 A 
ATOM      2  C3  UNL d   1       0.858  -1.610  -3.762  0.00  0.00    -0.002 A 
ATOM      3  C4  UNL d   1      -0.421  -1.486  -3.220  0.00  0.00     0.004 A 
ATOM      4  C5  UNL d   1      -0.682  -1.936  -1.925  0.00  0.00    -0.004 A 
ATOM      5  C6  UNL d   1       0.337  -2.510  -1.159  0.00  0.00    -0.075 A 
ATOM      6  C7  UNL d   1       0.072  -3.001   0.234  0.00  0.00     0.076 C 
ATOM      7  C8  UNL d   1       1.619  -2.634  -1.712  0.00  0.00     0.001 A 
ENDROOT
BRANCH   1   8
ATOM      8  C1  UNL d   1       3.274  -2.324  -3.594  0.00  0.00     0.053 C 
ATOM      9  C   UNL d   1       3.243  -2.688  -5.070  0.00  0.00     0.018 C 
ENDBRANCH   1   8
TORSDOF 1
ENDMDL
