MODEL 1
REMARK minimizedAffinity 8.13507652
REMARK minimizedRMSD -1
REMARK  1 active torsions:
REMARK  status: ('A' for Active; 'I' for Inactive)
REMARK    1  A    between atoms: C1_2  and  C2_3 
ROOT
ATOM      1  C2  UNL d   1       2.005  -1.911  -3.045  0.00  0.00    -0.073 A 
ATOM      2  C3  UNL d   1       0.961  -1.366  -3.801  0.00  0.00    -0.002 A 
ATOM      3  C4  UNL d   1      -0.326  -1.279  -3.266  0.00  0.00     0.004 A 
ATOM      4  C5  UNL d   1      -0.580  -1.730  -1.971  0.00  0.00    -0.004 A 
ATOM      5  C6  UNL d   1       0.453  -2.267  -1.196  0.00  0.00    -0.075 A 
ATOM      6  C7  UNL d   1       0.196  -2.758   0.198  0.00  0.00     0.076 C 
ATOM      7  C8  UNL d   1       1.741  -2.353  -1.740  0.00  0.00     0.001 A 
ENDROOT
BRANCH   1   8
ATOM      8  C1  UNL d   1       3.397  -2.001  -3.615  0.00  0.00     0.053 C 
ATOM      9  C   UNL d   1       3.500  -3.057  -4.703  0.00  0.00     0.018 C 
ENDBRANCH   1   8
TORSDOF 1
ENDMDL
