MODEL 1
REMARK minimizedAffinity 11.9638062
REMARK minimizedRMSD -1
REMARK  1 active torsions:
REMARK  status: ('A' for Active; 'I' for Inactive)
REMARK    1  A    between atoms: C1_2  and  C2_3 
ROOT
ATOM      1  C2  UNL d   1       3.033   4.483  -0.492  0.00  0.00    -0.073 A 
ATOM      2  C3  UNL d   1       2.468   5.017  -1.656  0.00  0.00    -0.002 A 
ATOM      3  C4  UNL d   1       1.090   5.221  -1.741  0.00  0.00     0.004 A 
ATOM      4  C5  UNL d   1       0.265   4.901  -0.664  0.00  0.00    -0.004 A 
ATOM      5  C6  UNL d   1       0.812   4.377   0.512  0.00  0.00    -0.075 A 
ATOM      6  C7  UNL d   1      -0.063   4.025   1.680  0.00  0.00     0.076 C 
ATOM      7  C8  UNL d   1       2.196   4.172   0.589  0.00  0.00     0.001 A 
ENDROOT
BRANCH   1   8
ATOM      8  C1  UNL d   1       4.521   4.267  -0.393  0.00  0.00     0.053 C 
ATOM      9  C   UNL d   1       5.306   5.481  -0.862  0.00  0.00     0.018 C 
ENDBRANCH   1   8
TORSDOF 1
ENDMDL
