MODEL 1
REMARK minimizedAffinity 13.609931
REMARK minimizedRMSD -1
REMARK  1 active torsions:
REMARK  status: ('A' for Active; 'I' for Inactive)
REMARK    1  A    between atoms: C1_2  and  C2_3 
ROOT
ATOM      1  C2  UNL d   1      -1.104  -3.394  -2.777  0.00  0.00    -0.073 A 
ATOM      2  C3  UNL d   1      -0.208  -4.087  -1.956  0.00  0.00    -0.002 A 
ATOM      3  C4  UNL d   1       0.378  -3.452  -0.859  0.00  0.00     0.004 A 
ATOM      4  C5  UNL d   1       0.068  -2.123  -0.569  0.00  0.00    -0.004 A 
ATOM      5  C6  UNL d   1      -0.835  -1.418  -1.372  0.00  0.00    -0.075 A 
ATOM      6  C7  UNL d   1      -1.178   0.012  -1.074  0.00  0.00     0.076 C 
ATOM      7  C8  UNL d   1      -1.417  -2.062  -2.472  0.00  0.00     0.001 A 
ENDROOT
BRANCH   1   8
ATOM      8  C1  UNL d   1      -1.744  -4.077  -3.959  0.00  0.00     0.053 C 
ATOM      9  C   UNL d   1      -3.017  -3.375  -4.403  0.00  0.00     0.018 C 
ENDBRANCH   1   8
TORSDOF 1
ENDMDL
