MODEL 1
REMARK minimizedAffinity 13.9306822
REMARK minimizedRMSD -1
REMARK  1 active torsions:
REMARK  status: ('A' for Active; 'I' for Inactive)
REMARK    1  A    between atoms: C1_2  and  C2_3 
ROOT
ATOM      1  C2  UNL d   1       0.605  -2.916  -2.823  0.00  0.00    -0.073 A 
ATOM      2  C3  UNL d   1       0.547  -3.877  -1.807  0.00  0.00    -0.002 A 
ATOM      3  C4  UNL d   1      -0.043  -3.572  -0.580  0.00  0.00     0.004 A 
ATOM      4  C5  UNL d   1      -0.586  -2.307  -0.358  0.00  0.00    -0.004 A 
ATOM      5  C6  UNL d   1      -0.549  -1.336  -1.364  0.00  0.00    -0.075 A 
ATOM      6  C7  UNL d   1      -1.127   0.030  -1.141  0.00  0.00     0.076 C 
ATOM      7  C8  UNL d   1       0.048  -1.650  -2.593  0.00  0.00     0.001 A 
ENDROOT
BRANCH   1   8
ATOM      8  C1  UNL d   1       1.235  -3.243  -4.152  0.00  0.00     0.053 C 
ATOM      9  C   UNL d   1       2.752  -3.167  -4.098  0.00  0.00     0.018 C 
ENDBRANCH   1   8
TORSDOF 1
ENDMDL
