MODEL 1
REMARK minimizedAffinity 5.10986614
REMARK minimizedRMSD -1
REMARK  1 active torsions:
REMARK  status: ('A' for Active; 'I' for Inactive)
REMARK    1  A    between atoms: C1_2  and  C2_3 
ROOT
ATOM      1  C2  UNL d   1      -1.359  -1.025  -0.598  0.00  0.00    -0.073 A 
ATOM      2  C3  UNL d   1      -0.229  -1.758  -0.216  0.00  0.00    -0.002 A 
ATOM      3  C4  UNL d   1       0.246  -2.792  -1.024  0.00  0.00     0.004 A 
ATOM      4  C5  UNL d   1      -0.398  -3.099  -2.222  0.00  0.00    -0.004 A 
ATOM      5  C6  UNL d   1      -1.521  -2.371  -2.627  0.00  0.00    -0.075 A 
ATOM      6  C7  UNL d   1      -2.226  -2.690  -3.912  0.00  0.00     0.076 C 
ATOM      7  C8  UNL d   1      -1.994  -1.336  -1.809  0.00  0.00     0.001 A 
ENDROOT
BRANCH   1   8
ATOM      8  C1  UNL d   1      -1.872   0.096   0.268  0.00  0.00     0.053 C 
ATOM      9  C   UNL d   1      -1.270   1.437  -0.120  0.00  0.00     0.018 C 
ENDBRANCH   1   8
TORSDOF 1
ENDMDL
