MODEL 1
REMARK minimizedAffinity 2.30765533
REMARK minimizedRMSD -1
REMARK  1 active torsions:
REMARK  status: ('A' for Active; 'I' for Inactive)
REMARK    1  A    between atoms: C1_2  and  C2_3 
ROOT
ATOM      1  C2  UNL d   1       1.436  -2.636  -3.214  0.00  0.00    -0.073 A 
ATOM      2  C3  UNL d   1       0.628  -2.194  -2.161  0.00  0.00    -0.002 A 
ATOM      3  C4  UNL d   1      -0.743  -2.015  -2.350  0.00  0.00     0.004 A 
ATOM      4  C5  UNL d   1      -1.320  -2.282  -3.591  0.00  0.00    -0.004 A 
ATOM      5  C6  UNL d   1      -0.532  -2.736  -4.653  0.00  0.00    -0.075 A 
ATOM      6  C7  UNL d   1      -1.138  -3.026  -5.995  0.00  0.00     0.076 C 
ATOM      7  C8  UNL d   1       0.844  -2.911  -4.456  0.00  0.00     0.001 A 
ENDROOT
BRANCH   1   8
ATOM      8  C1  UNL d   1       2.916  -2.837  -3.013  0.00  0.00     0.053 C 
ATOM      9  C   UNL d   1       3.739  -1.810  -3.773  0.00  0.00     0.018 C 
ENDBRANCH   1   8
TORSDOF 1
ENDMDL
