MODEL 1
REMARK minimizedAffinity 8.67038059
REMARK minimizedRMSD -1
REMARK  1 active torsions:
REMARK  status: ('A' for Active; 'I' for Inactive)
REMARK    1  A    between atoms: C1_2  and  C2_3 
ROOT
ATOM      1  C2  UNL d   1       0.097  -4.004  -2.957  0.00  0.00    -0.073 A 
ATOM      2  C3  UNL d   1      -0.586  -2.818  -3.247  0.00  0.00    -0.002 A 
ATOM      3  C4  UNL d   1      -0.958  -1.949  -2.220  0.00  0.00     0.004 A 
ATOM      4  C5  UNL d   1      -0.645  -2.254  -0.895  0.00  0.00    -0.004 A 
ATOM      5  C6  UNL d   1       0.048  -3.429  -0.586  0.00  0.00    -0.075 A 
ATOM      6  C7  UNL d   1       0.391  -3.772   0.834  0.00  0.00     0.076 C 
ATOM      7  C8  UNL d   1       0.415  -4.297  -1.623  0.00  0.00     0.001 A 
ENDROOT
BRANCH   1   8
ATOM      8  C1  UNL d   1       0.506  -4.942  -4.063  0.00  0.00     0.053 C 
ATOM      9  C   UNL d   1       1.761  -4.468  -4.778  0.00  0.00     0.018 C 
ENDBRANCH   1   8
TORSDOF 1
ENDMDL
