MODEL 1
REMARK minimizedAffinity 9.58689976
REMARK minimizedRMSD -1
REMARK  1 active torsions:
REMARK  status: ('A' for Active; 'I' for Inactive)
REMARK    1  A    between atoms: C1_2  and  C2_3 
ROOT
ATOM      1  C2  UNL d   1       0.644  -3.502  -2.995  0.00  0.00    -0.073 A 
ATOM      2  C3  UNL d   1      -0.371  -3.103  -3.872  0.00  0.00    -0.002 A 
ATOM      3  C4  UNL d   1      -1.427  -2.313  -3.415  0.00  0.00     0.004 A 
ATOM      4  C5  UNL d   1      -1.475  -1.909  -2.081  0.00  0.00    -0.004 A 
ATOM      5  C6  UNL d   1      -0.464  -2.287  -1.192  0.00  0.00    -0.075 A 
ATOM      6  C7  UNL d   1      -0.502  -1.862   0.246  0.00  0.00     0.076 C 
ATOM      7  C8  UNL d   1       0.591  -3.083  -1.658  0.00  0.00     0.001 A 
ENDROOT
BRANCH   1   8
ATOM      8  C1  UNL d   1       1.789  -4.350  -3.485  0.00  0.00     0.053 C 
ATOM      9  C   UNL d   1       2.603  -3.643  -4.558  0.00  0.00     0.018 C 
ENDBRANCH   1   8
TORSDOF 1
ENDMDL
