MODEL 1
REMARK minimizedAffinity 12.3689089
REMARK minimizedRMSD -1
REMARK  1 active torsions:
REMARK  status: ('A' for Active; 'I' for Inactive)
REMARK    1  A    between atoms: C1_2  and  C2_3 
ROOT
ATOM      1  C2  UNL d   1      -1.358  -2.781  -3.427  0.00  0.00    -0.073 A 
ATOM      2  C3  UNL d   1      -0.310  -3.622  -3.036  0.00  0.00    -0.002 A 
ATOM      3  C4  UNL d   1       0.555  -3.240  -2.010  0.00  0.00     0.004 A 
ATOM      4  C5  UNL d   1       0.378  -2.018  -1.361  0.00  0.00    -0.004 A 
ATOM      5  C6  UNL d   1      -0.670  -1.169  -1.729  0.00  0.00    -0.075 A 
ATOM      6  C7  UNL d   1      -0.873   0.150  -1.043  0.00  0.00     0.076 C 
ATOM      7  C8  UNL d   1      -1.533  -1.559  -2.763  0.00  0.00     0.001 A 
ENDROOT
BRANCH   1   8
ATOM      8  C1  UNL d   1      -2.298  -3.192  -4.530  0.00  0.00     0.053 C 
ATOM      9  C   UNL d   1      -2.056  -4.623  -4.983  0.00  0.00     0.018 C 
ENDBRANCH   1   8
TORSDOF 1
ENDMDL
