MODEL 1
REMARK minimizedAffinity -2.92715287
REMARK minimizedRMSD -1
REMARK  0 active torsions:
REMARK  status: ('A' for Active; 'I' for Inactive)
ROOT
ATOM      1  C   UNL d   1       0.715  -0.811   3.998  0.00  0.00     0.078 C 
ATOM      2  C1  UNL d   1       0.381  -0.570   2.556  0.00  0.00    -0.077 A 
ATOM      3  C2  UNL d   1       1.331  -0.786   1.550  0.00  0.00    -0.001 A 
ATOM      4  C3  UNL d   1       1.009  -0.548   0.213  0.00  0.00     0.003 A 
ATOM      5  C4  UNL d   1      -0.262  -0.093  -0.131  0.00  0.00    -0.005 A 
ATOM      6  C5  UNL d   1      -1.213   0.127   0.864  0.00  0.00     0.003 A 
ATOM      7  C6  UNL d   1      -0.893  -0.110   2.201  0.00  0.00    -0.001 A 
ENDROOT
TORSDOF 0
ENDMDL
