MODEL 1
REMARK minimizedAffinity -3.81304812
REMARK minimizedRMSD -1
REMARK  0 active torsions:
REMARK  status: ('A' for Active; 'I' for Inactive)
ROOT
ATOM      1  C   UNL d   1       1.479  -0.648   3.828  0.00  0.00     0.078 C 
ATOM      2  C1  UNL d   1       0.543  -0.303   2.708  0.00  0.00    -0.077 A 
ATOM      3  C2  UNL d   1       0.917  -0.491   1.372  0.00  0.00    -0.001 A 
ATOM      4  C3  UNL d   1       0.039  -0.156   0.340  0.00  0.00     0.003 A 
ATOM      5  C4  UNL d   1      -1.217   0.370   0.633  0.00  0.00    -0.005 A 
ATOM      6  C5  UNL d   1      -1.598   0.562   1.959  0.00  0.00     0.003 A 
ATOM      7  C6  UNL d   1      -0.721   0.228   2.993  0.00  0.00    -0.001 A 
ENDROOT
TORSDOF 0
ENDMDL
