MODEL 1
REMARK minimizedAffinity -1.50206745
REMARK minimizedRMSD -1
REMARK  0 active torsions:
REMARK  status: ('A' for Active; 'I' for Inactive)
ROOT
ATOM      1  C   UNL d   1      -1.660   0.612   1.123  0.00  0.00     0.078 C 
ATOM      2  C1  UNL d   1      -0.400   0.263   1.857  0.00  0.00    -0.077 A 
ATOM      3  C2  UNL d   1       0.789   0.001   1.165  0.00  0.00    -0.001 A 
ATOM      4  C3  UNL d   1       1.952  -0.333   1.861  0.00  0.00     0.003 A 
ATOM      5  C4  UNL d   1       1.937  -0.409   3.252  0.00  0.00    -0.005 A 
ATOM      6  C5  UNL d   1       0.758  -0.152   3.949  0.00  0.00     0.003 A 
ATOM      7  C6  UNL d   1      -0.406   0.182   3.255  0.00  0.00    -0.001 A 
ENDROOT
TORSDOF 0
ENDMDL
