MODEL 1
REMARK minimizedAffinity -2.13692856
REMARK minimizedRMSD -1
REMARK  0 active torsions:
REMARK  status: ('A' for Active; 'I' for Inactive)
ROOT
ATOM      1  C   UNL d   1       0.420  -0.846  -1.052  0.00  0.00     0.078 C 
ATOM      2  C1  UNL d   1      -0.313  -0.333   0.151  0.00  0.00    -0.077 A 
ATOM      3  C2  UNL d   1      -1.633   0.125   0.049  0.00  0.00    -0.001 A 
ATOM      4  C3  UNL d   1      -2.300   0.609   1.176  0.00  0.00     0.003 A 
ATOM      5  C4  UNL d   1      -1.656   0.641   2.411  0.00  0.00    -0.005 A 
ATOM      6  C5  UNL d   1      -0.343   0.190   2.521  0.00  0.00     0.003 A 
ATOM      7  C6  UNL d   1       0.327  -0.295   1.396  0.00  0.00    -0.001 A 
ENDROOT
TORSDOF 0
ENDMDL
