MODEL 1
REMARK minimizedAffinity -2.95031261
REMARK minimizedRMSD -1
REMARK  0 active torsions:
REMARK  status: ('A' for Active; 'I' for Inactive)
ROOT
ATOM      1  C   UNL d   1       1.323   0.943  -4.185  0.00  0.00     0.078 C 
ATOM      2  C1  UNL d   1       0.905   0.319  -2.887  0.00  0.00    -0.077 A 
ATOM      3  C2  UNL d   1       0.603  -1.046  -2.808  0.00  0.00    -0.001 A 
ATOM      4  C3  UNL d   1       0.205  -1.611  -1.595  0.00  0.00     0.003 A 
ATOM      5  C4  UNL d   1       0.105  -0.819  -0.453  0.00  0.00    -0.005 A 
ATOM      6  C5  UNL d   1       0.401   0.541  -0.523  0.00  0.00     0.003 A 
ATOM      7  C6  UNL d   1       0.799   1.108  -1.735  0.00  0.00    -0.001 A 
ENDROOT
TORSDOF 0
ENDMDL
