MODEL 1
REMARK minimizedAffinity -3.00678229
REMARK minimizedRMSD -1
REMARK  0 active torsions:
REMARK  status: ('A' for Active; 'I' for Inactive)
ROOT
ATOM      1  C   UNL d   1       1.173  -0.675   3.389  0.00  0.00     0.078 C 
ATOM      2  C1  UNL d   1       0.188  -0.185   2.370  0.00  0.00    -0.077 A 
ATOM      3  C2  UNL d   1      -1.037   0.370   2.760  0.00  0.00    -0.001 A 
ATOM      4  C3  UNL d   1      -1.948   0.814   1.800  0.00  0.00     0.003 A 
ATOM      5  C4  UNL d   1      -1.644   0.705   0.444  0.00  0.00    -0.005 A 
ATOM      6  C5  UNL d   1      -0.429   0.152   0.047  0.00  0.00     0.003 A 
ATOM      7  C6  UNL d   1       0.483  -0.292   1.005  0.00  0.00    -0.001 A 
ENDROOT
TORSDOF 0
ENDMDL
