MODEL 1
REMARK minimizedAffinity -2.22759271
REMARK minimizedRMSD -1
REMARK  0 active torsions:
REMARK  status: ('A' for Active; 'I' for Inactive)
ROOT
ATOM      1  C   UNL d   1       0.322  -0.304  -2.415  0.00  0.00     0.078 C 
ATOM      2  C1  UNL d   1      -0.124  -0.183  -0.988  0.00  0.00    -0.077 A 
ATOM      3  C2  UNL d   1      -1.375   0.357  -0.667  0.00  0.00    -0.001 A 
ATOM      4  C3  UNL d   1      -1.773   0.473   0.666  0.00  0.00     0.003 A 
ATOM      5  C4  UNL d   1      -0.925   0.051   1.688  0.00  0.00    -0.005 A 
ATOM      6  C5  UNL d   1       0.323  -0.486   1.378  0.00  0.00     0.003 A 
ATOM      7  C6  UNL d   1       0.722  -0.602   0.046  0.00  0.00    -0.001 A 
ENDROOT
TORSDOF 0
ENDMDL
