MODEL 1
REMARK minimizedAffinity -2.06081367
REMARK minimizedRMSD -1
REMARK  1 active torsions:
REMARK  status: ('A' for Active; 'I' for Inactive)
REMARK    1  A    between atoms: C3_4  and  O_7 
ROOT
ATOM      1  C   UNL d   1       1.616  -2.245  -1.026  0.00  0.00    -0.033 A 
ATOM      2  C1  UNL d   1       1.835  -0.898  -1.322  0.00  0.00     0.039 A 
ATOM      3  C2  UNL d   1       0.917   0.068  -0.904  0.00  0.00    -0.080 A 
ATOM      4  C3  UNL d   1      -0.212  -0.325  -0.191  0.00  0.00     0.150 A 
ATOM      5  C4  UNL d   1      -0.434  -1.665   0.110  0.00  0.00    -0.007 A 
ATOM      6  C5  UNL d   1       0.482  -2.628  -0.309  0.00  0.00     0.039 A 
ENDROOT
BRANCH   4   7
ATOM      7  O   UNL d   1      -1.138   0.581   0.233  0.00  0.00    -0.526 OA
ATOM      8  H5  UNL d   1      -0.868   1.463  -0.072  0.00  0.00     0.418 HD
ENDBRANCH   4   7
TORSDOF 1
ENDMDL
