MODEL 1
REMARK minimizedAffinity -4.95713854
REMARK minimizedRMSD -1
REMARK  1 active torsions:
REMARK  status: ('A' for Active; 'I' for Inactive)
REMARK    1  A    between atoms: C3_4  and  O_7 
ROOT
ATOM      1  C   UNL d   1       2.469  -0.930  -1.694  0.00  0.00    -0.033 A 
ATOM      2  C1  UNL d   1       1.726  -1.931  -1.065  0.00  0.00     0.039 A 
ATOM      3  C2  UNL d   1       0.594  -1.599  -0.319  0.00  0.00    -0.080 A 
ATOM      4  C3  UNL d   1       0.216  -0.263  -0.210  0.00  0.00     0.150 A 
ATOM      5  C4  UNL d   1       0.949   0.739  -0.837  0.00  0.00    -0.007 A 
ATOM      6  C5  UNL d   1       2.079   0.405  -1.581  0.00  0.00     0.039 A 
ENDROOT
BRANCH   4   7
ATOM      7  O   UNL d   1      -0.879   0.111   0.511  0.00  0.00    -0.526 OA
ATOM      8  H5  UNL d   1      -1.270  -0.684   0.911  0.00  0.00     0.418 HD
ENDBRANCH   4   7
TORSDOF 1
ENDMDL
