MODEL 1
REMARK minimizedAffinity -2.57570529
REMARK minimizedRMSD -1
REMARK  1 active torsions:
REMARK  status: ('A' for Active; 'I' for Inactive)
REMARK    1  A    between atoms: C3_4  and  O_7 
ROOT
ATOM      1  C   UNL d   1       1.940  -0.621  -2.354  0.00  0.00    -0.033 A 
ATOM      2  C1  UNL d   1       1.733  -1.654  -1.437  0.00  0.00     0.039 A 
ATOM      3  C2  UNL d   1       0.806  -1.498  -0.405  0.00  0.00    -0.080 A 
ATOM      4  C3  UNL d   1       0.093  -0.307  -0.301  0.00  0.00     0.150 A 
ATOM      5  C4  UNL d   1       0.292   0.725  -1.213  0.00  0.00    -0.007 A 
ATOM      6  C5  UNL d   1       1.218   0.567  -2.243  0.00  0.00     0.039 A 
ENDROOT
BRANCH   4   7
ATOM      7  O   UNL d   1      -0.819  -0.106   0.692  0.00  0.00    -0.526 OA
ATOM      8  H5  UNL d   1      -0.829  -0.892   1.264  0.00  0.00     0.418 HD
ENDBRANCH   4   7
TORSDOF 1
ENDMDL
