MODEL 1
REMARK minimizedAffinity -5.3944149
REMARK minimizedRMSD -1
REMARK  1 active torsions:
REMARK  status: ('A' for Active; 'I' for Inactive)
REMARK    1  A    between atoms: C3_4  and  O_7 
ROOT
ATOM      1  C   UNL d   1       1.881  -0.917  -1.540  0.00  0.00    -0.033 A 
ATOM      2  C1  UNL d   1       2.161  -0.030  -2.581  0.00  0.00     0.039 A 
ATOM      3  C2  UNL d   1       1.404   1.132  -2.733  0.00  0.00    -0.080 A 
ATOM      4  C3  UNL d   1       0.370   1.396  -1.839  0.00  0.00     0.150 A 
ATOM      5  C4  UNL d   1       0.088   0.519  -0.797  0.00  0.00    -0.007 A 
ATOM      6  C5  UNL d   1       0.845  -0.642  -0.647  0.00  0.00     0.039 A 
ENDROOT
BRANCH   4   7
ATOM      7  O   UNL d   1      -0.400   2.516  -1.950  0.00  0.00    -0.526 OA
ATOM      8  H5  UNL d   1      -0.108   3.014  -2.732  0.00  0.00     0.418 HD
ENDBRANCH   4   7
TORSDOF 1
ENDMDL
