MODEL 1
REMARK minimizedAffinity -4.07376528
REMARK minimizedRMSD -1
REMARK  1 active torsions:
REMARK  status: ('A' for Active; 'I' for Inactive)
REMARK    1  A    between atoms: C3_4  and  O_7 
ROOT
ATOM      1  C   UNL d   1      -0.471  -0.620  -0.602  0.00  0.00    -0.033 A 
ATOM      2  C1  UNL d   1       0.235   0.584  -0.622  0.00  0.00     0.039 A 
ATOM      3  C2  UNL d   1       1.630   0.577  -0.683  0.00  0.00    -0.080 A 
ATOM      4  C3  UNL d   1       2.306  -0.640  -0.726  0.00  0.00     0.150 A 
ATOM      5  C4  UNL d   1       1.608  -1.843  -0.711  0.00  0.00    -0.007 A 
ATOM      6  C5  UNL d   1       0.216  -1.834  -0.648  0.00  0.00     0.039 A 
ENDROOT
BRANCH   4   7
ATOM      7  O   UNL d   1       3.667  -0.698  -0.782  0.00  0.00    -0.526 OA
ATOM      8  H5  UNL d   1       4.014   0.209  -0.757  0.00  0.00     0.418 HD
ENDBRANCH   4   7
TORSDOF 1
ENDMDL
