MODEL 1
REMARK minimizedAffinity -3.4126358
REMARK minimizedRMSD -1
REMARK  1 active torsions:
REMARK  status: ('A' for Active; 'I' for Inactive)
REMARK    1  A    between atoms: C3_4  and  O_7 
ROOT
ATOM      1  C   UNL d   1       2.505  -1.823  -1.833  0.00  0.00    -0.033 A 
ATOM      2  C1  UNL d   1       1.970  -2.563  -0.776  0.00  0.00     0.039 A 
ATOM      3  C2  UNL d   1       0.857  -2.086  -0.081  0.00  0.00    -0.080 A 
ATOM      4  C3  UNL d   1       0.288  -0.872  -0.453  0.00  0.00     0.150 A 
ATOM      5  C4  UNL d   1       0.812  -0.132  -1.507  0.00  0.00    -0.007 A 
ATOM      6  C5  UNL d   1       1.925  -0.608  -2.200  0.00  0.00     0.039 A 
ENDROOT
BRANCH   4   7
ATOM      7  O   UNL d   1      -0.797  -0.364   0.198  0.00  0.00    -0.526 OA
ATOM      8  H5  UNL d   1      -1.032  -0.969   0.922  0.00  0.00     0.418 HD
ENDBRANCH   4   7
TORSDOF 1
ENDMDL
