MODEL 1
REMARK minimizedAffinity -4.79526329
REMARK minimizedRMSD -1
REMARK  1 active torsions:
REMARK  status: ('A' for Active; 'I' for Inactive)
REMARK    1  A    between atoms: C3_4  and  O_7 
ROOT
ATOM      1  C   UNL d   1      -0.049  -1.090   0.187  0.00  0.00    -0.033 A 
ATOM      2  C1  UNL d   1       0.894  -1.962  -0.361  0.00  0.00     0.039 A 
ATOM      3  C2  UNL d   1       1.903  -1.470  -1.192  0.00  0.00    -0.080 A 
ATOM      4  C3  UNL d   1       1.958  -0.106  -1.466  0.00  0.00     0.150 A 
ATOM      5  C4  UNL d   1       1.024   0.768  -0.920  0.00  0.00    -0.007 A 
ATOM      6  C5  UNL d   1       0.017   0.275  -0.091  0.00  0.00     0.039 A 
ENDROOT
BRANCH   4   7
ATOM      7  O   UNL d   1       2.920   0.420  -2.275  0.00  0.00    -0.526 OA
ATOM      8  H5  UNL d   1       3.478  -0.306  -2.602  0.00  0.00     0.418 HD
ENDBRANCH   4   7
TORSDOF 1
ENDMDL
