MODEL 1
REMARK minimizedAffinity -4.2161355
REMARK minimizedRMSD -1
REMARK  1 active torsions:
REMARK  status: ('A' for Active; 'I' for Inactive)
REMARK    1  A    between atoms: C3_4  and  O_7 
ROOT
ATOM      1  C   UNL d   1       1.136  -1.131  -0.220  0.00  0.00    -0.033 A 
ATOM      2  C1  UNL d   1       1.930  -0.889  -1.342  0.00  0.00     0.039 A 
ATOM      3  C2  UNL d   1       1.708   0.246  -2.126  0.00  0.00    -0.080 A 
ATOM      4  C3  UNL d   1       0.691   1.129  -1.775  0.00  0.00     0.150 A 
ATOM      5  C4  UNL d   1      -0.101   0.897  -0.656  0.00  0.00    -0.007 A 
ATOM      6  C5  UNL d   1       0.121  -0.237   0.124  0.00  0.00     0.039 A 
ENDROOT
BRANCH   4   7
ATOM      7  O   UNL d   1       0.434   2.248  -2.512  0.00  0.00    -0.526 OA
ATOM      8  H5  UNL d   1       1.040   2.263  -3.270  0.00  0.00     0.418 HD
ENDBRANCH   4   7
TORSDOF 1
ENDMDL
