MODEL 1
REMARK minimizedAffinity -4.149158
REMARK minimizedRMSD -1
REMARK  1 active torsions:
REMARK  status: ('A' for Active; 'I' for Inactive)
REMARK    1  A    between atoms: C3_4  and  O_7 
ROOT
ATOM      1  C   UNL d   1      -0.387  -1.049   0.278  0.00  0.00    -0.033 A 
ATOM      2  C1  UNL d   1       0.171   0.171  -0.107  0.00  0.00     0.039 A 
ATOM      3  C2  UNL d   1       1.482   0.222  -0.584  0.00  0.00    -0.080 A 
ATOM      4  C3  UNL d   1       2.223  -0.953  -0.672  0.00  0.00     0.150 A 
ATOM      5  C4  UNL d   1       1.673  -2.173  -0.294  0.00  0.00    -0.007 A 
ATOM      6  C5  UNL d   1       0.364  -2.222   0.183  0.00  0.00     0.039 A 
ENDROOT
BRANCH   4   7
ATOM      7  O   UNL d   1       3.509  -0.952  -1.127  0.00  0.00    -0.526 OA
ATOM      8  H5  UNL d   1       3.765  -0.036  -1.324  0.00  0.00     0.418 HD
ENDBRANCH   4   7
TORSDOF 1
ENDMDL
