MODEL 1
REMARK minimizedAffinity -4.52732038
REMARK minimizedRMSD -1
REMARK  1 active torsions:
REMARK  status: ('A' for Active; 'I' for Inactive)
REMARK    1  A    between atoms: C3_4  and  O_7 
ROOT
ATOM      1  C   UNL d   1      -2.317   1.412   2.235  0.00  0.00    -0.033 A 
ATOM      2  C1  UNL d   1      -2.492   0.185   1.592  0.00  0.00     0.039 A 
ATOM      3  C2  UNL d   1      -2.561  -0.993   2.338  0.00  0.00    -0.080 A 
ATOM      4  C3  UNL d   1      -2.455  -0.930   3.725  0.00  0.00     0.150 A 
ATOM      5  C4  UNL d   1      -2.285   0.289   4.372  0.00  0.00    -0.007 A 
ATOM      6  C5  UNL d   1      -2.216   1.464   3.625  0.00  0.00     0.039 A 
ENDROOT
BRANCH   4   7
ATOM      7  O   UNL d   1      -2.512  -2.053   4.496  0.00  0.00    -0.526 OA
ATOM      8  H5  UNL d   1      -2.603  -2.824   3.911  0.00  0.00     0.418 HD
ENDBRANCH   4   7
TORSDOF 1
ENDMDL
