MODEL 1
REMARK minimizedAffinity -4.54673386
REMARK minimizedRMSD -1
REMARK  1 active torsions:
REMARK  status: ('A' for Active; 'I' for Inactive)
REMARK    1  A    between atoms: C3_4  and  O_7 
ROOT
ATOM      1  C   UNL d   1       3.001  -0.814  -1.574  0.00  0.00    -0.033 A 
ATOM      2  C1  UNL d   1       2.842   0.405  -0.912  0.00  0.00     0.039 A 
ATOM      3  C2  UNL d   1       1.577   0.807  -0.478  0.00  0.00    -0.080 A 
ATOM      4  C3  UNL d   1       0.481  -0.019  -0.711  0.00  0.00     0.150 A 
ATOM      5  C4  UNL d   1       0.632  -1.237  -1.366  0.00  0.00    -0.007 A 
ATOM      6  C5  UNL d   1       1.896  -1.636  -1.799  0.00  0.00     0.039 A 
ENDROOT
BRANCH   4   7
ATOM      7  O   UNL d   1      -0.774   0.332  -0.311  0.00  0.00    -0.526 OA
ATOM      8  H5  UNL d   1      -0.731   1.211   0.102  0.00  0.00     0.418 HD
ENDBRANCH   4   7
TORSDOF 1
ENDMDL
