MODEL 1
REMARK minimizedAffinity 6.31138325
REMARK minimizedRMSD -1
REMARK  1 active torsions:
REMARK  status: ('A' for Active; 'I' for Inactive)
REMARK    1  A    between atoms: C3_4  and  O_7 
ROOT
ATOM      1  C   UNL d   1       1.632  -2.511  -1.693  0.00  0.00    -0.033 A 
ATOM      2  C1  UNL d   1       1.985  -2.253  -0.367  0.00  0.00     0.039 A 
ATOM      3  C2  UNL d   1       1.037  -1.740   0.522  0.00  0.00    -0.080 A 
ATOM      4  C3  UNL d   1      -0.257  -1.492   0.073  0.00  0.00     0.150 A 
ATOM      5  C4  UNL d   1      -0.616  -1.750  -1.246  0.00  0.00    -0.007 A 
ATOM      6  C5  UNL d   1       0.332  -2.261  -2.132  0.00  0.00     0.039 A 
ENDROOT
BRANCH   4   7
ATOM      7  O   UNL d   1      -1.214  -0.987   0.902  0.00  0.00    -0.526 OA
ATOM      8  H5  UNL d   1      -0.815  -0.832   1.775  0.00  0.00     0.418 HD
ENDBRANCH   4   7
TORSDOF 1
ENDMDL
