MODEL 1
REMARK minimizedAffinity -5.0869112
REMARK minimizedRMSD -1
REMARK  1 active torsions:
REMARK  status: ('A' for Active; 'I' for Inactive)
REMARK    1  A    between atoms: C3_4  and  O_7 
ROOT
ATOM      1  C   UNL d   1      -0.297  -0.740  -0.018  0.00  0.00    -0.033 A 
ATOM      2  C1  UNL d   1       0.338  -1.891  -0.489  0.00  0.00     0.039 A 
ATOM      3  C2  UNL d   1       1.649  -1.823  -0.963  0.00  0.00    -0.080 A 
ATOM      4  C3  UNL d   1       2.314  -0.600  -0.960  0.00  0.00     0.150 A 
ATOM      5  C4  UNL d   1       1.689   0.550  -0.489  0.00  0.00    -0.007 A 
ATOM      6  C5  UNL d   1       0.379   0.480  -0.017  0.00  0.00     0.039 A 
ENDROOT
BRANCH   4   7
ATOM      7  O   UNL d   1       3.593  -0.483  -1.417  0.00  0.00    -0.526 OA
ATOM      8  H5  UNL d   1       3.886  -1.352  -1.738  0.00  0.00     0.418 HD
ENDBRANCH   4   7
TORSDOF 1
ENDMDL
