MODEL 1
REMARK minimizedAffinity 0.187718928
REMARK minimizedRMSD -1
REMARK  1 active torsions:
REMARK  status: ('A' for Active; 'I' for Inactive)
REMARK    1  A    between atoms: C3_4  and  O_7 
ROOT
ATOM      1  C   UNL d   1      -2.044   1.348   3.076  0.00  0.00    -0.033 A 
ATOM      2  C1  UNL d   1      -1.823   0.006   2.759  0.00  0.00     0.039 A 
ATOM      3  C2  UNL d   1      -2.771  -0.959   3.103  0.00  0.00    -0.080 A 
ATOM      4  C3  UNL d   1      -3.933  -0.571   3.764  0.00  0.00     0.150 A 
ATOM      5  C4  UNL d   1      -4.161   0.764   4.080  0.00  0.00    -0.007 A 
ATOM      6  C5  UNL d   1      -3.213   1.727   3.736  0.00  0.00     0.039 A 
ENDROOT
BRANCH   4   7
ATOM      7  O   UNL d   1      -4.885  -1.478   4.125  0.00  0.00    -0.526 OA
ATOM      8  H5  UNL d   1      -4.579  -2.364   3.868  0.00  0.00     0.418 HD
ENDBRANCH   4   7
TORSDOF 1
ENDMDL
