MODEL 1
REMARK minimizedAffinity 2.10989094
REMARK minimizedRMSD -1
REMARK  1 active torsions:
REMARK  status: ('A' for Active; 'I' for Inactive)
REMARK    1  A    between atoms: C3_4  and  O_7 
ROOT
ATOM      1  C   UNL d   1      -5.957  -2.293   3.193  0.00  0.00    -0.033 A 
ATOM      2  C1  UNL d   1      -5.399  -1.365   2.311  0.00  0.00     0.039 A 
ATOM      3  C2  UNL d   1      -4.307  -0.591   2.708  0.00  0.00    -0.080 A 
ATOM      4  C3  UNL d   1      -3.782  -0.756   3.987  0.00  0.00     0.150 A 
ATOM      5  C4  UNL d   1      -4.330  -1.681   4.869  0.00  0.00    -0.007 A 
ATOM      6  C5  UNL d   1      -5.421  -2.452   4.471  0.00  0.00     0.039 A 
ENDROOT
BRANCH   4   7
ATOM      7  O   UNL d   1      -2.720  -0.020   4.421  0.00  0.00    -0.526 OA
ATOM      8  H5  UNL d   1      -2.465   0.598   3.716  0.00  0.00     0.418 HD
ENDBRANCH   4   7
TORSDOF 1
ENDMDL
