MODEL 1
REMARK minimizedAffinity 0.485192448
REMARK minimizedRMSD -1
REMARK  0 active torsions:
REMARK  status: ('A' for Active; 'I' for Inactive)
ROOT
ATOM      1  C   UNL d   1       0.858   3.312   2.049  0.00  0.00     0.020 A 
ATOM      2  C1  UNL d   1       0.463   3.805   0.806  0.00  0.00     0.020 A 
ATOM      3  C2  UNL d   1       0.080   2.922  -0.205  0.00  0.00     0.034 A 
ATOM      4  C3  UNL d   1       0.091   1.541   0.024  0.00  0.00     0.017 A 
ATOM      5  C4  UNL d   1       0.488   1.047   1.271  0.00  0.00     0.017 A 
ATOM      6  C5  UNL d   1       0.871   1.936   2.281  0.00  0.00     0.034 A 
ATOM      7 Cl   UNL d   1       0.529  -0.643   1.629  0.00  0.00    -0.070 Cl
ATOM      8 Cl1  UNL d   1      -0.395   0.507  -1.273  0.00  0.00    -0.070 Cl
ENDROOT
TORSDOF 0
ENDMDL
