MODEL 1
REMARK minimizedAffinity 7.6733222
REMARK minimizedRMSD -1
REMARK  0 active torsions:
REMARK  status: ('A' for Active; 'I' for Inactive)
ROOT
ATOM      1  C   UNL d   1       1.338   3.101   2.781  0.00  0.00     0.020 A 
ATOM      2  C1  UNL d   1       0.615   3.687   1.742  0.00  0.00     0.020 A 
ATOM      3  C2  UNL d   1       0.015   2.884   0.770  0.00  0.00     0.034 A 
ATOM      4  C3  UNL d   1       0.136   1.491   0.834  0.00  0.00     0.017 A 
ATOM      5  C4  UNL d   1       0.862   0.904   1.877  0.00  0.00     0.017 A 
ATOM      6  C5  UNL d   1       1.461   1.713   2.848  0.00  0.00     0.034 A 
ATOM      7 Cl   UNL d   1       1.055  -0.807   2.024  0.00  0.00    -0.070 Cl
ATOM      8 Cl1  UNL d   1      -0.632   0.559  -0.402  0.00  0.00    -0.070 Cl
ENDROOT
TORSDOF 0
ENDMDL
