MODEL 1
REMARK minimizedAffinity 3.46892476
REMARK minimizedRMSD -1
REMARK  0 active torsions:
REMARK  status: ('A' for Active; 'I' for Inactive)
ROOT
ATOM      1  C   UNL d   1      -2.356   0.797  -2.451  0.00  0.00     0.020 A 
ATOM      2  C1  UNL d   1      -1.122   1.323  -2.068  0.00  0.00     0.020 A 
ATOM      3  C2  UNL d   1      -0.880   2.693  -2.188  0.00  0.00     0.034 A 
ATOM      4  C3  UNL d   1      -1.873   3.542  -2.692  0.00  0.00     0.017 A 
ATOM      5  C4  UNL d   1      -3.110   3.012  -3.076  0.00  0.00     0.017 A 
ATOM      6  C5  UNL d   1      -3.347   1.640  -2.953  0.00  0.00     0.034 A 
ATOM      7 Cl   UNL d   1      -4.384   3.996  -3.706  0.00  0.00    -0.070 Cl
ATOM      8 Cl1  UNL d   1      -1.505   5.225  -2.812  0.00  0.00    -0.070 Cl
ENDROOT
TORSDOF 0
ENDMDL
