MODEL 1
REMARK minimizedAffinity 4.47415876
REMARK minimizedRMSD -1
REMARK  0 active torsions:
REMARK  status: ('A' for Active; 'I' for Inactive)
ROOT
ATOM      1  C   UNL d   1      -0.034   1.816  -0.688  0.00  0.00     0.020 A 
ATOM      2  C1  UNL d   1      -1.023   1.182  -1.438  0.00  0.00     0.020 A 
ATOM      3  C2  UNL d   1      -1.916   1.940  -2.199  0.00  0.00     0.034 A 
ATOM      4  C3  UNL d   1      -1.822   3.336  -2.210  0.00  0.00     0.017 A 
ATOM      5  C4  UNL d   1      -0.829   3.972  -1.456  0.00  0.00     0.017 A 
ATOM      6  C5  UNL d   1       0.063   3.208  -0.697  0.00  0.00     0.034 A 
ATOM      7 Cl   UNL d   1      -0.650   5.691  -1.420  0.00  0.00    -0.070 Cl
ATOM      8 Cl1  UNL d   1      -2.959   4.210  -3.173  0.00  0.00    -0.070 Cl
ENDROOT
TORSDOF 0
ENDMDL
