MODEL 1
REMARK minimizedAffinity 4.81004715
REMARK minimizedRMSD -1
REMARK  0 active torsions:
REMARK  status: ('A' for Active; 'I' for Inactive)
ROOT
ATOM      1  C   UNL d   1      -1.640  -0.169  -2.298  0.00  0.00     0.020 A 
ATOM      2  C1  UNL d   1      -0.371  -0.011  -1.743  0.00  0.00     0.020 A 
ATOM      3  C2  UNL d   1       0.098   1.265  -1.425  0.00  0.00     0.034 A 
ATOM      4  C3  UNL d   1      -0.702   2.389  -1.663  0.00  0.00     0.017 A 
ATOM      5  C4  UNL d   1      -1.975   2.230  -2.221  0.00  0.00     0.017 A 
ATOM      6  C5  UNL d   1      -2.440   0.950  -2.537  0.00  0.00     0.034 A 
ATOM      7 Cl   UNL d   1      -3.020   3.568  -2.544  0.00  0.00    -0.070 Cl
ATOM      8 Cl1  UNL d   1      -0.057   3.937  -1.246  0.00  0.00    -0.070 Cl
ENDROOT
TORSDOF 0
ENDMDL
