MODEL 1
REMARK minimizedAffinity 4.88386488
REMARK minimizedRMSD -1
REMARK  0 active torsions:
REMARK  status: ('A' for Active; 'I' for Inactive)
ROOT
ATOM      1  C   UNL d   1      -0.167   4.259  -1.601  0.00  0.00     0.020 A 
ATOM      2  C1  UNL d   1      -0.840   5.476  -1.693  0.00  0.00     0.020 A 
ATOM      3  C2  UNL d   1      -1.553   5.965  -0.596  0.00  0.00     0.034 A 
ATOM      4  C3  UNL d   1      -1.594   5.236   0.598  0.00  0.00     0.017 A 
ATOM      5  C4  UNL d   1      -0.917   4.014   0.690  0.00  0.00     0.017 A 
ATOM      6  C5  UNL d   1      -0.205   3.530  -0.412  0.00  0.00     0.034 A 
ATOM      7 Cl   UNL d   1      -0.921   3.058   2.130  0.00  0.00    -0.070 Cl
ATOM      8 Cl1  UNL d   1      -2.494   5.900   1.915  0.00  0.00    -0.070 Cl
ENDROOT
TORSDOF 0
ENDMDL
