MODEL 1
REMARK minimizedAffinity 2.04544568
REMARK minimizedRMSD -1
REMARK  0 active torsions:
REMARK  status: ('A' for Active; 'I' for Inactive)
ROOT
ATOM      1  C   UNL d   1      -5.986  -1.172   1.068  0.00  0.00     0.020 A 
ATOM      2  C1  UNL d   1      -5.998  -2.554   1.252  0.00  0.00     0.020 A 
ATOM      3  C2  UNL d   1      -6.000  -3.086   2.543  0.00  0.00     0.034 A 
ATOM      4  C3  UNL d   1      -5.990  -2.236   3.655  0.00  0.00     0.017 A 
ATOM      5  C4  UNL d   1      -5.978  -0.849   3.469  0.00  0.00     0.017 A 
ATOM      6  C5  UNL d   1      -5.976  -0.321   2.174  0.00  0.00     0.034 A 
ATOM      7 Cl   UNL d   1      -5.964   0.264   4.792  0.00  0.00    -0.070 Cl
ATOM      8 Cl1  UNL d   1      -5.993  -2.963   5.223  0.00  0.00    -0.070 Cl
ENDROOT
TORSDOF 0
ENDMDL
