MODEL 1
REMARK minimizedAffinity -3.99881291
REMARK minimizedRMSD -1
REMARK  0 active torsions:
REMARK  status: ('A' for Active; 'I' for Inactive)
ROOT
ATOM      1  C   UNL d   1       0.748   4.003   1.637  0.00  0.00     0.020 A 
ATOM      2  C1  UNL d   1       0.585   4.352   0.297  0.00  0.00     0.020 A 
ATOM      3  C2  UNL d   1       0.210   3.384  -0.637  0.00  0.00     0.034 A 
ATOM      4  C3  UNL d   1      -0.004   2.061  -0.232  0.00  0.00     0.017 A 
ATOM      5  C4  UNL d   1       0.159   1.712   1.113  0.00  0.00     0.017 A 
ATOM      6  C5  UNL d   1       0.535   2.685   2.044  0.00  0.00     0.034 A 
ATOM      7 Cl   UNL d   1      -0.088   0.101   1.689  0.00  0.00    -0.070 Cl
ATOM      8 Cl1  UNL d   1      -0.467   0.916  -1.440  0.00  0.00    -0.070 Cl
ENDROOT
TORSDOF 0
ENDMDL
