MODEL 1
REMARK minimizedAffinity -2.70532155
REMARK minimizedRMSD -1
REMARK  0 active torsions:
REMARK  status: ('A' for Active; 'I' for Inactive)
ROOT
ATOM      1  C   UNL d   1      -0.476   3.337  -0.844  0.00  0.00     0.020 A 
ATOM      2  C1  UNL d   1      -0.634   2.073  -1.410  0.00  0.00     0.020 A 
ATOM      3  C2  UNL d   1      -0.420   0.930  -0.637  0.00  0.00     0.034 A 
ATOM      4  C3  UNL d   1      -0.046   1.049   0.707  0.00  0.00     0.017 A 
ATOM      5  C4  UNL d   1       0.113   2.318   1.274  0.00  0.00     0.017 A 
ATOM      6  C5  UNL d   1      -0.103   3.459   0.495  0.00  0.00     0.034 A 
ATOM      7 Cl   UNL d   1       0.573   2.545   2.924  0.00  0.00    -0.070 Cl
ATOM      8 Cl1  UNL d   1       0.203  -0.407   1.604  0.00  0.00    -0.070 Cl
ENDROOT
TORSDOF 0
ENDMDL
