MODEL 1
REMARK minimizedAffinity -4.53194952
REMARK minimizedRMSD -1
REMARK  0 active torsions:
REMARK  status: ('A' for Active; 'I' for Inactive)
ROOT
ATOM      1  C   UNL d   1       1.390  -0.183  -3.257  0.00  0.00     0.078 C 
ATOM      2  C1  UNL d   1       1.006  -0.135  -1.808  0.00  0.00    -0.077 A 
ATOM      3  C2  UNL d   1       0.141  -1.091  -1.260  0.00  0.00    -0.001 A 
ATOM      4  C3  UNL d   1      -0.216  -1.029   0.088  0.00  0.00     0.003 A 
ATOM      5  C4  UNL d   1       0.285  -0.012   0.899  0.00  0.00    -0.005 A 
ATOM      6  C5  UNL d   1       1.144   0.944   0.362  0.00  0.00     0.003 A 
ATOM      7  C6  UNL d   1       1.503   0.884  -0.986  0.00  0.00    -0.001 A 
ENDROOT
TORSDOF 0
ENDMDL
