MODEL 1
REMARK minimizedAffinity -3.76333308
REMARK minimizedRMSD -1
REMARK  0 active torsions:
REMARK  status: ('A' for Active; 'I' for Inactive)
ROOT
ATOM      1  C   UNL d   1       1.872   0.591  -1.820  0.00  0.00     0.078 C 
ATOM      2  C1  UNL d   1       0.900   0.445  -0.687  0.00  0.00    -0.077 A 
ATOM      3  C2  UNL d   1       0.513   1.552   0.079  0.00  0.00    -0.001 A 
ATOM      4  C3  UNL d   1      -0.385   1.399   1.136  0.00  0.00     0.003 A 
ATOM      5  C4  UNL d   1      -0.903   0.141   1.438  0.00  0.00    -0.005 A 
ATOM      6  C5  UNL d   1      -0.522  -0.966   0.684  0.00  0.00     0.003 A 
ATOM      7  C6  UNL d   1       0.376  -0.816  -0.374  0.00  0.00    -0.001 A 
ENDROOT
TORSDOF 0
ENDMDL
