MODEL 1
REMARK minimizedAffinity -3.40838814
REMARK minimizedRMSD -1
REMARK  0 active torsions:
REMARK  status: ('A' for Active; 'I' for Inactive)
ROOT
ATOM      1  C   UNL d   1       1.532   0.723  -2.268  0.00  0.00     0.078 C 
ATOM      2  C1  UNL d   1       0.804   0.266  -1.039  0.00  0.00    -0.077 A 
ATOM      3  C2  UNL d   1       0.874  -1.067  -0.614  0.00  0.00    -0.001 A 
ATOM      4  C3  UNL d   1       0.184  -1.481   0.526  0.00  0.00     0.003 A 
ATOM      5  C4  UNL d   1      -0.582  -0.569   1.250  0.00  0.00    -0.005 A 
ATOM      6  C5  UNL d   1      -0.658   0.758   0.834  0.00  0.00     0.003 A 
ATOM      7  C6  UNL d   1       0.031   1.174  -0.306  0.00  0.00    -0.001 A 
ENDROOT
TORSDOF 0
ENDMDL
