MODEL 1
REMARK minimizedAffinity -4.60154343
REMARK minimizedRMSD -1
REMARK  0 active torsions:
REMARK  status: ('A' for Active; 'I' for Inactive)
ROOT
ATOM      1  C   UNL d   1       0.967   0.985   0.723  0.00  0.00     0.078 C 
ATOM      2  C1  UNL d   1       0.760  -0.168  -0.214  0.00  0.00    -0.077 A 
ATOM      3  C2  UNL d   1       0.261  -1.392   0.248  0.00  0.00    -0.001 A 
ATOM      4  C3  UNL d   1       0.083  -2.459  -0.633  0.00  0.00     0.003 A 
ATOM      5  C4  UNL d   1       0.402  -2.314  -1.982  0.00  0.00    -0.005 A 
ATOM      6  C5  UNL d   1       0.902  -1.101  -2.450  0.00  0.00     0.003 A 
ATOM      7  C6  UNL d   1       1.081  -0.032  -1.571  0.00  0.00    -0.001 A 
ENDROOT
TORSDOF 0
ENDMDL
