MODEL 1
REMARK minimizedAffinity -4.76650858
REMARK minimizedRMSD -1
REMARK  0 active torsions:
REMARK  status: ('A' for Active; 'I' for Inactive)
ROOT
ATOM      1  C   UNL d   1       1.838  -0.589  -2.910  0.00  0.00     0.078 C 
ATOM      2  C1  UNL d   1       1.176  -0.609  -1.565  0.00  0.00    -0.077 A 
ATOM      3  C2  UNL d   1       1.089   0.552  -0.786  0.00  0.00    -0.001 A 
ATOM      4  C3  UNL d   1       0.479   0.516   0.469  0.00  0.00     0.003 A 
ATOM      5  C4  UNL d   1      -0.049  -0.678   0.956  0.00  0.00    -0.005 A 
ATOM      6  C5  UNL d   1       0.034  -1.838   0.190  0.00  0.00     0.003 A 
ATOM      7  C6  UNL d   1       0.644  -1.805  -1.065  0.00  0.00    -0.001 A 
ENDROOT
TORSDOF 0
ENDMDL
