MODEL 1
REMARK minimizedAffinity -5.15179777
REMARK minimizedRMSD -1
REMARK  0 active torsions:
REMARK  status: ('A' for Active; 'I' for Inactive)
ROOT
ATOM      1  C   UNL d   1      -0.515  -0.020   0.999  0.00  0.00     0.078 C 
ATOM      2  C1  UNL d   1       0.283  -0.101  -0.269  0.00  0.00    -0.077 A 
ATOM      3  C2  UNL d   1       0.375  -1.299  -0.988  0.00  0.00    -0.001 A 
ATOM      4  C3  UNL d   1       1.129  -1.361  -2.161  0.00  0.00     0.003 A 
ATOM      5  C4  UNL d   1       1.798  -0.230  -2.624  0.00  0.00    -0.005 A 
ATOM      6  C5  UNL d   1       1.714   0.966  -1.913  0.00  0.00     0.003 A 
ATOM      7  C6  UNL d   1       0.960   1.030  -0.740  0.00  0.00    -0.001 A 
ENDROOT
TORSDOF 0
ENDMDL
