MODEL 1
REMARK minimizedAffinity -5.16487741
REMARK minimizedRMSD -1
REMARK  0 active torsions:
REMARK  status: ('A' for Active; 'I' for Inactive)
ROOT
ATOM      1  C   UNL d   1       1.593   0.055  -2.774  0.00  0.00     0.078 C 
ATOM      2  C1  UNL d   1       0.860   0.236  -1.479  0.00  0.00    -0.077 A 
ATOM      3  C2  UNL d   1       0.170  -0.828  -0.886  0.00  0.00    -0.001 A 
ATOM      4  C3  UNL d   1      -0.516  -0.643   0.315  0.00  0.00     0.003 A 
ATOM      5  C4  UNL d   1      -0.520   0.606   0.933  0.00  0.00    -0.005 A 
ATOM      6  C5  UNL d   1       0.162   1.672   0.349  0.00  0.00     0.003 A 
ATOM      7  C6  UNL d   1       0.849   1.488  -0.852  0.00  0.00    -0.001 A 
ENDROOT
TORSDOF 0
ENDMDL
