MODEL 1
REMARK minimizedAffinity -5.57385635
REMARK minimizedRMSD -1
REMARK  0 active torsions:
REMARK  status: ('A' for Active; 'I' for Inactive)
ROOT
ATOM      1  C   UNL d   1      -0.573  -0.382   0.605  0.00  0.00     0.078 C 
ATOM      2  C1  UNL d   1       0.397  -0.454  -0.536  0.00  0.00    -0.077 A 
ATOM      3  C2  UNL d   1       0.659  -1.667  -1.185  0.00  0.00    -0.001 A 
ATOM      4  C3  UNL d   1       1.571  -1.721  -2.240  0.00  0.00     0.003 A 
ATOM      5  C4  UNL d   1       2.230  -0.565  -2.655  0.00  0.00    -0.005 A 
ATOM      6  C5  UNL d   1       1.977   0.646  -2.014  0.00  0.00     0.003 A 
ATOM      7  C6  UNL d   1       1.065   0.702  -0.959  0.00  0.00    -0.001 A 
ENDROOT
TORSDOF 0
ENDMDL
