MODEL 1
REMARK minimizedAffinity -4.00885963
REMARK minimizedRMSD -1
REMARK  0 active torsions:
REMARK  status: ('A' for Active; 'I' for Inactive)
ROOT
ATOM      1  C   UNL d   1      -0.554   0.524   1.421  0.00  0.00     0.078 C 
ATOM      2  C1  UNL d   1       0.320   0.109   0.275  0.00  0.00    -0.077 A 
ATOM      3  C2  UNL d   1       0.470  -1.241  -0.065  0.00  0.00    -0.001 A 
ATOM      4  C3  UNL d   1       1.295  -1.614  -1.128  0.00  0.00     0.003 A 
ATOM      5  C4  UNL d   1       1.976  -0.642  -1.859  0.00  0.00    -0.005 A 
ATOM      6  C5  UNL d   1       1.834   0.703  -1.526  0.00  0.00     0.003 A 
ATOM      7  C6  UNL d   1       1.010   1.078  -0.464  0.00  0.00    -0.001 A 
ENDROOT
TORSDOF 0
ENDMDL
