MODEL 1
REMARK minimizedAffinity -5.27460909
REMARK minimizedRMSD -1
REMARK  0 active torsions:
REMARK  status: ('A' for Active; 'I' for Inactive)
ROOT
ATOM      1  C   UNL d   1      -0.741   0.247   1.314  0.00  0.00     0.078 C 
ATOM      2  C1  UNL d   1       0.278  -0.089   0.266  0.00  0.00    -0.077 A 
ATOM      3  C2  UNL d   1       0.905   0.917  -0.479  0.00  0.00    -0.001 A 
ATOM      4  C3  UNL d   1       1.844   0.590  -1.458  0.00  0.00     0.003 A 
ATOM      5  C4  UNL d   1       2.164  -0.745  -1.702  0.00  0.00    -0.005 A 
ATOM      6  C5  UNL d   1       1.544  -1.753  -0.967  0.00  0.00     0.003 A 
ATOM      7  C6  UNL d   1       0.605  -1.427   0.013  0.00  0.00    -0.001 A 
ENDROOT
TORSDOF 0
ENDMDL
