MODEL 1
REMARK minimizedAffinity -1.19330561
REMARK minimizedRMSD -1
REMARK  0 active torsions:
REMARK  status: ('A' for Active; 'I' for Inactive)
ROOT
ATOM      1  C   UNL d   1      -4.917   1.305  -5.783  0.00  0.00     0.078 C 
ATOM      2  C1  UNL d   1      -4.829   2.799  -5.861  0.00  0.00    -0.077 A 
ATOM      3  C2  UNL d   1      -3.590   3.451  -5.847  0.00  0.00    -0.001 A 
ATOM      4  C3  UNL d   1      -3.524   4.844  -5.910  0.00  0.00     0.003 A 
ATOM      5  C4  UNL d   1      -4.694   5.597  -5.987  0.00  0.00    -0.005 A 
ATOM      6  C5  UNL d   1      -5.932   4.958  -5.999  0.00  0.00     0.003 A 
ATOM      7  C6  UNL d   1      -6.000   3.565  -5.936  0.00  0.00    -0.001 A 
ENDROOT
TORSDOF 0
ENDMDL
