MODEL 1
REMARK minimizedAffinity -5.73951817
REMARK minimizedRMSD -1
REMARK  0 active torsions:
REMARK  status: ('A' for Active; 'I' for Inactive)
ROOT
ATOM      1  C   UNL d   1      -0.712  -0.017   0.385  0.00  0.00     0.078 C 
ATOM      2  C1  UNL d   1       0.198  -0.542  -0.685  0.00  0.00    -0.077 A 
ATOM      3  C2  UNL d   1       0.545  -1.897  -0.735  0.00  0.00    -0.001 A 
ATOM      4  C3  UNL d   1       1.401  -2.371  -1.731  0.00  0.00     0.003 A 
ATOM      5  C4  UNL d   1       1.918  -1.495  -2.683  0.00  0.00    -0.005 A 
ATOM      6  C5  UNL d   1       1.580  -0.144  -2.641  0.00  0.00     0.003 A 
ATOM      7  C6  UNL d   1       0.724   0.331  -1.646  0.00  0.00    -0.001 A 
ENDROOT
TORSDOF 0
ENDMDL
