MODEL 1
REMARK minimizedAffinity 6.00896835
REMARK minimizedRMSD -1
REMARK  0 active torsions:
REMARK  status: ('A' for Active; 'I' for Inactive)
ROOT
ATOM      1  N1  IND d   1       1.282   0.561   3.496  0.00  0.00    -0.196 N 
ATOM      2  C2  IND d   1       1.399  -0.784   3.710  0.00  0.00     0.054 A 
ATOM      3  C3  IND d   1       0.612  -1.467   2.848  0.00  0.00    -0.031 A 
ATOM      4  C4  IND d   1      -0.872  -0.586   0.939  0.00  0.00     0.051 A 
ATOM      5  C5  IND d   1      -1.332   0.573   0.378  0.00  0.00    -0.031 A 
ATOM      6  C6  IND d   1      -0.933   1.812   0.836  0.00  0.00     0.015 A 
ATOM      7  C7  IND d   1      -0.047   1.939   1.869  0.00  0.00    -0.016 A 
ATOM      8  C8  IND d   1       0.415   0.764   2.445  0.00  0.00    -0.047 A 
ATOM      9  C9  IND d   1      -0.018  -0.495   2.012  0.00  0.00    -0.096 A 
ATOM     10  HN1 IND d   1       1.682   1.176   3.944  0.00  0.00     0.298 HD
ENDROOT
TORSDOF 0
ENDMDL
