MODEL 1
REMARK minimizedAffinity -0.497005284
REMARK minimizedRMSD -1
REMARK  0 active torsions:
REMARK  status: ('A' for Active; 'I' for Inactive)
ROOT
ATOM      1  N1  IND d   1      -1.564   3.045   2.125  0.00  0.00    -0.196 N 
ATOM      2  C2  IND d   1      -0.469   2.634   1.417  0.00  0.00     0.054 A 
ATOM      3  C3  IND d   1      -0.397   1.284   1.403  0.00  0.00    -0.031 A 
ATOM      4  C4  IND d   1      -2.022  -0.451   2.390  0.00  0.00     0.051 A 
ATOM      5  C5  IND d   1      -3.148  -0.558   3.157  0.00  0.00    -0.031 A 
ATOM      6  C6  IND d   1      -3.818   0.553   3.627  0.00  0.00     0.015 A 
ATOM      7  C7  IND d   1      -3.393   1.818   3.336  0.00  0.00    -0.016 A 
ATOM      8  C8  IND d   1      -2.246   1.930   2.563  0.00  0.00    -0.047 A 
ATOM      9  C9  IND d   1      -1.537   0.807   2.119  0.00  0.00    -0.096 A 
ATOM     10  HN1 IND d   1      -1.790   3.861   2.272  0.00  0.00     0.298 HD
ENDROOT
TORSDOF 0
ENDMDL
