MODEL 1
REMARK minimizedAffinity -4.99490929
REMARK minimizedRMSD -1
REMARK  0 active torsions:
REMARK  status: ('A' for Active; 'I' for Inactive)
ROOT
ATOM      1  N1  IND d   1      -1.550   2.447   2.196  0.00  0.00    -0.196 N 
ATOM      2  C2  IND d   1      -0.413   2.708   1.484  0.00  0.00     0.054 A 
ATOM      3  C3  IND d   1       0.124   1.558   1.017  0.00  0.00    -0.031 A 
ATOM      4  C4  IND d   1      -0.752  -0.854   1.214  0.00  0.00     0.051 A 
ATOM      5  C5  IND d   1      -1.735  -1.599   1.802  0.00  0.00    -0.031 A 
ATOM      6  C6  IND d   1      -2.729  -1.021   2.565  0.00  0.00     0.015 A 
ATOM      7  C7  IND d   1      -2.783   0.331   2.759  0.00  0.00    -0.016 A 
ATOM      8  C8  IND d   1      -1.782   1.089   2.169  0.00  0.00    -0.047 A 
ATOM      9  C9  IND d   1      -0.746   0.504   1.429  0.00  0.00    -0.096 A 
ATOM     10  HN1 IND d   1      -2.039   3.032   2.593  0.00  0.00     0.298 HD
ENDROOT
TORSDOF 0
ENDMDL
