MODEL 1
REMARK minimizedAffinity 1.31749403
REMARK minimizedRMSD -1
REMARK  0 active torsions:
REMARK  status: ('A' for Active; 'I' for Inactive)
ROOT
ATOM      1  N1  IND d   1      -1.251   3.844   1.607  0.00  0.00    -0.196 N 
ATOM      2  C2  IND d   1      -2.235   3.736   2.550  0.00  0.00     0.054 A 
ATOM      3  C3  IND d   1      -2.242   2.493   3.082  0.00  0.00    -0.031 A 
ATOM      4  C4  IND d   1      -0.664   0.510   2.627  0.00  0.00     0.051 A 
ATOM      5  C5  IND d   1       0.367   0.117   1.821  0.00  0.00    -0.031 A 
ATOM      6  C6  IND d   1       0.925   0.964   0.885  0.00  0.00     0.015 A 
ATOM      7  C7  IND d   1       0.477   2.246   0.728  0.00  0.00    -0.016 A 
ATOM      8  C8  IND d   1      -0.575   2.646   1.540  0.00  0.00    -0.047 A 
ATOM      9  C9  IND d   1      -1.173   1.777   2.462  0.00  0.00    -0.096 A 
ATOM     10  HN1 IND d   1      -1.084   4.543   1.134  0.00  0.00     0.298 HD
ENDROOT
TORSDOF 0
ENDMDL
