MODEL 1
REMARK minimizedAffinity -0.65336287
REMARK minimizedRMSD -1
REMARK  0 active torsions:
REMARK  status: ('A' for Active; 'I' for Inactive)
ROOT
ATOM      1  N1  IND d   1      -0.120  -0.837   1.793  0.00  0.00    -0.196 N 
ATOM      2  C2  IND d   1       0.864  -0.050   1.260  0.00  0.00     0.054 A 
ATOM      3  C3  IND d   1       0.440   1.230   1.161  0.00  0.00    -0.031 A 
ATOM      4  C4  IND d   1      -1.791   2.277   1.906  0.00  0.00     0.051 A 
ATOM      5  C5  IND d   1      -3.018   1.951   2.413  0.00  0.00    -0.031 A 
ATOM      6  C6  IND d   1      -3.347   0.653   2.749  0.00  0.00     0.015 A 
ATOM      7  C7  IND d   1      -2.453  -0.370   2.599  0.00  0.00    -0.016 A 
ATOM      8  C8  IND d   1      -1.209  -0.043   2.078  0.00  0.00    -0.047 A 
ATOM      9  C9  IND d   1      -0.884   1.265   1.696  0.00  0.00    -0.096 A 
ATOM     10  HN1 IND d   1      -0.067  -1.684   1.926  0.00  0.00     0.298 HD
ENDROOT
TORSDOF 0
ENDMDL
