MODEL 1
REMARK minimizedAffinity 0.591025054
REMARK minimizedRMSD -1
REMARK  0 active torsions:
REMARK  status: ('A' for Active; 'I' for Inactive)
ROOT
ATOM      1  N1  IND d   1      -0.407  -2.006   3.731  0.00  0.00    -0.196 N 
ATOM      2  C2  IND d   1      -1.736  -2.155   4.015  0.00  0.00     0.054 A 
ATOM      3  C3  IND d   1      -2.460  -1.196   3.395  0.00  0.00    -0.031 A 
ATOM      4  C4  IND d   1      -1.681   0.656   1.785  0.00  0.00     0.051 A 
ATOM      5  C5  IND d   1      -0.555   1.215   1.250  0.00  0.00    -0.031 A 
ATOM      6  C6  IND d   1       0.704   0.717   1.518  0.00  0.00     0.015 A 
ATOM      7  C7  IND d   1       0.883  -0.371   2.325  0.00  0.00    -0.016 A 
ATOM      8  C8  IND d   1      -0.259  -0.936   2.876  0.00  0.00    -0.047 A 
ATOM      9  C9  IND d   1      -1.535  -0.409   2.642  0.00  0.00    -0.096 A 
ATOM     10  HN1 IND d   1       0.229  -2.498   4.035  0.00  0.00     0.298 HD
ENDROOT
TORSDOF 0
ENDMDL
