MODEL 1
REMARK minimizedAffinity 1.56207228
REMARK minimizedRMSD -1
REMARK  0 active torsions:
REMARK  status: ('A' for Active; 'I' for Inactive)
ROOT
ATOM      1  N1  IND d   1      -2.861   1.602   3.720  0.00  0.00    -0.196 N 
ATOM      2  C2  IND d   1      -3.892   0.747   3.448  0.00  0.00     0.054 A 
ATOM      3  C3  IND d   1      -3.453  -0.301   2.715  0.00  0.00    -0.031 A 
ATOM      4  C4  IND d   1      -1.066  -0.866   1.936  0.00  0.00     0.051 A 
ATOM      5  C5  IND d   1       0.206  -0.366   1.910  0.00  0.00    -0.031 A 
ATOM      6  C6  IND d   1       0.528   0.838   2.501  0.00  0.00     0.015 A 
ATOM      7  C7  IND d   1      -0.413   1.586   3.152  0.00  0.00    -0.016 A 
ATOM      8  C8  IND d   1      -1.706   1.085   3.174  0.00  0.00    -0.047 A 
ATOM      9  C9  IND d   1      -2.048  -0.116   2.539  0.00  0.00    -0.096 A 
ATOM     10  HN1 IND d   1      -2.922   2.340   4.158  0.00  0.00     0.298 HD
ENDROOT
TORSDOF 0
ENDMDL
