MODEL 1
REMARK minimizedAffinity 5.21907187
REMARK minimizedRMSD -1
REMARK  0 active torsions:
REMARK  status: ('A' for Active; 'I' for Inactive)
ROOT
ATOM      1  N1  IND d   1      -2.275   1.992   2.564  0.00  0.00    -0.196 N 
ATOM      2  C2  IND d   1      -2.558   3.128   1.858  0.00  0.00     0.054 A 
ATOM      3  C3  IND d   1      -1.541   3.425   1.018  0.00  0.00    -0.031 A 
ATOM      4  C4  IND d   1       0.638   2.132   0.564  0.00  0.00     0.051 A 
ATOM      5  C5  IND d   1       1.359   1.053   0.993  0.00  0.00    -0.031 A 
ATOM      6  C6  IND d   1       0.896   0.214   1.986  0.00  0.00     0.015 A 
ATOM      7  C7  IND d   1      -0.317   0.417   2.581  0.00  0.00    -0.016 A 
ATOM      8  C8  IND d   1      -1.049   1.515   2.153  0.00  0.00    -0.047 A 
ATOM      9  C9  IND d   1      -0.566   2.394   1.176  0.00  0.00    -0.096 A 
ATOM     10  HN1 IND d   1      -2.777   1.635   3.163  0.00  0.00     0.298 HD
ENDROOT
TORSDOF 0
ENDMDL
