MODEL 1
REMARK minimizedAffinity 2.44734216
REMARK minimizedRMSD -1
REMARK  0 active torsions:
REMARK  status: ('A' for Active; 'I' for Inactive)
ROOT
ATOM      1  N1  IND d   1       0.368  -0.230   2.683  0.00  0.00    -0.196 N 
ATOM      2  C2  IND d   1       1.594  -0.465   2.127  0.00  0.00     0.054 A 
ATOM      3  C3  IND d   1       1.869   0.464   1.184  0.00  0.00    -0.031 A 
ATOM      4  C4  IND d   1       0.496   2.519   0.463  0.00  0.00     0.051 A 
ATOM      5  C5  IND d   1      -0.710   3.132   0.660  0.00  0.00    -0.031 A 
ATOM      6  C6  IND d   1      -1.636   2.647   1.561  0.00  0.00     0.015 A 
ATOM      7  C7  IND d   1      -1.384   1.533   2.311  0.00  0.00    -0.016 A 
ATOM      8  C8  IND d   1      -0.164   0.904   2.109  0.00  0.00    -0.047 A 
ATOM      9  C9  IND d   1       0.762   1.367   1.165  0.00  0.00    -0.096 A 
ATOM     10  HN1 IND d   1      -0.009  -0.710   3.289  0.00  0.00     0.298 HD
ENDROOT
TORSDOF 0
ENDMDL
