MODEL 1
REMARK minimizedAffinity 0.487857729
REMARK minimizedRMSD -1
REMARK  0 active torsions:
REMARK  status: ('A' for Active; 'I' for Inactive)
ROOT
ATOM      1  N1  IND d   1      -1.921   2.286   4.087  0.00  0.00    -0.196 N 
ATOM      2  C2  IND d   1      -1.802   1.400   3.052  0.00  0.00     0.054 A 
ATOM      3  C3  IND d   1      -2.940   0.684   2.913  0.00  0.00    -0.031 A 
ATOM      4  C4  IND d   1      -5.159   0.872   4.205  0.00  0.00     0.051 A 
ATOM      5  C5  IND d   1      -5.737   1.512   5.265  0.00  0.00    -0.031 A 
ATOM      6  C6  IND d   1      -5.060   2.464   5.999  0.00  0.00     0.015 A 
ATOM      7  C7  IND d   1      -3.778   2.821   5.693  0.00  0.00    -0.016 A 
ATOM      8  C8  IND d   1      -3.185   2.168   4.621  0.00  0.00    -0.047 A 
ATOM      9  C9  IND d   1      -3.852   1.171   3.899  0.00  0.00    -0.096 A 
ATOM     10  HN1 IND d   1      -1.309   2.825   4.358  0.00  0.00     0.298 HD
ENDROOT
TORSDOF 0
ENDMDL
