MODEL 1
REMARK minimizedAffinity -0.218144253
REMARK minimizedRMSD -1
REMARK  0 active torsions:
REMARK  status: ('A' for Active; 'I' for Inactive)
ROOT
ATOM      1  N1  IND d   1      -2.957   2.388   3.512  0.00  0.00    -0.196 N 
ATOM      2  C2  IND d   1      -3.674   1.261   3.803  0.00  0.00     0.054 A 
ATOM      3  C3  IND d   1      -3.159   0.195   3.150  0.00  0.00    -0.031 A 
ATOM      4  C4  IND d   1      -1.083   0.052   1.634  0.00  0.00     0.051 A 
ATOM      5  C5  IND d   1      -0.124   0.827   1.044  0.00  0.00    -0.031 A 
ATOM      6  C6  IND d   1      -0.058   2.189   1.253  0.00  0.00     0.015 A 
ATOM      7  C7  IND d   1      -0.945   2.828   2.072  0.00  0.00    -0.016 A 
ATOM      8  C8  IND d   1      -1.924   2.046   2.667  0.00  0.00    -0.047 A 
ATOM      9  C9  IND d   1      -2.022   0.669   2.426  0.00  0.00    -0.096 A 
ATOM     10  HN1 IND d   1      -3.124   3.179   3.807  0.00  0.00     0.298 HD
ENDROOT
TORSDOF 0
ENDMDL
