MODEL 1
REMARK minimizedAffinity -1.43157887
REMARK minimizedRMSD -1
REMARK  0 active torsions:
REMARK  status: ('A' for Active; 'I' for Inactive)
ROOT
ATOM      1  N1  IND d   1      -2.970   0.722   3.100  0.00  0.00    -0.196 N 
ATOM      2  C2  IND d   1      -3.117  -0.626   2.921  0.00  0.00     0.054 A 
ATOM      3  C3  IND d   1      -2.073  -1.123   2.220  0.00  0.00    -0.031 A 
ATOM      4  C4  IND d   1       0.036   0.074   1.356  0.00  0.00     0.051 A 
ATOM      5  C5  IND d   1       0.602   1.313   1.245  0.00  0.00    -0.031 A 
ATOM      6  C6  IND d   1      -0.004   2.441   1.760  0.00  0.00     0.015 A 
ATOM      7  C7  IND d   1      -1.200   2.369   2.418  0.00  0.00    -0.016 A 
ATOM      8  C8  IND d   1      -1.781   1.114   2.526  0.00  0.00    -0.047 A 
ATOM      9  C9  IND d   1      -1.191  -0.028   1.968  0.00  0.00    -0.096 A 
ATOM     10  HN1 IND d   1      -3.527   1.238   3.504  0.00  0.00     0.298 HD
ENDROOT
TORSDOF 0
ENDMDL
