MODEL 1
REMARK minimizedAffinity -0.23059839
REMARK minimizedRMSD -1
REMARK  0 active torsions:
REMARK  status: ('A' for Active; 'I' for Inactive)
ROOT
ATOM      1  N1  IND d   1       0.550   1.276   0.904  0.00  0.00    -0.196 N 
ATOM      2  C2  IND d   1       0.672  -0.077   0.747  0.00  0.00     0.054 A 
ATOM      3  C3  IND d   1      -0.367  -0.714   1.333  0.00  0.00    -0.031 A 
ATOM      4  C4  IND d   1      -2.429   0.269   2.519  0.00  0.00     0.051 A 
ATOM      5  C5  IND d   1      -2.966   1.452   2.943  0.00  0.00    -0.031 A 
ATOM      6  C6  IND d   1      -2.348   2.662   2.701  0.00  0.00     0.015 A 
ATOM      7  C7  IND d   1      -1.169   2.734   2.014  0.00  0.00    -0.016 A 
ATOM      8  C8  IND d   1      -0.617   1.534   1.589  0.00  0.00    -0.047 A 
ATOM      9  C9  IND d   1      -1.219   0.301   1.868  0.00  0.00    -0.096 A 
ATOM     10  HN1 IND d   1       1.109   1.866   0.623  0.00  0.00     0.298 HD
ENDROOT
TORSDOF 0
ENDMDL
