MODEL 1
REMARK minimizedAffinity 6.03969431
REMARK minimizedRMSD -1
REMARK  0 active torsions:
REMARK  status: ('A' for Active; 'I' for Inactive)
ROOT
ATOM      1  N1  IND d   1      -5.446   1.682   5.425  0.00  0.00    -0.196 N 
ATOM      2  C2  IND d   1      -5.312   2.915   5.999  0.00  0.00     0.054 A 
ATOM      3  C3  IND d   1      -4.200   3.530   5.538  0.00  0.00    -0.031 A 
ATOM      4  C4  IND d   1      -2.512   2.741   3.762  0.00  0.00     0.051 A 
ATOM      5  C5  IND d   1      -2.194   1.666   2.980  0.00  0.00    -0.031 A 
ATOM      6  C6  IND d   1      -2.962   0.519   2.971  0.00  0.00     0.015 A 
ATOM      7  C7  IND d   1      -4.087   0.409   3.738  0.00  0.00    -0.016 A 
ATOM      8  C8  IND d   1      -4.408   1.496   4.539  0.00  0.00    -0.047 A 
ATOM      9  C9  IND d   1      -3.609   2.646   4.584  0.00  0.00    -0.096 A 
ATOM     10  HN1 IND d   1      -6.074   1.117   5.589  0.00  0.00     0.298 HD
ENDROOT
TORSDOF 0
ENDMDL
