MODEL 1
REMARK minimizedAffinity 1.88192928
REMARK minimizedRMSD -1
REMARK  0 active torsions:
REMARK  status: ('A' for Active; 'I' for Inactive)
ROOT
ATOM      1  N1  IND d   1      -2.809  -5.346  -2.761  0.00  0.00    -0.196 N 
ATOM      2  C2  IND d   1      -2.893  -6.000  -1.563  0.00  0.00     0.054 A 
ATOM      3  C3  IND d   1      -3.065  -5.115  -0.555  0.00  0.00    -0.031 A 
ATOM      4  C4  IND d   1      -3.338  -2.557  -0.654  0.00  0.00     0.051 A 
ATOM      5  C5  IND d   1      -3.296  -1.502  -1.522  0.00  0.00    -0.031 A 
ATOM      6  C6  IND d   1      -3.088  -1.678  -2.875  0.00  0.00     0.015 A 
ATOM      7  C7  IND d   1      -2.924  -2.923  -3.414  0.00  0.00    -0.016 A 
ATOM      8  C8  IND d   1      -2.959  -3.996  -2.535  0.00  0.00    -0.047 A 
ATOM      9  C9  IND d   1      -3.128  -3.820  -1.155  0.00  0.00    -0.096 A 
ATOM     10  HN1 IND d   1      -2.682  -5.717  -3.526  0.00  0.00     0.298 HD
ENDROOT
TORSDOF 0
ENDMDL
