MODEL 1
REMARK minimizedAffinity -2.19782996
REMARK minimizedRMSD -1
REMARK  0 active torsions:
REMARK  status: ('A' for Active; 'I' for Inactive)
ROOT
ATOM      1  C   UNL d   1       1.147  -4.942  -2.624  0.00  0.00     0.078 C 
ATOM      2  C1  UNL d   1       0.058  -5.303  -3.588  0.00  0.00    -0.077 A 
ATOM      3  C2  UNL d   1      -1.220  -5.655  -3.135  0.00  0.00    -0.001 A 
ATOM      4  C3  UNL d   1      -2.222  -5.998  -4.043  0.00  0.00     0.003 A 
ATOM      5  C4  UNL d   1      -1.957  -5.995  -5.411  0.00  0.00    -0.005 A 
ATOM      6  C5  UNL d   1      -0.688  -5.649  -5.872  0.00  0.00     0.003 A 
ATOM      7  C6  UNL d   1       0.315  -5.305  -4.965  0.00  0.00    -0.001 A 
ENDROOT
TORSDOF 0
ENDMDL
