MODEL 1
REMARK minimizedAffinity -2.11611104
REMARK minimizedRMSD -1
REMARK  0 active torsions:
REMARK  status: ('A' for Active; 'I' for Inactive)
ROOT
ATOM      1  C   UNL d   1       2.323  -5.865  -5.816  0.00  0.00     0.078 C 
ATOM      2  C1  UNL d   1       0.957  -5.918  -5.201  0.00  0.00    -0.077 A 
ATOM      3  C2  UNL d   1      -0.194  -5.914  -5.999  0.00  0.00    -0.001 A 
ATOM      4  C3  UNL d   1      -1.460  -5.955  -5.412  0.00  0.00     0.003 A 
ATOM      5  C4  UNL d   1      -1.587  -5.998  -4.025  0.00  0.00    -0.005 A 
ATOM      6  C5  UNL d   1      -0.448  -5.999  -3.223  0.00  0.00     0.003 A 
ATOM      7  C6  UNL d   1       0.819  -5.959  -3.808  0.00  0.00    -0.001 A 
ENDROOT
TORSDOF 0
ENDMDL
