MODEL 1
REMARK minimizedAffinity -1.59389734
REMARK minimizedRMSD -1
REMARK  0 active torsions:
REMARK  status: ('A' for Active; 'I' for Inactive)
ROOT
ATOM      1  C   UNL d   1       2.658  -5.998  -5.892  0.00  0.00     0.078 C 
ATOM      2  C1  UNL d   1       1.349  -5.979  -5.161  0.00  0.00    -0.077 A 
ATOM      3  C2  UNL d   1       1.304  -5.955  -3.762  0.00  0.00    -0.001 A 
ATOM      4  C3  UNL d   1       0.078  -5.947  -3.095  0.00  0.00     0.003 A 
ATOM      5  C4  UNL d   1      -1.112  -5.965  -3.819  0.00  0.00    -0.005 A 
ATOM      6  C5  UNL d   1      -1.078  -5.991  -5.212  0.00  0.00     0.003 A 
ATOM      7  C6  UNL d   1       0.147  -5.999  -5.881  0.00  0.00    -0.001 A 
ENDROOT
TORSDOF 0
ENDMDL
