MODEL 1
REMARK minimizedAffinity 2.86205721
REMARK minimizedRMSD -1
REMARK  0 active torsions:
REMARK  status: ('A' for Active; 'I' for Inactive)
ROOT
ATOM      1  C   UNL d   1      -0.004  -5.867  -1.678  0.00  0.00     0.078 C 
ATOM      2  C1  UNL d   1      -0.009  -5.877  -3.178  0.00  0.00    -0.077 A 
ATOM      3  C2  UNL d   1       1.182  -5.754  -3.904  0.00  0.00    -0.001 A 
ATOM      4  C3  UNL d   1       1.161  -5.756  -5.299  0.00  0.00     0.003 A 
ATOM      5  C4  UNL d   1      -0.048  -5.878  -5.981  0.00  0.00    -0.005 A 
ATOM      6  C5  UNL d   1      -1.238  -5.998  -5.267  0.00  0.00     0.003 A 
ATOM      7  C6  UNL d   1      -1.220  -5.997  -3.872  0.00  0.00    -0.001 A 
ENDROOT
TORSDOF 0
ENDMDL
