MODEL 1
REMARK minimizedAffinity 1.89898884
REMARK minimizedRMSD -1
REMARK  0 active torsions:
REMARK  status: ('A' for Active; 'I' for Inactive)
ROOT
ATOM      1  C   UNL d   1      -2.491  -5.995  -3.400  0.00  0.00     0.078 C 
ATOM      2  C1  UNL d   1      -1.122  -5.973  -4.011  0.00  0.00    -0.077 A 
ATOM      3  C2  UNL d   1      -0.953  -5.940  -5.401  0.00  0.00    -0.001 A 
ATOM      4  C3  UNL d   1       0.327  -5.930  -5.957  0.00  0.00     0.003 A 
ATOM      5  C4  UNL d   1       1.449  -5.955  -5.131  0.00  0.00    -0.005 A 
ATOM      6  C5  UNL d   1       1.291  -5.990  -3.747  0.00  0.00     0.003 A 
ATOM      7  C6  UNL d   1       0.012  -6.000  -3.189  0.00  0.00    -0.001 A 
ENDROOT
TORSDOF 0
ENDMDL
