MODEL 1
REMARK minimizedAffinity -0.621514142
REMARK minimizedRMSD -1
REMARK  0 active torsions:
REMARK  status: ('A' for Active; 'I' for Inactive)
ROOT
ATOM      1  C   UNL d   1      -3.572  -5.970  -3.194  0.00  0.00     0.078 C 
ATOM      2  C1  UNL d   1      -2.158  -5.980  -3.694  0.00  0.00    -0.077 A 
ATOM      3  C2  UNL d   1      -1.078  -5.989  -2.803  0.00  0.00    -0.001 A 
ATOM      4  C3  UNL d   1       0.233  -5.988  -3.282  0.00  0.00     0.003 A 
ATOM      5  C4  UNL d   1       0.476  -5.977  -4.654  0.00  0.00    -0.005 A 
ATOM      6  C5  UNL d   1      -0.592  -5.965  -5.549  0.00  0.00     0.003 A 
ATOM      7  C6  UNL d   1      -1.904  -5.966  -5.071  0.00  0.00    -0.001 A 
ENDROOT
TORSDOF 0
ENDMDL
