MODEL 1
REMARK minimizedAffinity -2.27397704
REMARK minimizedRMSD -1
REMARK  0 active torsions:
REMARK  status: ('A' for Active; 'I' for Inactive)
ROOT
ATOM      1  C   UNL d   1      -2.644  -5.633  -2.219  0.00  0.00     0.078 C 
ATOM      2  C1  UNL d   1      -1.754  -5.626  -3.425  0.00  0.00    -0.077 A 
ATOM      3  C2  UNL d   1      -2.244  -5.995  -4.684  0.00  0.00    -0.001 A 
ATOM      4  C3  UNL d   1      -1.402  -5.994  -5.797  0.00  0.00     0.003 A 
ATOM      5  C4  UNL d   1      -0.064  -5.626  -5.663  0.00  0.00    -0.005 A 
ATOM      6  C5  UNL d   1       0.432  -5.259  -4.414  0.00  0.00     0.003 A 
ATOM      7  C6  UNL d   1      -0.408  -5.260  -3.299  0.00  0.00    -0.001 A 
ENDROOT
TORSDOF 0
ENDMDL
