MODEL 1
REMARK minimizedAffinity -1.42658079
REMARK minimizedRMSD -1
REMARK  0 active torsions:
REMARK  status: ('A' for Active; 'I' for Inactive)
ROOT
ATOM      1  C   UNL d   1       1.207  -5.956  -5.998  0.00  0.00     0.078 C 
ATOM      2  C1  UNL d   1       0.081  -5.977  -5.008  0.00  0.00    -0.077 A 
ATOM      3  C2  UNL d   1      -1.253  -5.990  -5.433  0.00  0.00    -0.001 A 
ATOM      4  C3  UNL d   1      -2.291  -6.000  -4.500  0.00  0.00     0.003 A 
ATOM      5  C4  UNL d   1      -2.005  -5.995  -3.136  0.00  0.00    -0.005 A 
ATOM      6  C5  UNL d   1      -0.681  -5.979  -2.703  0.00  0.00     0.003 A 
ATOM      7  C6  UNL d   1       0.358  -5.970  -3.635  0.00  0.00    -0.001 A 
ENDROOT
TORSDOF 0
ENDMDL
