MODEL 1
REMARK minimizedAffinity 1.77809
REMARK minimizedRMSD -1
REMARK  0 active torsions:
REMARK  status: ('A' for Active; 'I' for Inactive)
ROOT
ATOM      1  C   UNL d   1       0.312  -3.559   1.062  0.00  0.00     0.078 C 
ATOM      2  C1  UNL d   1       0.732  -2.239   0.488  0.00  0.00    -0.077 A 
ATOM      3  C2  UNL d   1       0.661  -1.996  -0.889  0.00  0.00    -0.001 A 
ATOM      4  C3  UNL d   1       1.065  -0.766  -1.411  0.00  0.00     0.003 A 
ATOM      5  C4  UNL d   1       1.544   0.230  -0.563  0.00  0.00    -0.005 A 
ATOM      6  C5  UNL d   1       1.621  -0.003   0.808  0.00  0.00     0.003 A 
ATOM      7  C6  UNL d   1       1.217  -1.232   1.332  0.00  0.00    -0.001 A 
ENDROOT
TORSDOF 0
ENDMDL
