MODEL 1
REMARK minimizedAffinity -3.2645843
REMARK minimizedRMSD -1
REMARK  0 active torsions:
REMARK  status: ('A' for Active; 'I' for Inactive)
ROOT
ATOM      1  C   UNL d   1      -3.708  -5.999  -3.026  0.00  0.00     0.078 C 
ATOM      2  C1  UNL d   1      -2.407  -5.923  -3.768  0.00  0.00    -0.077 A 
ATOM      3  C2  UNL d   1      -1.184  -5.999  -3.088  0.00  0.00    -0.001 A 
ATOM      4  C3  UNL d   1       0.019  -5.918  -3.790  0.00  0.00     0.003 A 
ATOM      5  C4  UNL d   1       0.013  -5.759  -5.175  0.00  0.00    -0.005 A 
ATOM      6  C5  UNL d   1      -1.198  -5.681  -5.859  0.00  0.00     0.003 A 
ATOM      7  C6  UNL d   1      -2.403  -5.762  -5.159  0.00  0.00    -0.001 A 
ENDROOT
TORSDOF 0
ENDMDL
