MODEL 1
REMARK minimizedAffinity 4.58893108
REMARK minimizedRMSD -1
REMARK  0 active torsions:
REMARK  status: ('A' for Active; 'I' for Inactive)
ROOT
ATOM      1  C   UNL d   1      -0.754  -5.953  -2.043  0.00  0.00     0.078 C 
ATOM      2  C1  UNL d   1      -0.155  -5.972  -3.418  0.00  0.00    -0.077 A 
ATOM      3  C2  UNL d   1       1.233  -5.959  -3.601  0.00  0.00    -0.001 A 
ATOM      4  C3  UNL d   1       1.776  -5.967  -4.887  0.00  0.00     0.003 A 
ATOM      5  C4  UNL d   1       0.938  -5.987  -6.000  0.00  0.00    -0.005 A 
ATOM      6  C5  UNL d   1      -0.445  -5.998  -5.828  0.00  0.00     0.003 A 
ATOM      7  C6  UNL d   1      -0.989  -5.990  -4.543  0.00  0.00    -0.001 A 
ENDROOT
TORSDOF 0
ENDMDL
