MODEL 1
REMARK minimizedAffinity -2.60467005
REMARK minimizedRMSD -1
REMARK  0 active torsions:
REMARK  status: ('A' for Active; 'I' for Inactive)
ROOT
ATOM      1  C   UNL d   1      -1.451  -6.000  -2.414  0.00  0.00     0.078 C 
ATOM      2  C1  UNL d   1      -0.526  -5.885  -3.588  0.00  0.00    -0.077 A 
ATOM      3  C2  UNL d   1       0.843  -5.649  -3.408  0.00  0.00    -0.001 A 
ATOM      4  C3  UNL d   1       1.690  -5.534  -4.511  0.00  0.00     0.003 A 
ATOM      5  C4  UNL d   1       1.179  -5.652  -5.802  0.00  0.00    -0.005 A 
ATOM      6  C5  UNL d   1      -0.182  -5.885  -5.991  0.00  0.00     0.003 A 
ATOM      7  C6  UNL d   1      -1.031  -6.000  -4.890  0.00  0.00    -0.001 A 
ENDROOT
TORSDOF 0
ENDMDL
