MODEL 1
REMARK minimizedAffinity 6.75093412
REMARK minimizedRMSD -1
REMARK  0 active torsions:
REMARK  status: ('A' for Active; 'I' for Inactive)
ROOT
ATOM      1  C   UNL d   1      -0.028  -2.969   0.630  0.00  0.00     0.078 C 
ATOM      2  C1  UNL d   1       0.347  -1.560   0.280  0.00  0.00    -0.077 A 
ATOM      3  C2  UNL d   1      -0.051  -0.988  -0.934  0.00  0.00    -0.001 A 
ATOM      4  C3  UNL d   1       0.314   0.322  -1.250  0.00  0.00     0.003 A 
ATOM      5  C4  UNL d   1       1.080   1.069  -0.358  0.00  0.00    -0.005 A 
ATOM      6  C5  UNL d   1       1.483   0.507   0.851  0.00  0.00     0.003 A 
ATOM      7  C6  UNL d   1       1.119  -0.802   1.169  0.00  0.00    -0.001 A 
ENDROOT
TORSDOF 0
ENDMDL
