MODEL 1
REMARK minimizedAffinity -1.39135587
REMARK minimizedRMSD -1
REMARK  0 active torsions:
REMARK  status: ('A' for Active; 'I' for Inactive)
ROOT
ATOM      1  C   UNL d   1      -1.105  -5.968  -2.258  0.00  0.00     0.078 C 
ATOM      2  C1  UNL d   1      -0.356  -5.981  -3.557  0.00  0.00    -0.077 A 
ATOM      3  C2  UNL d   1       1.044  -5.963  -3.583  0.00  0.00    -0.001 A 
ATOM      4  C3  UNL d   1       1.727  -5.965  -4.800  0.00  0.00     0.003 A 
ATOM      5  C4  UNL d   1       1.019  -5.983  -6.000  0.00  0.00    -0.005 A 
ATOM      6  C5  UNL d   1      -0.374  -5.999  -5.984  0.00  0.00     0.003 A 
ATOM      7  C6  UNL d   1      -1.059  -5.997  -4.768  0.00  0.00    -0.001 A 
ENDROOT
TORSDOF 0
ENDMDL
