MODEL 1
REMARK minimizedAffinity -0.696467996
REMARK minimizedRMSD -1
REMARK  0 active torsions:
REMARK  status: ('A' for Active; 'I' for Inactive)
ROOT
ATOM      1  C   UNL d   1       2.317  -5.977  -3.393  0.00  0.00     0.078 C 
ATOM      2  C1  UNL d   1       0.951  -5.991  -4.012  0.00  0.00    -0.077 A 
ATOM      3  C2  UNL d   1       0.789  -5.988  -5.403  0.00  0.00    -0.001 A 
ATOM      4  C3  UNL d   1      -0.488  -5.993  -5.965  0.00  0.00     0.003 A 
ATOM      5  C4  UNL d   1      -1.614  -5.999  -5.144  0.00  0.00    -0.005 A 
ATOM      6  C5  UNL d   1      -1.463  -5.999  -3.759  0.00  0.00     0.003 A 
ATOM      7  C6  UNL d   1      -0.186  -5.995  -3.195  0.00  0.00    -0.001 A 
ENDROOT
TORSDOF 0
ENDMDL
