MODEL 1
REMARK minimizedAffinity 4.81290388
REMARK minimizedRMSD -1
REMARK  0 active torsions:
REMARK  status: ('A' for Active; 'I' for Inactive)
ROOT
ATOM      1  C   UNL d   1       0.439  -3.661   1.431  0.00  0.00     0.078 C 
ATOM      2  C1  UNL d   1       0.707  -2.239   1.040  0.00  0.00    -0.077 A 
ATOM      3  C2  UNL d   1      -0.232  -1.504   0.305  0.00  0.00    -0.001 A 
ATOM      4  C3  UNL d   1       0.035  -0.183  -0.060  0.00  0.00     0.003 A 
ATOM      5  C4  UNL d   1       1.241   0.413   0.304  0.00  0.00    -0.005 A 
ATOM      6  C5  UNL d   1       2.181  -0.311   1.034  0.00  0.00     0.003 A 
ATOM      7  C6  UNL d   1       1.916  -1.631   1.400  0.00  0.00    -0.001 A 
ENDROOT
TORSDOF 0
ENDMDL
