MODEL 1
REMARK minimizedAffinity 4.3088603
REMARK minimizedRMSD -1
REMARK  0 active torsions:
REMARK  status: ('A' for Active; 'I' for Inactive)
ROOT
ATOM      1  C   UNL d   1      -4.851  -6.000  -2.210  0.00  0.00     0.078 C 
ATOM      2  C1  UNL d   1      -4.522  -5.387  -0.882  0.00  0.00    -0.077 A 
ATOM      3  C2  UNL d   1      -4.919  -6.000   0.313  0.00  0.00    -0.001 A 
ATOM      4  C3  UNL d   1      -4.614  -5.413   1.542  0.00  0.00     0.003 A 
ATOM      5  C4  UNL d   1      -3.913  -4.209   1.589  0.00  0.00    -0.005 A 
ATOM      6  C5  UNL d   1      -3.517  -3.591   0.405  0.00  0.00     0.003 A 
ATOM      7  C6  UNL d   1      -3.820  -4.176  -0.825  0.00  0.00    -0.001 A 
ENDROOT
TORSDOF 0
ENDMDL
