MODEL 1
REMARK minimizedAffinity -0.258618861
REMARK minimizedRMSD -1
REMARK  0 active torsions:
REMARK  status: ('A' for Active; 'I' for Inactive)
ROOT
ATOM      1  C   UNL d   1      -5.929   1.941  -5.457  0.00  0.00     0.023 A 
ATOM      2  C1  UNL d   1      -4.965   2.865  -5.862  0.00  0.00     0.003 A 
ATOM      3  C2  UNL d   1      -4.030   3.347  -4.944  0.00  0.00     0.048 A 
ATOM      4  C3  UNL d   1      -4.063   2.901  -3.624  0.00  0.00     0.023 A 
ATOM      5  C4  UNL d   1      -5.025   1.976  -3.214  0.00  0.00     0.048 A 
ATOM      6  C5  UNL d   1      -5.958   1.497  -4.135  0.00  0.00     0.003 A 
ATOM      7  I   UNL d   1      -2.672   3.617  -2.256  0.00  0.00    -0.146 I 
ENDROOT
TORSDOF 0
ENDMDL
