MODEL 1
REMARK minimizedAffinity 2.28196096
REMARK minimizedRMSD -1
REMARK  0 active torsions:
REMARK  status: ('A' for Active; 'I' for Inactive)
ROOT
ATOM      1  C   UNL d   1      -1.482  -2.702  -4.815  0.00  0.00     0.023 A 
ATOM      2  C1  UNL d   1      -2.179  -3.329  -3.782  0.00  0.00     0.003 A 
ATOM      3  C2  UNL d   1      -1.534  -3.621  -2.579  0.00  0.00     0.048 A 
ATOM      4  C3  UNL d   1      -0.191  -3.282  -2.415  0.00  0.00     0.023 A 
ATOM      5  C4  UNL d   1       0.510  -2.654  -3.446  0.00  0.00     0.048 A 
ATOM      6  C5  UNL d   1      -0.139  -2.366  -4.647  0.00  0.00     0.003 A 
ATOM      7  I   UNL d   1       0.772  -3.715  -0.625  0.00  0.00    -0.146 I 
ENDROOT
TORSDOF 0
ENDMDL
