MODEL 1
REMARK minimizedAffinity 5.49948263
REMARK minimizedRMSD -1
REMARK  0 active torsions:
REMARK  status: ('A' for Active; 'I' for Inactive)
ROOT
ATOM      1  C   UNL d   1      -0.817  -4.555  -1.400  0.00  0.00     0.023 A 
ATOM      2  C1  UNL d   1       0.343  -5.049  -0.803  0.00  0.00     0.003 A 
ATOM      3  C2  UNL d   1       1.429  -4.201  -0.576  0.00  0.00     0.048 A 
ATOM      4  C3  UNL d   1       1.348  -2.859  -0.948  0.00  0.00     0.023 A 
ATOM      5  C4  UNL d   1       0.189  -2.360  -1.545  0.00  0.00     0.048 A 
ATOM      6  C5  UNL d   1      -0.894  -3.212  -1.770  0.00  0.00     0.003 A 
ATOM      7  I   UNL d   1       2.963  -1.595  -0.612  0.00  0.00    -0.146 I 
ENDROOT
TORSDOF 0
ENDMDL
