MODEL 1
REMARK minimizedAffinity 5.74218655
REMARK minimizedRMSD -1
REMARK  0 active torsions:
REMARK  status: ('A' for Active; 'I' for Inactive)
ROOT
ATOM      1  C   UNL d   1       1.237   1.692   0.737  0.00  0.00     0.023 A 
ATOM      2  C1  UNL d   1       1.037   1.352  -0.601  0.00  0.00     0.003 A 
ATOM      3  C2  UNL d   1       0.062   2.011  -1.352  0.00  0.00     0.048 A 
ATOM      4  C3  UNL d   1      -0.709   3.011  -0.760  0.00  0.00     0.023 A 
ATOM      5  C4  UNL d   1      -0.512   3.355   0.578  0.00  0.00     0.048 A 
ATOM      6  C5  UNL d   1       0.463   2.693   1.326  0.00  0.00     0.003 A 
ATOM      7  I   UNL d   1      -2.160   3.994  -1.877  0.00  0.00    -0.146 I 
ENDROOT
TORSDOF 0
ENDMDL
