MODEL 1
REMARK minimizedAffinity 7.2528429
REMARK minimizedRMSD -1
REMARK  0 active torsions:
REMARK  status: ('A' for Active; 'I' for Inactive)
ROOT
ATOM      1  C   UNL d   1       2.038   4.684  -0.002  0.00  0.00     0.023 A 
ATOM      2  C1  UNL d   1       0.975   4.781  -0.900  0.00  0.00     0.003 A 
ATOM      3  C2  UNL d   1      -0.123   3.928  -0.779  0.00  0.00     0.048 A 
ATOM      4  C3  UNL d   1      -0.153   2.981   0.245  0.00  0.00     0.023 A 
ATOM      5  C4  UNL d   1       0.907   2.881   1.146  0.00  0.00     0.048 A 
ATOM      6  C5  UNL d   1       2.004   3.735   1.020  0.00  0.00     0.003 A 
ATOM      7  I   UNL d   1      -1.788   1.710   0.428  0.00  0.00    -0.146 I 
ENDROOT
TORSDOF 0
ENDMDL
