MODEL 1
REMARK minimizedAffinity 0.156476021
REMARK minimizedRMSD -1
REMARK  0 active torsions:
REMARK  status: ('A' for Active; 'I' for Inactive)
ROOT
ATOM      1  C   UNL d   1      -0.094   3.597  -1.155  0.00  0.00     0.023 A 
ATOM      2  C1  UNL d   1      -0.022   4.364   0.008  0.00  0.00     0.003 A 
ATOM      3  C2  UNL d   1       0.102   3.740   1.251  0.00  0.00     0.048 A 
ATOM      4  C3  UNL d   1       0.153   2.348   1.324  0.00  0.00     0.023 A 
ATOM      5  C4  UNL d   1       0.082   1.577   0.163  0.00  0.00     0.048 A 
ATOM      6  C5  UNL d   1      -0.043   2.205  -1.077  0.00  0.00     0.003 A 
ATOM      7  I   UNL d   1       0.337   1.417   3.173  0.00  0.00    -0.146 I 
ENDROOT
TORSDOF 0
ENDMDL
