MODEL 1
REMARK minimizedAffinity 13.2820301
REMARK minimizedRMSD -1
REMARK  0 active torsions:
REMARK  status: ('A' for Active; 'I' for Inactive)
ROOT
ATOM      1  C   UNL d   1      -0.049   3.163   1.330  0.00  0.00     0.023 A 
ATOM      2  C1  UNL d   1       1.059   2.771   0.579  0.00  0.00     0.003 A 
ATOM      3  C2  UNL d   1       1.489   3.553  -0.495  0.00  0.00     0.048 A 
ATOM      4  C3  UNL d   1       0.807   4.727  -0.811  0.00  0.00     0.023 A 
ATOM      5  C4  UNL d   1      -0.302   5.124  -0.062  0.00  0.00     0.048 A 
ATOM      6  C5  UNL d   1      -0.729   4.338   1.010  0.00  0.00     0.003 A 
ATOM      7  I   UNL d   1       1.444   5.893  -2.409  0.00  0.00    -0.146 I 
ENDROOT
TORSDOF 0
ENDMDL
