MODEL 1
REMARK minimizedAffinity 5.70905161
REMARK minimizedRMSD -1
REMARK  0 active torsions:
REMARK  status: ('A' for Active; 'I' for Inactive)
ROOT
ATOM      1  C   UNL d   1      -0.424   5.096  -0.210  0.00  0.00     0.023 A 
ATOM      2  C1  UNL d   1      -1.105   5.998  -1.027  0.00  0.00     0.003 A 
ATOM      3  C2  UNL d   1      -2.062   5.537  -1.934  0.00  0.00     0.048 A 
ATOM      4  C3  UNL d   1      -2.333   4.172  -2.018  0.00  0.00     0.023 A 
ATOM      5  C4  UNL d   1      -1.655   3.265  -1.201  0.00  0.00     0.048 A 
ATOM      6  C5  UNL d   1      -0.699   3.731  -0.297  0.00  0.00     0.003 A 
ATOM      7  I   UNL d   1      -3.756   3.483  -3.366  0.00  0.00    -0.146 I 
ENDROOT
TORSDOF 0
ENDMDL
