MODEL 1
REMARK minimizedAffinity 5.9022665
REMARK minimizedRMSD -1
REMARK  0 active torsions:
REMARK  status: ('A' for Active; 'I' for Inactive)
ROOT
ATOM      1  C   UNL d   1      -4.244   2.651  -1.868  0.00  0.00     0.023 A 
ATOM      2  C1  UNL d   1      -3.442   2.655  -3.010  0.00  0.00     0.003 A 
ATOM      3  C2  UNL d   1      -3.917   3.219  -4.196  0.00  0.00     0.048 A 
ATOM      4  C3  UNL d   1      -5.194   3.778  -4.233  0.00  0.00     0.023 A 
ATOM      5  C4  UNL d   1      -5.999   3.777  -3.092  0.00  0.00     0.048 A 
ATOM      6  C5  UNL d   1      -5.520   3.211  -1.909  0.00  0.00     0.003 A 
ATOM      7  I   UNL d   1      -5.904   4.618  -5.997  0.00  0.00    -0.146 I 
ENDROOT
TORSDOF 0
ENDMDL
