MODEL 1
REMARK minimizedAffinity 5.35774946
REMARK minimizedRMSD -1
REMARK  0 active torsions:
REMARK  status: ('A' for Active; 'I' for Inactive)
ROOT
ATOM      1  C   UNL d   1      -1.543   4.669   0.053  0.00  0.00     0.023 A 
ATOM      2  C1  UNL d   1      -2.154   3.903  -0.941  0.00  0.00     0.003 A 
ATOM      3  C2  UNL d   1      -1.509   2.774  -1.449  0.00  0.00     0.048 A 
ATOM      4  C3  UNL d   1      -0.255   2.414  -0.958  0.00  0.00     0.023 A 
ATOM      5  C4  UNL d   1       0.360   3.177   0.037  0.00  0.00     0.048 A 
ATOM      6  C5  UNL d   1      -0.288   4.306   0.541  0.00  0.00     0.003 A 
ATOM      7  I   UNL d   1       0.707   0.733  -1.712  0.00  0.00    -0.146 I 
ENDROOT
TORSDOF 0
ENDMDL
