MODEL 1
REMARK minimizedAffinity -2.28479695
REMARK minimizedRMSD -1
REMARK  1 active torsions:
REMARK  status: ('A' for Active; 'I' for Inactive)
REMARK    1  A    between atoms: N_2  and  C1_3 
ROOT
ATOM      1  C1  UNL d   1      -1.059  -0.143  -4.573  0.00  0.00     0.143 A 
ATOM      2  C2  UNL d   1      -0.849  -0.446  -3.223  0.00  0.00    -0.057 A 
ATOM      3  C3  UNL d   1       0.021  -1.473  -2.837  0.00  0.00     0.033 A 
ATOM      4  C4  UNL d   1       0.676  -2.236  -3.798  0.00  0.00    -0.042 A 
ATOM      5  C5  UNL d   1       0.463  -1.969  -5.145  0.00  0.00     0.033 A 
ATOM      6  C6  UNL d   1      -0.401  -0.937  -5.525  0.00  0.00    -0.057 A 
ENDROOT
BRANCH   1   7
ATOM      7  N   UNL d   1      -1.985   0.801  -5.023  0.00  0.00    -0.732 N 
ATOM      8  C   UNL d   1      -3.231   0.380  -5.628  0.00  0.00     0.284 C 
ATOM      9  H3  UNL d   1      -2.078   1.589  -4.385  0.00  0.00     0.395 HD
ENDBRANCH   1   7
TORSDOF 1
ENDMDL
