MODEL 1
REMARK minimizedAffinity 5.11794901
REMARK minimizedRMSD -1
REMARK  1 active torsions:
REMARK  status: ('A' for Active; 'I' for Inactive)
REMARK    1  A    between atoms: N_2  and  C1_3 
ROOT
ATOM      1  C1  UNL d   1       4.662   2.238   3.649  0.00  0.00     0.143 A 
ATOM      2  C2  UNL d   1       5.302   1.004   3.491  0.00  0.00    -0.057 A 
ATOM      3  C3  UNL d   1       5.944   0.376   4.565  0.00  0.00     0.033 A 
ATOM      4  C4  UNL d   1       5.983   0.988   5.814  0.00  0.00    -0.042 A 
ATOM      5  C5  UNL d   1       5.375   2.226   5.988  0.00  0.00     0.033 A 
ATOM      6  C6  UNL d   1       4.730   2.845   4.913  0.00  0.00    -0.057 A 
ENDROOT
BRANCH   1   7
ATOM      7  N   UNL d   1       4.092   2.959   2.597  0.00  0.00    -0.732 N 
ATOM      8  C   UNL d   1       4.895   3.373   1.467  0.00  0.00     0.284 C 
ATOM      9  H3  UNL d   1       3.168   2.615   2.347  0.00  0.00     0.395 HD
ENDBRANCH   1   7
TORSDOF 1
ENDMDL
