MODEL 1
REMARK minimizedAffinity 1.21089494
REMARK minimizedRMSD -1
REMARK  0 active torsions:
REMARK  status: ('A' for Active; 'I' for Inactive)
ROOT
ATOM      1  O1  BZF d   1       1.606   6.000  -5.999  0.00  0.00    -0.204 OA
ATOM      2  C2  BZF d   1       0.531   5.176  -5.725  0.00  0.00     0.174 A 
ATOM      3  C3  BZF d   1       0.906   4.147  -4.938  0.00  0.00    -0.012 A 
ATOM      4  C3A BZF d   1       2.282   4.390  -4.631  0.00  0.00    -0.107 A 
ATOM      5  C4  BZF d   1       3.206   3.726  -3.876  0.00  0.00     0.055 A 
ATOM      6  C5  BZF d   1       4.484   4.188  -3.840  0.00  0.00    -0.016 A 
ATOM      7  C6  BZF d   1       4.872   5.305  -4.550  0.00  0.00     0.022 A 
ATOM      8  C7  BZF d   1       3.990   5.999  -5.309  0.00  0.00     0.029 A 
ATOM      9  C7A BZF d   1       2.690   5.554  -5.321  0.00  0.00     0.058 A 
ENDROOT
TORSDOF 0
ENDMDL
