MODEL 1
REMARK minimizedAffinity -2.02413559
REMARK minimizedRMSD -1
REMARK  0 active torsions:
REMARK  status: ('A' for Active; 'I' for Inactive)
ROOT
ATOM      1  O1  BZF d   1       2.234   4.050  -4.729  0.00  0.00    -0.204 OA
ATOM      2  C2  BZF d   1       1.508   5.074  -5.308  0.00  0.00     0.174 A 
ATOM      3  C3  BZF d   1       2.330   6.000  -5.842  0.00  0.00    -0.012 A 
ATOM      4  C3A BZF d   1       3.651   5.480  -5.663  0.00  0.00    -0.107 A 
ATOM      5  C4  BZF d   1       4.893   5.936  -6.000  0.00  0.00     0.055 A 
ATOM      6  C5  BZF d   1       5.985   5.223  -5.616  0.00  0.00    -0.016 A 
ATOM      7  C6  BZF d   1       5.871   4.055  -4.891  0.00  0.00     0.022 A 
ATOM      8  C7  BZF d   1       4.660   3.560  -4.538  0.00  0.00     0.029 A 
ATOM      9  C7A BZF d   1       3.554   4.261  -4.953  0.00  0.00     0.058 A 
ENDROOT
TORSDOF 0
ENDMDL
