MODEL 1
REMARK minimizedAffinity -3.1789763
REMARK minimizedRMSD -1
REMARK  0 active torsions:
REMARK  status: ('A' for Active; 'I' for Inactive)
ROOT
ATOM      1  O1  BZF d   1       4.530   3.442  -3.846  0.00  0.00    -0.204 OA
ATOM      2  C2  BZF d   1       5.770   3.947  -4.186  0.00  0.00     0.174 A 
ATOM      3  C3  BZF d   1       5.650   4.947  -5.083  0.00  0.00    -0.012 A 
ATOM      4  C3A BZF d   1       4.242   5.137  -5.248  0.00  0.00    -0.107 A 
ATOM      5  C4  BZF d   1       3.492   5.998  -5.998  0.00  0.00     0.055 A 
ATOM      6  C5  BZF d   1       2.139   5.874  -5.990  0.00  0.00    -0.016 A 
ATOM      7  C6  BZF d   1       1.503   4.900  -5.249  0.00  0.00     0.022 A 
ATOM      8  C7  BZF d   1       2.204   4.026  -4.485  0.00  0.00     0.029 A 
ATOM      9  C7A BZF d   1       3.570   4.169  -4.466  0.00  0.00     0.058 A 
ENDROOT
TORSDOF 0
ENDMDL
