MODEL 1
REMARK minimizedAffinity 0.469682992
REMARK minimizedRMSD -1
REMARK  0 active torsions:
REMARK  status: ('A' for Active; 'I' for Inactive)
ROOT
ATOM      1  O1  BZF d   1       0.932   5.954  -3.907  0.00  0.00    -0.204 OA
ATOM      2  C2  BZF d   1       1.160   5.940  -5.270  0.00  0.00     0.174 A 
ATOM      3  C3  BZF d   1      -0.005   5.895  -5.949  0.00  0.00    -0.012 A 
ATOM      4  C3A BZF d   1      -1.026   5.972  -4.950  0.00  0.00    -0.107 A 
ATOM      5  C4  BZF d   1      -2.391   5.989  -5.002  0.00  0.00     0.055 A 
ATOM      6  C5  BZF d   1      -3.096   5.997  -3.841  0.00  0.00    -0.016 A 
ATOM      7  C6  BZF d   1      -2.470   5.984  -2.611  0.00  0.00     0.022 A 
ATOM      8  C7  BZF d   1      -1.119   5.973  -2.509  0.00  0.00     0.029 A 
ATOM      9  C7A BZF d   1      -0.403   5.998  -3.681  0.00  0.00     0.058 A 
ENDROOT
TORSDOF 0
ENDMDL
