MODEL 1
REMARK minimizedAffinity 2.72661281
REMARK minimizedRMSD -1
REMARK  0 active torsions:
REMARK  status: ('A' for Active; 'I' for Inactive)
ROOT
ATOM      1  O1  BZF d   1      -0.120   5.971  -2.946  0.00  0.00    -0.204 OA
ATOM      2  C2  BZF d   1       0.445   5.984  -4.206  0.00  0.00     0.174 A 
ATOM      3  C3  BZF d   1      -0.508   5.940  -5.159  0.00  0.00    -0.012 A 
ATOM      4  C3A BZF d   1      -1.751   5.991  -4.451  0.00  0.00    -0.107 A 
ATOM      5  C4  BZF d   1      -3.057   5.996  -4.847  0.00  0.00     0.055 A 
ATOM      6  C5  BZF d   1      -4.034   5.978  -3.902  0.00  0.00    -0.016 A 
ATOM      7  C6  BZF d   1      -3.740   5.949  -2.554  0.00  0.00     0.022 A 
ATOM      8  C7  BZF d   1      -2.458   5.948  -2.113  0.00  0.00     0.029 A 
ATOM      9  C7A BZF d   1      -1.469   6.000  -3.065  0.00  0.00     0.058 A 
ENDROOT
TORSDOF 0
ENDMDL
