MODEL 1
REMARK minimizedAffinity 3.29167581
REMARK minimizedRMSD -1
REMARK  0 active torsions:
REMARK  status: ('A' for Active; 'I' for Inactive)
ROOT
ATOM      1  O1  BZF d   1       0.108   4.712  -5.035  0.00  0.00    -0.204 OA
ATOM      2  C2  BZF d   1       0.006   3.637  -4.174  0.00  0.00     0.174 A 
ATOM      3  C3  BZF d   1       1.227   3.177  -3.835  0.00  0.00    -0.012 A 
ATOM      4  C3A BZF d   1       2.153   4.076  -4.454  0.00  0.00    -0.107 A 
ATOM      5  C4  BZF d   1       3.516   4.154  -4.472  0.00  0.00     0.055 A 
ATOM      6  C5  BZF d   1       4.113   5.109  -5.232  0.00  0.00    -0.016 A 
ATOM      7  C6  BZF d   1       3.378   5.998  -5.990  0.00  0.00     0.022 A 
ATOM      8  C7  BZF d   1       2.023   5.963  -6.000  0.00  0.00     0.029 A 
ATOM      9  C7A BZF d   1       1.417   5.020  -5.207  0.00  0.00     0.058 A 
ENDROOT
TORSDOF 0
ENDMDL
