MODEL 1
REMARK minimizedAffinity 11.4142294
REMARK minimizedRMSD -1
REMARK  0 active torsions:
REMARK  status: ('A' for Active; 'I' for Inactive)
ROOT
ATOM      1  O1  BZF d   1       2.103   3.249  -3.829  0.00  0.00    -0.204 OA
ATOM      2  C2  BZF d   1       3.023   2.628  -3.006  0.00  0.00     0.174 A 
ATOM      3  C3  BZF d   1       4.254   3.150  -3.186  0.00  0.00    -0.012 A 
ATOM      4  C3A BZF d   1       4.076   4.222  -4.116  0.00  0.00    -0.107 A 
ATOM      5  C4  BZF d   1       4.928   5.130  -4.677  0.00  0.00     0.055 A 
ATOM      6  C5  BZF d   1       4.450   5.999  -5.605  0.00  0.00    -0.016 A 
ATOM      7  C6  BZF d   1       3.129   5.986  -6.000  0.00  0.00     0.022 A 
ATOM      8  C7  BZF d   1       2.244   5.107  -5.468  0.00  0.00     0.029 A 
ATOM      9  C7A BZF d   1       2.717   4.249  -4.506  0.00  0.00     0.058 A 
ENDROOT
TORSDOF 0
ENDMDL
