MODEL 1
REMARK minimizedAffinity 9.68347263
REMARK minimizedRMSD -1
REMARK  0 active torsions:
REMARK  status: ('A' for Active; 'I' for Inactive)
ROOT
ATOM      1  O1  BZF d   1       1.324   3.632  -4.824  0.00  0.00    -0.204 OA
ATOM      2  C2  BZF d   1       0.454   4.471  -5.495  0.00  0.00     0.174 A 
ATOM      3  C3  BZF d   1       1.111   5.535  -5.999  0.00  0.00    -0.012 A 
ATOM      4  C3A BZF d   1       2.491   5.304  -5.699  0.00  0.00    -0.107 A 
ATOM      5  C4  BZF d   1       3.637   6.000  -5.956  0.00  0.00     0.055 A 
ATOM      6  C5  BZF d   1       4.815   5.537  -5.463  0.00  0.00    -0.016 A 
ATOM      7  C6  BZF d   1       4.883   4.386  -4.705  0.00  0.00     0.022 A 
ATOM      8  C7  BZF d   1       3.774   3.659  -4.428  0.00  0.00     0.029 A 
ATOM      9  C7A BZF d   1       2.586   4.106  -4.953  0.00  0.00     0.058 A 
ENDROOT
TORSDOF 0
ENDMDL
