MODEL 1
REMARK minimizedAffinity 2.23422456
REMARK minimizedRMSD -1
REMARK  0 active torsions:
REMARK  status: ('A' for Active; 'I' for Inactive)
ROOT
ATOM      1  O1  BZF d   1       2.468   5.935  -5.999  0.00  0.00    -0.204 OA
ATOM      2  C2  BZF d   1       1.481   4.968  -5.977  0.00  0.00     0.174 A 
ATOM      3  C3  BZF d   1       1.948   3.820  -5.444  0.00  0.00    -0.012 A 
ATOM      4  C3A BZF d   1       3.284   4.115  -5.028  0.00  0.00    -0.107 A 
ATOM      5  C4  BZF d   1       4.260   3.382  -4.415  0.00  0.00     0.055 A 
ATOM      6  C5  BZF d   1       5.481   3.944  -4.214  0.00  0.00    -0.016 A 
ATOM      7  C6  BZF d   1       5.762   5.232  -4.618  0.00  0.00     0.022 A 
ATOM      8  C7  BZF d   1       4.825   6.000  -5.226  0.00  0.00     0.029 A 
ATOM      9  C7A BZF d   1       3.581   5.446  -5.401  0.00  0.00     0.058 A 
ENDROOT
TORSDOF 0
ENDMDL
