MODEL 1
REMARK minimizedAffinity 2.32270312
REMARK minimizedRMSD -1
REMARK  0 active torsions:
REMARK  status: ('A' for Active; 'I' for Inactive)
ROOT
ATOM      1  O1  BZF d   1       1.326   5.954  -3.813  0.00  0.00    -0.204 OA
ATOM      2  C2  BZF d   1       1.714   5.936  -5.138  0.00  0.00     0.174 A 
ATOM      3  C3  BZF d   1       0.638   5.889  -5.951  0.00  0.00    -0.012 A 
ATOM      4  C3A BZF d   1      -0.494   5.970  -5.080  0.00  0.00    -0.107 A 
ATOM      5  C4  BZF d   1      -1.843   5.986  -5.294  0.00  0.00     0.055 A 
ATOM      6  C5  BZF d   1      -2.681   5.999  -4.224  0.00  0.00    -0.016 A 
ATOM      7  C6  BZF d   1      -2.205   5.990  -2.929  0.00  0.00     0.022 A 
ATOM      8  C7  BZF d   1      -0.875   5.978  -2.667  0.00  0.00     0.029 A 
ATOM      9  C7A BZF d   1      -0.026   5.999  -3.746  0.00  0.00     0.058 A 
ENDROOT
TORSDOF 0
ENDMDL
