MODEL 1
REMARK minimizedAffinity 5.47753191
REMARK minimizedRMSD -1
REMARK  0 active torsions:
REMARK  status: ('A' for Active; 'I' for Inactive)
ROOT
ATOM      1  O1  BZF d   1      -0.111  -0.594   0.766  0.00  0.00    -0.204 OA
ATOM      2  C2  BZF d   1      -0.163  -0.248   2.102  0.00  0.00     0.174 A 
ATOM      3  C3  BZF d   1       0.395   0.963   2.304  0.00  0.00    -0.012 A 
ATOM      4  C3A BZF d   1       0.739   1.441   1.001  0.00  0.00    -0.107 A 
ATOM      5  C4  BZF d   1       1.312   2.593   0.544  0.00  0.00     0.055 A 
ATOM      6  C5  BZF d   1       1.579   2.718  -0.783  0.00  0.00    -0.016 A 
ATOM      7  C6  BZF d   1       1.292   1.709  -1.679  0.00  0.00     0.022 A 
ATOM      8  C7  BZF d   1       0.718   0.550  -1.274  0.00  0.00     0.029 A 
ATOM      9  C7A BZF d   1       0.417   0.434   0.061  0.00  0.00     0.058 A 
ENDROOT
TORSDOF 0
ENDMDL
