MODEL 1
REMARK minimizedAffinity 2.76882839
REMARK minimizedRMSD -1
REMARK  0 active torsions:
REMARK  status: ('A' for Active; 'I' for Inactive)
ROOT
ATOM      1  O1  BZF d   1       2.660   0.500   1.813  0.00  0.00    -0.204 OA
ATOM      2  C2  BZF d   1       3.610   1.405   1.379  0.00  0.00     0.174 A 
ATOM      3  C3  BZF d   1       3.043   2.369   0.625  0.00  0.00    -0.012 A 
ATOM      4  C3A BZF d   1       1.639   2.098   0.662  0.00  0.00    -0.107 A 
ATOM      5  C4  BZF d   1       0.549   2.715   0.116  0.00  0.00     0.055 A 
ATOM      6  C5  BZF d   1      -0.678   2.155   0.281  0.00  0.00    -0.016 A 
ATOM      7  C6  BZF d   1      -0.851   0.979   0.980  0.00  0.00     0.022 A 
ATOM      8  C7  BZF d   1       0.199   0.333   1.544  0.00  0.00     0.029 A 
ATOM      9  C7A BZF d   1       1.436   0.913   1.407  0.00  0.00     0.058 A 
ENDROOT
TORSDOF 0
ENDMDL
