MODEL 1
REMARK minimizedAffinity 1.24944818
REMARK minimizedRMSD -1
REMARK  0 active torsions:
REMARK  status: ('A' for Active; 'I' for Inactive)
ROOT
ATOM      1  O1  BZF d   1       1.433   1.672  -1.693  0.00  0.00    -0.204 OA
ATOM      2  C2  BZF d   1       1.860   2.874  -1.164  0.00  0.00     0.174 A 
ATOM      3  C3  BZF d   1       1.562   2.953   0.149  0.00  0.00    -0.012 A 
ATOM      4  C3A BZF d   1       0.990   1.684   0.481  0.00  0.00    -0.107 A 
ATOM      5  C4  BZF d   1       0.509   1.146   1.641  0.00  0.00     0.055 A 
ATOM      6  C5  BZF d   1      -0.048  -0.093   1.612  0.00  0.00    -0.016 A 
ATOM      7  C6  BZF d   1      -0.146  -0.818   0.443  0.00  0.00     0.022 A 
ATOM      8  C7  BZF d   1       0.321  -0.328  -0.731  0.00  0.00     0.029 A 
ATOM      9  C7A BZF d   1       0.915   0.910  -0.699  0.00  0.00     0.058 A 
ENDROOT
TORSDOF 0
ENDMDL
