MODEL 1
REMARK minimizedAffinity -2.16825366
REMARK minimizedRMSD -1
REMARK  0 active torsions:
REMARK  status: ('A' for Active; 'I' for Inactive)
ROOT
ATOM      1  O1  BZF d   1       4.737   3.381  -3.847  0.00  0.00    -0.204 OA
ATOM      2  C2  BZF d   1       6.000   3.824  -4.188  0.00  0.00     0.174 A 
ATOM      3  C3  BZF d   1       5.928   4.833  -5.080  0.00  0.00    -0.012 A 
ATOM      4  C3A BZF d   1       4.531   5.095  -5.241  0.00  0.00    -0.107 A 
ATOM      5  C4  BZF d   1       3.824   5.996  -5.984  0.00  0.00     0.055 A 
ATOM      6  C5  BZF d   1       2.466   5.941  -5.973  0.00  0.00    -0.016 A 
ATOM      7  C6  BZF d   1       1.784   4.996  -5.234  0.00  0.00     0.022 A 
ATOM      8  C7  BZF d   1       2.441   4.085  -4.477  0.00  0.00     0.029 A 
ATOM      9  C7A BZF d   1       3.813   4.159  -4.461  0.00  0.00     0.058 A 
ENDROOT
TORSDOF 0
ENDMDL
