MODEL 1
REMARK minimizedAffinity 3.33569741
REMARK minimizedRMSD -1
REMARK  0 active torsions:
REMARK  status: ('A' for Active; 'I' for Inactive)
ROOT
ATOM      1  O1  BZF d   1      -1.000   5.924  -4.050  0.00  0.00    -0.204 OA
ATOM      2  C2  BZF d   1      -0.225   5.920  -2.907  0.00  0.00     0.174 A 
ATOM      3  C3  BZF d   1      -0.998   5.993  -1.804  0.00  0.00    -0.012 A 
ATOM      4  C3A BZF d   1      -2.345   5.952  -2.286  0.00  0.00    -0.107 A 
ATOM      5  C4  BZF d   1      -3.564   5.974  -1.669  0.00  0.00     0.055 A 
ATOM      6  C5  BZF d   1      -4.689   5.995  -2.431  0.00  0.00    -0.016 A 
ATOM      7  C6  BZF d   1      -4.632   6.000  -3.810  0.00  0.00     0.022 A 
ATOM      8  C7  BZF d   1      -3.447   5.973  -4.466  0.00  0.00     0.029 A 
ATOM      9  C7A BZF d   1      -2.309   5.919  -3.699  0.00  0.00     0.058 A 
ENDROOT
TORSDOF 0
ENDMDL
