MODEL 1
REMARK minimizedAffinity 2.78398228
REMARK minimizedRMSD -1
REMARK  0 active torsions:
REMARK  status: ('A' for Active; 'I' for Inactive)
ROOT
ATOM      1  O1  BZF d   1       0.996   5.975  -3.464  0.00  0.00    -0.204 OA
ATOM      2  C2  BZF d   1       0.138   5.830  -4.537  0.00  0.00     0.174 A 
ATOM      3  C3  BZF d   1       0.828   5.712  -5.690  0.00  0.00    -0.012 A 
ATOM      4  C3A BZF d   1       2.205   5.696  -5.303  0.00  0.00    -0.107 A 
ATOM      5  C4  BZF d   1       3.375   5.584  -6.000  0.00  0.00     0.055 A 
ATOM      6  C5  BZF d   1       4.554   5.677  -5.331  0.00  0.00    -0.016 A 
ATOM      7  C6  BZF d   1       4.601   5.887  -3.968  0.00  0.00     0.022 A 
ATOM      8  C7  BZF d   1       3.467   6.000  -3.234  0.00  0.00     0.029 A 
ATOM      9  C7A BZF d   1       2.274   5.873  -3.902  0.00  0.00     0.058 A 
ENDROOT
TORSDOF 0
ENDMDL
