MODEL 1
REMARK minimizedAffinity 1.43920338
REMARK minimizedRMSD -1
REMARK  0 active torsions:
REMARK  status: ('A' for Active; 'I' for Inactive)
ROOT
ATOM      1  O1  BZF d   1      -1.475   5.940  -5.083  0.00  0.00    -0.204 OA
ATOM      2  C2  BZF d   1      -0.093   5.935  -5.089  0.00  0.00     0.174 A 
ATOM      3  C3  BZF d   1       0.390   5.999  -3.831  0.00  0.00    -0.012 A 
ATOM      4  C3A BZF d   1      -0.761   5.955  -2.983  0.00  0.00    -0.107 A 
ATOM      5  C4  BZF d   1      -0.929   5.969  -1.628  0.00  0.00     0.055 A 
ATOM      6  C5  BZF d   1      -2.189   5.989  -1.119  0.00  0.00    -0.016 A 
ATOM      7  C6  BZF d   1      -3.301   6.000  -1.934  0.00  0.00     0.022 A 
ATOM      8  C7  BZF d   1      -3.185   5.982  -3.285  0.00  0.00     0.029 A 
ATOM      9  C7A BZF d   1      -1.913   5.929  -3.801  0.00  0.00     0.058 A 
ENDROOT
TORSDOF 0
ENDMDL
