MODEL 1
REMARK minimizedAffinity 12.8532572
REMARK minimizedRMSD -1
REMARK  1 active torsions:
REMARK  status: ('A' for Active; 'I' for Inactive)
REMARK    1  A    between atoms: C1_2  and  C2_3 
ROOT
ATOM      1  C2  UNL d   1       0.486   2.910   1.645  0.00  0.00    -0.076 A 
ATOM      2  C3  UNL d   1       1.886   2.780   1.634  0.00  0.00     0.004 A 
ATOM      3  C4  UNL d   1       2.559   2.167   2.689  0.00  0.00    -0.003 A 
ATOM      4  C5  UNL d   1       1.842   1.673   3.774  0.00  0.00     0.000 A 
ATOM      5  C6  UNL d   1       0.452   1.778   3.794  0.00  0.00     0.000 A 
ATOM      6  C7  UNL d   1      -0.243   2.378   2.731  0.00  0.00    -0.073 A 
ATOM      7  C8  UNL d   1      -1.742   2.469   2.808  0.00  0.00     0.078 C 
ENDROOT
BRANCH   1   8
ATOM      8  C1  UNL d   1      -0.186   3.608   0.485  0.00  0.00     0.053 C 
ATOM      9  C   UNL d   1       0.755   4.545  -0.256  0.00  0.00     0.018 C 
ENDBRANCH   1   8
TORSDOF 1
ENDMDL
