MODEL 1
REMARK minimizedAffinity 10.7328968
REMARK minimizedRMSD -1
REMARK  1 active torsions:
REMARK  status: ('A' for Active; 'I' for Inactive)
REMARK    1  A    between atoms: C1_2  and  C2_3 
ROOT
ATOM      1  C2  UNL d   1      -2.063   0.378  -1.935  0.00  0.00    -0.076 A 
ATOM      2  C3  UNL d   1      -1.393  -0.588  -1.165  0.00  0.00     0.004 A 
ATOM      3  C4  UNL d   1      -0.582  -1.549  -1.766  0.00  0.00    -0.003 A 
ATOM      4  C5  UNL d   1      -0.428  -1.560  -3.148  0.00  0.00     0.000 A 
ATOM      5  C6  UNL d   1      -1.072  -0.599  -3.926  0.00  0.00     0.000 A 
ATOM      6  C7  UNL d   1      -1.880   0.387  -3.335  0.00  0.00    -0.073 A 
ATOM      7  C8  UNL d   1      -2.555   1.395  -4.223  0.00  0.00     0.078 C 
ENDROOT
BRANCH   1   8
ATOM      8  C1  UNL d   1      -2.951   1.379  -1.231  0.00  0.00     0.053 C 
ATOM      9  C   UNL d   1      -3.506   0.843   0.081  0.00  0.00     0.018 C 
ENDBRANCH   1   8
TORSDOF 1
ENDMDL
