MODEL 1
REMARK minimizedAffinity 9.47552586
REMARK minimizedRMSD -1
REMARK  1 active torsions:
REMARK  status: ('A' for Active; 'I' for Inactive)
REMARK    1  A    between atoms: C1_2  and  C2_3 
ROOT
ATOM      1  C2  UNL d   1      -0.157   3.735   1.586  0.00  0.00    -0.076 A 
ATOM      2  C3  UNL d   1      -0.452   5.088   1.828  0.00  0.00     0.004 A 
ATOM      3  C4  UNL d   1      -0.549   6.000   0.778  0.00  0.00    -0.003 A 
ATOM      4  C5  UNL d   1      -0.354   5.573  -0.531  0.00  0.00     0.000 A 
ATOM      5  C6  UNL d   1      -0.079   4.231  -0.791  0.00  0.00     0.000 A 
ATOM      6  C7  UNL d   1       0.006   3.296   0.255  0.00  0.00    -0.073 A 
ATOM      7  C8  UNL d   1       0.312   1.862  -0.083  0.00  0.00     0.078 C 
ENDROOT
BRANCH   1   8
ATOM      8  C1  UNL d   1      -0.038   2.797   2.766  0.00  0.00     0.053 C 
ATOM      9  C   UNL d   1       1.381   2.722   3.308  0.00  0.00     0.018 C 
ENDBRANCH   1   8
TORSDOF 1
ENDMDL
