MODEL 1
REMARK minimizedAffinity 14.0468512
REMARK minimizedRMSD -1
REMARK  1 active torsions:
REMARK  status: ('A' for Active; 'I' for Inactive)
REMARK    1  A    between atoms: C1_2  and  C2_3 
ROOT
ATOM      1  C2  UNL d   1       0.428   3.469   1.402  0.00  0.00    -0.076 A 
ATOM      2  C3  UNL d   1      -0.814   2.817   1.321  0.00  0.00     0.004 A 
ATOM      3  C4  UNL d   1      -1.167   1.827   2.237  0.00  0.00    -0.003 A 
ATOM      4  C5  UNL d   1      -0.282   1.475   3.251  0.00  0.00     0.000 A 
ATOM      5  C6  UNL d   1       0.947   2.124   3.357  0.00  0.00     0.000 A 
ATOM      6  C7  UNL d   1       1.311   3.135   2.451  0.00  0.00    -0.073 A 
ATOM      7  C8  UNL d   1       2.652   3.797   2.610  0.00  0.00     0.078 C 
ENDROOT
BRANCH   1   8
ATOM      8  C1  UNL d   1       0.767   4.515   0.364  0.00  0.00     0.053 C 
ATOM      9  C   UNL d   1      -0.416   5.412   0.034  0.00  0.00     0.018 C 
ENDBRANCH   1   8
TORSDOF 1
ENDMDL
