MODEL 1
REMARK minimizedAffinity 9.89914417
REMARK minimizedRMSD -1
REMARK  1 active torsions:
REMARK  status: ('A' for Active; 'I' for Inactive)
REMARK    1  A    between atoms: C1_2  and  C2_3 
ROOT
ATOM      1  C2  UNL d   1       3.544  -1.695   0.224  0.00  0.00    -0.076 A 
ATOM      2  C3  UNL d   1       4.835  -2.250   0.232  0.00  0.00     0.004 A 
ATOM      3  C4  UNL d   1       5.566  -2.385  -0.947  0.00  0.00    -0.003 A 
ATOM      4  C5  UNL d   1       5.017  -1.967  -2.154  0.00  0.00     0.000 A 
ATOM      5  C6  UNL d   1       3.744  -1.397  -2.179  0.00  0.00     0.000 A 
ATOM      6  C7  UNL d   1       3.001  -1.239  -0.996  0.00  0.00    -0.073 A 
ATOM      7  C8  UNL d   1       1.631  -0.624  -1.082  0.00  0.00     0.078 C 
ENDROOT
BRANCH   1   8
ATOM      8  C1  UNL d   1       2.788  -1.599   1.530  0.00  0.00     0.053 C 
ATOM      9  C   UNL d   1       2.973  -0.252   2.212  0.00  0.00     0.018 C 
ENDBRANCH   1   8
TORSDOF 1
ENDMDL
