MODEL 1
REMARK minimizedAffinity 4.09648371
REMARK minimizedRMSD -1
REMARK  3 active torsions:
REMARK  status: ('A' for Active; 'I' for Inactive)
REMARK    1  A    between atoms: C3'_2  and  C2'_3 
REMARK    2  A    between atoms: C2'_3  and  C1'_4 
REMARK    3  A    between atoms: C1'_4  and  C1_5 
ROOT
ATOM      1  C1  N4B d   1      -5.437   0.272   1.055  0.00  0.00    -0.075 A 
ATOM      2  C2  N4B d   1      -4.395   0.811   1.841  0.00  0.00     0.002 A 
ATOM      3  C3  N4B d   1      -3.965   0.144   2.961  0.00  0.00     0.002 A 
ATOM      4  C4  N4B d   1      -4.571  -1.049   3.324  0.00  0.00    -0.004 A 
ATOM      5  C5  N4B d   1      -5.560  -1.576   2.546  0.00  0.00     0.002 A 
ATOM      6  C6  N4B d   1      -6.000  -0.918   1.415  0.00  0.00     0.002 A 
ENDROOT
BRANCH   1   7
ATOM      7  C1' N4B d   1      -6.000   1.008  -0.131  0.00  0.00     0.057 C 
BRANCH   7   8
ATOM      8  C2' N4B d   1      -4.951   1.982  -0.659  0.00  0.00     0.009 C 
BRANCH   8   9
ATOM      9  C3' N4B d   1      -5.406   2.669  -1.935  0.00  0.00     0.004 C 
ATOM     10  C4' N4B d   1      -5.264   4.161  -1.874  0.00  0.00     0.003 C 
ENDBRANCH   8   9
ENDBRANCH   7   8
ENDBRANCH   1   7
TORSDOF 3
ENDMDL
