MODEL 1
REMARK minimizedAffinity 8.57461071
REMARK minimizedRMSD -1
REMARK  3 active torsions:
REMARK  status: ('A' for Active; 'I' for Inactive)
REMARK    1  A    between atoms: C3'_2  and  C2'_3 
REMARK    2  A    between atoms: C2'_3  and  C1'_4 
REMARK    3  A    between atoms: C1'_4  and  C1_5 
ROOT
ATOM      1  C1  N4B d   1       0.927  -0.704   1.311  0.00  0.00    -0.075 A 
ATOM      2  C2  N4B d   1      -0.104   0.242   1.124  0.00  0.00     0.002 A 
ATOM      3  C3  N4B d   1      -0.406   0.688  -0.140  0.00  0.00     0.002 A 
ATOM      4  C4  N4B d   1       0.320   0.218  -1.224  0.00  0.00    -0.004 A 
ATOM      5  C5  N4B d   1       1.298  -0.714  -1.037  0.00  0.00     0.002 A 
ATOM      6  C6  N4B d   1       1.609  -1.175   0.226  0.00  0.00     0.002 A 
ENDROOT
BRANCH   1   7
ATOM      7  C1' N4B d   1       1.350  -1.157   2.682  0.00  0.00     0.057 C 
BRANCH   7   8
ATOM      8  C2' N4B d   1       2.874  -1.191   2.750  0.00  0.00     0.009 C 
BRANCH   8   9
ATOM      9  C3' N4B d   1       3.372  -1.987   3.944  0.00  0.00     0.004 C 
ATOM     10  C4' N4B d   1       4.837  -2.300   3.863  0.00  0.00     0.003 C 
ENDBRANCH   8   9
ENDBRANCH   7   8
ENDBRANCH   1   7
TORSDOF 3
ENDMDL
