MODEL 1
REMARK minimizedAffinity -2.0281837
REMARK minimizedRMSD -1
REMARK  3 active torsions:
REMARK  status: ('A' for Active; 'I' for Inactive)
REMARK    1  A    between atoms: C3'_2  and  C2'_3 
REMARK    2  A    between atoms: C2'_3  and  C1'_4 
REMARK    3  A    between atoms: C1'_4  and  C1_5 
ROOT
ATOM      1  C1  N4B d   1       0.376   2.560   0.654  0.00  0.00    -0.075 A 
ATOM      2  C2  N4B d   1       0.378   1.385  -0.130  0.00  0.00     0.002 A 
ATOM      3  C3  N4B d   1       0.398   0.154   0.478  0.00  0.00     0.002 A 
ATOM      4  C4  N4B d   1       0.434   0.073   1.862  0.00  0.00    -0.004 A 
ATOM      5  C5  N4B d   1       0.406   1.212   2.612  0.00  0.00     0.002 A 
ATOM      6  C6  N4B d   1       0.382   2.456   2.015  0.00  0.00     0.002 A 
ENDROOT
BRANCH   1   7
ATOM      7  C1' N4B d   1       0.441   3.929   0.034  0.00  0.00     0.057 C 
BRANCH   7   8
ATOM      8  C2' N4B d   1       0.341   3.797  -1.483  0.00  0.00     0.009 C 
BRANCH   8   9
ATOM      9  C3' N4B d   1      -0.238   5.045  -2.125  0.00  0.00     0.004 C 
ATOM     10  C4' N4B d   1      -0.816   5.999  -1.123  0.00  0.00     0.003 C 
ENDBRANCH   8   9
ENDBRANCH   7   8
ENDBRANCH   1   7
TORSDOF 3
ENDMDL
