MODEL 1
REMARK minimizedAffinity -2.48634553
REMARK minimizedRMSD -1
REMARK  3 active torsions:
REMARK  status: ('A' for Active; 'I' for Inactive)
REMARK    1  A    between atoms: C3'_2  and  C2'_3 
REMARK    2  A    between atoms: C2'_3  and  C1'_4 
REMARK    3  A    between atoms: C1'_4  and  C1_5 
ROOT
ATOM      1  C1  N4B d   1      -0.708  -0.071  -1.534  0.00  0.00    -0.075 A 
ATOM      2  C2  N4B d   1      -0.866  -1.085  -2.504  0.00  0.00     0.002 A 
ATOM      3  C3  N4B d   1      -2.029  -1.164  -3.231  0.00  0.00     0.002 A 
ATOM      4  C4  N4B d   1      -3.050  -0.256  -2.992  0.00  0.00    -0.004 A 
ATOM      5  C5  N4B d   1      -2.879   0.735  -2.071  0.00  0.00     0.002 A 
ATOM      6  C6  N4B d   1      -1.714   0.829  -1.336  0.00  0.00     0.002 A 
ENDROOT
BRANCH   1   7
ATOM      7  C1' N4B d   1       0.511   0.003  -0.655  0.00  0.00     0.057 C 
BRANCH   7   8
ATOM      8  C2' N4B d   1       0.140  -0.449   0.755  0.00  0.00     0.009 C 
BRANCH   8   9
ATOM      9  C3' N4B d   1       0.917   0.310   1.817  0.00  0.00     0.004 C 
ATOM     10  C4' N4B d   1       0.273   1.613   2.188  0.00  0.00     0.003 C 
ENDBRANCH   8   9
ENDBRANCH   7   8
ENDBRANCH   1   7
TORSDOF 3
ENDMDL
