MODEL 1
REMARK minimizedAffinity -1.16906834
REMARK minimizedRMSD -1
REMARK  0 active torsions:
REMARK  status: ('A' for Active; 'I' for Inactive)
ROOT
ATOM      1  C   UNL d   1      -0.753  -2.349  -0.040  0.00  0.00     0.023 A 
ATOM      2  C1  UNL d   1      -0.990  -1.784   1.214  0.00  0.00     0.003 A 
ATOM      3  C2  UNL d   1      -0.679  -0.443   1.447  0.00  0.00     0.048 A 
ATOM      4  C3  UNL d   1      -0.132   0.328   0.422  0.00  0.00     0.023 A 
ATOM      5  C4  UNL d   1       0.106  -0.232  -0.834  0.00  0.00     0.048 A 
ATOM      6  C5  UNL d   1      -0.205  -1.574  -1.062  0.00  0.00     0.003 A 
ATOM      7  I   UNL d   1       0.331   2.325   0.767  0.00  0.00    -0.146 I 
ENDROOT
TORSDOF 0
ENDMDL
