MODEL 1
REMARK minimizedAffinity 0.119192213
REMARK minimizedRMSD -1
REMARK  0 active torsions:
REMARK  status: ('A' for Active; 'I' for Inactive)
ROOT
ATOM      1  C   UNL d   1      -1.082  -2.197  -0.145  0.00  0.00     0.023 A 
ATOM      2  C1  UNL d   1      -1.099  -1.700   1.159  0.00  0.00     0.003 A 
ATOM      3  C2  UNL d   1      -0.600  -0.424   1.428  0.00  0.00     0.048 A 
ATOM      4  C3  UNL d   1      -0.086   0.350   0.388  0.00  0.00     0.023 A 
ATOM      5  C4  UNL d   1      -0.067  -0.142  -0.917  0.00  0.00     0.048 A 
ATOM      6  C5  UNL d   1      -0.566  -1.419  -1.182  0.00  0.00     0.003 A 
ATOM      7  I   UNL d   1       0.658   2.250   0.787  0.00  0.00    -0.146 I 
ENDROOT
TORSDOF 0
ENDMDL
