MODEL 1
REMARK minimizedAffinity -0.35076943
REMARK minimizedRMSD -1
REMARK  0 active torsions:
REMARK  status: ('A' for Active; 'I' for Inactive)
ROOT
ATOM      1  C   UNL d   1       2.572   3.318   0.993  0.00  0.00     0.023 A 
ATOM      2  C1  UNL d   1       2.875   2.156   0.284  0.00  0.00     0.003 A 
ATOM      3  C2  UNL d   1       1.915   1.151   0.146  0.00  0.00     0.048 A 
ATOM      4  C3  UNL d   1       0.654   1.316   0.718  0.00  0.00     0.023 A 
ATOM      5  C4  UNL d   1       0.346   2.478   1.428  0.00  0.00     0.048 A 
ATOM      6  C5  UNL d   1       1.310   3.479   1.564  0.00  0.00     0.003 A 
ATOM      7  I   UNL d   1      -0.777  -0.178   0.513  0.00  0.00    -0.146 I 
ENDROOT
TORSDOF 0
ENDMDL
