MODEL 1
REMARK minimizedAffinity 6.42432451
REMARK minimizedRMSD -1
REMARK  0 active torsions:
REMARK  status: ('A' for Active; 'I' for Inactive)
ROOT
ATOM      1  C   UNL d   1      -0.834  -0.873   1.375  0.00  0.00     0.023 A 
ATOM      2  C1  UNL d   1      -0.238  -0.550   0.156  0.00  0.00     0.003 A 
ATOM      3  C2  UNL d   1      -0.461  -1.352  -0.965  0.00  0.00     0.048 A 
ATOM      4  C3  UNL d   1      -1.281  -2.474  -0.861  0.00  0.00     0.023 A 
ATOM      5  C4  UNL d   1      -1.880  -2.801   0.357  0.00  0.00     0.048 A 
ATOM      6  C5  UNL d   1      -1.654  -1.997   1.476  0.00  0.00     0.003 A 
ATOM      7  I   UNL d   1      -1.615  -3.669  -2.529  0.00  0.00    -0.146 I 
ENDROOT
TORSDOF 0
ENDMDL
