MODEL 1
REMARK minimizedAffinity -2.89336157
REMARK minimizedRMSD -1
REMARK  0 active torsions:
REMARK  status: ('A' for Active; 'I' for Inactive)
ROOT
ATOM      1  C   UNL d   1      -0.996  -4.626  -0.888  0.00  0.00     0.023 A 
ATOM      2  C1  UNL d   1      -1.865  -4.038   0.032  0.00  0.00     0.003 A 
ATOM      3  C2  UNL d   1      -1.714  -2.693   0.375  0.00  0.00     0.048 A 
ATOM      4  C3  UNL d   1      -0.693  -1.941  -0.206  0.00  0.00     0.023 A 
ATOM      5  C4  UNL d   1       0.178  -2.525  -1.127  0.00  0.00     0.048 A 
ATOM      6  C5  UNL d   1       0.024  -3.870  -1.467  0.00  0.00     0.003 A 
ATOM      7  I   UNL d   1      -0.468   0.061   0.303  0.00  0.00    -0.146 I 
ENDROOT
TORSDOF 0
ENDMDL
