MODEL 1
REMARK minimizedAffinity -2.32762909
REMARK minimizedRMSD -1
REMARK  0 active torsions:
REMARK  status: ('A' for Active; 'I' for Inactive)
ROOT
ATOM      1  C   UNL d   1       2.924   3.847   1.346  0.00  0.00     0.023 A 
ATOM      2  C1  UNL d   1       1.714   4.232   0.769  0.00  0.00     0.003 A 
ATOM      3  C2  UNL d   1       0.805   3.264   0.337  0.00  0.00     0.048 A 
ATOM      4  C3  UNL d   1       1.113   1.912   0.485  0.00  0.00     0.023 A 
ATOM      5  C4  UNL d   1       2.323   1.522   1.062  0.00  0.00     0.048 A 
ATOM      6  C5  UNL d   1       3.228   2.493   1.492  0.00  0.00     0.003 A 
ATOM      7  I   UNL d   1      -0.238   0.469  -0.158  0.00  0.00    -0.146 I 
ENDROOT
TORSDOF 0
ENDMDL
