MODEL 1
REMARK minimizedAffinity 2.85788369
REMARK minimizedRMSD -1
REMARK  0 active torsions:
REMARK  status: ('A' for Active; 'I' for Inactive)
ROOT
ATOM      1  C   UNL d   1       0.453  -0.996  -1.451  0.00  0.00     0.023 A 
ATOM      2  C1  UNL d   1       0.171   0.369  -1.397  0.00  0.00     0.003 A 
ATOM      3  C2  UNL d   1      -0.862   0.838  -0.583  0.00  0.00     0.048 A 
ATOM      4  C3  UNL d   1      -1.608  -0.063   0.175  0.00  0.00     0.023 A 
ATOM      5  C4  UNL d   1      -1.329  -1.430   0.126  0.00  0.00     0.048 A 
ATOM      6  C5  UNL d   1      -0.296  -1.894  -0.691  0.00  0.00     0.003 A 
ATOM      7  I   UNL d   1      -3.146   0.634   1.388  0.00  0.00    -0.146 I 
ENDROOT
TORSDOF 0
ENDMDL
