MODEL 1
REMARK minimizedAffinity -2.58161926
REMARK minimizedRMSD -1
REMARK  0 active torsions:
REMARK  status: ('A' for Active; 'I' for Inactive)
ROOT
ATOM      1  C   UNL d   1      -0.558  -0.616  -0.022  0.00  0.00     0.023 A 
ATOM      2  C1  UNL d   1       0.204  -0.748   1.139  0.00  0.00     0.003 A 
ATOM      3  C2  UNL d   1       1.069   0.277   1.528  0.00  0.00     0.048 A 
ATOM      4  C3  UNL d   1       1.168   1.431   0.751  0.00  0.00     0.023 A 
ATOM      5  C4  UNL d   1       0.407   1.567  -0.412  0.00  0.00     0.048 A 
ATOM      6  C5  UNL d   1      -0.457   0.540  -0.796  0.00  0.00     0.003 A 
ATOM      7  I   UNL d   1       2.455   2.957   1.327  0.00  0.00    -0.146 I 
ENDROOT
TORSDOF 0
ENDMDL
