MODEL 1
REMARK minimizedAffinity 9.35573959
REMARK minimizedRMSD -1
REMARK  0 active torsions:
REMARK  status: ('A' for Active; 'I' for Inactive)
ROOT
ATOM      1  C   UNL d   1       4.584   3.130  -0.928  0.00  0.00     0.023 A 
ATOM      2  C1  UNL d   1       4.090   2.166  -0.049  0.00  0.00     0.003 A 
ATOM      3  C2  UNL d   1       3.002   2.463   0.775  0.00  0.00     0.048 A 
ATOM      4  C3  UNL d   1       2.413   3.725   0.714  0.00  0.00     0.023 A 
ATOM      5  C4  UNL d   1       2.903   4.692  -0.165  0.00  0.00     0.048 A 
ATOM      6  C5  UNL d   1       3.992   4.391  -0.986  0.00  0.00     0.003 A 
ATOM      7  I   UNL d   1       0.793   4.169   1.939  0.00  0.00    -0.146 I 
ENDROOT
TORSDOF 0
ENDMDL
