MODEL 1
REMARK minimizedAffinity -2.71053362
REMARK minimizedRMSD -1
REMARK  0 active torsions:
REMARK  status: ('A' for Active; 'I' for Inactive)
ROOT
ATOM      1  C   UNL d   1      -0.981  -2.456   0.225  0.00  0.00     0.023 A 
ATOM      2  C1  UNL d   1      -0.294  -1.958  -0.882  0.00  0.00     0.003 A 
ATOM      3  C2  UNL d   1       0.218  -0.659  -0.860  0.00  0.00     0.048 A 
ATOM      4  C3  UNL d   1       0.040   0.136   0.272  0.00  0.00     0.023 A 
ATOM      5  C4  UNL d   1      -0.646  -0.359   1.382  0.00  0.00     0.048 A 
ATOM      6  C5  UNL d   1      -1.157  -1.658   1.356  0.00  0.00     0.003 A 
ATOM      7  I   UNL d   1       0.801   2.070   0.306  0.00  0.00    -0.146 I 
ENDROOT
TORSDOF 0
ENDMDL
