MODEL 1
REMARK minimizedAffinity -1.86265147
REMARK minimizedRMSD -1
REMARK  0 active torsions:
REMARK  status: ('A' for Active; 'I' for Inactive)
ROOT
ATOM      1  C   UNL d   1      -1.127  -2.624   0.521  0.00  0.00     0.023 A 
ATOM      2  C1  UNL d   1      -0.507  -2.127  -0.625  0.00  0.00     0.003 A 
ATOM      3  C2  UNL d   1      -0.160  -0.777  -0.704  0.00  0.00     0.048 A 
ATOM      4  C3  UNL d   1      -0.437   0.071   0.368  0.00  0.00     0.023 A 
ATOM      5  C4  UNL d   1      -1.057  -0.422   1.518  0.00  0.00     0.048 A 
ATOM      6  C5  UNL d   1      -1.402  -1.773   1.591  0.00  0.00     0.003 A 
ATOM      7  I   UNL d   1       0.078   2.081   0.254  0.00  0.00    -0.146 I 
ENDROOT
TORSDOF 0
ENDMDL
