MODEL 1
REMARK minimizedAffinity -3.12449193
REMARK minimizedRMSD -1
REMARK  0 active torsions:
REMARK  status: ('A' for Active; 'I' for Inactive)
ROOT
ATOM      1  C   UNL d   1      -1.418  -1.970   1.193  0.00  0.00     0.023 A 
ATOM      2  C1  UNL d   1      -1.229  -1.537  -0.119  0.00  0.00     0.003 A 
ATOM      3  C2  UNL d   1      -0.529  -0.356  -0.372  0.00  0.00     0.048 A 
ATOM      4  C3  UNL d   1      -0.018   0.386   0.692  0.00  0.00     0.023 A 
ATOM      5  C4  UNL d   1      -0.203  -0.044   2.007  0.00  0.00     0.048 A 
ATOM      6  C5  UNL d   1      -0.905  -1.224   2.255  0.00  0.00     0.003 A 
ATOM      7  I   UNL d   1       1.026   2.144   0.318  0.00  0.00    -0.146 I 
ENDROOT
TORSDOF 0
ENDMDL
