MODEL 1
REMARK minimizedAffinity -5.2713294
REMARK minimizedRMSD -1
REMARK  0 active torsions:
REMARK  status: ('A' for Active; 'I' for Inactive)
ROOT
ATOM      1  C   UNL d   1      -0.109  -3.631  -1.286  0.00  0.00     0.023 A 
ATOM      2  C1  UNL d   1       0.033  -2.645  -2.262  0.00  0.00     0.003 A 
ATOM      3  C2  UNL d   1       0.168  -1.306  -1.889  0.00  0.00     0.048 A 
ATOM      4  C3  UNL d   1       0.161  -0.960  -0.539  0.00  0.00     0.023 A 
ATOM      5  C4  UNL d   1       0.021  -1.944   0.442  0.00  0.00     0.048 A 
ATOM      6  C5  UNL d   1      -0.115  -3.281   0.065  0.00  0.00     0.003 A 
ATOM      7  I   UNL d   1       0.362   1.032   0.019  0.00  0.00    -0.146 I 
ENDROOT
TORSDOF 0
ENDMDL
