MODEL 1
REMARK minimizedAffinity -1.35130811
REMARK minimizedRMSD -1
REMARK  0 active torsions:
REMARK  status: ('A' for Active; 'I' for Inactive)
ROOT
ATOM      1  C   UNL d   1      -0.656  -0.040   1.258  0.00  0.00     0.023 A 
ATOM      2  C1  UNL d   1      -0.841  -1.415   1.405  0.00  0.00     0.003 A 
ATOM      3  C2  UNL d   1      -0.902  -2.237   0.278  0.00  0.00     0.048 A 
ATOM      4  C3  UNL d   1      -0.777  -1.679  -0.993  0.00  0.00     0.023 A 
ATOM      5  C4  UNL d   1      -0.590  -0.304  -1.145  0.00  0.00     0.048 A 
ATOM      6  C5  UNL d   1      -0.531   0.515  -0.016  0.00  0.00     0.003 A 
ATOM      7  I   UNL d   1      -0.867  -2.901  -2.672  0.00  0.00    -0.146 I 
ENDROOT
TORSDOF 0
ENDMDL
