MODEL 1
REMARK minimizedAffinity -3.07984424
REMARK minimizedRMSD -1
REMARK  0 active torsions:
REMARK  status: ('A' for Active; 'I' for Inactive)
ROOT
ATOM      1  C   UNL d   1      -0.570  -0.639   0.017  0.00  0.00     0.023 A 
ATOM      2  C1  UNL d   1       0.500  -0.680   0.910  0.00  0.00     0.003 A 
ATOM      3  C2  UNL d   1       1.283   0.458   1.116  0.00  0.00     0.048 A 
ATOM      4  C3  UNL d   1       0.990   1.633   0.426  0.00  0.00     0.023 A 
ATOM      5  C4  UNL d   1      -0.081   1.679  -0.469  0.00  0.00     0.048 A 
ATOM      6  C5  UNL d   1      -0.861   0.539  -0.672  0.00  0.00     0.003 A 
ATOM      7  I   UNL d   1       2.153   3.328   0.730  0.00  0.00    -0.146 I 
ENDROOT
TORSDOF 0
ENDMDL
