MODEL 1
REMARK minimizedAffinity -3.36343932
REMARK minimizedRMSD -1
REMARK  0 active torsions:
REMARK  status: ('A' for Active; 'I' for Inactive)
ROOT
ATOM      1  C   UNL d   1      -0.745  -1.864   0.444  0.00  0.00     0.023 A 
ATOM      2  C1  UNL d   1      -0.057  -1.304   1.520  0.00  0.00     0.003 A 
ATOM      3  C2  UNL d   1       0.484  -0.021   1.413  0.00  0.00     0.048 A 
ATOM      4  C3  UNL d   1       0.333   0.697   0.227  0.00  0.00     0.023 A 
ATOM      5  C4  UNL d   1      -0.355   0.141  -0.852  0.00  0.00     0.048 A 
ATOM      6  C5  UNL d   1      -0.894  -1.142  -0.741  0.00  0.00     0.003 A 
ATOM      7  I   UNL d   1       1.139   2.606   0.066  0.00  0.00    -0.146 I 
ENDROOT
TORSDOF 0
ENDMDL
