MODEL 1
REMARK minimizedAffinity -2.70896196
REMARK minimizedRMSD -1
REMARK  0 active torsions:
REMARK  status: ('A' for Active; 'I' for Inactive)
ROOT
ATOM      1  C   UNL d   1       0.510   0.409   1.449  0.00  0.00    -0.002 A 
ATOM      2  C1  UNL d   1      -0.530  -0.505   1.368  0.00  0.00     0.010 A 
ATOM      3  C2  UNL d   1      -0.818  -1.149   0.162  0.00  0.00     0.041 A 
ATOM      4  C3  UNL d   1      -0.033  -0.857  -0.971  0.00  0.00    -0.075 A 
ATOM      5  S   UNL d   1      -0.201  -1.524  -2.551  0.00  0.00     0.015 SA
ATOM      6  C4  UNL d   1       1.105  -0.612  -3.156  0.00  0.00     0.022 A 
ATOM      7  C5  UNL d   1       1.667   0.188  -2.189  0.00  0.00     0.026 A 
ATOM      8  C6  UNL d   1       1.021   0.060  -0.914  0.00  0.00    -0.082 A 
ATOM      9  C7  UNL d   1       1.287   0.696   0.323  0.00  0.00     0.045 A 
ENDROOT
TORSDOF 0
ENDMDL
