MODEL 1
REMARK minimizedAffinity -4.16079235
REMARK minimizedRMSD -1
REMARK  0 active torsions:
REMARK  status: ('A' for Active; 'I' for Inactive)
ROOT
ATOM      1  C   UNL d   1       0.606   0.302   3.125  0.00  0.00    -0.002 A 
ATOM      2  C1  UNL d   1      -0.399  -0.655   3.113  0.00  0.00     0.010 A 
ATOM      3  C2  UNL d   1      -0.875  -1.169   1.906  0.00  0.00     0.041 A 
ATOM      4  C3  UNL d   1      -0.318  -0.702   0.699  0.00  0.00    -0.075 A 
ATOM      5  S   UNL d   1      -0.744  -1.188  -0.899  0.00  0.00     0.015 SA
ATOM      6  C4  UNL d   1       0.399  -0.138  -1.603  0.00  0.00     0.022 A 
ATOM      7  C5  UNL d   1       1.097   0.574  -0.657  0.00  0.00     0.026 A 
ATOM      8  C6  UNL d   1       0.695   0.261   0.686  0.00  0.00    -0.082 A 
ATOM      9  C7  UNL d   1       1.156   0.763   1.926  0.00  0.00     0.045 A 
ENDROOT
TORSDOF 0
ENDMDL
