MODEL 1
REMARK minimizedAffinity 4.0559516
REMARK minimizedRMSD -1
REMARK  0 active torsions:
REMARK  status: ('A' for Active; 'I' for Inactive)
ROOT
ATOM      1  C   UNL d   1       1.819  -2.336  -4.318  0.00  0.00    -0.002 A 
ATOM      2  C1  UNL d   1       2.881  -1.584  -3.834  0.00  0.00     0.010 A 
ATOM      3  C2  UNL d   1       2.655  -0.512  -2.969  0.00  0.00     0.041 A 
ATOM      4  C3  UNL d   1       1.332  -0.206  -2.593  0.00  0.00    -0.075 A 
ATOM      5  S   UNL d   1       0.817   1.061  -1.544  0.00  0.00     0.015 SA
ATOM      6  C4  UNL d   1      -0.825   0.634  -1.712  0.00  0.00     0.022 A 
ATOM      7  C5  UNL d   1      -0.993  -0.446  -2.545  0.00  0.00     0.026 A 
ATOM      8  C6  UNL d   1       0.247  -0.949  -3.066  0.00  0.00    -0.082 A 
ATOM      9  C7  UNL d   1       0.508  -2.029  -3.943  0.00  0.00     0.045 A 
ENDROOT
TORSDOF 0
ENDMDL
