MODEL 1
REMARK minimizedAffinity -4.36037779
REMARK minimizedRMSD -1
REMARK  0 active torsions:
REMARK  status: ('A' for Active; 'I' for Inactive)
ROOT
ATOM      1  C   UNL d   1      -0.315   0.345  -1.697  0.00  0.00    -0.002 A 
ATOM      2  C1  UNL d   1      -1.533   0.813  -1.226  0.00  0.00     0.010 A 
ATOM      3  C2  UNL d   1      -1.856   0.714   0.129  0.00  0.00     0.041 A 
ATOM      4  C3  UNL d   1      -0.924   0.133   1.011  0.00  0.00    -0.075 A 
ATOM      5  S   UNL d   1      -1.102  -0.093   2.711  0.00  0.00     0.015 SA
ATOM      6  C4  UNL d   1       0.436  -0.815   2.852  0.00  0.00     0.022 A 
ATOM      7  C5  UNL d   1       1.083  -0.890   1.641  0.00  0.00     0.026 A 
ATOM      8  C6  UNL d   1       0.310  -0.345   0.560  0.00  0.00    -0.082 A 
ATOM      9  C7  UNL d   1       0.608  -0.231  -0.819  0.00  0.00     0.045 A 
ENDROOT
TORSDOF 0
ENDMDL
