MODEL 1
REMARK minimizedAffinity 9.186409
REMARK minimizedRMSD -1
REMARK  0 active torsions:
REMARK  status: ('A' for Active; 'I' for Inactive)
ROOT
ATOM      1  C   UNL d   1       3.562   0.925  -4.317  0.00  0.00    -0.002 A 
ATOM      2  C1  UNL d   1       4.318  -0.013  -5.007  0.00  0.00     0.010 A 
ATOM      3  C2  UNL d   1       3.788  -1.269  -5.309  0.00  0.00     0.041 A 
ATOM      4  C3  UNL d   1       2.473  -1.569  -4.903  0.00  0.00    -0.075 A 
ATOM      5  S   UNL d   1       1.615  -3.042  -5.163  0.00  0.00     0.015 SA
ATOM      6  C4  UNL d   1       0.226  -2.461  -4.366  0.00  0.00     0.022 A 
ATOM      7  C5  UNL d   1       0.394  -1.177  -3.906  0.00  0.00     0.026 A 
ATOM      8  C6  UNL d   1       1.692  -0.641  -4.208  0.00  0.00    -0.082 A 
ATOM      9  C7  UNL d   1       2.258   0.623  -3.916  0.00  0.00     0.045 A 
ENDROOT
TORSDOF 0
ENDMDL
