MODEL 1
REMARK minimizedAffinity -1.76632917
REMARK minimizedRMSD -1
REMARK  0 active torsions:
REMARK  status: ('A' for Active; 'I' for Inactive)
ROOT
ATOM      1  C   UNL d   1       1.078   0.430   2.829  0.00  0.00    -0.002 A 
ATOM      2  C1  UNL d   1      -0.046  -0.328   3.126  0.00  0.00     0.010 A 
ATOM      3  C2  UNL d   1      -0.862  -0.817   2.104  0.00  0.00     0.041 A 
ATOM      4  C3  UNL d   1      -0.526  -0.530   0.767  0.00  0.00    -0.075 A 
ATOM      5  S   UNL d   1      -1.378  -1.025  -0.648  0.00  0.00     0.015 SA
ATOM      6  C4  UNL d   1      -0.270  -0.242  -1.680  0.00  0.00     0.022 A 
ATOM      7  C5  UNL d   1       0.732   0.386  -0.979  0.00  0.00     0.026 A 
ATOM      8  C6  UNL d   1       0.601   0.230   0.443  0.00  0.00    -0.082 A 
ATOM      9  C7  UNL d   1       1.409   0.712   1.501  0.00  0.00     0.045 A 
ENDROOT
TORSDOF 0
ENDMDL
