MODEL 1
REMARK minimizedAffinity 0.113308348
REMARK minimizedRMSD -1
REMARK  0 active torsions:
REMARK  status: ('A' for Active; 'I' for Inactive)
ROOT
ATOM      1  C   UNL d   1       0.259  -0.051  -1.289  0.00  0.00    -0.002 A 
ATOM      2  C1  UNL d   1       1.138   0.957  -0.920  0.00  0.00     0.010 A 
ATOM      3  C2  UNL d   1       1.269   1.331   0.419  0.00  0.00     0.041 A 
ATOM      4  C3  UNL d   1       0.494   0.668   1.390  0.00  0.00    -0.075 A 
ATOM      5  S   UNL d   1       0.488   0.958   3.090  0.00  0.00     0.015 SA
ATOM      6  C4  UNL d   1      -0.682  -0.250   3.367  0.00  0.00     0.022 A 
ATOM      7  C5  UNL d   1      -1.070  -0.870   2.202  0.00  0.00     0.026 A 
ATOM      8  C6  UNL d   1      -0.398  -0.351   1.044  0.00  0.00    -0.082 A 
ATOM      9  C7  UNL d   1      -0.508  -0.707  -0.322  0.00  0.00     0.045 A 
ENDROOT
TORSDOF 0
ENDMDL
