MODEL 1
REMARK minimizedAffinity 2.64394379
REMARK minimizedRMSD -1
REMARK  0 active torsions:
REMARK  status: ('A' for Active; 'I' for Inactive)
ROOT
ATOM      1  C   UNL d   1      -0.670  -0.011  -1.565  0.00  0.00    -0.002 A 
ATOM      2  C1  UNL d   1      -1.791  -0.230  -0.777  0.00  0.00     0.010 A 
ATOM      3  C2  UNL d   1      -1.711  -0.133   0.614  0.00  0.00     0.041 A 
ATOM      4  C3  UNL d   1      -0.474   0.192   1.204  0.00  0.00    -0.075 A 
ATOM      5  S   UNL d   1      -0.138   0.366   2.886  0.00  0.00     0.015 SA
ATOM      6  C4  UNL d   1       1.500   0.735   2.598  0.00  0.00     0.022 A 
ATOM      7  C5  UNL d   1       1.802   0.730   1.256  0.00  0.00     0.026 A 
ATOM      8  C6  UNL d   1       0.669   0.417   0.431  0.00  0.00    -0.082 A 
ATOM      9  C7  UNL d   1       0.555   0.311  -0.976  0.00  0.00     0.045 A 
ENDROOT
TORSDOF 0
ENDMDL
