MODEL 1
REMARK minimizedAffinity 2.87504911
REMARK minimizedRMSD -1
REMARK  0 active torsions:
REMARK  status: ('A' for Active; 'I' for Inactive)
ROOT
ATOM      1  C   UNL d   1      -0.972   0.764  -0.729  0.00  0.00    -0.002 A 
ATOM      2  C1  UNL d   1       0.001   0.162   0.055  0.00  0.00     0.010 A 
ATOM      3  C2  UNL d   1       0.925  -0.719  -0.511  0.00  0.00     0.041 A 
ATOM      4  C3  UNL d   1       0.854  -0.985  -1.893  0.00  0.00    -0.075 A 
ATOM      5  S   UNL d   1       1.880  -2.029  -2.805  0.00  0.00     0.015 SA
ATOM      6  C4  UNL d   1       1.050  -1.699  -4.256  0.00  0.00     0.022 A 
ATOM      7  C5  UNL d   1       0.013  -0.816  -4.068  0.00  0.00     0.026 A 
ATOM      8  C6  UNL d   1      -0.117  -0.390  -2.703  0.00  0.00    -0.082 A 
ATOM      9  C7  UNL d   1      -1.040   0.498  -2.099  0.00  0.00     0.045 A 
ENDROOT
TORSDOF 0
ENDMDL
