MODEL 1
REMARK minimizedAffinity -3.4691093
REMARK minimizedRMSD -1
REMARK  0 active torsions:
REMARK  status: ('A' for Active; 'I' for Inactive)
ROOT
ATOM      1  C   UNL d   1      -2.671  -0.378   3.012  0.00  0.00    -0.002 A 
ATOM      2  C1  UNL d   1      -3.040  -0.169   1.690  0.00  0.00     0.010 A 
ATOM      3  C2  UNL d   1      -2.075   0.093   0.716  0.00  0.00     0.041 A 
ATOM      4  C3  UNL d   1      -0.719   0.139   1.095  0.00  0.00    -0.075 A 
ATOM      5  S   UNL d   1       0.636   0.442   0.073  0.00  0.00     0.015 SA
ATOM      6  C4  UNL d   1       1.737   0.299   1.366  0.00  0.00     0.022 A 
ATOM      7  C5  UNL d   1       1.104   0.028   2.556  0.00  0.00     0.026 A 
ATOM      8  C6  UNL d   1      -0.322  -0.070   2.419  0.00  0.00    -0.082 A 
ATOM      9  C7  UNL d   1      -1.325  -0.332   3.384  0.00  0.00     0.045 A 
ENDROOT
TORSDOF 0
ENDMDL
