MODEL 1
REMARK minimizedAffinity 0.567342877
REMARK minimizedRMSD -1
REMARK  0 active torsions:
REMARK  status: ('A' for Active; 'I' for Inactive)
ROOT
ATOM      1  C   UNL d   1       0.546   0.517   0.926  0.00  0.00    -0.002 A 
ATOM      2  C1  UNL d   1       0.115  -0.795   1.063  0.00  0.00     0.010 A 
ATOM      3  C2  UNL d   1       0.233  -1.695   0.002  0.00  0.00     0.041 A 
ATOM      4  C3  UNL d   1       0.797  -1.250  -1.210  0.00  0.00    -0.075 A 
ATOM      5  S   UNL d   1       1.042  -2.175  -2.644  0.00  0.00     0.015 SA
ATOM      6  C4  UNL d   1       1.724  -0.851  -3.472  0.00  0.00     0.022 A 
ATOM      7  C5  UNL d   1       1.771   0.278  -2.688  0.00  0.00     0.026 A 
ATOM      8  C6  UNL d   1       1.238   0.066  -1.371  0.00  0.00    -0.082 A 
ATOM      9  C7  UNL d   1       1.105   0.955  -0.277  0.00  0.00     0.045 A 
ENDROOT
TORSDOF 0
ENDMDL
