MODEL 1
REMARK minimizedAffinity -3.83597398
REMARK minimizedRMSD -1
REMARK  0 active torsions:
REMARK  status: ('A' for Active; 'I' for Inactive)
ROOT
ATOM      1  C1  BNZ d   1      -0.900   0.059   0.720  0.00  0.00     0.000 A 
ATOM      2  C2  BNZ d   1      -0.729   1.298   1.277  0.00  0.00     0.000 A 
ATOM      3  C3  BNZ d   1      -0.040   2.274   0.614  0.00  0.00     0.000 A 
ATOM      4  C4  BNZ d   1       0.512   1.998  -0.586  0.00  0.00     0.000 A 
ATOM      5  C5  BNZ d   1       0.356   0.751  -1.156  0.00  0.00     0.000 A 
ATOM      6  C6  BNZ d   1      -0.372  -0.217  -0.503  0.00  0.00     0.000 A 
ENDROOT
TORSDOF 0
ENDMDL
