MODEL 1
REMARK minimizedAffinity -3.85914183
REMARK minimizedRMSD -1
REMARK  0 active torsions:
REMARK  status: ('A' for Active; 'I' for Inactive)
ROOT
ATOM      1  C1  BNZ d   1      -1.523   0.238   0.743  0.00  0.00     0.000 A 
ATOM      2  C2  BNZ d   1      -1.167   1.542   0.521  0.00  0.00     0.000 A 
ATOM      3  C3  BNZ d   1       0.048   1.854  -0.020  0.00  0.00     0.000 A 
ATOM      4  C4  BNZ d   1       0.921   0.865  -0.303  0.00  0.00     0.000 A 
ATOM      5  C5  BNZ d   1       0.581  -0.454  -0.077  0.00  0.00     0.000 A 
ATOM      6  C6  BNZ d   1      -0.659  -0.766   0.432  0.00  0.00     0.000 A 
ENDROOT
TORSDOF 0
ENDMDL
