MODEL 1
REMARK minimizedAffinity -3.38773179
REMARK minimizedRMSD -1
REMARK  0 active torsions:
REMARK  status: ('A' for Active; 'I' for Inactive)
ROOT
ATOM      1  C1  BNZ d   1       1.052   1.138  -0.154  0.00  0.00     0.000 A 
ATOM      2  C2  BNZ d   1       1.198  -0.220  -0.054  0.00  0.00     0.000 A 
ATOM      3  C3  BNZ d   1       0.142  -1.014   0.297  0.00  0.00     0.000 A 
ATOM      4  C4  BNZ d   1      -1.046  -0.446   0.586  0.00  0.00     0.000 A 
ATOM      5  C5  BNZ d   1      -1.207   0.922   0.500  0.00  0.00     0.000 A 
ATOM      6  C6  BNZ d   1      -0.152   1.714   0.108  0.00  0.00     0.000 A 
ENDROOT
TORSDOF 0
ENDMDL
