MODEL 1
REMARK minimizedAffinity -4.65919495
REMARK minimizedRMSD -1
REMARK  0 active torsions:
REMARK  status: ('A' for Active; 'I' for Inactive)
ROOT
ATOM      1  C1  BNZ d   1      -0.052   0.309   0.217  0.00  0.00     0.000 A 
ATOM      2  C2  BNZ d   1       0.800   1.204  -0.373  0.00  0.00     0.000 A 
ATOM      3  C3  BNZ d   1       0.493   2.535  -0.420  0.00  0.00     0.000 A 
ATOM      4  C4  BNZ d   1      -0.682   2.963   0.085  0.00  0.00     0.000 A 
ATOM      5  C5  BNZ d   1      -1.556   2.071   0.674  0.00  0.00     0.000 A 
ATOM      6  C6  BNZ d   1      -1.226   0.738   0.755  0.00  0.00     0.000 A 
ENDROOT
TORSDOF 0
ENDMDL
