MODEL 1
REMARK minimizedAffinity -3.53426313
REMARK minimizedRMSD -1
REMARK  0 active torsions:
REMARK  status: ('A' for Active; 'I' for Inactive)
ROOT
ATOM      1  C1  BNZ d   1      -1.913  -3.699  -1.608  0.00  0.00     0.000 A 
ATOM      2  C2  BNZ d   1      -1.807  -2.974  -0.452  0.00  0.00     0.000 A 
ATOM      3  C3  BNZ d   1      -0.753  -2.126  -0.252  0.00  0.00     0.000 A 
ATOM      4  C4  BNZ d   1       0.212  -2.036  -1.189  0.00  0.00     0.000 A 
ATOM      5  C5  BNZ d   1       0.125  -2.768  -2.356  0.00  0.00     0.000 A 
ATOM      6  C6  BNZ d   1      -0.957  -3.591  -2.571  0.00  0.00     0.000 A 
ENDROOT
TORSDOF 0
ENDMDL
