MODEL 1
REMARK minimizedAffinity -4.90858316
REMARK minimizedRMSD -1
REMARK  0 active torsions:
REMARK  status: ('A' for Active; 'I' for Inactive)
ROOT
ATOM      1  C1  BNZ d   1       1.035   3.201   0.605  0.00  0.00     0.000 A 
ATOM      2  C2  BNZ d   1      -0.224   2.728   0.346  0.00  0.00     0.000 A 
ATOM      3  C3  BNZ d   1      -0.430   1.409   0.053  0.00  0.00     0.000 A 
ATOM      4  C4  BNZ d   1       0.626   0.574  -0.020  0.00  0.00     0.000 A 
ATOM      5  C5  BNZ d   1       1.903   1.037   0.229  0.00  0.00     0.000 A 
ATOM      6  C6  BNZ d   1       2.102   2.357   0.562  0.00  0.00     0.000 A 
ENDROOT
TORSDOF 0
ENDMDL
