MODEL 1
REMARK minimizedAffinity -3.9909091
REMARK minimizedRMSD -1
REMARK  0 active torsions:
REMARK  status: ('A' for Active; 'I' for Inactive)
ROOT
ATOM      1  C1  BNZ d   1       0.744   4.201   0.952  0.00  0.00     0.000 A 
ATOM      2  C2  BNZ d   1       1.198   3.438  -0.090  0.00  0.00     0.000 A 
ATOM      3  C3  BNZ d   1       2.014   2.364   0.132  0.00  0.00     0.000 A 
ATOM      4  C4  BNZ d   1       2.406   2.079   1.390  0.00  0.00     0.000 A 
ATOM      5  C5  BNZ d   1       1.965   2.844   2.451  0.00  0.00     0.000 A 
ATOM      6  C6  BNZ d   1       1.112   3.901   2.227  0.00  0.00     0.000 A 
ENDROOT
TORSDOF 0
ENDMDL
