MODEL 1
REMARK minimizedAffinity -4.4786849
REMARK minimizedRMSD -1
REMARK  0 active torsions:
REMARK  status: ('A' for Active; 'I' for Inactive)
ROOT
ATOM      1  C1  BNZ d   1      -0.855   2.189   0.305  0.00  0.00     0.000 A 
ATOM      2  C2  BNZ d   1      -1.469   0.983   0.096  0.00  0.00     0.000 A 
ATOM      3  C3  BNZ d   1      -0.738  -0.170   0.021  0.00  0.00     0.000 A 
ATOM      4  C4  BNZ d   1       0.606  -0.111   0.115  0.00  0.00     0.000 A 
ATOM      5  C5  BNZ d   1       1.240   1.099   0.316  0.00  0.00     0.000 A 
ATOM      6  C6  BNZ d   1       0.498   2.253   0.431  0.00  0.00     0.000 A 
ENDROOT
TORSDOF 0
ENDMDL
