MODEL 1
REMARK minimizedAffinity -4.17458296
REMARK minimizedRMSD -1
REMARK  0 active torsions:
REMARK  status: ('A' for Active; 'I' for Inactive)
ROOT
ATOM      1  C1  BNZ d   1       1.527   1.205  -0.455  0.00  0.00     0.000 A 
ATOM      2  C2  BNZ d   1       0.846   2.392  -0.409  0.00  0.00     0.000 A 
ATOM      3  C3  BNZ d   1      -0.466   2.432  -0.030  0.00  0.00     0.000 A 
ATOM      4  C4  BNZ d   1      -1.108   1.282   0.262  0.00  0.00     0.000 A 
ATOM      5  C5  BNZ d   1      -0.438   0.076   0.210  0.00  0.00     0.000 A 
ATOM      6  C6  BNZ d   1       0.894   0.044  -0.133  0.00  0.00     0.000 A 
ENDROOT
TORSDOF 0
ENDMDL
