MODEL 1
REMARK minimizedAffinity -4.31819344
REMARK minimizedRMSD -1
REMARK  0 active torsions:
REMARK  status: ('A' for Active; 'I' for Inactive)
ROOT
ATOM      1  C1  BNZ d   1       1.544   0.626  -0.550  0.00  0.00     0.000 A 
ATOM      2  C2  BNZ d   1       0.508   1.521  -0.587  0.00  0.00     0.000 A 
ATOM      3  C3  BNZ d   1      -0.685   1.237   0.018  0.00  0.00     0.000 A 
ATOM      4  C4  BNZ d   1      -0.854   0.043   0.622  0.00  0.00     0.000 A 
ATOM      5  C5  BNZ d   1       0.178  -0.874   0.660  0.00  0.00     0.000 A 
ATOM      6  C6  BNZ d   1       1.390  -0.568   0.084  0.00  0.00     0.000 A 
ENDROOT
TORSDOF 0
ENDMDL
