MODEL 1
REMARK minimizedAffinity -3.44362235
REMARK minimizedRMSD -1
REMARK  1 active torsions:
REMARK  status: ('A' for Active; 'I' for Inactive)
REMARK    1  A    between atoms: C1_2  and  C2_3 
ROOT
ATOM      1  C2  UNL d   1      -0.098   0.276   0.949  0.00  0.00    -0.073 A 
ATOM      2  C3  UNL d   1       0.033  -0.122   2.284  0.00  0.00    -0.002 A 
ATOM      3  C4  UNL d   1      -1.100  -0.369   3.061  0.00  0.00     0.004 A 
ATOM      4  C5  UNL d   1      -2.373  -0.228   2.510  0.00  0.00    -0.004 A 
ATOM      5  C6  UNL d   1      -2.525   0.157   1.174  0.00  0.00    -0.075 A 
ATOM      6  C7  UNL d   1      -3.888   0.316   0.566  0.00  0.00     0.076 C 
ATOM      7  C8  UNL d   1      -1.383   0.406   0.401  0.00  0.00     0.001 A 
ENDROOT
BRANCH   1   8
ATOM      8  C1  UNL d   1       1.122   0.537   0.105  0.00  0.00     0.053 C 
ATOM      9  C   UNL d   1       2.225   1.224   0.894  0.00  0.00     0.018 C 
ENDBRANCH   1   8
TORSDOF 1
ENDMDL
