MODEL 1
REMARK minimizedAffinity -3.95202637
REMARK minimizedRMSD -1
REMARK  1 active torsions:
REMARK  status: ('A' for Active; 'I' for Inactive)
REMARK    1  A    between atoms: C1_2  and  C2_3 
ROOT
ATOM      1  C2  UNL d   1       0.206   0.368  -0.521  0.00  0.00    -0.073 A 
ATOM      2  C3  UNL d   1       1.117   0.392   0.540  0.00  0.00    -0.002 A 
ATOM      3  C4  UNL d   1       0.663   0.371   1.860  0.00  0.00     0.004 A 
ATOM      4  C5  UNL d   1      -0.704   0.318   2.131  0.00  0.00    -0.004 A 
ATOM      5  C6  UNL d   1      -1.630   0.281   1.083  0.00  0.00    -0.075 A 
ATOM      6  C7  UNL d   1      -3.104   0.226   1.358  0.00  0.00     0.076 C 
ATOM      7  C8  UNL d   1      -1.166   0.305  -0.239  0.00  0.00     0.001 A 
ENDROOT
BRANCH   1   8
ATOM      8  C1  UNL d   1       0.692   0.384  -1.948  0.00  0.00     0.053 C 
ATOM      9  C   UNL d   1       0.426  -0.936  -2.655  0.00  0.00     0.018 C 
ENDBRANCH   1   8
TORSDOF 1
ENDMDL
