MODEL 1
REMARK minimizedAffinity -2.96696067
REMARK minimizedRMSD -1
REMARK  1 active torsions:
REMARK  status: ('A' for Active; 'I' for Inactive)
REMARK    1  A    between atoms: C1_2  and  C2_3 
ROOT
ATOM      1  C2  UNL d   1       0.026   0.564   0.151  0.00  0.00    -0.073 A 
ATOM      2  C3  UNL d   1       0.639   0.392   1.397  0.00  0.00    -0.002 A 
ATOM      3  C4  UNL d   1      -0.132   0.331   2.559  0.00  0.00     0.004 A 
ATOM      4  C5  UNL d   1      -1.521   0.434   2.487  0.00  0.00    -0.004 A 
ATOM      5  C6  UNL d   1      -2.153   0.595   1.250  0.00  0.00    -0.075 A 
ATOM      6  C7  UNL d   1      -3.646   0.709   1.155  0.00  0.00     0.076 C 
ATOM      7  C8  UNL d   1      -1.372   0.658   0.088  0.00  0.00     0.001 A 
ENDROOT
BRANCH   1   8
ATOM      8  C1  UNL d   1       0.853   0.625  -1.107  0.00  0.00     0.053 C 
ATOM      9  C   UNL d   1       0.053   0.218  -2.335  0.00  0.00     0.018 C 
ENDBRANCH   1   8
TORSDOF 1
ENDMDL
