MODEL 1
REMARK minimizedAffinity -3.45102477
REMARK minimizedRMSD -1
REMARK  1 active torsions:
REMARK  status: ('A' for Active; 'I' for Inactive)
REMARK    1  A    between atoms: C1_2  and  C2_3 
ROOT
ATOM      1  C2  UNL d   1       0.325   0.088  -0.521  0.00  0.00    -0.073 A 
ATOM      2  C3  UNL d   1      -0.773  -0.729  -0.816  0.00  0.00    -0.002 A 
ATOM      3  C4  UNL d   1      -0.917  -1.282  -2.089  0.00  0.00     0.004 A 
ATOM      4  C5  UNL d   1       0.035  -1.031  -3.076  0.00  0.00    -0.004 A 
ATOM      5  C6  UNL d   1       1.146  -0.228  -2.797  0.00  0.00    -0.075 A 
ATOM      6  C7  UNL d   1       2.178   0.054  -3.848  0.00  0.00     0.076 C 
ATOM      7  C8  UNL d   1       1.283   0.327  -1.517  0.00  0.00     0.001 A 
ENDROOT
BRANCH   1   8
ATOM      8  C1  UNL d   1       0.489   0.682   0.854  0.00  0.00     0.053 C 
ATOM      9  C   UNL d   1       1.570  -0.026   1.656  0.00  0.00     0.018 C 
ENDBRANCH   1   8
TORSDOF 1
ENDMDL
