MODEL 1
REMARK minimizedAffinity -1.99834454
REMARK minimizedRMSD -1
REMARK  1 active torsions:
REMARK  status: ('A' for Active; 'I' for Inactive)
REMARK    1  A    between atoms: C1_2  and  C2_3 
ROOT
ATOM      1  C2  UNL d   1       0.150  -0.235  -1.535  0.00  0.00    -0.073 A 
ATOM      2  C3  UNL d   1      -0.524  -1.217  -2.270  0.00  0.00    -0.002 A 
ATOM      3  C4  UNL d   1       0.035  -1.729  -3.442  0.00  0.00     0.004 A 
ATOM      4  C5  UNL d   1       1.274  -1.269  -3.887  0.00  0.00    -0.004 A 
ATOM      5  C6  UNL d   1       1.969  -0.297  -3.160  0.00  0.00    -0.075 A 
ATOM      6  C7  UNL d   1       3.302   0.209  -3.627  0.00  0.00     0.076 C 
ATOM      7  C8  UNL d   1       1.400   0.214  -1.986  0.00  0.00     0.001 A 
ENDROOT
BRANCH   1   8
ATOM      8  C1  UNL d   1      -0.446   0.315  -0.266  0.00  0.00     0.053 C 
ATOM      9  C   UNL d   1       0.574   0.386   0.860  0.00  0.00     0.018 C 
ENDBRANCH   1   8
TORSDOF 1
ENDMDL
