MODEL 1
REMARK minimizedAffinity -2.93592358
REMARK minimizedRMSD -1
REMARK  1 active torsions:
REMARK  status: ('A' for Active; 'I' for Inactive)
REMARK    1  A    between atoms: C1_2  and  C2_3 
ROOT
ATOM      1  C2  UNL d   1      -1.076   0.406   1.518  0.00  0.00    -0.073 A 
ATOM      2  C3  UNL d   1      -0.084   0.157   2.473  0.00  0.00    -0.002 A 
ATOM      3  C4  UNL d   1       1.208  -0.187   2.075  0.00  0.00     0.004 A 
ATOM      4  C5  UNL d   1       1.523  -0.280   0.719  0.00  0.00    -0.004 A 
ATOM      5  C6  UNL d   1       0.549  -0.023  -0.251  0.00  0.00    -0.075 A 
ATOM      6  C7  UNL d   1       0.872  -0.121  -1.713  0.00  0.00     0.076 C 
ATOM      7  C8  UNL d   1      -0.747   0.319   0.157  0.00  0.00     0.001 A 
ENDROOT
BRANCH   1   8
ATOM      8  C1  UNL d   1      -2.471   0.784   1.943  0.00  0.00     0.053 C 
ATOM      9  C   UNL d   1      -3.471   0.649   0.805  0.00  0.00     0.018 C 
ENDBRANCH   1   8
TORSDOF 1
ENDMDL
