MODEL 1
REMARK minimizedAffinity -4.91080379
REMARK minimizedRMSD -1
REMARK  1 active torsions:
REMARK  status: ('A' for Active; 'I' for Inactive)
REMARK    1  A    between atoms: C1_2  and  C2_3 
ROOT
ATOM      1  C2  UNL d   1       0.021   0.235  -0.038  0.00  0.00    -0.073 A 
ATOM      2  C3  UNL d   1       1.020  -0.092   0.886  0.00  0.00    -0.002 A 
ATOM      3  C4  UNL d   1       0.731  -0.135   2.250  0.00  0.00     0.004 A 
ATOM      4  C5  UNL d   1      -0.559   0.141   2.704  0.00  0.00    -0.004 A 
ATOM      5  C6  UNL d   1      -1.573   0.459   1.795  0.00  0.00    -0.075 A 
ATOM      6  C7  UNL d   1      -2.965   0.761   2.267  0.00  0.00     0.076 C 
ATOM      7  C8  UNL d   1      -1.274   0.503   0.426  0.00  0.00     0.001 A 
ENDROOT
BRANCH   1   8
ATOM      8  C1  UNL d   1       0.327   0.277  -1.513  0.00  0.00     0.053 C 
ATOM      9  C   UNL d   1      -0.119  -0.991  -2.224  0.00  0.00     0.018 C 
ENDBRANCH   1   8
TORSDOF 1
ENDMDL
