MODEL 1
REMARK minimizedAffinity -0.20759891
REMARK minimizedRMSD -1
REMARK  0 active torsions:
REMARK  status: ('A' for Active; 'I' for Inactive)
ROOT
ATOM      1  C   UNL d   1      -1.580   0.244   0.689  0.00  0.00     0.023 A 
ATOM      2  C1  UNL d   1      -2.121   0.225   1.975  0.00  0.00     0.003 A 
ATOM      3  C2  UNL d   1      -1.356  -0.231   3.050  0.00  0.00     0.048 A 
ATOM      4  C3  UNL d   1      -0.050  -0.667   2.833  0.00  0.00     0.023 A 
ATOM      5  C4  UNL d   1       0.497  -0.649   1.548  0.00  0.00     0.048 A 
ATOM      6  C5  UNL d   1      -0.272  -0.192   0.476  0.00  0.00     0.003 A 
ATOM      7  I   UNL d   1       1.091  -1.347   4.431  0.00  0.00    -0.146 I 
ENDROOT
TORSDOF 0
ENDMDL
