MODEL 1
REMARK minimizedAffinity 9.77949524
REMARK minimizedRMSD -1
REMARK  0 active torsions:
REMARK  status: ('A' for Active; 'I' for Inactive)
ROOT
ATOM      1  C   UNL d   1      -2.446   0.739  -0.868  0.00  0.00     0.023 A 
ATOM      2  C1  UNL d   1      -2.291   1.572   0.240  0.00  0.00     0.003 A 
ATOM      3  C2  UNL d   1      -2.481   1.066   1.527  0.00  0.00     0.048 A 
ATOM      4  C3  UNL d   1      -2.825  -0.274   1.700  0.00  0.00     0.023 A 
ATOM      5  C4  UNL d   1      -2.979  -1.112   0.594  0.00  0.00     0.048 A 
ATOM      6  C5  UNL d   1      -2.789  -0.602  -0.691  0.00  0.00     0.003 A 
ATOM      7  I   UNL d   1      -3.107  -1.029   3.615  0.00  0.00    -0.146 I 
ENDROOT
TORSDOF 0
ENDMDL
