MODEL 1
REMARK minimizedAffinity 1.78147507
REMARK minimizedRMSD -1
REMARK  0 active torsions:
REMARK  status: ('A' for Active; 'I' for Inactive)
ROOT
ATOM      1  C   UNL d   1       0.266  -1.099   3.990  0.00  0.00     0.023 A 
ATOM      2  C1  UNL d   1       1.132  -0.859   2.923  0.00  0.00     0.003 A 
ATOM      3  C2  UNL d   1       0.623  -0.471   1.682  0.00  0.00     0.048 A 
ATOM      4  C3  UNL d   1      -0.754  -0.324   1.515  0.00  0.00     0.023 A 
ATOM      5  C4  UNL d   1      -1.624  -0.563   2.580  0.00  0.00     0.048 A 
ATOM      6  C5  UNL d   1      -1.110  -0.952   3.819  0.00  0.00     0.003 A 
ATOM      7  I   UNL d   1      -1.515   0.253  -0.331  0.00  0.00    -0.146 I 
ENDROOT
TORSDOF 0
ENDMDL
