MODEL 1
REMARK minimizedAffinity 3.19378352
REMARK minimizedRMSD -1
REMARK  0 active torsions:
REMARK  status: ('A' for Active; 'I' for Inactive)
ROOT
ATOM      1  C   UNL d   1      -2.966  -0.190   1.780  0.00  0.00     0.023 A 
ATOM      2  C1  UNL d   1      -1.662   0.257   1.991  0.00  0.00     0.003 A 
ATOM      3  C2  UNL d   1      -1.019  -0.008   3.201  0.00  0.00     0.048 A 
ATOM      4  C3  UNL d   1      -1.685  -0.723   4.196  0.00  0.00     0.023 A 
ATOM      5  C4  UNL d   1      -2.990  -1.174   3.989  0.00  0.00     0.048 A 
ATOM      6  C5  UNL d   1      -3.629  -0.905   2.777  0.00  0.00     0.003 A 
ATOM      7  I   UNL d   1      -0.729  -1.120   5.998  0.00  0.00    -0.146 I 
ENDROOT
TORSDOF 0
ENDMDL
