MODEL 1
REMARK minimizedAffinity -0.510350168
REMARK minimizedRMSD -1
REMARK  0 active torsions:
REMARK  status: ('A' for Active; 'I' for Inactive)
ROOT
ATOM      1  C   UNL d   1      -2.044  -0.770   4.152  0.00  0.00     0.023 A 
ATOM      2  C1  UNL d   1      -2.195   0.014   3.008  0.00  0.00     0.003 A 
ATOM      3  C2  UNL d   1      -1.110   0.224   2.155  0.00  0.00     0.048 A 
ATOM      4  C3  UNL d   1       0.125  -0.354   2.452  0.00  0.00     0.023 A 
ATOM      5  C4  UNL d   1       0.281  -1.139   3.595  0.00  0.00     0.048 A 
ATOM      6  C5  UNL d   1      -0.808  -1.346   4.445  0.00  0.00     0.003 A 
ATOM      7  I   UNL d   1       1.742  -0.043   1.184  0.00  0.00    -0.146 I 
ENDROOT
TORSDOF 0
ENDMDL
