MODEL 1
REMARK minimizedAffinity 2.06645608
REMARK minimizedRMSD -1
REMARK  0 active torsions:
REMARK  status: ('A' for Active; 'I' for Inactive)
ROOT
ATOM      1  C   UNL d   1      -2.036  -1.691   5.338  0.00  0.00     0.023 A 
ATOM      2  C1  UNL d   1      -0.776  -1.387   4.823  0.00  0.00     0.003 A 
ATOM      3  C2  UNL d   1      -0.649  -0.926   3.511  0.00  0.00     0.048 A 
ATOM      4  C3  UNL d   1      -1.787  -0.769   2.720  0.00  0.00     0.023 A 
ATOM      5  C4  UNL d   1      -3.050  -1.071   3.232  0.00  0.00     0.048 A 
ATOM      6  C5  UNL d   1      -3.172  -1.533   4.544  0.00  0.00     0.003 A 
ATOM      7  I   UNL d   1      -1.602  -0.083   0.767  0.00  0.00    -0.146 I 
ENDROOT
TORSDOF 0
ENDMDL
