MODEL 1
REMARK minimizedAffinity 3.82927752
REMARK minimizedRMSD -1
REMARK  1 active torsions:
REMARK  status: ('A' for Active; 'I' for Inactive)
REMARK    1  A    between atoms: C1_2  and  C2_3 
ROOT
ATOM      1  C2  UNL d   1      -5.105   4.336   3.404  0.00  0.00    -0.073 A 
ATOM      2  C3  UNL d   1      -5.998   4.771   4.390  0.00  0.00    -0.002 A 
ATOM      3  C4  UNL d   1      -5.556   5.593   5.427  0.00  0.00     0.004 A 
ATOM      4  C5  UNL d   1      -4.221   5.994   5.486  0.00  0.00    -0.004 A 
ATOM      5  C6  UNL d   1      -3.316   5.579   4.503  0.00  0.00    -0.075 A 
ATOM      6  C7  UNL d   1      -1.877   6.000   4.553  0.00  0.00     0.076 C 
ATOM      7  C8  UNL d   1      -3.767   4.752   3.466  0.00  0.00     0.001 A 
ENDROOT
BRANCH   1   8
ATOM      8  C1  UNL d   1      -5.579   3.454   2.278  0.00  0.00     0.053 C 
ATOM      9  C   UNL d   1      -4.608   2.318   1.997  0.00  0.00     0.018 C 
ENDBRANCH   1   8
TORSDOF 1
ENDMDL
