MODEL 1
REMARK minimizedAffinity 13.2921343
REMARK minimizedRMSD -1
REMARK  1 active torsions:
REMARK  status: ('A' for Active; 'I' for Inactive)
REMARK    1  A    between atoms: C1_2  and  C2_3 
ROOT
ATOM      1  C2  UNL d   1       3.842   1.271  -0.912  0.00  0.00    -0.073 A 
ATOM      2  C3  UNL d   1       3.933   1.000   0.458  0.00  0.00    -0.002 A 
ATOM      3  C4  UNL d   1       3.048   0.105   1.060  0.00  0.00     0.004 A 
ATOM      4  C5  UNL d   1       2.069  -0.533   0.299  0.00  0.00    -0.004 A 
ATOM      5  C6  UNL d   1       1.969  -0.284  -1.074  0.00  0.00    -0.075 A 
ATOM      6  C7  UNL d   1       0.919  -0.960  -1.906  0.00  0.00     0.076 C 
ATOM      7  C8  UNL d   1       2.860   0.619  -1.671  0.00  0.00     0.001 A 
ENDROOT
BRANCH   1   8
ATOM      8  C1  UNL d   1       4.799   2.233  -1.568  0.00  0.00     0.053 C 
ATOM      9  C   UNL d   1       5.289   1.720  -2.913  0.00  0.00     0.018 C 
ENDBRANCH   1   8
TORSDOF 1
ENDMDL
