MODEL 1
REMARK minimizedAffinity 4.71812487
REMARK minimizedRMSD -1
REMARK  1 active torsions:
REMARK  status: ('A' for Active; 'I' for Inactive)
REMARK    1  A    between atoms: C1_2  and  C2_3 
ROOT
ATOM      1  C2  UNL d   1       0.992   1.323   0.713  0.00  0.00    -0.081 A 
ATOM      2  C3  UNL d   1       0.021   2.276   0.386  0.00  0.00     0.006 A 
ATOM      3  C4  UNL d   1      -0.779   2.113  -0.747  0.00  0.00     0.002 A 
ATOM      4  C5  UNL d   1      -0.626   0.991  -1.568  0.00  0.00    -0.080 A 
ATOM      5  C6  UNL d   1      -1.499   0.788  -2.771  0.00  0.00     0.076 C 
ATOM      6  C7  UNL d   1       0.356   0.046  -1.252  0.00  0.00     0.002 A 
ATOM      7  C8  UNL d   1       1.157   0.209  -0.119  0.00  0.00     0.006 A 
ENDROOT
BRANCH   1   8
ATOM      8  C1  UNL d   1       1.812   1.463   1.970  0.00  0.00     0.054 C 
ATOM      9  C   UNL d   1       2.019   0.117   2.649  0.00  0.00     0.018 C 
ENDBRANCH   1   8
TORSDOF 1
ENDMDL
