MODEL 1
REMARK minimizedAffinity 5.57209635
REMARK minimizedRMSD -1
REMARK  1 active torsions:
REMARK  status: ('A' for Active; 'I' for Inactive)
REMARK    1  A    between atoms: C1_2  and  C2_3 
ROOT
ATOM      1  C2  UNL d   1       3.009   0.327  -2.250  0.00  0.00    -0.081 A 
ATOM      2  C3  UNL d   1       3.810   0.898  -1.254  0.00  0.00     0.006 A 
ATOM      3  C4  UNL d   1       3.507   0.706   0.096  0.00  0.00     0.002 A 
ATOM      4  C5  UNL d   1       2.404  -0.066   0.473  0.00  0.00    -0.080 A 
ATOM      5  C6  UNL d   1       2.085  -0.306   1.919  0.00  0.00     0.076 C 
ATOM      6  C7  UNL d   1       1.593  -0.623  -0.522  0.00  0.00     0.002 A 
ATOM      7  C8  UNL d   1       1.895  -0.431  -1.872  0.00  0.00     0.006 A 
ENDROOT
BRANCH   1   8
ATOM      8  C1  UNL d   1       3.370   0.478  -3.705  0.00  0.00     0.054 C 
ATOM      9  C   UNL d   1       3.449  -0.874  -4.400  0.00  0.00     0.018 C 
ENDBRANCH   1   8
TORSDOF 1
ENDMDL
