MODEL 1
REMARK minimizedAffinity -0.765597463
REMARK minimizedRMSD -1
REMARK  1 active torsions:
REMARK  status: ('A' for Active; 'I' for Inactive)
REMARK    1  A    between atoms: C1_2  and  C2_3 
ROOT
ATOM      1  C2  UNL d   1       3.157   0.572  -1.184  0.00  0.00    -0.081 A 
ATOM      2  C3  UNL d   1       2.787  -0.185  -2.303  0.00  0.00     0.006 A 
ATOM      3  C4  UNL d   1       3.700  -0.417  -3.335  0.00  0.00     0.002 A 
ATOM      4  C5  UNL d   1       4.999   0.096  -3.261  0.00  0.00    -0.080 A 
ATOM      5  C6  UNL d   1       5.999  -0.172  -4.347  0.00  0.00     0.076 C 
ATOM      6  C7  UNL d   1       5.364   0.866  -2.152  0.00  0.00     0.002 A 
ATOM      7  C8  UNL d   1       4.451   1.099  -1.120  0.00  0.00     0.006 A 
ENDROOT
BRANCH   1   8
ATOM      8  C1  UNL d   1       2.195   0.769  -0.041  0.00  0.00     0.054 C 
ATOM      9  C   UNL d   1       0.768   0.446  -0.456  0.00  0.00     0.018 C 
ENDBRANCH   1   8
TORSDOF 1
ENDMDL
