MODEL 1
REMARK minimizedAffinity 4.13510561
REMARK minimizedRMSD -1
REMARK  1 active torsions:
REMARK  status: ('A' for Active; 'I' for Inactive)
REMARK    1  A    between atoms: C1_2  and  C2_3 
ROOT
ATOM      1  C2  UNL d   1      -3.347   2.274   0.391  0.00  0.00    -0.081 A 
ATOM      2  C3  UNL d   1      -2.360   3.173  -0.030  0.00  0.00     0.006 A 
ATOM      3  C4  UNL d   1      -1.722   4.007   0.890  0.00  0.00     0.002 A 
ATOM      4  C5  UNL d   1      -2.054   3.952   2.248  0.00  0.00    -0.080 A 
ATOM      5  C6  UNL d   1      -1.356   4.821   3.251  0.00  0.00     0.076 C 
ATOM      6  C7  UNL d   1      -3.053   3.066   2.667  0.00  0.00     0.002 A 
ATOM      7  C8  UNL d   1      -3.691   2.232   1.747  0.00  0.00     0.006 A 
ENDROOT
BRANCH   1   8
ATOM      8  C1  UNL d   1      -3.991   1.327  -0.589  0.00  0.00     0.054 C 
ATOM      9  C   UNL d   1      -4.599   0.125   0.120  0.00  0.00     0.018 C 
ENDBRANCH   1   8
TORSDOF 1
ENDMDL
