MODEL 1
REMARK minimizedAffinity 8.12142563
REMARK minimizedRMSD -1
REMARK  1 active torsions:
REMARK  status: ('A' for Active; 'I' for Inactive)
REMARK    1  A    between atoms: C1_2  and  C2_3 
ROOT
ATOM      1  C2  UNL d   1       2.023   1.453   0.589  0.00  0.00    -0.081 A 
ATOM      2  C3  UNL d   1       1.160   2.546   0.447  0.00  0.00     0.006 A 
ATOM      3  C4  UNL d   1       0.096   2.496  -0.457  0.00  0.00     0.002 A 
ATOM      4  C5  UNL d   1      -0.126   1.351  -1.228  0.00  0.00    -0.080 A 
ATOM      5  C6  UNL d   1      -1.283   1.273  -2.180  0.00  0.00     0.076 C 
ATOM      6  C7  UNL d   1       0.746   0.265  -1.099  0.00  0.00     0.002 A 
ATOM      7  C8  UNL d   1       1.810   0.315  -0.196  0.00  0.00     0.006 A 
ENDROOT
BRANCH   1   8
ATOM      8  C1  UNL d   1       3.132   1.480   1.609  0.00  0.00     0.054 C 
ATOM      9  C   UNL d   1       4.249   2.425   1.189  0.00  0.00     0.018 C 
ENDBRANCH   1   8
TORSDOF 1
ENDMDL
