MODEL 1
REMARK minimizedAffinity 8.4605999
REMARK minimizedRMSD -1
REMARK  1 active torsions:
REMARK  status: ('A' for Active; 'I' for Inactive)
REMARK    1  A    between atoms: C1_2  and  C2_3 
ROOT
ATOM      1  C2  UNL d   1       0.471  -0.333  -1.276  0.00  0.00    -0.081 A 
ATOM      2  C3  UNL d   1       0.388  -0.264   0.120  0.00  0.00     0.006 A 
ATOM      3  C4  UNL d   1       1.508   0.081   0.880  0.00  0.00     0.002 A 
ATOM      4  C5  UNL d   1       2.727   0.371   0.257  0.00  0.00    -0.080 A 
ATOM      5  C6  UNL d   1       3.929   0.772   1.059  0.00  0.00     0.076 C 
ATOM      6  C7  UNL d   1       2.815   0.285  -1.137  0.00  0.00     0.002 A 
ATOM      7  C8  UNL d   1       1.695  -0.061  -1.897  0.00  0.00     0.006 A 
ENDROOT
BRANCH   1   8
ATOM      8  C1  UNL d   1      -0.751  -0.641  -2.102  0.00  0.00     0.054 C 
ATOM      9  C   UNL d   1      -0.723  -2.073  -2.619  0.00  0.00     0.018 C 
ENDBRANCH   1   8
TORSDOF 1
ENDMDL
