MODEL 1
REMARK minimizedAffinity 11.3491907
REMARK minimizedRMSD -1
REMARK  1 active torsions:
REMARK  status: ('A' for Active; 'I' for Inactive)
REMARK    1  A    between atoms: C1_2  and  C2_3 
ROOT
ATOM      1  C2  UNL d   1       4.065   1.550  -1.597  0.00  0.00    -0.081 A 
ATOM      2  C3  UNL d   1       4.725   1.759  -0.380  0.00  0.00     0.006 A 
ATOM      3  C4  UNL d   1       4.344   1.053   0.763  0.00  0.00     0.002 A 
ATOM      4  C5  UNL d   1       3.302   0.121   0.707  0.00  0.00    -0.080 A 
ATOM      5  C6  UNL d   1       2.902  -0.666   1.920  0.00  0.00     0.076 C 
ATOM      6  C7  UNL d   1       2.631  -0.075  -0.504  0.00  0.00     0.002 A 
ATOM      7  C8  UNL d   1       3.011   0.631  -1.648  0.00  0.00     0.006 A 
ENDROOT
BRANCH   1   8
ATOM      8  C1  UNL d   1       4.517   2.262  -2.846  0.00  0.00     0.054 C 
ATOM      9  C   UNL d   1       5.975   2.684  -2.746  0.00  0.00     0.018 C 
ENDBRANCH   1   8
TORSDOF 1
ENDMDL
