MODEL 1
REMARK minimizedAffinity 7.61203527
REMARK minimizedRMSD -1
REMARK  0 active torsions:
REMARK  status: ('A' for Active; 'I' for Inactive)
ROOT
ATOM      1  C   UNL d   1       2.973   2.192  -0.384  0.00  0.00     0.077 C 
ATOM      2  C1  UNL d   1       2.458   0.792  -0.229  0.00  0.00    -0.074 A 
ATOM      3  C2  UNL d   1       1.811   0.143  -1.286  0.00  0.00    -0.005 A 
ATOM      4  C3  UNL d   1       1.345  -1.162  -1.130  0.00  0.00     0.006 A 
ATOM      5  C4  UNL d   1       1.520  -1.831   0.083  0.00  0.00    -0.005 A 
ATOM      6  C5  UNL d   1       2.165  -1.198   1.150  0.00  0.00    -0.074 A 
ATOM      7  C6  UNL d   1       2.370  -1.905   2.457  0.00  0.00     0.077 C 
ATOM      8  C7  UNL d   1       2.637   0.111   0.983  0.00  0.00    -0.001 A 
ENDROOT
TORSDOF 0
ENDMDL
