MODEL 1
REMARK minimizedAffinity 3.75465131
REMARK minimizedRMSD -1
REMARK  0 active torsions:
REMARK  status: ('A' for Active; 'I' for Inactive)
ROOT
ATOM      1  C   UNL d   1       2.229   2.955   4.778  0.00  0.00     0.077 C 
ATOM      2  C1  UNL d   1       3.283   4.021   4.793  0.00  0.00    -0.074 A 
ATOM      3  C2  UNL d   1       3.770   4.533   6.000  0.00  0.00    -0.005 A 
ATOM      4  C3  UNL d   1       4.758   5.518   5.998  0.00  0.00     0.006 A 
ATOM      5  C4  UNL d   1       5.268   6.000   4.792  0.00  0.00    -0.005 A 
ATOM      6  C5  UNL d   1       4.794   5.499   3.575  0.00  0.00    -0.074 A 
ATOM      7  C6  UNL d   1       5.338   5.998   2.270  0.00  0.00     0.077 C 
ATOM      8  C7  UNL d   1       3.806   4.504   3.586  0.00  0.00    -0.001 A 
ENDROOT
TORSDOF 0
ENDMDL
