MODEL 1
REMARK minimizedAffinity 9.83002377
REMARK minimizedRMSD -1
REMARK  0 active torsions:
REMARK  status: ('A' for Active; 'I' for Inactive)
ROOT
ATOM      1  C   UNL d   1       2.603  -2.195  -0.131  0.00  0.00     0.077 C 
ATOM      2  C1  UNL d   1       2.958  -0.751   0.065  0.00  0.00    -0.074 A 
ATOM      3  C2  UNL d   1       2.019   0.160   0.559  0.00  0.00    -0.005 A 
ATOM      4  C3  UNL d   1       2.367   1.498   0.745  0.00  0.00     0.006 A 
ATOM      5  C4  UNL d   1       3.656   1.938   0.438  0.00  0.00    -0.005 A 
ATOM      6  C5  UNL d   1       4.608   1.042  -0.057  0.00  0.00    -0.074 A 
ATOM      7  C6  UNL d   1       6.000   1.496  -0.382  0.00  0.00     0.077 C 
ATOM      8  C7  UNL d   1       4.253  -0.303  -0.234  0.00  0.00    -0.001 A 
ENDROOT
TORSDOF 0
ENDMDL
