MODEL 1
REMARK minimizedAffinity 16.4800415
REMARK minimizedRMSD -1
REMARK  0 active torsions:
REMARK  status: ('A' for Active; 'I' for Inactive)
ROOT
ATOM      1  C   UNL d   1       3.965   0.709  -0.237  0.00  0.00     0.077 C 
ATOM      2  C1  UNL d   1       3.304  -0.632  -0.357  0.00  0.00    -0.074 A 
ATOM      3  C2  UNL d   1       2.791  -1.284   0.768  0.00  0.00    -0.005 A 
ATOM      4  C3  UNL d   1       2.170  -2.527   0.639  0.00  0.00     0.006 A 
ATOM      5  C4  UNL d   1       2.057  -3.129  -0.615  0.00  0.00    -0.005 A 
ATOM      6  C5  UNL d   1       2.564  -2.491  -1.752  0.00  0.00    -0.074 A 
ATOM      7  C6  UNL d   1       2.441  -3.119  -3.108  0.00  0.00     0.077 C 
ATOM      8  C7  UNL d   1       3.179  -1.240  -1.615  0.00  0.00    -0.001 A 
ENDROOT
TORSDOF 0
ENDMDL
