MODEL 1
REMARK minimizedAffinity 2.0067656
REMARK minimizedRMSD -1
REMARK  0 active torsions:
REMARK  status: ('A' for Active; 'I' for Inactive)
ROOT
ATOM      1  C   UNL d   1       5.581   5.999   2.052  0.00  0.00     0.077 C 
ATOM      2  C1  UNL d   1       5.263   5.499   3.430  0.00  0.00    -0.074 A 
ATOM      3  C2  UNL d   1       5.935   6.000   4.549  0.00  0.00    -0.005 A 
ATOM      4  C3  UNL d   1       5.621   5.532   5.825  0.00  0.00     0.006 A 
ATOM      5  C4  UNL d   1       4.634   4.560   5.994  0.00  0.00    -0.005 A 
ATOM      6  C5  UNL d   1       3.951   4.049   4.887  0.00  0.00    -0.074 A 
ATOM      7  C6  UNL d   1       2.880   3.011   5.051  0.00  0.00     0.077 C 
ATOM      8  C7  UNL d   1       4.267   4.529   3.608  0.00  0.00    -0.001 A 
ENDROOT
TORSDOF 0
ENDMDL
