MODEL 1
REMARK minimizedAffinity 2.72134161
REMARK minimizedRMSD -1
REMARK  0 active torsions:
REMARK  status: ('A' for Active; 'I' for Inactive)
ROOT
ATOM      1  C   UNL d   1       2.694   0.467  -0.819  0.00  0.00     0.077 C 
ATOM      2  C1  UNL d   1       2.020  -0.866  -0.675  0.00  0.00    -0.074 A 
ATOM      3  C2  UNL d   1       2.587  -1.876   0.109  0.00  0.00    -0.005 A 
ATOM      4  C3  UNL d   1       1.944  -3.107   0.241  0.00  0.00     0.006 A 
ATOM      5  C4  UNL d   1       0.730  -3.339  -0.408  0.00  0.00    -0.005 A 
ATOM      6  C5  UNL d   1       0.149  -2.341  -1.195  0.00  0.00    -0.074 A 
ATOM      7  C6  UNL d   1      -1.160  -2.570  -1.891  0.00  0.00     0.077 C 
ATOM      8  C7  UNL d   1       0.797  -1.104  -1.317  0.00  0.00    -0.001 A 
ENDROOT
TORSDOF 0
ENDMDL
