MODEL 1
REMARK minimizedAffinity 7.58216476
REMARK minimizedRMSD -1
REMARK  0 active torsions:
REMARK  status: ('A' for Active; 'I' for Inactive)
ROOT
ATOM      1  C   UNL d   1       6.000   0.760  -0.021  0.00  0.00     0.077 C 
ATOM      2  C1  UNL d   1       4.540   0.415  -0.046  0.00  0.00    -0.074 A 
ATOM      3  C2  UNL d   1       3.564   1.416   0.010  0.00  0.00    -0.005 A 
ATOM      4  C3  UNL d   1       2.211   1.080  -0.024  0.00  0.00     0.006 A 
ATOM      5  C4  UNL d   1       1.820  -0.256  -0.112  0.00  0.00    -0.005 A 
ATOM      6  C5  UNL d   1       2.782  -1.270  -0.170  0.00  0.00    -0.074 A 
ATOM      7  C6  UNL d   1       2.379  -2.711  -0.275  0.00  0.00     0.077 C 
ATOM      8  C7  UNL d   1       4.140  -0.925  -0.143  0.00  0.00    -0.001 A 
ENDROOT
TORSDOF 0
ENDMDL
