MODEL 1
REMARK minimizedAffinity 11.9387369
REMARK minimizedRMSD -1
REMARK  0 active torsions:
REMARK  status: ('A' for Active; 'I' for Inactive)
ROOT
ATOM      1  C   UNL d   1      -1.846   5.724   4.074  0.00  0.00     0.077 C 
ATOM      2  C1  UNL d   1      -3.292   5.404   4.309  0.00  0.00    -0.074 A 
ATOM      3  C2  UNL d   1      -3.999   6.000   5.359  0.00  0.00    -0.005 A 
ATOM      4  C3  UNL d   1      -5.346   5.700   5.559  0.00  0.00     0.006 A 
ATOM      5  C4  UNL d   1      -6.000   4.804   4.712  0.00  0.00    -0.005 A 
ATOM      6  C5  UNL d   1      -5.310   4.199   3.657  0.00  0.00    -0.074 A 
ATOM      7  C6  UNL d   1      -6.000   3.241   2.732  0.00  0.00     0.077 C 
ATOM      8  C7  UNL d   1      -3.958   4.511   3.458  0.00  0.00    -0.001 A 
ENDROOT
TORSDOF 0
ENDMDL
