MODEL 1
REMARK minimizedAffinity 18.6482964
REMARK minimizedRMSD -1
REMARK  0 active torsions:
REMARK  status: ('A' for Active; 'I' for Inactive)
ROOT
ATOM      1  C   UNL d   1       2.454   3.848   3.447  0.00  0.00     0.077 C 
ATOM      2  C1  UNL d   1       1.972   2.462   3.136  0.00  0.00    -0.074 A 
ATOM      3  C2  UNL d   1       1.102   1.793   4.003  0.00  0.00    -0.005 A 
ATOM      4  C3  UNL d   1       0.655   0.508   3.696  0.00  0.00     0.006 A 
ATOM      5  C4  UNL d   1       1.072  -0.119   2.521  0.00  0.00    -0.005 A 
ATOM      6  C5  UNL d   1       1.940   0.535   1.642  0.00  0.00    -0.074 A 
ATOM      7  C6  UNL d   1       2.390  -0.121   0.370  0.00  0.00     0.077 C 
ATOM      8  C7  UNL d   1       2.380   1.829   1.954  0.00  0.00    -0.001 A 
ENDROOT
TORSDOF 0
ENDMDL
