MODEL 1
REMARK minimizedAffinity 2.22489905
REMARK minimizedRMSD -1
REMARK  0 active torsions:
REMARK  status: ('A' for Active; 'I' for Inactive)
ROOT
ATOM      1  C   UNL d   1      -1.704   6.000   2.809  0.00  0.00     0.077 C 
ATOM      2  C1  UNL d   1      -3.202   5.959   2.865  0.00  0.00    -0.074 A 
ATOM      3  C2  UNL d   1      -3.963   5.866   1.695  0.00  0.00    -0.005 A 
ATOM      4  C3  UNL d   1      -5.355   5.820   1.763  0.00  0.00     0.006 A 
ATOM      5  C4  UNL d   1      -6.000   5.865   2.999  0.00  0.00    -0.005 A 
ATOM      6  C5  UNL d   1      -5.256   5.957   4.180  0.00  0.00    -0.074 A 
ATOM      7  C6  UNL d   1      -5.933   5.997   5.518  0.00  0.00     0.077 C 
ATOM      8  C7  UNL d   1      -3.857   5.996   4.104  0.00  0.00    -0.001 A 
ENDROOT
TORSDOF 0
ENDMDL
