MODEL 1
REMARK minimizedAffinity -1.47282743
REMARK minimizedRMSD -1
REMARK  0 active torsions:
REMARK  status: ('A' for Active; 'I' for Inactive)
ROOT
ATOM      1  C4' PXY d   1      -1.786   2.075  -1.410  0.00  0.00     0.077 C 
ATOM      2  C1' PXY d   1       2.224  -1.482   0.754  0.00  0.00     0.077 C 
ATOM      3  C1  PXY d   1       1.163  -0.558   0.190  0.00  0.00    -0.082 A 
ATOM      4  C2  PXY d   1       1.491   0.324  -0.740  0.00  0.00     0.003 A 
ATOM      5  C3  PXY d   1       0.551   1.190  -1.238  0.00  0.00     0.003 A 
ATOM      6  C4  PXY d   1      -0.750   1.116  -0.818  0.00  0.00    -0.082 A 
ATOM      7  C5  PXY d   1      -1.095   0.211   0.123  0.00  0.00     0.003 A 
ATOM      8  C6  PXY d   1      -0.117  -0.630   0.645  0.00  0.00     0.003 A 
ENDROOT
TORSDOF 0
ENDMDL
