MODEL 1
REMARK minimizedAffinity -1.6020329
REMARK minimizedRMSD -1
REMARK  0 active torsions:
REMARK  status: ('A' for Active; 'I' for Inactive)
ROOT
ATOM      1  C4' PXY d   1      -1.387  -1.052   2.633  0.00  0.00     0.077 C 
ATOM      2  C1' PXY d   1       2.943  -0.334  -1.129  0.00  0.00     0.077 C 
ATOM      3  C1  PXY d   1       1.812  -0.534  -0.140  0.00  0.00    -0.082 A 
ATOM      4  C2  PXY d   1       0.706   0.183  -0.257  0.00  0.00     0.003 A 
ATOM      5  C3  PXY d   1      -0.314   0.038   0.648  0.00  0.00     0.003 A 
ATOM      6  C4  PXY d   1      -0.223  -0.890   1.651  0.00  0.00    -0.082 A 
ATOM      7  C5  PXY d   1       0.898  -1.633   1.771  0.00  0.00     0.003 A 
ATOM      8  C6  PXY d   1       1.938  -1.441   0.867  0.00  0.00     0.003 A 
ENDROOT
TORSDOF 0
ENDMDL
