MODEL 1
REMARK minimizedAffinity -1.50949478
REMARK minimizedRMSD -1
REMARK  0 active torsions:
REMARK  status: ('A' for Active; 'I' for Inactive)
ROOT
ATOM      1  C4' PXY d   1       0.775  -1.890   2.834  0.00  0.00     0.077 C 
ATOM      2  C1' PXY d   1      -1.191   1.934  -1.029  0.00  0.00     0.077 C 
ATOM      3  C1  PXY d   1      -0.684   0.936  -0.007  0.00  0.00    -0.082 A 
ATOM      4  C2  PXY d   1       0.524   0.414  -0.146  0.00  0.00     0.003 A 
ATOM      5  C3  PXY d   1       0.986  -0.514   0.751  0.00  0.00     0.003 A 
ATOM      6  C4  PXY d   1       0.225  -0.872   1.831  0.00  0.00    -0.082 A 
ATOM      7  C5  PXY d   1      -1.004  -0.335   1.986  0.00  0.00     0.003 A 
ATOM      8  C6  PXY d   1      -1.471   0.574   1.042  0.00  0.00     0.003 A 
ENDROOT
TORSDOF 0
ENDMDL
