MODEL 1
REMARK minimizedAffinity -1.34544218
REMARK minimizedRMSD -1
REMARK  0 active torsions:
REMARK  status: ('A' for Active; 'I' for Inactive)
ROOT
ATOM      1  C4' PXY d   1      -1.191   2.361  -2.284  0.00  0.00     0.077 C 
ATOM      2  C1' PXY d   1      -0.647  -1.188   2.246  0.00  0.00     0.077 C 
ATOM      3  C1  PXY d   1      -0.781  -0.264   1.052  0.00  0.00    -0.082 A 
ATOM      4  C2  PXY d   1      -1.238   0.966   1.224  0.00  0.00     0.003 A 
ATOM      5  C3  PXY d   1      -1.395   1.804   0.150  0.00  0.00     0.003 A 
ATOM      6  C4  PXY d   1      -1.030   1.397  -1.106  0.00  0.00    -0.082 A 
ATOM      7  C5  PXY d   1      -0.553   0.147  -1.288  0.00  0.00     0.003 A 
ATOM      8  C6  PXY d   1      -0.440  -0.702  -0.191  0.00  0.00     0.003 A 
ENDROOT
TORSDOF 0
ENDMDL
