MODEL 1
REMARK minimizedAffinity -4.33764648
REMARK minimizedRMSD -1
REMARK  0 active torsions:
REMARK  status: ('A' for Active; 'I' for Inactive)
ROOT
ATOM      1  C4' PXY d   1       1.837  -1.368   0.708  0.00  0.00     0.077 C 
ATOM      2  C1' PXY d   1      -1.738   2.252  -2.037  0.00  0.00     0.077 C 
ATOM      3  C1  PXY d   1      -0.804   1.293  -1.324  0.00  0.00    -0.082 A 
ATOM      4  C2  PXY d   1      -0.401   1.565  -0.094  0.00  0.00     0.003 A 
ATOM      5  C3  PXY d   1       0.469   0.725   0.553  0.00  0.00     0.003 A 
ATOM      6  C4  PXY d   1       0.887  -0.433  -0.046  0.00  0.00    -0.082 A 
ATOM      7  C5  PXY d   1       0.472  -0.723  -1.297  0.00  0.00     0.003 A 
ATOM      8  C6  PXY d   1      -0.378   0.163  -1.952  0.00  0.00     0.003 A 
ENDROOT
TORSDOF 0
ENDMDL
