MODEL 1
REMARK minimizedAffinity -3.8062129
REMARK minimizedRMSD -1
REMARK  0 active torsions:
REMARK  status: ('A' for Active; 'I' for Inactive)
ROOT
ATOM      1  C4' PXY d   1      -2.004   2.149  -2.096  0.00  0.00     0.077 C 
ATOM      2  C1' PXY d   1       1.630  -1.198   0.906  0.00  0.00     0.077 C 
ATOM      3  C1  PXY d   1       0.676  -0.312   0.129  0.00  0.00    -0.082 A 
ATOM      4  C2  PXY d   1      -0.012  -0.820  -0.881  0.00  0.00     0.003 A 
ATOM      5  C3  PXY d   1      -0.855  -0.025  -1.615  0.00  0.00     0.003 A 
ATOM      6  C4  PXY d   1      -1.036   1.289  -1.277  0.00  0.00    -0.082 A 
ATOM      7  C5  PXY d   1      -0.346   1.812  -0.241  0.00  0.00     0.003 A 
ATOM      8  C6  PXY d   1       0.536   0.999   0.465  0.00  0.00     0.003 A 
ENDROOT
TORSDOF 0
ENDMDL
