MODEL 1
REMARK minimizedAffinity 3.46240854
REMARK minimizedRMSD -1
REMARK  0 active torsions:
REMARK  status: ('A' for Active; 'I' for Inactive)
ROOT
ATOM      1  C4' PXY d   1      -1.003   2.156  -1.952  0.00  0.00     0.077 C 
ATOM      2  C1' PXY d   1       2.140  -1.289   1.463  0.00  0.00     0.077 C 
ATOM      3  C1  PXY d   1       1.306  -0.393   0.569  0.00  0.00    -0.082 A 
ATOM      4  C2  PXY d   1       1.900   0.356  -0.345  0.00  0.00     0.003 A 
ATOM      5  C3  PXY d   1       1.164   1.196  -1.140  0.00  0.00     0.003 A 
ATOM      6  C4  PXY d   1      -0.201   1.230  -1.035  0.00  0.00    -0.082 A 
ATOM      7  C5  PXY d   1      -0.816   0.460  -0.112  0.00  0.00     0.003 A 
ATOM      8  C6  PXY d   1      -0.047  -0.355   0.714  0.00  0.00     0.003 A 
ENDROOT
TORSDOF 0
ENDMDL
