MODEL 1
REMARK minimizedAffinity -3.60103154
REMARK minimizedRMSD -1
REMARK  0 active torsions:
REMARK  status: ('A' for Active; 'I' for Inactive)
ROOT
ATOM      1  C4' PXY d   1      -1.108  -1.663   3.250  0.00  0.00     0.077 C 
ATOM      2  C1' PXY d   1       2.453  -0.405  -1.126  0.00  0.00     0.077 C 
ATOM      3  C1  PXY d   1       1.526  -0.746   0.024  0.00  0.00    -0.082 A 
ATOM      4  C2  PXY d   1       0.301  -0.247   0.046  0.00  0.00     0.003 A 
ATOM      5  C3  PXY d   1      -0.540  -0.519   1.094  0.00  0.00     0.003 A 
ATOM      6  C4  PXY d   1      -0.141  -1.353   2.104  0.00  0.00    -0.082 A 
ATOM      7  C5  PXY d   1       1.104  -1.874   2.084  0.00  0.00     0.003 A 
ATOM      8  C6  PXY d   1       1.957  -1.553   1.031  0.00  0.00     0.003 A 
ENDROOT
TORSDOF 0
ENDMDL
