MODEL 1
REMARK minimizedAffinity -2.97191858
REMARK minimizedRMSD -1
REMARK  0 active torsions:
REMARK  status: ('A' for Active; 'I' for Inactive)
ROOT
ATOM      1  C4' PXY d   1       1.502  -0.767   0.527  0.00  0.00     0.077 C 
ATOM      2  C1' PXY d   1      -2.573   2.081  -2.422  0.00  0.00     0.077 C 
ATOM      3  C1  PXY d   1      -1.496   1.344  -1.651  0.00  0.00    -0.082 A 
ATOM      4  C2  PXY d   1      -1.560   0.027  -1.533  0.00  0.00     0.003 A 
ATOM      5  C3  PXY d   1      -0.612  -0.652  -0.812  0.00  0.00     0.003 A 
ATOM      6  C4  PXY d   1       0.442   0.018  -0.250  0.00  0.00    -0.082 A 
ATOM      7  C5  PXY d   1       0.521   1.360  -0.375  0.00  0.00     0.003 A 
ATOM      8  C6  PXY d   1      -0.474   2.035  -1.076  0.00  0.00     0.003 A 
ENDROOT
TORSDOF 0
ENDMDL
