MODEL 1
REMARK minimizedAffinity -3.42341757
REMARK minimizedRMSD -1
REMARK  0 active torsions:
REMARK  status: ('A' for Active; 'I' for Inactive)
ROOT
ATOM      1  C4' PXY d   1      -0.011  -1.764   3.757  0.00  0.00     0.077 C 
ATOM      2  C1' PXY d   1       1.934   0.116  -1.351  0.00  0.00     0.077 C 
ATOM      3  C1  PXY d   1       1.416  -0.366  -0.010  0.00  0.00    -0.082 A 
ATOM      4  C2  PXY d   1       2.136  -1.220   0.700  0.00  0.00     0.003 A 
ATOM      5  C3  PXY d   1       1.668  -1.691   1.899  0.00  0.00     0.003 A 
ATOM      6  C4  PXY d   1       0.476  -1.242   2.403  0.00  0.00    -0.082 A 
ATOM      7  C5  PXY d   1      -0.258  -0.363   1.689  0.00  0.00     0.003 A 
ATOM      8  C6  PXY d   1       0.215   0.071   0.454  0.00  0.00     0.003 A 
ENDROOT
TORSDOF 0
ENDMDL
