MODEL 1
REMARK minimizedAffinity -1.92039382
REMARK minimizedRMSD -1
REMARK  0 active torsions:
REMARK  status: ('A' for Active; 'I' for Inactive)
ROOT
ATOM      1  C4' PXY d   1       2.804  -0.079  -1.051  0.00  0.00     0.077 C 
ATOM      2  C1' PXY d   1      -1.845  -0.797   2.307  0.00  0.00     0.077 C 
ATOM      3  C1  PXY d   1      -0.619  -0.615   1.435  0.00  0.00    -0.082 A 
ATOM      4  C2  PXY d   1      -0.601   0.344   0.524  0.00  0.00     0.003 A 
ATOM      5  C3  PXY d   1       0.488   0.502  -0.295  0.00  0.00     0.003 A 
ATOM      6  C4  PXY d   1       1.591  -0.294  -0.143  0.00  0.00    -0.082 A 
ATOM      7  C5  PXY d   1       1.585  -1.268   0.793  0.00  0.00     0.003 A 
ATOM      8  C6  PXY d   1       0.454  -1.439   1.586  0.00  0.00     0.003 A 
ENDROOT
TORSDOF 0
ENDMDL
