MODEL 1
REMARK minimizedAffinity -1.30866408
REMARK minimizedRMSD -1
REMARK  0 active torsions:
REMARK  status: ('A' for Active; 'I' for Inactive)
ROOT
ATOM      1  C4' PXY d   1       3.643  -0.772   1.532  0.00  0.00     0.077 C 
ATOM      2  C1' PXY d   1      -1.530   0.686  -0.598  0.00  0.00     0.077 C 
ATOM      3  C1  PXY d   1      -0.179   0.298  -0.029  0.00  0.00    -0.082 A 
ATOM      4  C2  PXY d   1       0.898   0.982  -0.378  0.00  0.00     0.003 A 
ATOM      5  C3  PXY d   1       2.132   0.625   0.102  0.00  0.00     0.003 A 
ATOM      6  C4  PXY d   1       2.257  -0.410   0.989  0.00  0.00    -0.082 A 
ATOM      7  C5  PXY d   1       1.161  -1.106   1.358  0.00  0.00     0.003 A 
ATOM      8  C6  PXY d   1      -0.077  -0.754   0.828  0.00  0.00     0.003 A 
ENDROOT
TORSDOF 0
ENDMDL
