MODEL 1
REMARK minimizedAffinity -3.23652029
REMARK minimizedRMSD -1
REMARK  0 active torsions:
REMARK  status: ('A' for Active; 'I' for Inactive)
ROOT
ATOM      1  C4' PXY d   1       2.411  -1.626   0.976  0.00  0.00     0.077 C 
ATOM      2  C1' PXY d   1      -1.329   1.939  -1.617  0.00  0.00     0.077 C 
ATOM      3  C1  PXY d   1      -0.343   1.000  -0.948  0.00  0.00    -0.082 A 
ATOM      4  C2  PXY d   1      -0.594   0.549   0.270  0.00  0.00     0.003 A 
ATOM      5  C3  PXY d   1       0.302  -0.275   0.902  0.00  0.00     0.003 A 
ATOM      6  C4  PXY d   1       1.440  -0.684   0.259  0.00  0.00    -0.082 A 
ATOM      7  C5  PXY d   1       1.697  -0.236  -0.988  0.00  0.00     0.003 A 
ATOM      8  C6  PXY d   1       0.795   0.632  -1.596  0.00  0.00     0.003 A 
ENDROOT
TORSDOF 0
ENDMDL
