MODEL 1
REMARK minimizedAffinity -3.23775172
REMARK minimizedRMSD -1
REMARK  0 active torsions:
REMARK  status: ('A' for Active; 'I' for Inactive)
ROOT
ATOM      1  C4' PXY d   1      -1.006  -1.767   3.307  0.00  0.00     0.077 C 
ATOM      2  C1' PXY d   1       2.283  -0.336  -1.226  0.00  0.00     0.077 C 
ATOM      3  C1  PXY d   1       1.428  -0.722  -0.036  0.00  0.00    -0.082 A 
ATOM      4  C2  PXY d   1       0.189  -0.266   0.055  0.00  0.00     0.003 A 
ATOM      5  C3  PXY d   1      -0.588  -0.580   1.140  0.00  0.00     0.003 A 
ATOM      6  C4  PXY d   1      -0.110  -1.411   2.118  0.00  0.00    -0.082 A 
ATOM      7  C5  PXY d   1       1.150  -1.888   2.027  0.00  0.00     0.003 A 
ATOM      8  C6  PXY d   1       1.936  -1.525   0.938  0.00  0.00     0.003 A 
ENDROOT
TORSDOF 0
ENDMDL
