MODEL 1
REMARK minimizedAffinity -4.31965923
REMARK minimizedRMSD -1
REMARK  0 active torsions:
REMARK  status: ('A' for Active; 'I' for Inactive)
ROOT
ATOM      1  C4' PXY d   1      -4.369   0.990  -1.704  0.00  0.00     0.077 C 
ATOM      2  C1' PXY d   1       0.136   4.206  -3.372  0.00  0.00     0.077 C 
ATOM      3  C1  PXY d   1      -1.038   3.357  -2.926  0.00  0.00    -0.082 A 
ATOM      4  C2  PXY d   1      -2.047   3.148  -3.756  0.00  0.00     0.003 A 
ATOM      5  C3  PXY d   1      -3.131   2.409  -3.358  0.00  0.00     0.003 A 
ATOM      6  C4  PXY d   1      -3.159   1.833  -2.115  0.00  0.00    -0.082 A 
ATOM      7  C5  PXY d   1      -2.129   2.033  -1.266  0.00  0.00     0.003 A 
ATOM      8  C6  PXY d   1      -1.056   2.821  -1.675  0.00  0.00     0.003 A 
ENDROOT
TORSDOF 0
ENDMDL
