MODEL 1
REMARK minimizedAffinity -3.64015794
REMARK minimizedRMSD -1
REMARK  0 active torsions:
REMARK  status: ('A' for Active; 'I' for Inactive)
ROOT
ATOM      1  C4' PXY d   1      -1.640   1.752  -1.860  0.00  0.00     0.077 C 
ATOM      2  C1' PXY d   1       2.179  -1.197   1.324  0.00  0.00     0.077 C 
ATOM      3  C1  PXY d   1       1.169  -0.426   0.498  0.00  0.00    -0.082 A 
ATOM      4  C2  PXY d   1       1.369  -0.268  -0.801  0.00  0.00     0.003 A 
ATOM      5  C3  PXY d   1       0.482   0.453  -1.557  0.00  0.00     0.003 A 
ATOM      6  C4  PXY d   1      -0.651   0.973  -0.988  0.00  0.00    -0.082 A 
ATOM      7  C5  PXY d   1      -0.868   0.807   0.333  0.00  0.00     0.003 A 
ATOM      8  C6  PXY d   1       0.066   0.106   1.091  0.00  0.00     0.003 A 
ENDROOT
TORSDOF 0
ENDMDL
