MODEL 1
REMARK minimizedAffinity -3.34418011
REMARK minimizedRMSD -1
REMARK  0 active torsions:
REMARK  status: ('A' for Active; 'I' for Inactive)
ROOT
ATOM      1  C4' PXY d   1      -0.120   1.751  -0.606  0.00  0.00     0.077 C 
ATOM      2  C1' PXY d   1       1.022  -3.312   1.938  0.00  0.00     0.077 C 
ATOM      3  C1  PXY d   1       0.735  -1.982   1.271  0.00  0.00    -0.082 A 
ATOM      4  C2  PXY d   1      -0.462  -1.433   1.394  0.00  0.00     0.003 A 
ATOM      5  C3  PXY d   1      -0.748  -0.245   0.771  0.00  0.00     0.003 A 
ATOM      6  C4  PXY d   1       0.217   0.413   0.058  0.00  0.00    -0.082 A 
ATOM      7  C5  PXY d   1       1.445  -0.135  -0.064  0.00  0.00     0.003 A 
ATOM      8  C6  PXY d   1       1.703  -1.361   0.542  0.00  0.00     0.003 A 
ENDROOT
TORSDOF 0
ENDMDL
