MODEL 1
REMARK minimizedAffinity -2.0163753
REMARK minimizedRMSD -1
REMARK  0 active torsions:
REMARK  status: ('A' for Active; 'I' for Inactive)
ROOT
ATOM      1  C4' PXY d   1      -1.541   1.670  -1.165  0.00  0.00     0.077 C 
ATOM      2  C1' PXY d   1       1.922  -1.902   1.778  0.00  0.00     0.077 C 
ATOM      3  C1  PXY d   1       1.004  -0.970   1.012  0.00  0.00    -0.082 A 
ATOM      4  C2  PXY d   1       1.413  -0.439  -0.129  0.00  0.00     0.003 A 
ATOM      5  C3  PXY d   1       0.608   0.430  -0.818  0.00  0.00     0.003 A 
ATOM      6  C4  PXY d   1      -0.651   0.717  -0.363  0.00  0.00    -0.082 A 
ATOM      7  C5  PXY d   1      -1.080   0.172   0.795  0.00  0.00     0.003 A 
ATOM      8  C6  PXY d   1      -0.232  -0.676   1.501  0.00  0.00     0.003 A 
ENDROOT
TORSDOF 0
ENDMDL
