MODEL 1
REMARK minimizedAffinity -2.94200039
REMARK minimizedRMSD -1
REMARK  0 active torsions:
REMARK  status: ('A' for Active; 'I' for Inactive)
ROOT
ATOM      1  C4' PXY d   1      -1.321  -0.742   1.425  0.00  0.00     0.077 C 
ATOM      2  C1' PXY d   1      -2.211   2.472  -3.296  0.00  0.00     0.077 C 
ATOM      3  C1  PXY d   1      -1.965   1.630  -2.060  0.00  0.00    -0.082 A 
ATOM      4  C2  PXY d   1      -2.908   0.807  -1.631  0.00  0.00     0.003 A 
ATOM      5  C3  PXY d   1      -2.714   0.062  -0.496  0.00  0.00     0.003 A 
ATOM      6  C4  PXY d   1      -1.522   0.120   0.176  0.00  0.00    -0.082 A 
ATOM      7  C5  PXY d   1      -0.551   0.950  -0.262  0.00  0.00     0.003 A 
ATOM      8  C6  PXY d   1      -0.783   1.728  -1.392  0.00  0.00     0.003 A 
ENDROOT
TORSDOF 0
ENDMDL
