MODEL 1
REMARK minimizedAffinity 4.56333399
REMARK minimizedRMSD -1
REMARK  0 active torsions:
REMARK  status: ('A' for Active; 'I' for Inactive)
ROOT
ATOM      1  C2' OXE d   1      -3.774  -5.839  -5.975  0.00  0.00     0.078 C 
ATOM      2  C1' OXE d   1      -4.585  -3.152  -6.000  0.00  0.00     0.078 C 
ATOM      3  C1  OXE d   1      -3.104  -3.440  -5.979  0.00  0.00    -0.078 A 
ATOM      4  C2  OXE d   1      -2.717  -4.757  -5.920  0.00  0.00    -0.078 A 
ATOM      5  C3  OXE d   1      -1.364  -5.080  -5.954  0.00  0.00     0.003 A 
ATOM      6  C4  OXE d   1      -0.393  -4.073  -5.892  0.00  0.00    -0.002 A 
ATOM      7  C5  OXE d   1      -0.766  -2.725  -5.911  0.00  0.00    -0.002 A 
ATOM      8  C6  OXE d   1      -2.113  -2.392  -5.998  0.00  0.00     0.003 A 
ENDROOT
TORSDOF 0
ENDMDL
