MODEL 1
REMARK minimizedAffinity 8.61227894
REMARK minimizedRMSD -1
REMARK  0 active torsions:
REMARK  status: ('A' for Active; 'I' for Inactive)
ROOT
ATOM      1  C2' OXE d   1      -0.790   4.597  -3.045  0.00  0.00     0.078 C 
ATOM      2  C1' OXE d   1      -2.093   2.112  -2.974  0.00  0.00     0.078 C 
ATOM      3  C1  OXE d   1      -1.215   2.479  -1.804  0.00  0.00    -0.078 A 
ATOM      4  C2  OXE d   1      -0.544   3.677  -1.869  0.00  0.00    -0.078 A 
ATOM      5  C3  OXE d   1       0.236   4.089  -0.792  0.00  0.00     0.003 A 
ATOM      6  C4  OXE d   1       0.466   3.228   0.287  0.00  0.00    -0.002 A 
ATOM      7  C5  OXE d   1      -0.176   1.986   0.355  0.00  0.00    -0.002 A 
ATOM      8  C6  OXE d   1      -1.051   1.616  -0.660  0.00  0.00     0.003 A 
ENDROOT
TORSDOF 0
ENDMDL
