MODEL 1
REMARK minimizedAffinity 1.96260023
REMARK minimizedRMSD -1
REMARK  0 active torsions:
REMARK  status: ('A' for Active; 'I' for Inactive)
ROOT
ATOM      1  C2' OXE d   1       0.030  -3.671  -5.943  0.00  0.00     0.078 C 
ATOM      2  C1' OXE d   1      -2.066  -1.805  -5.992  0.00  0.00     0.078 C 
ATOM      3  C1  OXE d   1      -2.428  -3.269  -5.964  0.00  0.00    -0.078 A 
ATOM      4  C2  OXE d   1      -1.396  -4.176  -5.987  0.00  0.00    -0.078 A 
ATOM      5  C3  OXE d   1      -1.673  -5.537  -5.906  0.00  0.00     0.003 A 
ATOM      6  C4  OXE d   1      -2.995  -5.996  -5.958  0.00  0.00    -0.002 A 
ATOM      7  C5  OXE d   1      -4.061  -5.090  -5.974  0.00  0.00    -0.002 A 
ATOM      8  C6  OXE d   1      -3.796  -3.725  -5.935  0.00  0.00     0.003 A 
ENDROOT
TORSDOF 0
ENDMDL
