MODEL 1
REMARK minimizedAffinity 5.70830393
REMARK minimizedRMSD -1
REMARK  0 active torsions:
REMARK  status: ('A' for Active; 'I' for Inactive)
ROOT
ATOM      1  C2' OXE d   1      -4.639   0.748   0.545  0.00  0.00     0.078 C 
ATOM      2  C1' OXE d   1      -3.500  -1.817   0.624  0.00  0.00     0.078 C 
ATOM      3  C1  OXE d   1      -4.384  -1.404   1.774  0.00  0.00    -0.078 A 
ATOM      4  C2  OXE d   1      -4.900  -0.130   1.750  0.00  0.00    -0.078 A 
ATOM      5  C3  OXE d   1      -5.766   0.283   2.758  0.00  0.00     0.003 A 
ATOM      6  C4  OXE d   1      -5.993  -0.532   3.874  0.00  0.00    -0.002 A 
ATOM      7  C5  OXE d   1      -5.446  -1.817   3.939  0.00  0.00    -0.002 A 
ATOM      8  C6  OXE d   1      -4.676  -2.284   2.879  0.00  0.00     0.003 A 
ENDROOT
TORSDOF 0
ENDMDL
