MODEL 1
REMARK minimizedAffinity 5.40495396
REMARK minimizedRMSD -1
REMARK  0 active torsions:
REMARK  status: ('A' for Active; 'I' for Inactive)
ROOT
ATOM      1  C2' OXE d   1      -1.270  -1.994  -5.813  0.00  0.00     0.078 C 
ATOM      2  C1' OXE d   1       0.481  -4.188  -5.809  0.00  0.00     0.078 C 
ATOM      3  C1  OXE d   1      -0.998  -4.469  -5.891  0.00  0.00    -0.078 A 
ATOM      4  C2  OXE d   1      -1.850  -3.391  -5.845  0.00  0.00    -0.078 A 
ATOM      5  C3  OXE d   1      -3.222  -3.591  -5.972  0.00  0.00     0.003 A 
ATOM      6  C4  OXE d   1      -3.751  -4.887  -5.991  0.00  0.00    -0.002 A 
ATOM      7  C5  OXE d   1      -2.903  -6.000  -5.998  0.00  0.00    -0.002 A 
ATOM      8  C6  OXE d   1      -1.526  -5.807  -5.991  0.00  0.00     0.003 A 
ENDROOT
TORSDOF 0
ENDMDL
