MODEL 1
REMARK minimizedAffinity 10.4124422
REMARK minimizedRMSD -1
REMARK  0 active torsions:
REMARK  status: ('A' for Active; 'I' for Inactive)
ROOT
ATOM      1  C2' OXE d   1       0.336   3.303  -0.449  0.00  0.00     0.078 C 
ATOM      2  C1' OXE d   1       2.473   2.682   1.262  0.00  0.00     0.078 C 
ATOM      3  C1  OXE d   1       1.104   2.165   1.629  0.00  0.00    -0.078 A 
ATOM      4  C2  OXE d   1       0.057   2.513   0.811  0.00  0.00    -0.078 A 
ATOM      5  C3  OXE d   1      -1.217   2.017   1.073  0.00  0.00     0.003 A 
ATOM      6  C4  OXE d   1      -1.469   1.295   2.246  0.00  0.00    -0.002 A 
ATOM      7  C5  OXE d   1      -0.423   0.963   3.114  0.00  0.00    -0.002 A 
ATOM      8  C6  OXE d   1       0.874   1.353   2.799  0.00  0.00     0.003 A 
ENDROOT
TORSDOF 0
ENDMDL
