MODEL 1
REMARK minimizedAffinity 8.06503487
REMARK minimizedRMSD -1
REMARK  0 active torsions:
REMARK  status: ('A' for Active; 'I' for Inactive)
ROOT
ATOM      1  C2' OXE d   1       6.000  -2.253  -1.574  0.00  0.00     0.078 C 
ATOM      2  C1' OXE d   1       5.467  -4.880  -0.740  0.00  0.00     0.078 C 
ATOM      3  C1  OXE d   1       4.388  -3.845  -0.539  0.00  0.00    -0.078 A 
ATOM      4  C2  OXE d   1       4.675  -2.553  -0.908  0.00  0.00    -0.078 A 
ATOM      5  C3  OXE d   1       3.695  -1.570  -0.795  0.00  0.00     0.003 A 
ATOM      6  C4  OXE d   1       2.475  -1.854  -0.168  0.00  0.00    -0.002 A 
ATOM      7  C5  OXE d   1       2.178  -3.155   0.251  0.00  0.00    -0.002 A 
ATOM      8  C6  OXE d   1       3.105  -4.169   0.034  0.00  0.00     0.003 A 
ENDROOT
TORSDOF 0
ENDMDL
