MODEL 1
REMARK minimizedAffinity -0.48013857
REMARK minimizedRMSD -1
REMARK  0 active torsions:
REMARK  status: ('A' for Active; 'I' for Inactive)
ROOT
ATOM      1  C2' OXE d   1      -6.000  -2.237   5.976  0.00  0.00     0.078 C 
ATOM      2  C1' OXE d   1      -4.518  -4.001   4.371  0.00  0.00     0.078 C 
ATOM      3  C1  OXE d   1      -4.900  -2.666   3.782  0.00  0.00    -0.078 A 
ATOM      4  C2  OXE d   1      -5.665  -1.828   4.557  0.00  0.00    -0.078 A 
ATOM      5  C3  OXE d   1      -5.998  -0.563   4.083  0.00  0.00     0.003 A 
ATOM      6  C4  OXE d   1      -5.693  -0.196   2.767  0.00  0.00    -0.002 A 
ATOM      7  C5  OXE d   1      -4.949  -1.050   1.946  0.00  0.00    -0.002 A 
ATOM      8  C6  OXE d   1      -4.509  -2.269   2.452  0.00  0.00     0.003 A 
ENDROOT
TORSDOF 0
ENDMDL
