MODEL 1
REMARK minimizedAffinity 12.6788836
REMARK minimizedRMSD -1
REMARK  0 active torsions:
REMARK  status: ('A' for Active; 'I' for Inactive)
ROOT
ATOM      1  C2' OXE d   1      -1.709  -3.191  -5.389  0.00  0.00     0.078 C 
ATOM      2  C1' OXE d   1      -1.794  -5.997  -5.388  0.00  0.00     0.078 C 
ATOM      3  C1  OXE d   1      -3.086  -5.254  -5.618  0.00  0.00    -0.078 A 
ATOM      4  C2  OXE d   1      -3.043  -3.881  -5.570  0.00  0.00    -0.078 A 
ATOM      5  C3  OXE d   1      -4.197  -3.146  -5.830  0.00  0.00     0.003 A 
ATOM      6  C4  OXE d   1      -5.429  -3.792  -5.987  0.00  0.00    -0.002 A 
ATOM      7  C5  OXE d   1      -5.501  -5.189  -6.000  0.00  0.00    -0.002 A 
ATOM      8  C6  OXE d   1      -4.335  -5.934  -5.859  0.00  0.00     0.003 A 
ENDROOT
TORSDOF 0
ENDMDL
