MODEL 1
REMARK minimizedAffinity 6.10547495
REMARK minimizedRMSD -1
REMARK  0 active torsions:
REMARK  status: ('A' for Active; 'I' for Inactive)
ROOT
ATOM      1  C2' OXE d   1      -2.976  -2.249  -5.532  0.00  0.00     0.078 C 
ATOM      2  C1' OXE d   1      -1.741  -4.440  -4.285  0.00  0.00     0.078 C 
ATOM      3  C1  OXE d   1      -3.138  -4.631  -4.821  0.00  0.00    -0.078 A 
ATOM      4  C2  OXE d   1      -3.752  -3.541  -5.388  0.00  0.00    -0.078 A 
ATOM      5  C3  OXE d   1      -5.020  -3.677  -5.947  0.00  0.00     0.003 A 
ATOM      6  C4  OXE d   1      -5.734  -4.872  -5.800  0.00  0.00    -0.002 A 
ATOM      7  C5  OXE d   1      -5.142  -5.983  -5.190  0.00  0.00    -0.002 A 
ATOM      8  C6  OXE d   1      -3.831  -5.892  -4.735  0.00  0.00     0.003 A 
ENDROOT
TORSDOF 0
ENDMDL
