MODEL 1
REMARK minimizedAffinity 3.57878184
REMARK minimizedRMSD -1
REMARK  0 active torsions:
REMARK  status: ('A' for Active; 'I' for Inactive)
ROOT
ATOM      1  C2' OXE d   1       5.463  -4.498  -0.748  0.00  0.00     0.078 C 
ATOM      2  C1' OXE d   1       3.891  -5.999  -2.524  0.00  0.00     0.078 C 
ATOM      3  C1  OXE d   1       3.180  -5.117  -1.528  0.00  0.00    -0.078 A 
ATOM      4  C2  OXE d   1       3.956  -4.422  -0.632  0.00  0.00    -0.078 A 
ATOM      5  C3  OXE d   1       3.353  -3.551   0.271  0.00  0.00     0.003 A 
ATOM      6  C4  OXE d   1       1.958  -3.494   0.378  0.00  0.00    -0.002 A 
ATOM      7  C5  OXE d   1       1.149  -4.225  -0.498  0.00  0.00    -0.002 A 
ATOM      8  C6  OXE d   1       1.743  -5.006  -1.483  0.00  0.00     0.003 A 
ENDROOT
TORSDOF 0
ENDMDL
