MODEL 1
REMARK minimizedAffinity 4.07798338
REMARK minimizedRMSD -1
REMARK  0 active torsions:
REMARK  status: ('A' for Active; 'I' for Inactive)
ROOT
ATOM      1  C2' OXE d   1      -0.749   5.557  -5.267  0.00  0.00     0.078 C 
ATOM      2  C1' OXE d   1      -1.824   5.999  -2.712  0.00  0.00     0.078 C 
ATOM      3  C1  OXE d   1      -2.720   5.379  -3.755  0.00  0.00    -0.078 A 
ATOM      4  C2  OXE d   1      -2.200   5.209  -5.015  0.00  0.00    -0.078 A 
ATOM      5  C3  OXE d   1      -2.966   4.591  -5.999  0.00  0.00     0.003 A 
ATOM      6  C4  OXE d   1      -4.310   4.281  -5.761  0.00  0.00    -0.002 A 
ATOM      7  C5  OXE d   1      -4.872   4.482  -4.496  0.00  0.00    -0.002 A 
ATOM      8  C6  OXE d   1      -4.080   4.989  -3.472  0.00  0.00     0.003 A 
ENDROOT
TORSDOF 0
ENDMDL
