MODEL 1
REMARK minimizedAffinity -2.17904949
REMARK minimizedRMSD -1
REMARK  0 active torsions:
REMARK  status: ('A' for Active; 'I' for Inactive)
ROOT
ATOM      1  C   UNL d   1      -0.372  -2.247   2.021  0.00  0.00    -0.002 A 
ATOM      2  C1  UNL d   1      -1.600  -2.252   1.375  0.00  0.00     0.010 A 
ATOM      3  C2  UNL d   1      -1.852  -1.372   0.321  0.00  0.00     0.041 A 
ATOM      4  C3  UNL d   1      -0.838  -0.479  -0.078  0.00  0.00    -0.075 A 
ATOM      5  S   UNL d   1      -0.921   0.689  -1.344  0.00  0.00     0.015 SA
ATOM      6  C4  UNL d   1       0.673   1.221  -1.058  0.00  0.00     0.022 A 
ATOM      7  C5  UNL d   1       1.268   0.536  -0.025  0.00  0.00     0.026 A 
ATOM      8  C6  UNL d   1       0.407  -0.455   0.556  0.00  0.00    -0.082 A 
ATOM      9  C7  UNL d   1       0.632  -1.359   1.622  0.00  0.00     0.045 A 
ENDROOT
TORSDOF 0
ENDMDL
