MODEL 1
REMARK minimizedAffinity -5.18268108
REMARK minimizedRMSD -1
REMARK  0 active torsions:
REMARK  status: ('A' for Active; 'I' for Inactive)
ROOT
ATOM      1  C   UNL d   1      -2.494  -2.138   1.507  0.00  0.00    -0.002 A 
ATOM      2  C1  UNL d   1      -3.242  -0.975   1.620  0.00  0.00     0.010 A 
ATOM      3  C2  UNL d   1      -2.704   0.256   1.240  0.00  0.00     0.041 A 
ATOM      4  C3  UNL d   1      -1.389   0.299   0.738  0.00  0.00    -0.075 A 
ATOM      5  S   UNL d   1      -0.523   1.693   0.210  0.00  0.00     0.015 SA
ATOM      6  C4  UNL d   1       0.861   0.778  -0.179  0.00  0.00     0.022 A 
ATOM      7  C5  UNL d   1       0.685  -0.560   0.081  0.00  0.00     0.026 A 
ATOM      8  C6  UNL d   1      -0.615  -0.859   0.614  0.00  0.00    -0.082 A 
ATOM      9  C7  UNL d   1      -1.189  -2.091   1.008  0.00  0.00     0.045 A 
ENDROOT
TORSDOF 0
ENDMDL
