MODEL 1
REMARK minimizedAffinity -4.18356991
REMARK minimizedRMSD -1
REMARK  0 active torsions:
REMARK  status: ('A' for Active; 'I' for Inactive)
ROOT
ATOM      1  C   UNL d   1      -1.468  -2.686   1.163  0.00  0.00    -0.002 A 
ATOM      2  C1  UNL d   1      -2.446  -1.708   1.040  0.00  0.00     0.010 A 
ATOM      3  C2  UNL d   1      -2.115  -0.423   0.607  0.00  0.00     0.041 A 
ATOM      4  C3  UNL d   1      -0.772  -0.134   0.295  0.00  0.00    -0.075 A 
ATOM      5  S   UNL d   1      -0.133   1.370  -0.255  0.00  0.00     0.015 SA
ATOM      6  C4  UNL d   1       1.452   0.751  -0.341  0.00  0.00     0.022 A 
ATOM      7  C5  UNL d   1       1.511  -0.569   0.038  0.00  0.00     0.026 A 
ATOM      8  C6  UNL d   1       0.230  -1.101   0.410  0.00  0.00    -0.082 A 
ATOM      9  C7  UNL d   1      -0.137  -2.395   0.852  0.00  0.00     0.045 A 
ENDROOT
TORSDOF 0
ENDMDL
