MODEL 1
REMARK minimizedAffinity 1.78260195
REMARK minimizedRMSD -1
REMARK  0 active torsions:
REMARK  status: ('A' for Active; 'I' for Inactive)
ROOT
ATOM      1  C   UNL d   1       0.265   3.183  -3.776  0.00  0.00    -0.002 A 
ATOM      2  C1  UNL d   1       1.559   2.740  -3.544  0.00  0.00     0.010 A 
ATOM      3  C2  UNL d   1       1.865   2.010  -2.394  0.00  0.00     0.041 A 
ATOM      4  C3  UNL d   1       0.837   1.728  -1.472  0.00  0.00    -0.075 A 
ATOM      5  S   UNL d   1       0.978   0.850   0.005  0.00  0.00     0.015 SA
ATOM      6  C4  UNL d   1      -0.678   1.041   0.362  0.00  0.00     0.022 A 
ATOM      7  C5  UNL d   1      -1.336   1.755  -0.610  0.00  0.00     0.026 A 
ATOM      8  C6  UNL d   1      -0.474   2.163  -1.684  0.00  0.00    -0.082 A 
ATOM      9  C7  UNL d   1      -0.752   2.902  -2.859  0.00  0.00     0.045 A 
ENDROOT
TORSDOF 0
ENDMDL
