MODEL 1
REMARK minimizedAffinity -1.22279489
REMARK minimizedRMSD -1
REMARK  0 active torsions:
REMARK  status: ('A' for Active; 'I' for Inactive)
ROOT
ATOM      1  C   UNL d   1      -0.780  -2.565   0.964  0.00  0.00    -0.002 A 
ATOM      2  C1  UNL d   1       0.451  -2.565   0.322  0.00  0.00     0.010 A 
ATOM      3  C2  UNL d   1       0.986  -1.380  -0.186  0.00  0.00     0.041 A 
ATOM      4  C3  UNL d   1       0.259  -0.183  -0.036  0.00  0.00    -0.075 A 
ATOM      5  S   UNL d   1       0.718   1.388  -0.578  0.00  0.00     0.015 SA
ATOM      6  C4  UNL d   1      -0.707   2.096   0.031  0.00  0.00     0.022 A 
ATOM      7  C5  UNL d   1      -1.525   1.171   0.635  0.00  0.00     0.026 A 
ATOM      8  C6  UNL d   1      -0.982  -0.158   0.608  0.00  0.00    -0.082 A 
ATOM      9  C7  UNL d   1      -1.499  -1.375   1.111  0.00  0.00     0.045 A 
ENDROOT
TORSDOF 0
ENDMDL
