MODEL 1
REMARK minimizedAffinity -4.44718695
REMARK minimizedRMSD -1
REMARK  0 active torsions:
REMARK  status: ('A' for Active; 'I' for Inactive)
ROOT
ATOM      1  C   UNL d   1      -0.256  -0.412   0.793  0.00  0.00    -0.002 A 
ATOM      2  C1  UNL d   1      -0.739  -1.357  -0.102  0.00  0.00     0.010 A 
ATOM      3  C2  UNL d   1      -0.606  -1.165  -1.478  0.00  0.00     0.041 A 
ATOM      4  C3  UNL d   1       0.029   0.002  -1.946  0.00  0.00    -0.075 A 
ATOM      5  S   UNL d   1       0.305   0.449  -3.588  0.00  0.00     0.015 SA
ATOM      6  C4  UNL d   1       1.073   1.904  -3.141  0.00  0.00     0.022 A 
ATOM      7  C5  UNL d   1       1.125   2.061  -1.776  0.00  0.00     0.026 A 
ATOM      8  C6  UNL d   1       0.525   0.967  -1.065  0.00  0.00    -0.082 A 
ATOM      9  C7  UNL d   1       0.373   0.744   0.325  0.00  0.00     0.045 A 
ENDROOT
TORSDOF 0
ENDMDL
