MODEL 1
REMARK minimizedAffinity -3.50958228
REMARK minimizedRMSD -1
REMARK  0 active torsions:
REMARK  status: ('A' for Active; 'I' for Inactive)
ROOT
ATOM      1  C   UNL d   1      -0.468   1.096  -0.618  0.00  0.00    -0.002 A 
ATOM      2  C1  UNL d   1       0.768   0.498  -0.821  0.00  0.00     0.010 A 
ATOM      3  C2  UNL d   1       1.002  -0.811  -0.395  0.00  0.00     0.041 A 
ATOM      4  C3  UNL d   1      -0.037  -1.516   0.243  0.00  0.00    -0.075 A 
ATOM      5  S   UNL d   1       0.021  -3.129   0.849  0.00  0.00     0.015 SA
ATOM      6  C4  UNL d   1      -1.594  -3.063   1.390  0.00  0.00     0.022 A 
ATOM      7  C5  UNL d   1      -2.177  -1.847   1.124  0.00  0.00     0.026 A 
ATOM      8  C6  UNL d   1      -1.290  -0.936   0.458  0.00  0.00    -0.082 A 
ATOM      9  C7  UNL d   1      -1.496   0.393   0.016  0.00  0.00     0.045 A 
ENDROOT
TORSDOF 0
ENDMDL
