MODEL 1
REMARK minimizedAffinity -3.9441011
REMARK minimizedRMSD -1
REMARK  0 active torsions:
REMARK  status: ('A' for Active; 'I' for Inactive)
ROOT
ATOM      1  C   UNL d   1      -0.142  -2.527   0.504  0.00  0.00    -0.002 A 
ATOM      2  C1  UNL d   1       1.070  -1.930   0.185  0.00  0.00     0.010 A 
ATOM      3  C2  UNL d   1       1.209  -0.541   0.221  0.00  0.00     0.041 A 
ATOM      4  C3  UNL d   1       0.099   0.245   0.588  0.00  0.00    -0.075 A 
ATOM      5  S   UNL d   1       0.036   1.964   0.702  0.00  0.00     0.015 SA
ATOM      6  C4  UNL d   1      -1.600   1.947   1.177  0.00  0.00     0.022 A 
ATOM      7  C5  UNL d   1      -2.102   0.670   1.252  0.00  0.00     0.026 A 
ATOM      8  C6  UNL d   1      -1.131  -0.332   0.914  0.00  0.00    -0.082 A 
ATOM      9  C7  UNL d   1      -1.240  -1.743   0.867  0.00  0.00     0.045 A 
ENDROOT
TORSDOF 0
ENDMDL
