MODEL 1
REMARK minimizedAffinity -5.65673876
REMARK minimizedRMSD -1
REMARK  0 active torsions:
REMARK  status: ('A' for Active; 'I' for Inactive)
ROOT
ATOM      1  C   UNL d   1      -0.293  -2.751   0.748  0.00  0.00    -0.002 A 
ATOM      2  C1  UNL d   1      -1.502  -2.138   1.047  0.00  0.00     0.010 A 
ATOM      3  C2  UNL d   1      -1.670  -0.766   0.851  0.00  0.00     0.041 A 
ATOM      4  C3  UNL d   1      -0.594  -0.013   0.343  0.00  0.00    -0.075 A 
ATOM      5  S   UNL d   1      -0.570   1.681   0.022  0.00  0.00     0.015 SA
ATOM      6  C4  UNL d   1       1.045   1.631  -0.520  0.00  0.00     0.022 A 
ATOM      7  C5  UNL d   1       1.569   0.361  -0.464  0.00  0.00     0.026 A 
ATOM      8  C6  UNL d   1       0.633  -0.607   0.035  0.00  0.00    -0.082 A 
ATOM      9  C7  UNL d   1       0.773  -2.000   0.245  0.00  0.00     0.045 A 
ENDROOT
TORSDOF 0
ENDMDL
