MODEL 1
REMARK minimizedAffinity -3.04386616
REMARK minimizedRMSD -1
REMARK  0 active torsions:
REMARK  status: ('A' for Active; 'I' for Inactive)
ROOT
ATOM      1  C   UNL d   1      -1.331  -2.593   0.999  0.00  0.00    -0.002 A 
ATOM      2  C1  UNL d   1       0.001  -2.602   0.612  0.00  0.00     0.010 A 
ATOM      3  C2  UNL d   1       0.671  -1.407   0.340  0.00  0.00     0.041 A 
ATOM      4  C3  UNL d   1      -0.029  -0.191   0.466  0.00  0.00    -0.075 A 
ATOM      5  S   UNL d   1       0.586   1.395   0.186  0.00  0.00     0.015 SA
ATOM      6  C4  UNL d   1      -0.905   2.123   0.573  0.00  0.00     0.022 A 
ATOM      7  C5  UNL d   1      -1.860   1.193   0.910  0.00  0.00     0.026 A 
ATOM      8  C6  UNL d   1      -1.371  -0.156   0.855  0.00  0.00    -0.082 A 
ATOM      9  C7  UNL d   1      -2.022  -1.384   1.123  0.00  0.00     0.045 A 
ENDROOT
TORSDOF 0
ENDMDL
