MODEL 1
REMARK minimizedAffinity 0.505773723
REMARK minimizedRMSD -1
REMARK  0 active torsions:
REMARK  status: ('A' for Active; 'I' for Inactive)
ROOT
ATOM      1  C   UNL d   1       0.178  -3.022   1.200  0.00  0.00    -0.002 A 
ATOM      2  C1  UNL d   1       1.274  -2.738   0.398  0.00  0.00     0.010 A 
ATOM      3  C2  UNL d   1       1.464  -1.454  -0.116  0.00  0.00     0.041 A 
ATOM      4  C3  UNL d   1       0.526  -0.450   0.195  0.00  0.00    -0.075 A 
ATOM      5  S   UNL d   1       0.555   1.195  -0.321  0.00  0.00     0.015 SA
ATOM      6  C4  UNL d   1      -0.887   1.560   0.512  0.00  0.00     0.022 A 
ATOM      7  C5  UNL d   1      -1.391   0.465   1.173  0.00  0.00     0.026 A 
ATOM      8  C6  UNL d   1      -0.585  -0.711   1.001  0.00  0.00    -0.082 A 
ATOM      9  C7  UNL d   1      -0.751  -2.023   1.506  0.00  0.00     0.045 A 
ENDROOT
TORSDOF 0
ENDMDL
