MODEL 1
REMARK minimizedAffinity -6.08800602
REMARK minimizedRMSD -1
REMARK  1 active torsions:
REMARK  status: ('A' for Active; 'I' for Inactive)
REMARK    1  A    between atoms: C1_2  and  C2_3 
ROOT
ATOM      1  C2  UNL d   1       0.826  -1.064   0.279  0.00  0.00    -0.076 A 
ATOM      2  C3  UNL d   1       1.297  -2.046   1.168  0.00  0.00     0.004 A 
ATOM      3  C4  UNL d   1       0.602  -2.348   2.337  0.00  0.00    -0.003 A 
ATOM      4  C5  UNL d   1      -0.576  -1.673   2.637  0.00  0.00     0.000 A 
ATOM      5  C6  UNL d   1      -1.067  -0.708   1.758  0.00  0.00     0.000 A 
ATOM      6  C7  UNL d   1      -0.387  -0.403   0.567  0.00  0.00    -0.073 A 
ATOM      7  C8  UNL d   1      -0.959   0.650  -0.342  0.00  0.00     0.078 C 
ENDROOT
BRANCH   1   8
ATOM      8  C1  UNL d   1       1.637  -0.760  -0.961  0.00  0.00     0.053 C 
ATOM      9  C   UNL d   1       3.131  -0.701  -0.680  0.00  0.00     0.018 C 
ENDBRANCH   1   8
TORSDOF 1
ENDMDL
