MODEL 1
REMARK minimizedAffinity -3.24611688
REMARK minimizedRMSD -1
REMARK  1 active torsions:
REMARK  status: ('A' for Active; 'I' for Inactive)
REMARK    1  A    between atoms: C1_2  and  C2_3 
ROOT
ATOM      1  C2  UNL d   1       0.309  -1.512   0.794  0.00  0.00    -0.076 A 
ATOM      2  C3  UNL d   1      -0.811  -1.468   1.642  0.00  0.00     0.004 A 
ATOM      3  C4  UNL d   1      -1.619  -0.334   1.705  0.00  0.00    -0.003 A 
ATOM      4  C5  UNL d   1      -1.320   0.774   0.921  0.00  0.00     0.000 A 
ATOM      5  C6  UNL d   1      -0.223   0.741   0.061  0.00  0.00     0.000 A 
ATOM      6  C7  UNL d   1       0.593  -0.400  -0.027  0.00  0.00    -0.073 A 
ATOM      7  C8  UNL d   1       1.767  -0.378  -0.967  0.00  0.00     0.078 C 
ENDROOT
BRANCH   1   8
ATOM      8  C1  UNL d   1       1.165  -2.759   0.788  0.00  0.00     0.053 C 
ATOM      9  C   UNL d   1       2.449  -2.589   1.584  0.00  0.00     0.018 C 
ENDBRANCH   1   8
TORSDOF 1
ENDMDL
