MODEL 1
REMARK minimizedAffinity -6.22408962
REMARK minimizedRMSD -1
REMARK  1 active torsions:
REMARK  status: ('A' for Active; 'I' for Inactive)
REMARK    1  A    between atoms: C1_2  and  C2_3 
ROOT
ATOM      1  C2  UNL d   1      -0.107  -0.912   1.211  0.00  0.00    -0.076 A 
ATOM      2  C3  UNL d   1      -0.903  -1.093   2.355  0.00  0.00     0.004 A 
ATOM      3  C4  UNL d   1      -0.588  -2.065   3.303  0.00  0.00    -0.003 A 
ATOM      4  C5  UNL d   1       0.529  -2.873   3.122  0.00  0.00     0.000 A 
ATOM      5  C6  UNL d   1       1.340  -2.696   2.002  0.00  0.00     0.000 A 
ATOM      6  C7  UNL d   1       1.046  -1.710   1.045  0.00  0.00    -0.073 A 
ATOM      7  C8  UNL d   1       1.952  -1.567  -0.147  0.00  0.00     0.078 C 
ENDROOT
BRANCH   1   8
ATOM      8  C1  UNL d   1      -0.513   0.140   0.204  0.00  0.00     0.053 C 
ATOM      9  C   UNL d   1      -1.352   1.246   0.824  0.00  0.00     0.018 C 
ENDBRANCH   1   8
TORSDOF 1
ENDMDL
