MODEL 1
REMARK minimizedAffinity -3.94232488
REMARK minimizedRMSD -1
REMARK  1 active torsions:
REMARK  status: ('A' for Active; 'I' for Inactive)
REMARK    1  A    between atoms: C1_2  and  C2_3 
ROOT
ATOM      1  C2  UNL d   1       0.130  -0.057   0.566  0.00  0.00    -0.076 A 
ATOM      2  C3  UNL d   1       1.173  -0.416  -0.306  0.00  0.00     0.004 A 
ATOM      3  C4  UNL d   1       1.797  -1.659  -0.206  0.00  0.00    -0.003 A 
ATOM      4  C5  UNL d   1       1.387  -2.563   0.767  0.00  0.00     0.000 A 
ATOM      5  C6  UNL d   1       0.342  -2.231   1.629  0.00  0.00     0.000 A 
ATOM      6  C7  UNL d   1      -0.308  -0.989   1.531  0.00  0.00    -0.073 A 
ATOM      7  C8  UNL d   1      -1.425  -0.681   2.490  0.00  0.00     0.078 C 
ENDROOT
BRANCH   1   8
ATOM      8  C1  UNL d   1      -0.490   1.314   0.427  0.00  0.00     0.053 C 
ATOM      9  C   UNL d   1      -0.941   1.609  -0.995  0.00  0.00     0.018 C 
ENDBRANCH   1   8
TORSDOF 1
ENDMDL
