MODEL 1
REMARK minimizedAffinity -4.22371006
REMARK minimizedRMSD -1
REMARK  1 active torsions:
REMARK  status: ('A' for Active; 'I' for Inactive)
REMARK    1  A    between atoms: C1_2  and  C2_3 
ROOT
ATOM      1  C2  UNL d   1      -0.214  -0.180   0.261  0.00  0.00    -0.076 A 
ATOM      2  C3  UNL d   1       0.985  -0.257  -0.469  0.00  0.00     0.004 A 
ATOM      3  C4  UNL d   1       1.974  -1.178  -0.129  0.00  0.00    -0.003 A 
ATOM      4  C5  UNL d   1       1.781  -2.038   0.947  0.00  0.00     0.000 A 
ATOM      5  C6  UNL d   1       0.591  -1.987   1.672  0.00  0.00     0.000 A 
ATOM      6  C7  UNL d   1      -0.423  -1.076   1.332  0.00  0.00    -0.073 A 
ATOM      7  C8  UNL d   1      -1.684  -1.061   2.152  0.00  0.00     0.078 C 
ENDROOT
BRANCH   1   8
ATOM      8  C1  UNL d   1      -1.239   0.857  -0.137  0.00  0.00     0.053 C 
ATOM      9  C   UNL d   1      -0.882   1.560  -1.437  0.00  0.00     0.018 C 
ENDBRANCH   1   8
TORSDOF 1
ENDMDL
