MODEL 1
REMARK minimizedAffinity -3.28436971
REMARK minimizedRMSD -1
REMARK  1 active torsions:
REMARK  status: ('A' for Active; 'I' for Inactive)
REMARK    1  A    between atoms: C1_2  and  C2_3 
ROOT
ATOM      1  C2  UNL d   1       0.729  -0.262   0.172  0.00  0.00    -0.076 A 
ATOM      2  C3  UNL d   1       0.181  -0.922   1.285  0.00  0.00     0.004 A 
ATOM      3  C4  UNL d   1       0.870  -1.956   1.917  0.00  0.00    -0.003 A 
ATOM      4  C5  UNL d   1       2.119  -2.346   1.445  0.00  0.00     0.000 A 
ATOM      5  C6  UNL d   1       2.685  -1.691   0.353  0.00  0.00     0.000 A 
ATOM      6  C7  UNL d   1       2.011  -0.636  -0.286  0.00  0.00    -0.073 A 
ATOM      7  C8  UNL d   1       2.666   0.032  -1.464  0.00  0.00     0.078 C 
ENDROOT
BRANCH   1   8
ATOM      8  C1  UNL d   1      -0.076   0.834  -0.489  0.00  0.00     0.053 C 
ATOM      9  C   UNL d   1      -0.727   1.768   0.520  0.00  0.00     0.018 C 
ENDBRANCH   1   8
TORSDOF 1
ENDMDL
