MODEL 1
REMARK minimizedAffinity -1.72012556
REMARK minimizedRMSD -1
REMARK  1 active torsions:
REMARK  status: ('A' for Active; 'I' for Inactive)
REMARK    1  A    between atoms: C1_2  and  C2_3 
ROOT
ATOM      1  C2  UNL d   1      -0.167  -0.713   0.699  0.00  0.00    -0.076 A 
ATOM      2  C3  UNL d   1       0.878  -0.385  -0.182  0.00  0.00     0.004 A 
ATOM      3  C4  UNL d   1       1.144   0.941  -0.519  0.00  0.00    -0.003 A 
ATOM      4  C5  UNL d   1       0.370   1.962   0.022  0.00  0.00     0.000 A 
ATOM      5  C6  UNL d   1      -0.660   1.657   0.911  0.00  0.00     0.000 A 
ATOM      6  C7  UNL d   1      -0.931   0.326   1.274  0.00  0.00    -0.073 A 
ATOM      7  C8  UNL d   1      -2.057   0.054   2.233  0.00  0.00     0.078 C 
ENDROOT
BRANCH   1   8
ATOM      8  C1  UNL d   1      -0.426  -2.170   1.006  0.00  0.00     0.053 C 
ATOM      9  C   UNL d   1       0.836  -3.015   0.928  0.00  0.00     0.018 C 
ENDBRANCH   1   8
TORSDOF 1
ENDMDL
