MODEL 1
REMARK minimizedAffinity -4.57605267
REMARK minimizedRMSD -1
REMARK  1 active torsions:
REMARK  status: ('A' for Active; 'I' for Inactive)
REMARK    1  A    between atoms: C1_2  and  C2_3 
ROOT
ATOM      1  C2  UNL d   1       0.722  -0.621   0.542  0.00  0.00    -0.076 A 
ATOM      2  C3  UNL d   1      -0.510  -0.860   1.176  0.00  0.00     0.004 A 
ATOM      3  C4  UNL d   1      -1.562   0.047   1.063  0.00  0.00    -0.003 A 
ATOM      4  C5  UNL d   1      -1.401   1.206   0.313  0.00  0.00     0.000 A 
ATOM      5  C6  UNL d   1      -0.192   1.451  -0.337  0.00  0.00     0.000 A 
ATOM      6  C7  UNL d   1       0.874   0.540  -0.247  0.00  0.00    -0.073 A 
ATOM      7  C8  UNL d   1       2.157   0.857  -0.965  0.00  0.00     0.078 C 
ENDROOT
BRANCH   1   8
ATOM      8  C1  UNL d   1       1.837  -1.626   0.722  0.00  0.00     0.053 C 
ATOM      9  C   UNL d   1       1.318  -3.043   0.911  0.00  0.00     0.018 C 
ENDBRANCH   1   8
TORSDOF 1
ENDMDL
