MODEL 1
REMARK minimizedAffinity -4.99523735
REMARK minimizedRMSD -1
REMARK  1 active torsions:
REMARK  status: ('A' for Active; 'I' for Inactive)
REMARK    1  A    between atoms: C1_2  and  C2_3 
ROOT
ATOM      1  C2  UNL d   1       0.084  -0.659  -0.101  0.00  0.00    -0.076 A 
ATOM      2  C3  UNL d   1       1.470  -0.420  -0.091  0.00  0.00     0.004 A 
ATOM      3  C4  UNL d   1       2.362  -1.393   0.355  0.00  0.00    -0.003 A 
ATOM      4  C5  UNL d   1       1.884  -2.622   0.796  0.00  0.00     0.000 A 
ATOM      5  C6  UNL d   1       0.514  -2.883   0.776  0.00  0.00     0.000 A 
ATOM      6  C7  UNL d   1      -0.398  -1.918   0.315  0.00  0.00    -0.073 A 
ATOM      7  C8  UNL d   1      -1.865  -2.251   0.322  0.00  0.00     0.078 C 
ENDROOT
BRANCH   1   8
ATOM      8  C1  UNL d   1      -0.837   0.445  -0.569  0.00  0.00     0.053 C 
ATOM      9  C   UNL d   1      -1.092   1.487   0.508  0.00  0.00     0.018 C 
ENDBRANCH   1   8
TORSDOF 1
ENDMDL
