MODEL 1
REMARK minimizedAffinity -4.1486125
REMARK minimizedRMSD -1
REMARK  1 active torsions:
REMARK  status: ('A' for Active; 'I' for Inactive)
REMARK    1  A    between atoms: C1_2  and  C2_3 
ROOT
ATOM      1  C2  UNL d   1       0.865  -0.652   0.549  0.00  0.00    -0.076 A 
ATOM      2  C3  UNL d   1      -0.390  -0.925   1.121  0.00  0.00     0.004 A 
ATOM      3  C4  UNL d   1      -1.481  -0.090   0.888  0.00  0.00    -0.003 A 
ATOM      4  C5  UNL d   1      -1.335   1.031   0.079  0.00  0.00     0.000 A 
ATOM      5  C6  UNL d   1      -0.102   1.308  -0.510  0.00  0.00     0.000 A 
ATOM      6  C7  UNL d   1       1.004   0.467  -0.299  0.00  0.00    -0.073 A 
ATOM      7  C8  UNL d   1       2.312   0.816  -0.955  0.00  0.00     0.078 C 
ENDROOT
BRANCH   1   8
ATOM      8  C1  UNL d   1       2.019  -1.579   0.859  0.00  0.00     0.053 C 
ATOM      9  C   UNL d   1       1.559  -2.983   1.218  0.00  0.00     0.018 C 
ENDBRANCH   1   8
TORSDOF 1
ENDMDL
