MODEL 1
REMARK minimizedAffinity -2.71971369
REMARK minimizedRMSD -1
REMARK  1 active torsions:
REMARK  status: ('A' for Active; 'I' for Inactive)
REMARK    1  A    between atoms: C1_2  and  C2_3 
ROOT
ATOM      1  C2  UNL d   1       0.713  -0.986   0.535  0.00  0.00    -0.076 A 
ATOM      2  C3  UNL d   1       1.307  -0.168  -0.442  0.00  0.00     0.004 A 
ATOM      3  C4  UNL d   1       0.634   0.938  -0.957  0.00  0.00    -0.003 A 
ATOM      4  C5  UNL d   1      -0.644   1.245  -0.504  0.00  0.00     0.000 A 
ATOM      5  C6  UNL d   1      -1.242   0.455   0.478  0.00  0.00     0.000 A 
ATOM      6  C7  UNL d   1      -0.571  -0.655   1.020  0.00  0.00    -0.073 A 
ATOM      7  C8  UNL d   1      -1.265  -1.476   2.072  0.00  0.00     0.078 C 
ENDROOT
BRANCH   1   8
ATOM      8  C1  UNL d   1       1.480  -2.188   1.037  0.00  0.00     0.053 C 
ATOM      9  C   UNL d   1       2.892  -1.836   1.478  0.00  0.00     0.018 C 
ENDBRANCH   1   8
TORSDOF 1
ENDMDL
