MODEL 1
REMARK minimizedAffinity -2.08698726
REMARK minimizedRMSD -1
REMARK  1 active torsions:
REMARK  status: ('A' for Active; 'I' for Inactive)
REMARK    1  A    between atoms: C1_2  and  C2_3 
ROOT
ATOM      1  C2  UNL d   1       3.774   4.455  -5.677  0.00  0.00    -0.076 A 
ATOM      2  C3  UNL d   1       3.138   5.667  -5.996  0.00  0.00     0.004 A 
ATOM      3  C4  UNL d   1       1.775   5.845  -5.761  0.00  0.00    -0.003 A 
ATOM      4  C5  UNL d   1       1.028   4.814  -5.204  0.00  0.00     0.000 A 
ATOM      5  C6  UNL d   1       1.646   3.611  -4.865  0.00  0.00     0.000 A 
ATOM      6  C7  UNL d   1       3.022   3.421  -5.080  0.00  0.00    -0.073 A 
ATOM      7  C8  UNL d   1       3.637   2.101  -4.702  0.00  0.00     0.078 C 
ENDROOT
BRANCH   1   8
ATOM      8  C1  UNL d   1       5.249   4.311  -5.980  0.00  0.00     0.053 C 
ATOM      9  C   UNL d   1       5.974   5.648  -5.999  0.00  0.00     0.018 C 
ENDBRANCH   1   8
TORSDOF 1
ENDMDL
