MODEL 1
REMARK minimizedAffinity -0.635245979
REMARK minimizedRMSD -1
REMARK  1 active torsions:
REMARK  status: ('A' for Active; 'I' for Inactive)
REMARK    1  A    between atoms: C1_2  and  C2_3 
ROOT
ATOM      1  C2  UNL d   1       3.595   4.639  -5.913  0.00  0.00    -0.076 A 
ATOM      2  C3  UNL d   1       2.964   5.892  -5.999  0.00  0.00     0.004 A 
ATOM      3  C4  UNL d   1       1.574   5.999  -5.973  0.00  0.00    -0.003 A 
ATOM      4  C5  UNL d   1       0.793   4.854  -5.860  0.00  0.00     0.000 A 
ATOM      5  C6  UNL d   1       1.403   3.604  -5.755  0.00  0.00     0.000 A 
ATOM      6  C7  UNL d   1       2.803   3.481  -5.764  0.00  0.00    -0.073 A 
ATOM      7  C8  UNL d   1       3.408   2.108  -5.654  0.00  0.00     0.078 C 
ENDROOT
BRANCH   1   8
ATOM      8  C1  UNL d   1       5.105   4.584  -5.974  0.00  0.00     0.053 C 
ATOM      9  C   UNL d   1       5.738   5.966  -6.000  0.00  0.00     0.018 C 
ENDBRANCH   1   8
TORSDOF 1
ENDMDL
