MODEL 1
REMARK minimizedAffinity 2.56510377
REMARK minimizedRMSD -1
REMARK  1 active torsions:
REMARK  status: ('A' for Active; 'I' for Inactive)
REMARK    1  A    between atoms: C1_2  and  C2_3 
ROOT
ATOM      1  C2  UNL d   1       3.902   2.868  -5.976  0.00  0.00    -0.076 A 
ATOM      2  C3  UNL d   1       5.307   2.898  -5.990  0.00  0.00     0.004 A 
ATOM      3  C4  UNL d   1       6.000   4.107  -6.000  0.00  0.00    -0.003 A 
ATOM      4  C5  UNL d   1       5.298   5.308  -5.995  0.00  0.00     0.000 A 
ATOM      5  C6  UNL d   1       3.904   5.298  -5.964  0.00  0.00     0.000 A 
ATOM      6  C7  UNL d   1       3.191   4.087  -5.937  0.00  0.00    -0.073 A 
ATOM      7  C8  UNL d   1       1.688   4.135  -5.910  0.00  0.00     0.078 C 
ENDROOT
BRANCH   1   8
ATOM      8  C1  UNL d   1       3.205   1.527  -5.994  0.00  0.00     0.053 C 
ATOM      9  C   UNL d   1       3.813   0.542  -5.007  0.00  0.00     0.018 C 
ENDBRANCH   1   8
TORSDOF 1
ENDMDL
