MODEL 1
REMARK minimizedAffinity -2.42476392
REMARK minimizedRMSD -1
REMARK  1 active torsions:
REMARK  status: ('A' for Active; 'I' for Inactive)
REMARK    1  A    between atoms: C1_2  and  C2_3 
ROOT
ATOM      1  C2  UNL d   1       2.948   3.644  -5.386  0.00  0.00    -0.076 A 
ATOM      2  C3  UNL d   1       3.429   4.882  -5.846  0.00  0.00     0.004 A 
ATOM      3  C4  UNL d   1       4.796   5.108  -6.000  0.00  0.00    -0.003 A 
ATOM      4  C5  UNL d   1       5.703   4.099  -5.697  0.00  0.00     0.000 A 
ATOM      5  C6  UNL d   1       5.243   2.859  -5.257  0.00  0.00     0.000 A 
ATOM      6  C7  UNL d   1       3.867   2.609  -5.112  0.00  0.00    -0.073 A 
ATOM      7  C8  UNL d   1       3.426   1.255  -4.627  0.00  0.00     0.078 C 
ENDROOT
BRANCH   1   8
ATOM      8  C1  UNL d   1       1.456   3.466  -5.213  0.00  0.00     0.053 C 
ATOM      9  C   UNL d   1       0.652   4.502  -5.983  0.00  0.00     0.018 C 
ENDBRANCH   1   8
TORSDOF 1
ENDMDL
