MODEL 1
REMARK minimizedAffinity -1.60675323
REMARK minimizedRMSD -1
REMARK  1 active torsions:
REMARK  status: ('A' for Active; 'I' for Inactive)
REMARK    1  A    between atoms: C1_2  and  C2_3 
ROOT
ATOM      1  C2  UNL d   1       4.734   1.889   1.874  0.00  0.00    -0.076 A 
ATOM      2  C3  UNL d   1       3.519   2.497   1.514  0.00  0.00     0.004 A 
ATOM      3  C4  UNL d   1       2.336   1.762   1.466  0.00  0.00    -0.003 A 
ATOM      4  C5  UNL d   1       2.348   0.407   1.778  0.00  0.00     0.000 A 
ATOM      5  C6  UNL d   1       3.541  -0.208   2.155  0.00  0.00     0.000 A 
ATOM      6  C7  UNL d   1       4.740   0.521   2.224  0.00  0.00    -0.073 A 
ATOM      7  C8  UNL d   1       5.999  -0.195   2.631  0.00  0.00     0.078 C 
ENDROOT
BRANCH   1   8
ATOM      8  C1  UNL d   1       5.991   2.730   1.883  0.00  0.00     0.053 C 
ATOM      9  C   UNL d   1       6.000   3.753   3.008  0.00  0.00     0.018 C 
ENDBRANCH   1   8
TORSDOF 1
ENDMDL
