MODEL 1
REMARK minimizedAffinity -1.07287002
REMARK minimizedRMSD -1
REMARK  1 active torsions:
REMARK  status: ('A' for Active; 'I' for Inactive)
REMARK    1  A    between atoms: C1_2  and  C2_3 
ROOT
ATOM      1  C2  UNL d   1       3.621   3.220  -5.735  0.00  0.00    -0.076 A 
ATOM      2  C3  UNL d   1       4.942   3.680  -5.869  0.00  0.00     0.004 A 
ATOM      3  C4  UNL d   1       5.219   5.040  -6.000  0.00  0.00    -0.003 A 
ATOM      4  C5  UNL d   1       4.178   5.962  -5.998  0.00  0.00     0.000 A 
ATOM      5  C6  UNL d   1       2.863   5.525  -5.848  0.00  0.00     0.000 A 
ATOM      6  C7  UNL d   1       2.568   4.159  -5.699  0.00  0.00    -0.073 A 
ATOM      7  C8  UNL d   1       1.130   3.743  -5.547  0.00  0.00     0.078 C 
ENDROOT
BRANCH   1   8
ATOM      8  C1  UNL d   1       3.380   1.732  -5.624  0.00  0.00     0.053 C 
ATOM      9  C   UNL d   1       4.308   1.064  -4.621  0.00  0.00     0.018 C 
ENDBRANCH   1   8
TORSDOF 1
ENDMDL
