MODEL 1
REMARK minimizedAffinity 2.3780899
REMARK minimizedRMSD -1
REMARK  1 active torsions:
REMARK  status: ('A' for Active; 'I' for Inactive)
REMARK    1  A    between atoms: C1_2  and  C2_3 
ROOT
ATOM      1  C2  UNL d   1       4.501   0.954   1.814  0.00  0.00    -0.076 A 
ATOM      2  C3  UNL d   1       5.625   1.747   1.521  0.00  0.00     0.004 A 
ATOM      3  C4  UNL d   1       5.488   2.970   0.866  0.00  0.00    -0.003 A 
ATOM      4  C5  UNL d   1       4.226   3.420   0.494  0.00  0.00     0.000 A 
ATOM      5  C6  UNL d   1       3.100   2.654   0.792  0.00  0.00     0.000 A 
ATOM      6  C7  UNL d   1       3.218   1.427   1.466  0.00  0.00    -0.073 A 
ATOM      7  C8  UNL d   1       1.970   0.639   1.757  0.00  0.00     0.078 C 
ENDROOT
BRANCH   1   8
ATOM      8  C1  UNL d   1       4.713  -0.376   2.502  0.00  0.00     0.053 C 
ATOM      9  C   UNL d   1       5.987  -0.406   3.333  0.00  0.00     0.018 C 
ENDBRANCH   1   8
TORSDOF 1
ENDMDL
