MODEL 1
REMARK minimizedAffinity 0.535176992
REMARK minimizedRMSD -1
REMARK  1 active torsions:
REMARK  status: ('A' for Active; 'I' for Inactive)
REMARK    1  A    between atoms: C1_2  and  C2_3 
ROOT
ATOM      1  C2  UNL d   1       2.986   3.988  -5.477  0.00  0.00    -0.076 A 
ATOM      2  C3  UNL d   1       3.520   5.258  -5.757  0.00  0.00     0.004 A 
ATOM      3  C4  UNL d   1       4.883   5.427  -5.995  0.00  0.00    -0.003 A 
ATOM      4  C5  UNL d   1       5.735   4.329  -5.957  0.00  0.00     0.000 A 
ATOM      5  C6  UNL d   1       5.220   3.059  -5.698  0.00  0.00     0.000 A 
ATOM      6  C7  UNL d   1       3.846   2.869  -5.472  0.00  0.00    -0.073 A 
ATOM      7  C8  UNL d   1       3.346   1.478  -5.191  0.00  0.00     0.078 C 
ENDROOT
BRANCH   1   8
ATOM      8  C1  UNL d   1       1.504   3.870  -5.201  0.00  0.00     0.053 C 
ATOM      9  C   UNL d   1       0.687   4.913  -5.948  0.00  0.00     0.018 C 
ENDBRANCH   1   8
TORSDOF 1
ENDMDL
