MODEL 1
REMARK minimizedAffinity -0.815132022
REMARK minimizedRMSD -1
REMARK  1 active torsions:
REMARK  status: ('A' for Active; 'I' for Inactive)
REMARK    1  A    between atoms: C1_2  and  C2_3 
ROOT
ATOM      1  C2  UNL d   1       4.102   4.334  -5.980  0.00  0.00    -0.076 A 
ATOM      2  C3  UNL d   1       3.274   5.470  -5.986  0.00  0.00     0.004 A 
ATOM      3  C4  UNL d   1       1.886   5.345  -5.994  0.00  0.00    -0.003 A 
ATOM      4  C5  UNL d   1       1.303   4.082  -5.997  0.00  0.00     0.000 A 
ATOM      5  C6  UNL d   1       2.110   2.945  -5.974  0.00  0.00     0.000 A 
ATOM      6  C7  UNL d   1       3.511   3.053  -5.949  0.00  0.00    -0.073 A 
ATOM      7  C8  UNL d   1       4.332   1.793  -5.930  0.00  0.00     0.078 C 
ENDROOT
BRANCH   1   8
ATOM      8  C1  UNL d   1       5.601   4.531  -5.999  0.00  0.00     0.053 C 
ATOM      9  C   UNL d   1       5.996   6.000  -5.995  0.00  0.00     0.018 C 
ENDBRANCH   1   8
TORSDOF 1
ENDMDL
