MODEL 1
REMARK minimizedAffinity 7.09185314
REMARK minimizedRMSD -1
REMARK  1 active torsions:
REMARK  status: ('A' for Active; 'I' for Inactive)
REMARK    1  A    between atoms: C1_2  and  C2_3 
ROOT
ATOM      1  C2  UNL d   1      -1.338   4.109   0.197  0.00  0.00    -0.076 A 
ATOM      2  C3  UNL d   1      -0.441   3.451   1.056  0.00  0.00     0.004 A 
ATOM      3  C4  UNL d   1      -0.820   3.085   2.346  0.00  0.00    -0.003 A 
ATOM      4  C5  UNL d   1      -2.104   3.369   2.798  0.00  0.00     0.000 A 
ATOM      5  C6  UNL d   1      -3.013   4.005   1.953  0.00  0.00     0.000 A 
ATOM      6  C7  UNL d   1      -2.652   4.367   0.644  0.00  0.00    -0.073 A 
ATOM      7  C8  UNL d   1      -3.671   5.056  -0.222  0.00  0.00     0.078 C 
ENDROOT
BRANCH   1   8
ATOM      8  C1  UNL d   1      -0.862   4.506  -1.182  0.00  0.00     0.053 C 
ATOM      9  C   UNL d   1      -0.661   3.308  -2.097  0.00  0.00     0.018 C 
ENDBRANCH   1   8
TORSDOF 1
ENDMDL
