MODEL 1
REMARK minimizedAffinity 3.20861983
REMARK minimizedRMSD -1
REMARK  1 active torsions:
REMARK  status: ('A' for Active; 'I' for Inactive)
REMARK    1  A    between atoms: C1_2  and  C2_3 
ROOT
ATOM      1  C2  UNL d   1       3.471   0.322   1.978  0.00  0.00    -0.076 A 
ATOM      2  C3  UNL d   1       2.221   0.466   2.604  0.00  0.00     0.004 A 
ATOM      3  C4  UNL d   1       2.052   0.146   3.950  0.00  0.00    -0.003 A 
ATOM      4  C5  UNL d   1       3.130  -0.322   4.692  0.00  0.00     0.000 A 
ATOM      5  C6  UNL d   1       4.382  -0.454   4.092  0.00  0.00     0.000 A 
ATOM      6  C7  UNL d   1       4.573  -0.121   2.740  0.00  0.00    -0.073 A 
ATOM      7  C8  UNL d   1       5.943  -0.288   2.142  0.00  0.00     0.078 C 
ENDROOT
BRANCH   1   8
ATOM      8  C1  UNL d   1       3.588   0.659   0.508  0.00  0.00     0.053 C 
ATOM      9  C   UNL d   1       3.258   2.114   0.216  0.00  0.00     0.018 C 
ENDBRANCH   1   8
TORSDOF 1
ENDMDL
