MODEL 1
REMARK minimizedAffinity 16.914896
REMARK minimizedRMSD -1
REMARK  1 active torsions:
REMARK  status: ('A' for Active; 'I' for Inactive)
REMARK    1  A    between atoms: C1_2  and  C2_3 
ROOT
ATOM      1  C2  UNL d   1      -0.730  -2.727  -1.104  0.00  0.00    -0.076 A 
ATOM      2  C3  UNL d   1      -1.252  -1.422  -1.114  0.00  0.00     0.004 A 
ATOM      3  C4  UNL d   1      -2.077  -0.986  -2.150  0.00  0.00    -0.003 A 
ATOM      4  C5  UNL d   1      -2.394  -1.850  -3.192  0.00  0.00     0.000 A 
ATOM      5  C6  UNL d   1      -1.900  -3.154  -3.190  0.00  0.00     0.000 A 
ATOM      6  C7  UNL d   1      -1.080  -3.613  -2.145  0.00  0.00    -0.073 A 
ATOM      7  C8  UNL d   1      -0.570  -5.028  -2.196  0.00  0.00     0.078 C 
ENDROOT
BRANCH   1   8
ATOM      8  C1  UNL d   1       0.181  -3.134   0.031  0.00  0.00     0.053 C 
ATOM      9  C   UNL d   1       1.249  -2.091   0.325  0.00  0.00     0.018 C 
ENDBRANCH   1   8
TORSDOF 1
ENDMDL
