MODEL 1
REMARK minimizedAffinity 1.62468064
REMARK minimizedRMSD -1
REMARK  1 active torsions:
REMARK  status: ('A' for Active; 'I' for Inactive)
REMARK    1  A    between atoms: C1_2  and  C2_3 
ROOT
ATOM      1  C2  UNL d   1      -0.025  -0.518   1.346  0.00  0.00    -0.076 A 
ATOM      2  C3  UNL d   1       0.400   0.732   1.829  0.00  0.00     0.004 A 
ATOM      3  C4  UNL d   1       1.753   1.061   1.875  0.00  0.00    -0.003 A 
ATOM      4  C5  UNL d   1       2.704   0.145   1.439  0.00  0.00     0.000 A 
ATOM      5  C6  UNL d   1       2.300  -1.093   0.940  0.00  0.00     0.000 A 
ATOM      6  C7  UNL d   1       0.938  -1.434   0.871  0.00  0.00    -0.073 A 
ATOM      7  C8  UNL d   1       0.559  -2.785   0.330  0.00  0.00     0.078 C 
ENDROOT
BRANCH   1   8
ATOM      8  C1  UNL d   1      -1.505  -0.830   1.345  0.00  0.00     0.053 C 
ATOM      9  C   UNL d   1      -2.067  -0.983  -0.060  0.00  0.00     0.018 C 
ENDBRANCH   1   8
TORSDOF 1
ENDMDL
