MODEL 1
REMARK minimizedAffinity 4.14479303
REMARK minimizedRMSD -1
REMARK  1 active torsions:
REMARK  status: ('A' for Active; 'I' for Inactive)
REMARK    1  A    between atoms: C1_2  and  C2_3 
ROOT
ATOM      1  C2  UNL d   1       2.224   0.805   1.905  0.00  0.00    -0.076 A 
ATOM      2  C3  UNL d   1       1.211   0.323   2.752  0.00  0.00     0.004 A 
ATOM      3  C4  UNL d   1       0.133   1.130   3.112  0.00  0.00    -0.003 A 
ATOM      4  C5  UNL d   1       0.051   2.433   2.632  0.00  0.00     0.000 A 
ATOM      5  C6  UNL d   1       1.038   2.921   1.776  0.00  0.00     0.000 A 
ATOM      6  C7  UNL d   1       2.123   2.115   1.390  0.00  0.00    -0.073 A 
ATOM      7  C8  UNL d   1       3.162   2.696   0.470  0.00  0.00     0.078 C 
ENDROOT
BRANCH   1   8
ATOM      8  C1  UNL d   1       3.383  -0.107   1.570  0.00  0.00     0.053 C 
ATOM      9  C   UNL d   1       4.579   0.112   2.483  0.00  0.00     0.018 C 
ENDBRANCH   1   8
TORSDOF 1
ENDMDL
