MODEL 1
REMARK minimizedAffinity 6.69805241
REMARK minimizedRMSD -1
REMARK  1 active torsions:
REMARK  status: ('A' for Active; 'I' for Inactive)
REMARK    1  A    between atoms: C1_2  and  C2_3 
ROOT
ATOM      1  C2  UNL d   1       3.233   0.390   1.251  0.00  0.00    -0.076 A 
ATOM      2  C3  UNL d   1       3.708   1.708   1.138  0.00  0.00     0.004 A 
ATOM      3  C4  UNL d   1       2.999   2.667   0.418  0.00  0.00    -0.003 A 
ATOM      4  C5  UNL d   1       1.802   2.324  -0.202  0.00  0.00     0.000 A 
ATOM      5  C6  UNL d   1       1.307   1.025  -0.086  0.00  0.00     0.000 A 
ATOM      6  C7  UNL d   1       2.002   0.050   0.650  0.00  0.00    -0.073 A 
ATOM      7  C8  UNL d   1       1.426  -1.336   0.737  0.00  0.00     0.078 C 
ENDROOT
BRANCH   1   8
ATOM      8  C1  UNL d   1       4.060  -0.614   2.022  0.00  0.00     0.053 C 
ATOM      9  C   UNL d   1       5.450  -0.094   2.352  0.00  0.00     0.018 C 
ENDBRANCH   1   8
TORSDOF 1
ENDMDL
