MODEL 1
REMARK minimizedAffinity 8.87287235
REMARK minimizedRMSD -1
REMARK  1 active torsions:
REMARK  status: ('A' for Active; 'I' for Inactive)
REMARK    1  A    between atoms: C1_2  and  C2_3 
ROOT
ATOM      1  C2  UNL d   1      -2.236  -2.692  -3.263  0.00  0.00    -0.076 A 
ATOM      2  C3  UNL d   1      -1.361  -1.868  -3.992  0.00  0.00     0.004 A 
ATOM      3  C4  UNL d   1      -1.567  -1.627  -5.350  0.00  0.00    -0.003 A 
ATOM      4  C5  UNL d   1      -2.651  -2.205  -6.000  0.00  0.00     0.000 A 
ATOM      5  C6  UNL d   1      -3.540  -3.011  -5.288  0.00  0.00     0.000 A 
ATOM      6  C7  UNL d   1      -3.356  -3.251  -3.916  0.00  0.00    -0.073 A 
ATOM      7  C8  UNL d   1      -4.342  -4.132  -3.199  0.00  0.00     0.078 C 
ENDROOT
BRANCH   1   8
ATOM      8  C1  UNL d   1      -1.948  -2.939  -1.800  0.00  0.00     0.053 C 
ATOM      9  C   UNL d   1      -0.716  -2.191  -1.314  0.00  0.00     0.018 C 
ENDBRANCH   1   8
TORSDOF 1
ENDMDL
