MODEL 1
REMARK minimizedAffinity 1.20218718
REMARK minimizedRMSD -1
REMARK  1 active torsions:
REMARK  status: ('A' for Active; 'I' for Inactive)
REMARK    1  A    between atoms: C1_2  and  C2_3 
ROOT
ATOM      1  C2  UNL d   1       3.114   3.602  -5.657  0.00  0.00    -0.076 A 
ATOM      2  C3  UNL d   1       1.749   3.510  -5.336  0.00  0.00     0.004 A 
ATOM      3  C4  UNL d   1       1.015   4.643  -4.988  0.00  0.00    -0.003 A 
ATOM      4  C5  UNL d   1       1.635   5.887  -4.956  0.00  0.00     0.000 A 
ATOM      5  C6  UNL d   1       2.985   6.000  -5.288  0.00  0.00     0.000 A 
ATOM      6  C7  UNL d   1       3.735   4.870  -5.657  0.00  0.00    -0.073 A 
ATOM      7  C8  UNL d   1       5.188   5.049  -6.000  0.00  0.00     0.078 C 
ENDROOT
BRANCH   1   8
ATOM      8  C1  UNL d   1       3.865   2.336  -6.000  0.00  0.00     0.053 C 
ATOM      9  C   UNL d   1       2.970   1.106  -5.984  0.00  0.00     0.018 C 
ENDBRANCH   1   8
TORSDOF 1
ENDMDL
