MODEL 1
REMARK minimizedAffinity 6.42219543
REMARK minimizedRMSD -1
REMARK  0 active torsions:
REMARK  status: ('A' for Active; 'I' for Inactive)
ROOT
ATOM      1  C   UNL d   1       6.000   2.474  -2.546  0.00  0.00     0.078 C 
ATOM      2  C1  UNL d   1       5.060   1.784  -1.603  0.00  0.00    -0.077 A 
ATOM      3  C2  UNL d   1       5.207   1.911  -0.216  0.00  0.00    -0.001 A 
ATOM      4  C3  UNL d   1       4.331   1.254   0.649  0.00  0.00     0.003 A 
ATOM      5  C4  UNL d   1       3.302   0.465   0.138  0.00  0.00    -0.005 A 
ATOM      6  C5  UNL d   1       3.150   0.331  -1.240  0.00  0.00     0.003 A 
ATOM      7  C6  UNL d   1       4.025   0.987  -2.108  0.00  0.00    -0.001 A 
ENDROOT
TORSDOF 0
ENDMDL
