MODEL 1
REMARK minimizedAffinity -1.2451961
REMARK minimizedRMSD -1
REMARK  0 active torsions:
REMARK  status: ('A' for Active; 'I' for Inactive)
ROOT
ATOM      1  C   UNL d   1       2.228   2.053   0.319  0.00  0.00     0.078 C 
ATOM      2  C1  UNL d   1       1.753   3.291   1.019  0.00  0.00    -0.077 A 
ATOM      3  C2  UNL d   1       2.502   3.867   2.053  0.00  0.00    -0.001 A 
ATOM      4  C3  UNL d   1       2.044   5.014   2.703  0.00  0.00     0.003 A 
ATOM      5  C4  UNL d   1       0.834   5.595   2.327  0.00  0.00    -0.005 A 
ATOM      6  C5  UNL d   1       0.081   5.028   1.301  0.00  0.00     0.003 A 
ATOM      7  C6  UNL d   1       0.538   3.881   0.650  0.00  0.00    -0.001 A 
ENDROOT
TORSDOF 0
ENDMDL
