MODEL 1
REMARK minimizedAffinity -0.74594456
REMARK minimizedRMSD -1
REMARK  0 active torsions:
REMARK  status: ('A' for Active; 'I' for Inactive)
ROOT
ATOM      1  C   UNL d   1       6.000   2.682  -2.245  0.00  0.00     0.078 C 
ATOM      2  C1  UNL d   1       5.095   1.889  -1.350  0.00  0.00    -0.077 A 
ATOM      3  C2  UNL d   1       4.044   1.129  -1.877  0.00  0.00    -0.001 A 
ATOM      4  C3  UNL d   1       3.204   0.403  -1.030  0.00  0.00     0.003 A 
ATOM      5  C4  UNL d   1       3.405   0.432   0.348  0.00  0.00    -0.005 A 
ATOM      6  C5  UNL d   1       4.447   1.188   0.882  0.00  0.00     0.003 A 
ATOM      7  C6  UNL d   1       5.288   1.914   0.037  0.00  0.00    -0.001 A 
ENDROOT
TORSDOF 0
ENDMDL
