MODEL 1
REMARK minimizedAffinity 10.240119
REMARK minimizedRMSD -1
REMARK  0 active torsions:
REMARK  status: ('A' for Active; 'I' for Inactive)
ROOT
ATOM      1  C   UNL d   1       1.912   0.964   5.047  0.00  0.00     0.078 C 
ATOM      2  C1  UNL d   1       3.147   0.129   4.887  0.00  0.00    -0.077 A 
ATOM      3  C2  UNL d   1       3.505  -0.398   3.640  0.00  0.00    -0.001 A 
ATOM      4  C3  UNL d   1       4.651  -1.182   3.507  0.00  0.00     0.003 A 
ATOM      5  C4  UNL d   1       5.449  -1.448   4.618  0.00  0.00    -0.005 A 
ATOM      6  C5  UNL d   1       5.100  -0.931   5.864  0.00  0.00     0.003 A 
ATOM      7  C6  UNL d   1       3.954  -0.146   5.998  0.00  0.00    -0.001 A 
ENDROOT
TORSDOF 0
ENDMDL
