MODEL 1
REMARK minimizedAffinity 3.30542684
REMARK minimizedRMSD -1
REMARK  0 active torsions:
REMARK  status: ('A' for Active; 'I' for Inactive)
ROOT
ATOM      1  C   UNL d   1      -6.000  -1.150  -0.426  0.00  0.00     0.078 C 
ATOM      2  C1  UNL d   1      -5.254  -0.007   0.197  0.00  0.00    -0.077 A 
ATOM      3  C2  UNL d   1      -3.894   0.196  -0.068  0.00  0.00    -0.001 A 
ATOM      4  C3  UNL d   1      -3.210   1.258   0.526  0.00  0.00     0.003 A 
ATOM      5  C4  UNL d   1      -3.878   2.124   1.391  0.00  0.00    -0.005 A 
ATOM      6  C5  UNL d   1      -5.230   1.928   1.662  0.00  0.00     0.003 A 
ATOM      7  C6  UNL d   1      -5.916   0.867   1.069  0.00  0.00    -0.001 A 
ENDROOT
TORSDOF 0
ENDMDL
