MODEL 1
REMARK minimizedAffinity 7.00549984
REMARK minimizedRMSD -1
REMARK  0 active torsions:
REMARK  status: ('A' for Active; 'I' for Inactive)
ROOT
ATOM      1  C   UNL d   1       1.508   2.581   5.089  0.00  0.00     0.078 C 
ATOM      2  C1  UNL d   1       1.425   2.985   3.647  0.00  0.00    -0.077 A 
ATOM      3  C2  UNL d   1       0.410   3.838   3.194  0.00  0.00    -0.001 A 
ATOM      4  C3  UNL d   1       0.339   4.198   1.848  0.00  0.00     0.003 A 
ATOM      5  C4  UNL d   1       1.279   3.709   0.942  0.00  0.00    -0.005 A 
ATOM      6  C5  UNL d   1       2.291   2.858   1.383  0.00  0.00     0.003 A 
ATOM      7  C6  UNL d   1       2.363   2.497   2.729  0.00  0.00    -0.001 A 
ENDROOT
TORSDOF 0
ENDMDL
