MODEL 1
REMARK minimizedAffinity 4.66738462
REMARK minimizedRMSD -1
REMARK  0 active torsions:
REMARK  status: ('A' for Active; 'I' for Inactive)
ROOT
ATOM      1  C   UNL d   1       2.704   0.478   0.386  0.00  0.00     0.078 C 
ATOM      2  C1  UNL d   1       3.859   1.254  -0.173  0.00  0.00    -0.077 A 
ATOM      3  C2  UNL d   1       4.800   1.856   0.672  0.00  0.00    -0.001 A 
ATOM      4  C3  UNL d   1       5.865   2.584   0.137  0.00  0.00     0.003 A 
ATOM      5  C4  UNL d   1       5.998   2.718  -1.243  0.00  0.00    -0.005 A 
ATOM      6  C5  UNL d   1       5.065   2.124  -2.091  0.00  0.00     0.003 A 
ATOM      7  C6  UNL d   1       4.000   1.396  -1.559  0.00  0.00    -0.001 A 
ENDROOT
TORSDOF 0
ENDMDL
