MODEL 1
REMARK minimizedAffinity 9.519804
REMARK minimizedRMSD -1
REMARK  0 active torsions:
REMARK  status: ('A' for Active; 'I' for Inactive)
ROOT
ATOM      1  C   UNL d   1      -4.069   3.234  -5.996  0.00  0.00     0.023 A 
ATOM      2  C1  UNL d   1      -3.865   1.854  -5.999  0.00  0.00     0.003 A 
ATOM      3  C2  UNL d   1      -2.567   1.339  -6.000  0.00  0.00     0.048 A 
ATOM      4  C3  UNL d   1      -1.477   2.210  -5.997  0.00  0.00     0.023 A 
ATOM      5  C4  UNL d   1      -1.677   3.592  -5.993  0.00  0.00     0.048 A 
ATOM      6  C5  UNL d   1      -2.977   4.102  -5.993  0.00  0.00     0.003 A 
ATOM      7  I   UNL d   1       0.455   1.446  -5.998  0.00  0.00    -0.146 I 
ENDROOT
TORSDOF 0
ENDMDL
