MODEL 1
REMARK minimizedAffinity 6.41478539
REMARK minimizedRMSD -1
REMARK  0 active torsions:
REMARK  status: ('A' for Active; 'I' for Inactive)
ROOT
ATOM      1  C   UNL d   1       5.402   4.348   1.131  0.00  0.00     0.023 A 
ATOM      2  C1  UNL d   1       5.827   3.266   1.903  0.00  0.00     0.003 A 
ATOM      3  C2  UNL d   1       6.000   3.415   3.281  0.00  0.00     0.048 A 
ATOM      4  C3  UNL d   1       5.744   4.647   3.880  0.00  0.00     0.023 A 
ATOM      5  C4  UNL d   1       5.318   5.732   3.112  0.00  0.00     0.048 A 
ATOM      6  C5  UNL d   1       5.148   5.579   1.735  0.00  0.00     0.003 A 
ATOM      7  I   UNL d   1       6.000   4.871   5.931  0.00  0.00    -0.146 I 
ENDROOT
TORSDOF 0
ENDMDL
