MODEL 1
REMARK minimizedAffinity 11.9193144
REMARK minimizedRMSD -1
REMARK  0 active torsions:
REMARK  status: ('A' for Active; 'I' for Inactive)
ROOT
ATOM      1  C   UNL d   1       0.106   2.583  -6.000  0.00  0.00     0.023 A 
ATOM      2  C1  UNL d   1      -0.473   1.811  -4.992  0.00  0.00     0.003 A 
ATOM      3  C2  UNL d   1       0.323   1.276  -3.977  0.00  0.00     0.048 A 
ATOM      4  C3  UNL d   1       1.696   1.519  -3.974  0.00  0.00     0.023 A 
ATOM      5  C4  UNL d   1       2.279   2.292  -4.979  0.00  0.00     0.048 A 
ATOM      6  C5  UNL d   1       1.480   2.823  -5.993  0.00  0.00     0.003 A 
ATOM      7  I   UNL d   1       2.882   0.724  -2.463  0.00  0.00    -0.146 I 
ENDROOT
TORSDOF 0
ENDMDL
