MODEL 1
REMARK minimizedAffinity -0.512515664
REMARK minimizedRMSD -1
REMARK  0 active torsions:
REMARK  status: ('A' for Active; 'I' for Inactive)
ROOT
ATOM      1  C   UNL d   1       3.040   6.000   2.947  0.00  0.00     0.023 A 
ATOM      2  C1  UNL d   1       2.415   5.038   3.741  0.00  0.00     0.003 A 
ATOM      3  C2  UNL d   1       2.298   3.723   3.286  0.00  0.00     0.048 A 
ATOM      4  C3  UNL d   1       2.809   3.377   2.035  0.00  0.00     0.023 A 
ATOM      5  C4  UNL d   1       3.435   4.336   1.237  0.00  0.00     0.048 A 
ATOM      6  C5  UNL d   1       3.549   5.649   1.697  0.00  0.00     0.003 A 
ATOM      7  I   UNL d   1       2.636   1.421   1.354  0.00  0.00    -0.146 I 
ENDROOT
TORSDOF 0
ENDMDL
