MODEL 1
REMARK minimizedAffinity 7.57994175
REMARK minimizedRMSD -1
REMARK  0 active torsions:
REMARK  status: ('A' for Active; 'I' for Inactive)
ROOT
ATOM      1  C   UNL d   1       4.511   3.374   1.978  0.00  0.00     0.023 A 
ATOM      2  C1  UNL d   1       3.952   4.646   2.105  0.00  0.00     0.003 A 
ATOM      3  C2  UNL d   1       4.186   5.401   3.256  0.00  0.00     0.048 A 
ATOM      4  C3  UNL d   1       4.980   4.878   4.276  0.00  0.00     0.023 A 
ATOM      5  C4  UNL d   1       5.542   3.606   4.153  0.00  0.00     0.048 A 
ATOM      6  C5  UNL d   1       5.304   2.855   3.000  0.00  0.00     0.003 A 
ATOM      7  I   UNL d   1       5.329   5.999   5.991  0.00  0.00    -0.146 I 
ENDROOT
TORSDOF 0
ENDMDL
