MODEL 1
REMARK minimizedAffinity 3.93466163
REMARK minimizedRMSD -1
REMARK  0 active torsions:
REMARK  status: ('A' for Active; 'I' for Inactive)
ROOT
ATOM      1  C   UNL d   1      -5.292   3.218  -5.988  0.00  0.00     0.023 A 
ATOM      2  C1  UNL d   1      -4.889   1.882  -5.981  0.00  0.00     0.003 A 
ATOM      3  C2  UNL d   1      -3.545   1.558  -5.787  0.00  0.00     0.048 A 
ATOM      4  C3  UNL d   1      -2.609   2.575  -5.600  0.00  0.00     0.023 A 
ATOM      5  C4  UNL d   1      -3.008   3.913  -5.605  0.00  0.00     0.048 A 
ATOM      6  C5  UNL d   1      -4.353   4.232  -5.800  0.00  0.00     0.003 A 
ATOM      7  I   UNL d   1      -0.607   2.096  -5.311  0.00  0.00    -0.146 I 
ENDROOT
TORSDOF 0
ENDMDL
