MODEL 1
REMARK minimizedAffinity 0.531245649
REMARK minimizedRMSD -1
REMARK  0 active torsions:
REMARK  status: ('A' for Active; 'I' for Inactive)
ROOT
ATOM      1  C   UNL d   1       3.736   4.135   0.507  0.00  0.00     0.023 A 
ATOM      2  C1  UNL d   1       4.108   5.464   0.711  0.00  0.00     0.003 A 
ATOM      3  C2  UNL d   1       4.109   6.000   2.000  0.00  0.00     0.048 A 
ATOM      4  C3  UNL d   1       3.739   5.201   3.081  0.00  0.00     0.023 A 
ATOM      5  C4  UNL d   1       3.367   3.870   2.882  0.00  0.00     0.048 A 
ATOM      6  C5  UNL d   1       3.366   3.339   1.591  0.00  0.00     0.003 A 
ATOM      7  I   UNL d   1       3.740   5.996   5.002  0.00  0.00    -0.146 I 
ENDROOT
TORSDOF 0
ENDMDL
