MODEL 1
REMARK minimizedAffinity 12.8210859
REMARK minimizedRMSD -1
REMARK  0 active torsions:
REMARK  status: ('A' for Active; 'I' for Inactive)
ROOT
ATOM      1  C   UNL d   1       5.832  -1.142  -1.571  0.00  0.00     0.023 A 
ATOM      2  C1  UNL d   1       4.736  -1.990  -1.735  0.00  0.00     0.003 A 
ATOM      3  C2  UNL d   1       3.516  -1.478  -2.183  0.00  0.00     0.048 A 
ATOM      4  C3  UNL d   1       3.400  -0.118  -2.468  0.00  0.00     0.023 A 
ATOM      5  C4  UNL d   1       4.494   0.734  -2.307  0.00  0.00     0.048 A 
ATOM      6  C5  UNL d   1       5.711   0.218  -1.857  0.00  0.00     0.003 A 
ATOM      7  I   UNL d   1       1.586   0.646  -3.136  0.00  0.00    -0.146 I 
ENDROOT
TORSDOF 0
ENDMDL
