MODEL 1
REMARK minimizedAffinity 2.71392584
REMARK minimizedRMSD -1
REMARK  0 active torsions:
REMARK  status: ('A' for Active; 'I' for Inactive)
ROOT
ATOM      1  C   UNL d   1      -2.669   1.848  -5.998  0.00  0.00     0.023 A 
ATOM      2  C1  UNL d   1      -4.062   1.785  -5.998  0.00  0.00     0.003 A 
ATOM      3  C2  UNL d   1      -4.815   2.961  -5.995  0.00  0.00     0.048 A 
ATOM      4  C3  UNL d   1      -4.168   4.197  -5.995  0.00  0.00     0.023 A 
ATOM      5  C4  UNL d   1      -2.774   4.264  -5.996  0.00  0.00     0.048 A 
ATOM      6  C5  UNL d   1      -2.025   3.085  -5.998  0.00  0.00     0.003 A 
ATOM      7  I   UNL d   1      -5.286   5.948  -5.991  0.00  0.00    -0.146 I 
ENDROOT
TORSDOF 0
ENDMDL
