MODEL 1
REMARK minimizedAffinity 3.02536154
REMARK minimizedRMSD -1
REMARK  0 active torsions:
REMARK  status: ('A' for Active; 'I' for Inactive)
ROOT
ATOM      1  C   UNL d   1      -0.900  -2.015   1.324  0.00  0.00     0.023 A 
ATOM      2  C1  UNL d   1       0.490  -1.898   1.294  0.00  0.00     0.003 A 
ATOM      3  C2  UNL d   1       1.083  -0.655   1.063  0.00  0.00     0.048 A 
ATOM      4  C3  UNL d   1       0.280   0.467   0.863  0.00  0.00     0.023 A 
ATOM      5  C4  UNL d   1      -1.111   0.356   0.893  0.00  0.00     0.048 A 
ATOM      6  C5  UNL d   1      -1.699  -0.889   1.123  0.00  0.00     0.003 A 
ATOM      7  I   UNL d   1       1.161   2.318   0.519  0.00  0.00    -0.146 I 
ENDROOT
TORSDOF 0
ENDMDL
