MODEL 1
REMARK minimizedAffinity 2.31543446
REMARK minimizedRMSD -1
REMARK  0 active torsions:
REMARK  status: ('A' for Active; 'I' for Inactive)
ROOT
ATOM      1  C   UNL d   1       1.104   3.018  -5.750  0.00  0.00     0.023 A 
ATOM      2  C1  UNL d   1       0.448   4.236  -5.929  0.00  0.00     0.003 A 
ATOM      3  C2  UNL d   1      -0.946   4.276  -6.000  0.00  0.00     0.048 A 
ATOM      4  C3  UNL d   1      -1.678   3.095  -5.890  0.00  0.00     0.023 A 
ATOM      5  C4  UNL d   1      -1.027   1.873  -5.710  0.00  0.00     0.048 A 
ATOM      6  C5  UNL d   1       0.367   1.838  -5.641  0.00  0.00     0.003 A 
ATOM      7  I   UNL d   1      -3.753   3.152  -5.994  0.00  0.00    -0.146 I 
ENDROOT
TORSDOF 0
ENDMDL
