MODEL 1
REMARK minimizedAffinity -1.76190054
REMARK minimizedRMSD -1
REMARK  0 active torsions:
REMARK  status: ('A' for Active; 'I' for Inactive)
ROOT
ATOM      1  C   UNL d   1      -0.627   2.979  -5.836  0.00  0.00     0.023 A 
ATOM      2  C1  UNL d   1      -1.923   2.468  -5.773  0.00  0.00     0.003 A 
ATOM      3  C2  UNL d   1      -3.019   3.332  -5.820  0.00  0.00     0.048 A 
ATOM      4  C3  UNL d   1      -2.812   4.706  -5.930  0.00  0.00     0.023 A 
ATOM      5  C4  UNL d   1      -1.516   5.223  -5.994  0.00  0.00     0.048 A 
ATOM      6  C5  UNL d   1      -0.424   4.355  -5.946  0.00  0.00     0.003 A 
ATOM      7  I   UNL d   1      -4.441   5.994  -6.000  0.00  0.00    -0.146 I 
ENDROOT
TORSDOF 0
ENDMDL
