MODEL 1
REMARK minimizedAffinity -0.0131772337
REMARK minimizedRMSD -1
REMARK  0 active torsions:
REMARK  status: ('A' for Active; 'I' for Inactive)
ROOT
ATOM      1  C   UNL d   1       3.272   0.491  -0.743  0.00  0.00     0.023 A 
ATOM      2  C1  UNL d   1       2.692   1.035   0.404  0.00  0.00     0.003 A 
ATOM      3  C2  UNL d   1       1.675   1.984   0.291  0.00  0.00     0.048 A 
ATOM      4  C3  UNL d   1       1.241   2.386  -0.972  0.00  0.00     0.023 A 
ATOM      5  C4  UNL d   1       1.818   1.844  -2.122  0.00  0.00     0.048 A 
ATOM      6  C5  UNL d   1       2.835   0.896  -2.004  0.00  0.00     0.003 A 
ATOM      7  I   UNL d   1      -0.273   3.799  -1.143  0.00  0.00    -0.146 I 
ENDROOT
TORSDOF 0
ENDMDL
