MODEL 1
REMARK minimizedAffinity -2.8966136
REMARK minimizedRMSD -1
REMARK  0 active torsions:
REMARK  status: ('A' for Active; 'I' for Inactive)
ROOT
ATOM      1  C   UNL d   1       0.627   2.982  -5.675  0.00  0.00     0.023 A 
ATOM      2  C1  UNL d   1       0.033   4.223  -5.904  0.00  0.00     0.003 A 
ATOM      3  C2  UNL d   1      -1.356   4.328  -5.998  0.00  0.00     0.048 A 
ATOM      4  C3  UNL d   1      -2.146   3.187  -5.859  0.00  0.00     0.023 A 
ATOM      5  C4  UNL d   1      -1.556   1.943  -5.628  0.00  0.00     0.048 A 
ATOM      6  C5  UNL d   1      -0.166   1.844  -5.537  0.00  0.00     0.003 A 
ATOM      7  I   UNL d   1      -4.214   3.339  -5.997  0.00  0.00    -0.146 I 
ENDROOT
TORSDOF 0
ENDMDL
