MODEL 1
REMARK minimizedAffinity -1.61814415
REMARK minimizedRMSD -1
REMARK  0 active torsions:
REMARK  status: ('A' for Active; 'I' for Inactive)
ROOT
ATOM      1  C   UNL d   1      -4.250   3.009  -5.973  0.00  0.00     0.023 A 
ATOM      2  C1  UNL d   1      -3.811   4.333  -5.994  0.00  0.00     0.003 A 
ATOM      3  C2  UNL d   1      -2.443   4.616  -5.999  0.00  0.00     0.048 A 
ATOM      4  C3  UNL d   1      -1.521   3.570  -5.984  0.00  0.00     0.023 A 
ATOM      5  C4  UNL d   1      -1.956   2.244  -5.963  0.00  0.00     0.048 A 
ATOM      6  C5  UNL d   1      -3.324   1.966  -5.957  0.00  0.00     0.003 A 
ATOM      7  I   UNL d   1       0.515   3.989  -5.991  0.00  0.00    -0.146 I 
ENDROOT
TORSDOF 0
ENDMDL
