MODEL 1
REMARK minimizedAffinity 2.36856413
REMARK minimizedRMSD -1
REMARK  0 active torsions:
REMARK  status: ('A' for Active; 'I' for Inactive)
ROOT
ATOM      1  C   UNL d   1      -4.570   2.640  -5.991  0.00  0.00     0.023 A 
ATOM      2  C1  UNL d   1      -4.155   3.972  -5.989  0.00  0.00     0.003 A 
ATOM      3  C2  UNL d   1      -2.793   4.280  -5.991  0.00  0.00     0.048 A 
ATOM      4  C3  UNL d   1      -1.852   3.251  -5.994  0.00  0.00     0.023 A 
ATOM      5  C4  UNL d   1      -2.262   1.917  -5.996  0.00  0.00     0.048 A 
ATOM      6  C5  UNL d   1      -3.625   1.614  -5.994  0.00  0.00     0.003 A 
ATOM      7  I   UNL d   1       0.176   3.707  -5.996  0.00  0.00    -0.146 I 
ENDROOT
TORSDOF 0
ENDMDL
