MODEL 1
REMARK minimizedAffinity -4.76815176
REMARK minimizedRMSD -1
REMARK  0 active torsions:
REMARK  status: ('A' for Active; 'I' for Inactive)
ROOT
ATOM      1  C   UNL d   1       0.812  -0.914  -0.880  0.00  0.00     0.078 C 
ATOM      2  C1  UNL d   1       0.131  -0.168   0.229  0.00  0.00    -0.077 A 
ATOM      3  C2  UNL d   1       0.868   0.586   1.150  0.00  0.00    -0.001 A 
ATOM      4  C3  UNL d   1       0.222   1.267   2.183  0.00  0.00     0.003 A 
ATOM      5  C4  UNL d   1      -1.165   1.200   2.305  0.00  0.00    -0.005 A 
ATOM      6  C5  UNL d   1      -1.906   0.450   1.394  0.00  0.00     0.003 A 
ATOM      7  C6  UNL d   1      -1.262  -0.232   0.361  0.00  0.00    -0.001 A 
ENDROOT
TORSDOF 0
ENDMDL
