MODEL 1
REMARK minimizedAffinity -5.04837513
REMARK minimizedRMSD -1
REMARK  0 active torsions:
REMARK  status: ('A' for Active; 'I' for Inactive)
ROOT
ATOM      1  C   UNL d   1       0.348  -0.791  -0.769  0.00  0.00     0.078 C 
ATOM      2  C1  UNL d   1      -0.115  -0.035   0.441  0.00  0.00    -0.077 A 
ATOM      3  C2  UNL d   1      -1.472   0.022   0.780  0.00  0.00    -0.001 A 
ATOM      4  C3  UNL d   1      -1.889   0.737   1.904  0.00  0.00     0.003 A 
ATOM      5  C4  UNL d   1      -0.956   1.402   2.697  0.00  0.00    -0.005 A 
ATOM      6  C5  UNL d   1       0.397   1.352   2.366  0.00  0.00     0.003 A 
ATOM      7  C6  UNL d   1       0.816   0.638   1.243  0.00  0.00    -0.001 A 
ENDROOT
TORSDOF 0
ENDMDL
