MODEL 1
REMARK minimizedAffinity -5.2586441
REMARK minimizedRMSD -1
REMARK  0 active torsions:
REMARK  status: ('A' for Active; 'I' for Inactive)
ROOT
ATOM      1  C   UNL d   1       0.499  -0.523  -0.584  0.00  0.00     0.078 C 
ATOM      2  C1  UNL d   1      -0.136   0.143   0.601  0.00  0.00    -0.077 A 
ATOM      3  C2  UNL d   1      -1.479  -0.087   0.923  0.00  0.00    -0.001 A 
ATOM      4  C3  UNL d   1      -2.060   0.547   2.023  0.00  0.00     0.003 A 
ATOM      5  C4  UNL d   1      -1.305   1.417   2.808  0.00  0.00    -0.005 A 
ATOM      6  C5  UNL d   1       0.031   1.654   2.493  0.00  0.00     0.003 A 
ATOM      7  C6  UNL d   1       0.613   1.020   1.394  0.00  0.00    -0.001 A 
ENDROOT
TORSDOF 0
ENDMDL
