MODEL 1
REMARK minimizedAffinity -4.53668594
REMARK minimizedRMSD -1
REMARK  0 active torsions:
REMARK  status: ('A' for Active; 'I' for Inactive)
ROOT
ATOM      1  C   UNL d   1      -1.181  -1.037  -4.748  0.00  0.00     0.078 C 
ATOM      2  C1  UNL d   1      -0.138  -0.009  -4.423  0.00  0.00    -0.077 A 
ATOM      3  C2  UNL d   1       0.989   0.157  -5.237  0.00  0.00    -0.001 A 
ATOM      4  C3  UNL d   1       1.956   1.111  -4.917  0.00  0.00     0.003 A 
ATOM      5  C4  UNL d   1       1.807   1.905  -3.782  0.00  0.00    -0.005 A 
ATOM      6  C5  UNL d   1       0.690   1.745  -2.965  0.00  0.00     0.003 A 
ATOM      7  C6  UNL d   1      -0.279   0.792  -3.283  0.00  0.00    -0.001 A 
ENDROOT
TORSDOF 0
ENDMDL
