MODEL 1
REMARK minimizedAffinity -5.48221588
REMARK minimizedRMSD -1
REMARK  0 active torsions:
REMARK  status: ('A' for Active; 'I' for Inactive)
ROOT
ATOM      1  C   UNL d   1      -0.008  -0.304  -1.017  0.00  0.00     0.078 C 
ATOM      2  C1  UNL d   1      -0.400   0.199   0.340  0.00  0.00    -0.077 A 
ATOM      3  C2  UNL d   1      -1.702   0.026   0.825  0.00  0.00    -0.001 A 
ATOM      4  C3  UNL d   1      -2.056   0.508   2.086  0.00  0.00     0.003 A 
ATOM      5  C4  UNL d   1      -1.113   1.168   2.873  0.00  0.00    -0.005 A 
ATOM      6  C5  UNL d   1       0.184   1.346   2.398  0.00  0.00     0.003 A 
ATOM      7  C6  UNL d   1       0.540   0.865   1.137  0.00  0.00    -0.001 A 
ENDROOT
TORSDOF 0
ENDMDL
