MODEL 1
REMARK minimizedAffinity -3.16050506
REMARK minimizedRMSD -1
REMARK  0 active torsions:
REMARK  status: ('A' for Active; 'I' for Inactive)
ROOT
ATOM      1  C   UNL d   1       0.818  -1.047  -3.004  0.00  0.00    -0.002 A 
ATOM      2  C1  UNL d   1      -0.526  -0.832  -3.274  0.00  0.00     0.010 A 
ATOM      3  C2  UNL d   1      -1.398  -0.428  -2.261  0.00  0.00     0.041 A 
ATOM      4  C3  UNL d   1      -0.891  -0.240  -0.960  0.00  0.00    -0.075 A 
ATOM      5  S   UNL d   1      -1.772   0.252   0.438  0.00  0.00     0.015 SA
ATOM      6  C4  UNL d   1      -0.385   0.189   1.426  0.00  0.00     0.022 A 
ATOM      7  C5  UNL d   1       0.732  -0.196   0.723  0.00  0.00     0.026 A 
ATOM      8  C6  UNL d   1       0.459  -0.450  -0.664  0.00  0.00    -0.082 A 
ATOM      9  C7  UNL d   1       1.317  -0.860  -1.712  0.00  0.00     0.045 A 
ENDROOT
TORSDOF 0
ENDMDL
