MODEL 1
REMARK minimizedAffinity -3.70640373
REMARK minimizedRMSD -1
REMARK  0 active torsions:
REMARK  status: ('A' for Active; 'I' for Inactive)
ROOT
ATOM      1  C   UNL d   1      -1.354   1.609   2.216  0.00  0.00    -0.002 A 
ATOM      2  C1  UNL d   1      -0.094   1.652   2.796  0.00  0.00     0.010 A 
ATOM      3  C2  UNL d   1       0.955   0.893   2.274  0.00  0.00     0.041 A 
ATOM      4  C3  UNL d   1       0.715   0.083   1.146  0.00  0.00    -0.075 A 
ATOM      5  S   UNL d   1       1.848  -0.931   0.334  0.00  0.00     0.015 SA
ATOM      6  C4  UNL d   1       0.686  -1.445  -0.803  0.00  0.00     0.022 A 
ATOM      7  C5  UNL d   1      -0.541  -0.867  -0.583  0.00  0.00     0.026 A 
ATOM      8  C6  UNL d   1      -0.545   0.024   0.543  0.00  0.00    -0.082 A 
ATOM      9  C7  UNL d   1      -1.588   0.805   1.097  0.00  0.00     0.045 A 
ENDROOT
TORSDOF 0
ENDMDL
