MODEL 1
REMARK minimizedAffinity -2.59544563
REMARK minimizedRMSD -1
REMARK  0 active torsions:
REMARK  status: ('A' for Active; 'I' for Inactive)
ROOT
ATOM      1  C   UNL d   1      -0.216   1.441   2.869  0.00  0.00    -0.002 A 
ATOM      2  C1  UNL d   1      -1.519   0.967   2.912  0.00  0.00     0.010 A 
ATOM      3  C2  UNL d   1      -1.988   0.089   1.932  0.00  0.00     0.041 A 
ATOM      4  C3  UNL d   1      -1.116  -0.309   0.900  0.00  0.00    -0.075 A 
ATOM      5  S   UNL d   1      -1.471  -1.376  -0.407  0.00  0.00     0.015 SA
ATOM      6  C4  UNL d   1       0.100  -1.228  -1.052  0.00  0.00     0.022 A 
ATOM      7  C5  UNL d   1       0.889  -0.388  -0.302  0.00  0.00     0.026 A 
ATOM      8  C6  UNL d   1       0.201   0.155   0.836  0.00  0.00    -0.082 A 
ATOM      9  C7  UNL d   1       0.646   1.044   1.843  0.00  0.00     0.045 A 
ENDROOT
TORSDOF 0
ENDMDL
