MODEL 1
REMARK minimizedAffinity -2.49063468
REMARK minimizedRMSD -1
REMARK  0 active torsions:
REMARK  status: ('A' for Active; 'I' for Inactive)
ROOT
ATOM      1  C   UNL d   1      -1.583   1.129   2.242  0.00  0.00    -0.002 A 
ATOM      2  C1  UNL d   1      -0.287   1.426   2.639  0.00  0.00     0.010 A 
ATOM      3  C2  UNL d   1       0.806   0.960   1.906  0.00  0.00     0.041 A 
ATOM      4  C3  UNL d   1       0.572   0.182   0.755  0.00  0.00    -0.075 A 
ATOM      5  S   UNL d   1       1.756  -0.496  -0.299  0.00  0.00     0.015 SA
ATOM      6  C4  UNL d   1       0.570  -1.197  -1.302  0.00  0.00     0.022 A 
ATOM      7  C5  UNL d   1      -0.703  -0.930  -0.859  0.00  0.00     0.026 A 
ATOM      8  C6  UNL d   1      -0.723  -0.130   0.334  0.00  0.00    -0.082 A 
ATOM      9  C7  UNL d   1      -1.810   0.357   1.099  0.00  0.00     0.045 A 
ENDROOT
TORSDOF 0
ENDMDL
