MODEL 1
REMARK minimizedAffinity 20.9767342
REMARK minimizedRMSD -1
REMARK  0 active torsions:
REMARK  status: ('A' for Active; 'I' for Inactive)
ROOT
ATOM      1  C   UNL d   1       1.008   4.862  -0.513  0.00  0.00     0.023 A 
ATOM      2  C1  UNL d   1       1.476   4.388  -1.739  0.00  0.00     0.003 A 
ATOM      3  C2  UNL d   1       2.174   3.180  -1.802  0.00  0.00     0.048 A 
ATOM      4  C3  UNL d   1       2.399   2.450  -0.635  0.00  0.00     0.023 A 
ATOM      5  C4  UNL d   1       1.931   2.920   0.593  0.00  0.00     0.048 A 
ATOM      6  C5  UNL d   1       1.235   4.129   0.651  0.00  0.00     0.003 A 
ATOM      7  I   UNL d   1       3.437   0.652  -0.726  0.00  0.00    -0.146 I 
ENDROOT
TORSDOF 0
ENDMDL
