MODEL 1
REMARK minimizedAffinity 9.69562054
REMARK minimizedRMSD -1
REMARK  0 active torsions:
REMARK  status: ('A' for Active; 'I' for Inactive)
ROOT
ATOM      1  C   UNL d   1       3.230  -2.349  -0.215  0.00  0.00     0.023 A 
ATOM      2  C1  UNL d   1       3.132  -0.970  -0.032  0.00  0.00     0.003 A 
ATOM      3  C2  UNL d   1       2.521  -0.177  -1.005  0.00  0.00     0.048 A 
ATOM      4  C3  UNL d   1       2.009  -0.769  -2.158  0.00  0.00     0.023 A 
ATOM      5  C4  UNL d   1       2.103  -2.149  -2.346  0.00  0.00     0.048 A 
ATOM      6  C5  UNL d   1       2.716  -2.938  -1.370  0.00  0.00     0.003 A 
ATOM      7  I   UNL d   1       1.098   0.409  -3.608  0.00  0.00    -0.146 I 
ENDROOT
TORSDOF 0
ENDMDL
