MODEL 1
REMARK minimizedAffinity 2.87979531
REMARK minimizedRMSD -1
REMARK  0 active torsions:
REMARK  status: ('A' for Active; 'I' for Inactive)
ROOT
ATOM      1  C   UNL d   1       2.683  -4.158  -3.612  0.00  0.00     0.023 A 
ATOM      2  C1  UNL d   1       1.821  -3.073  -3.776  0.00  0.00     0.003 A 
ATOM      3  C2  UNL d   1       1.385  -2.351  -2.663  0.00  0.00     0.048 A 
ATOM      4  C3  UNL d   1       1.816  -2.718  -1.389  0.00  0.00     0.023 A 
ATOM      5  C4  UNL d   1       2.678  -3.802  -1.220  0.00  0.00     0.048 A 
ATOM      6  C5  UNL d   1       3.111  -4.522  -2.335  0.00  0.00     0.003 A 
ATOM      7  I   UNL d   1       1.169  -1.645   0.269  0.00  0.00    -0.146 I 
ENDROOT
TORSDOF 0
ENDMDL
