MODEL 1
REMARK minimizedAffinity 0.826133966
REMARK minimizedRMSD -1
REMARK  0 active torsions:
REMARK  status: ('A' for Active; 'I' for Inactive)
ROOT
ATOM      1  C   UNL d   1       3.369  -3.069   0.043  0.00  0.00     0.023 A 
ATOM      2  C1  UNL d   1       2.421  -2.617  -0.875  0.00  0.00     0.003 A 
ATOM      3  C2  UNL d   1       2.271  -3.265  -2.103  0.00  0.00     0.048 A 
ATOM      4  C3  UNL d   1       3.071  -4.366  -2.406  0.00  0.00     0.023 A 
ATOM      5  C4  UNL d   1       4.020  -4.823  -1.490  0.00  0.00     0.048 A 
ATOM      6  C5  UNL d   1       4.168  -4.171  -0.264  0.00  0.00     0.003 A 
ATOM      7  I   UNL d   1       2.849  -5.333  -4.232  0.00  0.00    -0.146 I 
ENDROOT
TORSDOF 0
ENDMDL
