MODEL 1
REMARK minimizedAffinity -0.164557368
REMARK minimizedRMSD -1
REMARK  0 active torsions:
REMARK  status: ('A' for Active; 'I' for Inactive)
ROOT
ATOM      1  C   UNL d   1       2.324  -3.000  -4.238  0.00  0.00     0.023 A 
ATOM      2  C1  UNL d   1       1.625  -2.690  -3.071  0.00  0.00     0.003 A 
ATOM      3  C2  UNL d   1       2.095  -3.138  -1.835  0.00  0.00     0.048 A 
ATOM      4  C3  UNL d   1       3.265  -3.895  -1.773  0.00  0.00     0.023 A 
ATOM      5  C4  UNL d   1       3.968  -4.206  -2.938  0.00  0.00     0.048 A 
ATOM      6  C5  UNL d   1       3.494  -3.757  -4.172  0.00  0.00     0.003 A 
ATOM      7  I   UNL d   1       3.966  -4.563   0.066  0.00  0.00    -0.146 I 
ENDROOT
TORSDOF 0
ENDMDL
