MODEL 1
REMARK minimizedAffinity 3.46001554
REMARK minimizedRMSD -1
REMARK  0 active torsions:
REMARK  status: ('A' for Active; 'I' for Inactive)
ROOT
ATOM      1  C   UNL d   1       2.459  -4.372  -4.610  0.00  0.00     0.023 A 
ATOM      2  C1  UNL d   1       2.969  -5.486  -3.943  0.00  0.00     0.003 A 
ATOM      3  C2  UNL d   1       3.301  -5.399  -2.590  0.00  0.00     0.048 A 
ATOM      4  C3  UNL d   1       3.119  -4.196  -1.909  0.00  0.00     0.023 A 
ATOM      5  C4  UNL d   1       2.608  -3.079  -2.572  0.00  0.00     0.048 A 
ATOM      6  C5  UNL d   1       2.279  -3.170  -3.926  0.00  0.00     0.003 A 
ATOM      7  I   UNL d   1       3.613  -4.064   0.106  0.00  0.00    -0.146 I 
ENDROOT
TORSDOF 0
ENDMDL
