MODEL 1
REMARK minimizedAffinity 1.92928839
REMARK minimizedRMSD -1
REMARK  0 active torsions:
REMARK  status: ('A' for Active; 'I' for Inactive)
ROOT
ATOM      1  C   UNL d   1      -2.079   0.690   2.409  0.00  0.00     0.023 A 
ATOM      2  C1  UNL d   1      -3.406   0.409   2.731  0.00  0.00     0.003 A 
ATOM      3  C2  UNL d   1      -4.065   1.164   3.704  0.00  0.00     0.048 A 
ATOM      4  C3  UNL d   1      -3.391   2.200   4.349  0.00  0.00     0.023 A 
ATOM      5  C4  UNL d   1      -2.062   2.486   4.029  0.00  0.00     0.048 A 
ATOM      6  C5  UNL d   1      -1.408   1.727   3.057  0.00  0.00     0.003 A 
ATOM      7  I   UNL d   1      -4.369   3.326   5.796  0.00  0.00    -0.146 I 
ENDROOT
TORSDOF 0
ENDMDL
