MODEL 1
REMARK minimizedAffinity 6.11942387
REMARK minimizedRMSD -1
REMARK  0 active torsions:
REMARK  status: ('A' for Active; 'I' for Inactive)
ROOT
ATOM      1  C   UNL d   1      -4.038   2.254   4.735  0.00  0.00     0.023 A 
ATOM      2  C1  UNL d   1      -3.356   2.264   5.952  0.00  0.00     0.003 A 
ATOM      3  C2  UNL d   1      -2.006   1.910   6.000  0.00  0.00     0.048 A 
ATOM      4  C3  UNL d   1      -1.344   1.549   4.827  0.00  0.00     0.023 A 
ATOM      5  C4  UNL d   1      -2.022   1.539   3.607  0.00  0.00     0.048 A 
ATOM      6  C5  UNL d   1      -3.372   1.892   3.564  0.00  0.00     0.003 A 
ATOM      7  I   UNL d   1       0.666   1.023   4.896  0.00  0.00    -0.146 I 
ENDROOT
TORSDOF 0
ENDMDL
