MODEL 1
REMARK minimizedAffinity 12.1238089
REMARK minimizedRMSD -1
REMARK  0 active torsions:
REMARK  status: ('A' for Active; 'I' for Inactive)
ROOT
ATOM      1  C   UNL d   1       2.679  -3.754  -4.089  0.00  0.00     0.023 A 
ATOM      2  C1  UNL d   1       1.972  -3.499  -2.915  0.00  0.00     0.003 A 
ATOM      3  C2  UNL d   1       2.575  -3.713  -1.674  0.00  0.00     0.048 A 
ATOM      4  C3  UNL d   1       3.887  -4.183  -1.615  0.00  0.00     0.023 A 
ATOM      5  C4  UNL d   1       4.599  -4.440  -2.788  0.00  0.00     0.048 A 
ATOM      6  C5  UNL d   1       3.991  -4.224  -4.026  0.00  0.00     0.003 A 
ATOM      7  I   UNL d   1       4.788  -4.503   0.230  0.00  0.00    -0.146 I 
ENDROOT
TORSDOF 0
ENDMDL
