MODEL 1
REMARK minimizedAffinity 8.05556679
REMARK minimizedRMSD -1
REMARK  0 active torsions:
REMARK  status: ('A' for Active; 'I' for Inactive)
ROOT
ATOM      1  C   UNL d   1       2.328  -4.084  -4.047  0.00  0.00     0.023 A 
ATOM      2  C1  UNL d   1       3.501  -4.814  -4.241  0.00  0.00     0.003 A 
ATOM      3  C2  UNL d   1       4.338  -5.094  -3.159  0.00  0.00     0.048 A 
ATOM      4  C3  UNL d   1       3.996  -4.642  -1.885  0.00  0.00     0.023 A 
ATOM      5  C4  UNL d   1       2.824  -3.911  -1.686  0.00  0.00     0.048 A 
ATOM      6  C5  UNL d   1       1.990  -3.633  -2.771  0.00  0.00     0.003 A 
ATOM      7  I   UNL d   1       5.241  -5.057  -0.274  0.00  0.00    -0.146 I 
ENDROOT
TORSDOF 0
ENDMDL
