MODEL 1
REMARK minimizedAffinity 15.9560165
REMARK minimizedRMSD -1
REMARK  0 active torsions:
REMARK  status: ('A' for Active; 'I' for Inactive)
ROOT
ATOM      1  C   UNL d   1      -3.910   2.814  -5.949  0.00  0.00     0.023 A 
ATOM      2  C1  UNL d   1      -4.201   4.177  -5.999  0.00  0.00     0.003 A 
ATOM      3  C2  UNL d   1      -3.400   5.089  -5.309  0.00  0.00     0.048 A 
ATOM      4  C3  UNL d   1      -2.309   4.630  -4.570  0.00  0.00     0.023 A 
ATOM      5  C4  UNL d   1      -2.014   3.267  -4.518  0.00  0.00     0.048 A 
ATOM      6  C5  UNL d   1      -2.818   2.359  -5.210  0.00  0.00     0.003 A 
ATOM      7  I   UNL d   1      -1.115   5.985  -3.542  0.00  0.00    -0.146 I 
ENDROOT
TORSDOF 0
ENDMDL
