MODEL 1
REMARK minimizedAffinity 19.0318584
REMARK minimizedRMSD -1
REMARK  0 active torsions:
REMARK  status: ('A' for Active; 'I' for Inactive)
ROOT
ATOM      1  C   UNL d   1       3.722   1.082  -0.108  0.00  0.00     0.023 A 
ATOM      2  C1  UNL d   1       3.727  -0.285  -0.388  0.00  0.00     0.003 A 
ATOM      3  C2  UNL d   1       3.032  -0.775  -1.496  0.00  0.00     0.048 A 
ATOM      4  C3  UNL d   1       2.335   0.108  -2.321  0.00  0.00     0.023 A 
ATOM      5  C4  UNL d   1       2.328   1.476  -2.045  0.00  0.00     0.048 A 
ATOM      6  C5  UNL d   1       3.023   1.961  -0.936  0.00  0.00     0.003 A 
ATOM      7  I   UNL d   1       1.301  -0.619  -3.970  0.00  0.00    -0.146 I 
ENDROOT
TORSDOF 0
ENDMDL
