MODEL 1
REMARK minimizedAffinity 16.6311817
REMARK minimizedRMSD -1
REMARK  0 active torsions:
REMARK  status: ('A' for Active; 'I' for Inactive)
ROOT
ATOM      1  C   UNL d   1       1.269  -1.298  -2.723  0.00  0.00     0.023 A 
ATOM      2  C1  UNL d   1       1.547  -1.845  -1.470  0.00  0.00     0.003 A 
ATOM      3  C2  UNL d   1       1.982  -1.023  -0.429  0.00  0.00     0.048 A 
ATOM      4  C3  UNL d   1       2.136   0.346  -0.647  0.00  0.00     0.023 A 
ATOM      5  C4  UNL d   1       1.858   0.898  -1.899  0.00  0.00     0.048 A 
ATOM      6  C5  UNL d   1       1.425   0.072  -2.937  0.00  0.00     0.003 A 
ATOM      7  I   UNL d   1       2.783   1.572   0.902  0.00  0.00    -0.146 I 
ENDROOT
TORSDOF 0
ENDMDL
