MODEL 1
REMARK minimizedAffinity 14.8483
REMARK minimizedRMSD -1
REMARK  0 active torsions:
REMARK  status: ('A' for Active; 'I' for Inactive)
ROOT
ATOM      1  C   UNL d   1      -5.681   2.638   5.279  0.00  0.00     0.023 A 
ATOM      2  C1  UNL d   1      -5.678   2.055   4.012  0.00  0.00     0.003 A 
ATOM      3  C2  UNL d   1      -4.485   1.581   3.463  0.00  0.00     0.048 A 
ATOM      4  C3  UNL d   1      -3.299   1.692   4.187  0.00  0.00     0.023 A 
ATOM      5  C4  UNL d   1      -3.296   2.274   5.455  0.00  0.00     0.048 A 
ATOM      6  C5  UNL d   1      -4.491   2.748   6.000  0.00  0.00     0.003 A 
ATOM      7  I   UNL d   1      -1.522   0.987   3.371  0.00  0.00    -0.146 I 
ENDROOT
TORSDOF 0
ENDMDL
