MODEL 1
REMARK minimizedAffinity 17.2558098
REMARK minimizedRMSD -1
REMARK  0 active torsions:
REMARK  status: ('A' for Active; 'I' for Inactive)
ROOT
ATOM      1  C   UNL d   1      -4.869   3.741   5.442  0.00  0.00     0.023 A 
ATOM      2  C1  UNL d   1      -5.747   3.194   4.506  0.00  0.00     0.003 A 
ATOM      3  C2  UNL d   1      -5.621   1.857   4.125  0.00  0.00     0.048 A 
ATOM      4  C3  UNL d   1      -4.615   1.071   4.686  0.00  0.00     0.023 A 
ATOM      5  C4  UNL d   1      -3.734   1.613   5.624  0.00  0.00     0.048 A 
ATOM      6  C5  UNL d   1      -3.863   2.951   6.000  0.00  0.00     0.003 A 
ATOM      7  I   UNL d   1      -4.425  -0.921   4.122  0.00  0.00    -0.146 I 
ENDROOT
TORSDOF 0
ENDMDL
