MODEL 1
REMARK minimizedAffinity 19.4880886
REMARK minimizedRMSD -1
REMARK  0 active torsions:
REMARK  status: ('A' for Active; 'I' for Inactive)
ROOT
ATOM      1  C   UNL d   1      -4.867   3.409   5.624  0.00  0.00     0.023 A 
ATOM      2  C1  UNL d   1      -3.796   2.597   5.996  0.00  0.00     0.003 A 
ATOM      3  C2  UNL d   1      -3.659   1.322   5.442  0.00  0.00     0.048 A 
ATOM      4  C3  UNL d   1      -4.596   0.867   4.516  0.00  0.00     0.023 A 
ATOM      5  C4  UNL d   1      -5.669   1.676   4.139  0.00  0.00     0.048 A 
ATOM      6  C5  UNL d   1      -5.803   2.949   4.696  0.00  0.00     0.003 A 
ATOM      7  I   UNL d   1      -4.394  -1.030   3.690  0.00  0.00    -0.146 I 
ENDROOT
TORSDOF 0
ENDMDL
