MODEL 1
REMARK minimizedAffinity 1.61248577
REMARK minimizedRMSD -1
REMARK  0 active torsions:
REMARK  status: ('A' for Active; 'I' for Inactive)
ROOT
ATOM      1  C   UNL d   1       1.484  -2.216   1.879  0.00  0.00     0.078 C 
ATOM      2  C1  UNL d   1       1.730  -3.239   0.811  0.00  0.00    -0.077 A 
ATOM      3  C2  UNL d   1       1.451  -2.961  -0.533  0.00  0.00    -0.001 A 
ATOM      4  C3  UNL d   1       1.676  -3.926  -1.515  0.00  0.00     0.003 A 
ATOM      5  C4  UNL d   1       2.179  -5.178  -1.165  0.00  0.00    -0.005 A 
ATOM      6  C5  UNL d   1       2.457  -5.465   0.170  0.00  0.00     0.003 A 
ATOM      7  C6  UNL d   1       2.233  -4.501   1.154  0.00  0.00    -0.001 A 
ENDROOT
TORSDOF 0
ENDMDL
