MODEL 1
REMARK minimizedAffinity 4.4877696
REMARK minimizedRMSD -1
REMARK  0 active torsions:
REMARK  status: ('A' for Active; 'I' for Inactive)
ROOT
ATOM      1  C   UNL d   1       1.509  -3.023  -2.328  0.00  0.00     0.078 C 
ATOM      2  C1  UNL d   1       0.431  -2.445  -1.461  0.00  0.00    -0.077 A 
ATOM      3  C2  UNL d   1      -0.878  -2.302  -1.936  0.00  0.00    -0.001 A 
ATOM      4  C3  UNL d   1      -1.869  -1.753  -1.121  0.00  0.00     0.003 A 
ATOM      5  C4  UNL d   1      -1.561  -1.342   0.174  0.00  0.00    -0.005 A 
ATOM      6  C5  UNL d   1      -0.261  -1.478   0.655  0.00  0.00     0.003 A 
ATOM      7  C6  UNL d   1       0.732  -2.027  -0.158  0.00  0.00    -0.001 A 
ENDROOT
TORSDOF 0
ENDMDL
