MODEL 1
REMARK minimizedAffinity 3.20332313
REMARK minimizedRMSD -1
REMARK  0 active torsions:
REMARK  status: ('A' for Active; 'I' for Inactive)
ROOT
ATOM      1  C   UNL d   1      -2.256   1.210   0.755  0.00  0.00     0.078 C 
ATOM      2  C1  UNL d   1      -3.548   1.923   1.021  0.00  0.00    -0.077 A 
ATOM      3  C2  UNL d   1      -4.090   1.974   2.311  0.00  0.00    -0.001 A 
ATOM      4  C3  UNL d   1      -5.299   2.633   2.543  0.00  0.00     0.003 A 
ATOM      5  C4  UNL d   1      -5.976   3.245   1.489  0.00  0.00    -0.005 A 
ATOM      6  C5  UNL d   1      -5.445   3.197   0.202  0.00  0.00     0.003 A 
ATOM      7  C6  UNL d   1      -4.236   2.538  -0.032  0.00  0.00    -0.001 A 
ENDROOT
TORSDOF 0
ENDMDL
