MODEL 1
REMARK minimizedAffinity -1.3682003
REMARK minimizedRMSD -1
REMARK  1 active torsions:
REMARK  status: ('A' for Active; 'I' for Inactive)
REMARK    1  A    between atoms: C1_2  and  C2_3 
ROOT
ATOM      1  C2  UNL d   1      -0.081  -0.170  -0.009  0.00  0.00    -0.077 A 
ATOM      2  C3  UNL d   1       0.007  -1.102  -1.052  0.00  0.00     0.002 A 
ATOM      3  C4  UNL d   1       0.769  -0.821  -2.188  0.00  0.00     0.002 A 
ATOM      4  C5  UNL d   1       1.453   0.389  -2.288  0.00  0.00    -0.004 A 
ATOM      5  C6  UNL d   1       1.370   1.323  -1.256  0.00  0.00     0.002 A 
ATOM      6  C7  UNL d   1       0.608   1.045  -0.121  0.00  0.00     0.002 A 
ENDROOT
BRANCH   1   7
ATOM      7  C1  UNL d   1      -0.863  -0.491   1.238  0.00  0.00     0.055 C 
ATOM      8  C   UNL d   1      -2.270   0.085   1.173  0.00  0.00     0.019 C 
ENDBRANCH   1   7
TORSDOF 1
ENDMDL
