MODEL 1
REMARK minimizedAffinity -4.50366163
REMARK minimizedRMSD -1
REMARK  1 active torsions:
REMARK  status: ('A' for Active; 'I' for Inactive)
REMARK    1  A    between atoms: C1_2  and  C2_3 
ROOT
ATOM      1  C2  UNL d   1       0.724   0.268   0.082  0.00  0.00    -0.077 A 
ATOM      2  C3  UNL d   1       0.515  -1.070  -0.282  0.00  0.00     0.002 A 
ATOM      3  C4  UNL d   1       1.026  -1.561  -1.485  0.00  0.00     0.002 A 
ATOM      4  C5  UNL d   1       1.751  -0.724  -2.330  0.00  0.00    -0.004 A 
ATOM      5  C6  UNL d   1       1.962   0.608  -1.977  0.00  0.00     0.002 A 
ATOM      6  C7  UNL d   1       1.452   1.102  -0.776  0.00  0.00     0.002 A 
ENDROOT
BRANCH   1   7
ATOM      7  C1  UNL d   1       0.216   0.787   1.402  0.00  0.00     0.055 C 
ATOM      8  C   UNL d   1       1.364   1.170   2.325  0.00  0.00     0.019 C 
ENDBRANCH   1   7
TORSDOF 1
ENDMDL
