MODEL 1
REMARK minimizedAffinity -4.04970407
REMARK minimizedRMSD -1
REMARK  1 active torsions:
REMARK  status: ('A' for Active; 'I' for Inactive)
REMARK    1  A    between atoms: C1_2  and  C2_3 
ROOT
ATOM      1  C2  UNL d   1       1.018   1.199   1.743  0.00  0.00    -0.077 A 
ATOM      2  C3  UNL d   1       0.135   0.178   1.364  0.00  0.00     0.002 A 
ATOM      3  C4  UNL d   1      -0.225   0.018   0.024  0.00  0.00     0.002 A 
ATOM      4  C5  UNL d   1       0.297   0.871  -0.946  0.00  0.00    -0.004 A 
ATOM      5  C6  UNL d   1       1.174   1.890  -0.578  0.00  0.00     0.002 A 
ATOM      6  C7  UNL d   1       1.534   2.053   0.760  0.00  0.00     0.002 A 
ENDROOT
BRANCH   1   7
ATOM      7  C1  UNL d   1       1.446   1.343   3.181  0.00  0.00     0.055 C 
ATOM      8  C   UNL d   1       2.695   2.204   3.303  0.00  0.00     0.019 C 
ENDBRANCH   1   7
TORSDOF 1
ENDMDL
