MODEL 1
REMARK minimizedAffinity -0.668862283
REMARK minimizedRMSD -1
REMARK  1 active torsions:
REMARK  status: ('A' for Active; 'I' for Inactive)
REMARK    1  A    between atoms: C1_2  and  C2_3 
ROOT
ATOM      1  C2  UNL d   1      -2.179   0.181   1.566  0.00  0.00    -0.077 A 
ATOM      2  C3  UNL d   1      -3.302  -0.532   1.123  0.00  0.00     0.002 A 
ATOM      3  C4  UNL d   1      -4.581   0.013   1.254  0.00  0.00     0.002 A 
ATOM      4  C5  UNL d   1      -4.749   1.274   1.823  0.00  0.00    -0.004 A 
ATOM      5  C6  UNL d   1      -3.638   1.990   2.268  0.00  0.00     0.002 A 
ATOM      6  C7  UNL d   1      -2.359   1.446   2.139  0.00  0.00     0.002 A 
ENDROOT
BRANCH   1   7
ATOM      7  C1  UNL d   1      -0.795  -0.384   1.381  0.00  0.00     0.055 C 
ATOM      8  C   UNL d   1      -0.344  -0.280  -0.069  0.00  0.00     0.019 C 
ENDBRANCH   1   7
TORSDOF 1
ENDMDL
