MODEL 1
REMARK minimizedAffinity 1.15611756
REMARK minimizedRMSD -1
REMARK  1 active torsions:
REMARK  status: ('A' for Active; 'I' for Inactive)
REMARK    1  A    between atoms: C1_2  and  C2_3 
ROOT
ATOM      1  C2  UNL d   1      -1.997   0.120   1.006  0.00  0.00    -0.077 A 
ATOM      2  C3  UNL d   1      -2.331   1.242   1.776  0.00  0.00     0.002 A 
ATOM      3  C4  UNL d   1      -3.665   1.514   2.088  0.00  0.00     0.002 A 
ATOM      4  C5  UNL d   1      -4.674   0.666   1.637  0.00  0.00    -0.004 A 
ATOM      5  C6  UNL d   1      -4.352  -0.452   0.868  0.00  0.00     0.002 A 
ATOM      6  C7  UNL d   1      -3.020  -0.725   0.555  0.00  0.00     0.002 A 
ENDROOT
BRANCH   1   7
ATOM      7  C1  UNL d   1      -0.556  -0.202   0.710  0.00  0.00     0.055 C 
ATOM      8  C   UNL d   1      -0.325  -0.393  -0.782  0.00  0.00     0.019 C 
ENDBRANCH   1   7
TORSDOF 1
ENDMDL
