MODEL 1
REMARK minimizedAffinity -2.94368577
REMARK minimizedRMSD -1
REMARK  1 active torsions:
REMARK  status: ('A' for Active; 'I' for Inactive)
REMARK    1  A    between atoms: C1_2  and  C2_3 
ROOT
ATOM      1  C2  UNL d   1       0.553   0.234   0.339  0.00  0.00    -0.077 A 
ATOM      2  C3  UNL d   1       1.306   1.147  -0.412  0.00  0.00     0.002 A 
ATOM      3  C4  UNL d   1       1.736   0.818  -1.699  0.00  0.00     0.002 A 
ATOM      4  C5  UNL d   1       1.415  -0.422  -2.247  0.00  0.00    -0.004 A 
ATOM      5  C6  UNL d   1       0.669  -1.338  -1.507  0.00  0.00     0.002 A 
ATOM      6  C7  UNL d   1       0.239  -1.011  -0.221  0.00  0.00     0.002 A 
ENDROOT
BRANCH   1   7
ATOM      7  C1  UNL d   1       0.046   0.605   1.708  0.00  0.00     0.055 C 
ATOM      8  C   UNL d   1       1.186   1.015   2.628  0.00  0.00     0.019 C 
ENDBRANCH   1   7
TORSDOF 1
ENDMDL
