MODEL 1
REMARK minimizedAffinity -3.36553502
REMARK minimizedRMSD -1
REMARK  1 active torsions:
REMARK  status: ('A' for Active; 'I' for Inactive)
REMARK    1  A    between atoms: C1_2  and  C2_3 
ROOT
ATOM      1  C2  UNL d   1      -0.123   0.784   3.272  0.00  0.00    -0.077 A 
ATOM      2  C3  UNL d   1      -1.296   1.362   3.778  0.00  0.00     0.002 A 
ATOM      3  C4  UNL d   1      -2.523   1.129   3.155  0.00  0.00     0.002 A 
ATOM      4  C5  UNL d   1      -2.590   0.315   2.026  0.00  0.00    -0.004 A 
ATOM      5  C6  UNL d   1      -1.429  -0.262   1.514  0.00  0.00     0.002 A 
ATOM      6  C7  UNL d   1      -0.201  -0.030   2.134  0.00  0.00     0.002 A 
ENDROOT
BRANCH   1   7
ATOM      7  C1  UNL d   1       1.195   0.994   3.971  0.00  0.00     0.055 C 
ATOM      8  C   UNL d   1       2.014   2.083   3.293  0.00  0.00     0.019 C 
ENDBRANCH   1   7
TORSDOF 1
ENDMDL
