MODEL 1
REMARK minimizedAffinity -4.30011415
REMARK minimizedRMSD -1
REMARK  1 active torsions:
REMARK  status: ('A' for Active; 'I' for Inactive)
REMARK    1  A    between atoms: C1_2  and  C2_3 
ROOT
ATOM      1  C2  UNL d   1       0.619  -0.091  -1.516  0.00  0.00    -0.077 A 
ATOM      2  C3  UNL d   1       0.669   0.838  -0.467  0.00  0.00     0.002 A 
ATOM      3  C4  UNL d   1       0.579   0.411   0.859  0.00  0.00     0.002 A 
ATOM      4  C5  UNL d   1       0.445  -0.945   1.148  0.00  0.00    -0.004 A 
ATOM      5  C6  UNL d   1       0.392  -1.877   0.112  0.00  0.00     0.002 A 
ATOM      6  C7  UNL d   1       0.480  -1.452  -1.214  0.00  0.00     0.002 A 
ENDROOT
BRANCH   1   7
ATOM      7  C1  UNL d   1       0.765   0.363  -2.946  0.00  0.00     0.055 C 
ATOM      8  C   UNL d   1       2.196   0.198  -3.436  0.00  0.00     0.019 C 
ENDBRANCH   1   7
TORSDOF 1
ENDMDL
