MODEL 1
REMARK minimizedAffinity -0.260633349
REMARK minimizedRMSD -1
REMARK  1 active torsions:
REMARK  status: ('A' for Active; 'I' for Inactive)
REMARK    1  A    between atoms: C1_2  and  C2_3 
ROOT
ATOM      1  C2  UNL d   1       3.578   4.766  -4.531  0.00  0.00    -0.077 A 
ATOM      2  C3  UNL d   1       3.917   5.926  -5.242  0.00  0.00     0.002 A 
ATOM      3  C4  UNL d   1       5.124   6.000  -5.940  0.00  0.00     0.002 A 
ATOM      4  C5  UNL d   1       6.000   4.916  -5.937  0.00  0.00    -0.004 A 
ATOM      5  C6  UNL d   1       5.673   3.758  -5.232  0.00  0.00     0.002 A 
ATOM      6  C7  UNL d   1       4.467   3.683  -4.533  0.00  0.00     0.002 A 
ENDROOT
BRANCH   1   7
ATOM      7  C1  UNL d   1       2.255   4.666  -3.819  0.00  0.00     0.055 C 
ATOM      8  C   UNL d   1       2.163   3.387  -2.999  0.00  0.00     0.019 C 
ENDBRANCH   1   7
TORSDOF 1
ENDMDL
