MODEL 1
REMARK minimizedAffinity 5.64305544
REMARK minimizedRMSD -1
REMARK  1 active torsions:
REMARK  status: ('A' for Active; 'I' for Inactive)
REMARK    1  A    between atoms: C1_2  and  C2_3 
ROOT
ATOM      1  C2  UNL d   1      -3.440  -4.718  -2.410  0.00  0.00    -0.077 A 
ATOM      2  C3  UNL d   1      -4.299  -3.622  -2.250  0.00  0.00     0.002 A 
ATOM      3  C4  UNL d   1      -5.506  -3.563  -2.949  0.00  0.00     0.002 A 
ATOM      4  C5  UNL d   1      -5.867  -4.599  -3.807  0.00  0.00    -0.004 A 
ATOM      5  C6  UNL d   1      -5.019  -5.693  -3.974  0.00  0.00     0.002 A 
ATOM      6  C7  UNL d   1      -3.811  -5.753  -3.278  0.00  0.00     0.002 A 
ENDROOT
BRANCH   1   7
ATOM      7  C1  UNL d   1      -2.160  -4.807  -1.620  0.00  0.00     0.055 C 
ATOM      8  C   UNL d   1      -2.120  -3.764  -0.512  0.00  0.00     0.019 C 
ENDBRANCH   1   7
TORSDOF 1
ENDMDL
