MODEL 1
REMARK minimizedAffinity 8.37050247
REMARK minimizedRMSD -1
REMARK  1 active torsions:
REMARK  status: ('A' for Active; 'I' for Inactive)
REMARK    1  A    between atoms: C1_2  and  C2_3 
ROOT
ATOM      1  C2  UNL d   1      -0.866   2.178   2.628  0.00  0.00    -0.077 A 
ATOM      2  C3  UNL d   1      -0.338   3.116   1.730  0.00  0.00     0.002 A 
ATOM      3  C4  UNL d   1       0.879   2.874   1.090  0.00  0.00     0.002 A 
ATOM      4  C5  UNL d   1       1.577   1.693   1.339  0.00  0.00    -0.004 A 
ATOM      5  C6  UNL d   1       1.061   0.755   2.233  0.00  0.00     0.002 A 
ATOM      6  C7  UNL d   1      -0.155   0.996   2.874  0.00  0.00     0.002 A 
ENDROOT
BRANCH   1   7
ATOM      7  C1  UNL d   1      -2.203   2.415   3.281  0.00  0.00     0.055 C 
ATOM      8  C   UNL d   1      -3.201   1.328   2.908  0.00  0.00     0.019 C 
ENDBRANCH   1   7
TORSDOF 1
ENDMDL
