MODEL 1
REMARK minimizedAffinity 2.6011641
REMARK minimizedRMSD -1
REMARK  1 active torsions:
REMARK  status: ('A' for Active; 'I' for Inactive)
REMARK    1  A    between atoms: C1_2  and  C2_3 
ROOT
ATOM      1  C2  UNL d   1       1.974   1.329  -1.093  0.00  0.00    -0.077 A 
ATOM      2  C3  UNL d   1       2.978   0.387  -1.356  0.00  0.00     0.002 A 
ATOM      3  C4  UNL d   1       3.820  -0.052  -0.333  0.00  0.00     0.002 A 
ATOM      4  C5  UNL d   1       3.665   0.444   0.960  0.00  0.00    -0.004 A 
ATOM      5  C6  UNL d   1       2.671   1.383   1.231  0.00  0.00     0.002 A 
ATOM      6  C7  UNL d   1       1.828   1.823   0.209  0.00  0.00     0.002 A 
ENDROOT
BRANCH   1   7
ATOM      7  C1  UNL d   1       1.032   1.766  -2.185  0.00  0.00     0.055 C 
ATOM      8  C   UNL d   1       0.282   0.582  -2.776  0.00  0.00     0.019 C 
ENDBRANCH   1   7
TORSDOF 1
ENDMDL
