MODEL 1
REMARK minimizedAffinity -1.73601913
REMARK minimizedRMSD -1
REMARK  1 active torsions:
REMARK  status: ('A' for Active; 'I' for Inactive)
REMARK    1  A    between atoms: C1_2  and  C2_3 
ROOT
ATOM      1  C2  UNL d   1      -5.312   0.582   5.158  0.00  0.00    -0.077 A 
ATOM      2  C3  UNL d   1      -5.143   0.439   3.774  0.00  0.00     0.002 A 
ATOM      3  C4  UNL d   1      -4.466   1.416   3.040  0.00  0.00     0.002 A 
ATOM      4  C5  UNL d   1      -3.950   2.539   3.683  0.00  0.00    -0.004 A 
ATOM      5  C6  UNL d   1      -4.115   2.692   5.059  0.00  0.00     0.002 A 
ATOM      6  C7  UNL d   1      -4.792   1.718   5.793  0.00  0.00     0.002 A 
ENDROOT
BRANCH   1   7
ATOM      7  C1  UNL d   1      -5.998  -0.493   5.959  0.00  0.00     0.055 C 
ATOM      8  C   UNL d   1      -5.998  -1.822   5.216  0.00  0.00     0.019 C 
ENDBRANCH   1   7
TORSDOF 1
ENDMDL
