MODEL 1
REMARK minimizedAffinity 0.427257717
REMARK minimizedRMSD -1
REMARK  1 active torsions:
REMARK  status: ('A' for Active; 'I' for Inactive)
REMARK    1  A    between atoms: C1_2  and  C2_3 
ROOT
ATOM      1  C2  UNL d   1      -1.874  -4.220  -1.036  0.00  0.00    -0.077 A 
ATOM      2  C3  UNL d   1      -2.298  -2.884  -1.071  0.00  0.00     0.002 A 
ATOM      3  C4  UNL d   1      -1.598  -1.902  -0.368  0.00  0.00     0.002 A 
ATOM      4  C5  UNL d   1      -0.467  -2.244   0.371  0.00  0.00    -0.004 A 
ATOM      5  C6  UNL d   1      -0.038  -3.570   0.413  0.00  0.00     0.002 A 
ATOM      6  C7  UNL d   1      -0.737  -4.553  -0.288  0.00  0.00     0.002 A 
ENDROOT
BRANCH   1   7
ATOM      7  C1  UNL d   1      -2.599  -5.272  -1.834  0.00  0.00     0.055 C 
ATOM      8  C   UNL d   1      -1.719  -5.831  -2.943  0.00  0.00     0.019 C 
ENDBRANCH   1   7
TORSDOF 1
ENDMDL
