MODEL 1
REMARK minimizedAffinity 6.67656803
REMARK minimizedRMSD -1
REMARK  1 active torsions:
REMARK  status: ('A' for Active; 'I' for Inactive)
REMARK    1  A    between atoms: C1_2  and  C2_3 
ROOT
ATOM      1  C2  UNL d   1       1.707   0.477  -1.860  0.00  0.00    -0.077 A 
ATOM      2  C3  UNL d   1       0.736  -0.329  -2.471  0.00  0.00     0.002 A 
ATOM      3  C4  UNL d   1      -0.121   0.206  -3.435  0.00  0.00     0.002 A 
ATOM      4  C5  UNL d   1      -0.014   1.547  -3.798  0.00  0.00    -0.004 A 
ATOM      5  C6  UNL d   1       0.947   2.357  -3.195  0.00  0.00     0.002 A 
ATOM      6  C7  UNL d   1       1.804   1.824  -2.231  0.00  0.00     0.002 A 
ENDROOT
BRANCH   1   7
ATOM      7  C1  UNL d   1       2.665  -0.110  -0.857  0.00  0.00     0.055 C 
ATOM      8  C   UNL d   1       4.054  -0.284  -1.454  0.00  0.00     0.019 C 
ENDBRANCH   1   7
TORSDOF 1
ENDMDL
