MODEL 1
REMARK minimizedAffinity -0.85885632
REMARK minimizedRMSD -1
REMARK  1 active torsions:
REMARK  status: ('A' for Active; 'I' for Inactive)
REMARK    1  A    between atoms: C1_2  and  C2_3 
ROOT
ATOM      1  C2  UNL d   1       1.124   0.600   1.511  0.00  0.00    -0.077 A 
ATOM      2  C3  UNL d   1       0.253  -0.316   2.116  0.00  0.00     0.002 A 
ATOM      3  C4  UNL d   1       0.114  -1.606   1.599  0.00  0.00     0.002 A 
ATOM      4  C5  UNL d   1       0.846  -1.991   0.478  0.00  0.00    -0.004 A 
ATOM      5  C6  UNL d   1       1.714  -1.086  -0.132  0.00  0.00     0.002 A 
ATOM      6  C7  UNL d   1       1.853   0.203   0.383  0.00  0.00     0.002 A 
ENDROOT
BRANCH   1   7
ATOM      7  C1  UNL d   1       1.313   1.975   2.097  0.00  0.00     0.055 C 
ATOM      8  C   UNL d   1       0.115   2.868   1.809  0.00  0.00     0.019 C 
ENDBRANCH   1   7
TORSDOF 1
ENDMDL
