MODEL 1
REMARK minimizedAffinity 3.36662006
REMARK minimizedRMSD -1
REMARK  1 active torsions:
REMARK  status: ('A' for Active; 'I' for Inactive)
REMARK    1  A    between atoms: C1_2  and  C2_3 
ROOT
ATOM      1  C2  UNL d   1       1.018   0.169  -0.021  0.00  0.00    -0.077 A 
ATOM      2  C3  UNL d   1       0.867   0.627   1.296  0.00  0.00     0.002 A 
ATOM      3  C4  UNL d   1       1.611   1.715   1.755  0.00  0.00     0.002 A 
ATOM      4  C5  UNL d   1       2.508   2.357   0.904  0.00  0.00    -0.004 A 
ATOM      5  C6  UNL d   1       2.667   1.908  -0.406  0.00  0.00     0.002 A 
ATOM      6  C7  UNL d   1       1.925   0.820  -0.867  0.00  0.00     0.002 A 
ENDROOT
BRANCH   1   7
ATOM      7  C1  UNL d   1       0.181  -0.973  -0.534  0.00  0.00     0.055 C 
ATOM      8  C   UNL d   1      -0.727  -1.526   0.556  0.00  0.00     0.019 C 
ENDBRANCH   1   7
TORSDOF 1
ENDMDL
