MODEL 1
REMARK minimizedAffinity 8.59131336
REMARK minimizedRMSD -1
REMARK  1 active torsions:
REMARK  status: ('A' for Active; 'I' for Inactive)
REMARK    1  A    between atoms: C1_2  and  C2_3 
ROOT
ATOM      1  C2  UNL d   1      -3.200  -5.377  -3.376  0.00  0.00    -0.077 A 
ATOM      2  C3  UNL d   1      -3.245  -4.190  -2.631  0.00  0.00     0.002 A 
ATOM      3  C4  UNL d   1      -4.471  -3.638  -2.255  0.00  0.00     0.002 A 
ATOM      4  C5  UNL d   1      -5.661  -4.268  -2.617  0.00  0.00    -0.004 A 
ATOM      5  C6  UNL d   1      -5.626  -5.447  -3.360  0.00  0.00     0.002 A 
ATOM      6  C7  UNL d   1      -4.401  -6.000  -3.737  0.00  0.00     0.002 A 
ENDROOT
BRANCH   1   7
ATOM      7  C1  UNL d   1      -1.877  -6.000  -3.740  0.00  0.00     0.055 C 
ATOM      8  C   UNL d   1      -0.995  -5.021  -4.501  0.00  0.00     0.019 C 
ENDBRANCH   1   7
TORSDOF 1
ENDMDL
