MODEL 1
REMARK minimizedAffinity 1.77844441
REMARK minimizedRMSD -1
REMARK  1 active torsions:
REMARK  status: ('A' for Active; 'I' for Inactive)
REMARK    1  A    between atoms: C1_2  and  C2_3 
ROOT
ATOM      1  C2  UNL d   1       1.247   0.494   0.999  0.00  0.00    -0.077 A 
ATOM      2  C3  UNL d   1      -0.138   0.495   1.217  0.00  0.00     0.002 A 
ATOM      3  C4  UNL d   1      -0.724   1.464   2.033  0.00  0.00     0.002 A 
ATOM      4  C5  UNL d   1       0.066   2.441   2.634  0.00  0.00    -0.004 A 
ATOM      5  C6  UNL d   1       1.444   2.448   2.426  0.00  0.00     0.002 A 
ATOM      6  C7  UNL d   1       2.032   1.479   1.611  0.00  0.00     0.002 A 
ENDROOT
BRANCH   1   7
ATOM      7  C1  UNL d   1       1.875  -0.521   0.080  0.00  0.00     0.055 C 
ATOM      8  C   UNL d   1       2.187   0.083  -1.281  0.00  0.00     0.019 C 
ENDBRANCH   1   7
TORSDOF 1
ENDMDL
