MODEL 1
REMARK minimizedAffinity 0.146108121
REMARK minimizedRMSD -1
REMARK  1 active torsions:
REMARK  status: ('A' for Active; 'I' for Inactive)
REMARK    1  A    between atoms: C1_2  and  C2_3 
ROOT
ATOM      1  C2  UNL d   1      -2.850  -5.122  -1.902  0.00  0.00    -0.077 A 
ATOM      2  C3  UNL d   1      -3.196  -4.753  -0.594  0.00  0.00     0.002 A 
ATOM      3  C4  UNL d   1      -2.323  -5.005   0.465  0.00  0.00     0.002 A 
ATOM      4  C5  UNL d   1      -1.097  -5.623   0.228  0.00  0.00    -0.004 A 
ATOM      5  C6  UNL d   1      -0.744  -5.996  -1.069  0.00  0.00     0.002 A 
ATOM      6  C7  UNL d   1      -1.617  -5.746  -2.129  0.00  0.00     0.002 A 
ENDROOT
BRANCH   1   7
ATOM      7  C1  UNL d   1      -3.770  -4.807  -3.053  0.00  0.00     0.055 C 
ATOM      8  C   UNL d   1      -5.145  -5.427  -2.849  0.00  0.00     0.019 C 
ENDBRANCH   1   7
TORSDOF 1
ENDMDL
