MODEL 1
REMARK minimizedAffinity 6.46659517
REMARK minimizedRMSD -1
REMARK  1 active torsions:
REMARK  status: ('A' for Active; 'I' for Inactive)
REMARK    1  A    between atoms: C1_2  and  C2_3 
ROOT
ATOM      1  C2  UNL d   1       0.056  -0.433  -2.743  0.00  0.00    -0.077 A 
ATOM      2  C3  UNL d   1       0.891  -0.634  -1.634  0.00  0.00     0.002 A 
ATOM      3  C4  UNL d   1       1.665   0.415  -1.134  0.00  0.00     0.002 A 
ATOM      4  C5  UNL d   1       1.609   1.672  -1.733  0.00  0.00    -0.004 A 
ATOM      5  C6  UNL d   1       0.783   1.881  -2.837  0.00  0.00     0.002 A 
ATOM      6  C7  UNL d   1       0.010   0.834  -3.339  0.00  0.00     0.002 A 
ENDROOT
BRANCH   1   7
ATOM      7  C1  UNL d   1      -0.817  -1.549  -3.253  0.00  0.00     0.055 C 
ATOM      8  C   UNL d   1      -2.065  -1.711  -2.398  0.00  0.00     0.019 C 
ENDBRANCH   1   7
TORSDOF 1
ENDMDL
