MODEL 1
REMARK minimizedAffinity 1.81890941
REMARK minimizedRMSD -1
REMARK  1 active torsions:
REMARK  status: ('A' for Active; 'I' for Inactive)
REMARK    1  A    between atoms: C1_2  and  C2_3 
ROOT
ATOM      1  C2  UNL d   1       0.473  -0.016  -0.822  0.00  0.00    -0.077 A 
ATOM      2  C3  UNL d   1       0.983   0.844   0.162  0.00  0.00     0.002 A 
ATOM      3  C4  UNL d   1       0.774   0.571   1.515  0.00  0.00     0.002 A 
ATOM      4  C5  UNL d   1       0.060  -0.562   1.897  0.00  0.00    -0.004 A 
ATOM      5  C6  UNL d   1      -0.453  -1.422   0.927  0.00  0.00     0.002 A 
ATOM      6  C7  UNL d   1      -0.246  -1.151  -0.426  0.00  0.00     0.002 A 
ENDROOT
BRANCH   1   7
ATOM      7  C1  UNL d   1       0.739   0.250  -2.280  0.00  0.00     0.055 C 
ATOM      8  C   UNL d   1      -0.041   1.460  -2.774  0.00  0.00     0.019 C 
ENDBRANCH   1   7
TORSDOF 1
ENDMDL
