MODEL 1
REMARK minimizedAffinity 1.43541491
REMARK minimizedRMSD -1
REMARK  1 active torsions:
REMARK  status: ('A' for Active; 'I' for Inactive)
REMARK    1  A    between atoms: C1_2  and  C2_3 
ROOT
ATOM      1  C2  UNL d   1       2.171   0.892   0.816  0.00  0.00    -0.077 A 
ATOM      2  C3  UNL d   1       0.773   0.817   0.750  0.00  0.00     0.002 A 
ATOM      3  C4  UNL d   1      -0.010   1.291   1.805  0.00  0.00     0.002 A 
ATOM      4  C5  UNL d   1       0.596   1.846   2.930  0.00  0.00    -0.004 A 
ATOM      5  C6  UNL d   1       1.986   1.924   3.005  0.00  0.00     0.002 A 
ATOM      6  C7  UNL d   1       2.770   1.449   1.953  0.00  0.00     0.002 A 
ENDROOT
BRANCH   1   7
ATOM      7  C1  UNL d   1       3.016   0.426  -0.341  0.00  0.00     0.055 C 
ATOM      8  C   UNL d   1       2.175  -0.295  -1.385  0.00  0.00     0.019 C 
ENDBRANCH   1   7
TORSDOF 1
ENDMDL
