MODEL 1
REMARK minimizedAffinity 4.2362175
REMARK minimizedRMSD -1
REMARK  0 active torsions:
REMARK  status: ('A' for Active; 'I' for Inactive)
ROOT
ATOM      1  C4' PXY d   1       0.059  -2.214   5.999  0.00  0.00     0.077 C 
ATOM      2  C1' PXY d   1       3.249  -1.868   1.191  0.00  0.00     0.077 C 
ATOM      3  C1  PXY d   1       2.412  -1.945   2.452  0.00  0.00    -0.082 A 
ATOM      4  C2  PXY d   1       2.499  -3.012   3.230  0.00  0.00     0.003 A 
ATOM      5  C3  PXY d   1       1.725  -3.113   4.358  0.00  0.00     0.003 A 
ATOM      6  C4  PXY d   1       0.892  -2.088   4.721  0.00  0.00    -0.082 A 
ATOM      7  C5  PXY d   1       0.805  -0.992   3.937  0.00  0.00     0.003 A 
ATOM      8  C6  PXY d   1       1.569  -0.927   2.775  0.00  0.00     0.003 A 
ENDROOT
TORSDOF 0
ENDMDL
