MODEL 1
REMARK minimizedAffinity 10.2328968
REMARK minimizedRMSD -1
REMARK  0 active torsions:
REMARK  status: ('A' for Active; 'I' for Inactive)
ROOT
ATOM      1  C4' PXY d   1       0.918  -0.034   2.501  0.00  0.00     0.077 C 
ATOM      2  C1' PXY d   1      -3.526  -0.282  -1.188  0.00  0.00     0.077 C 
ATOM      3  C1  PXY d   1      -2.354  -0.208  -0.228  0.00  0.00    -0.082 A 
ATOM      4  C2  PXY d   1      -2.100  -1.230   0.574  0.00  0.00     0.003 A 
ATOM      5  C3  PXY d   1      -1.064  -1.167   1.470  0.00  0.00     0.003 A 
ATOM      6  C4  PXY d   1      -0.248  -0.068   1.509  0.00  0.00    -0.082 A 
ATOM      7  C5  PXY d   1      -0.495   0.974   0.687  0.00  0.00     0.003 A 
ATOM      8  C6  PXY d   1      -1.576   0.907  -0.187  0.00  0.00     0.003 A 
ENDROOT
TORSDOF 0
ENDMDL
