MODEL 1
REMARK minimizedAffinity 0.475751787
REMARK minimizedRMSD -1
REMARK  0 active torsions:
REMARK  status: ('A' for Active; 'I' for Inactive)
ROOT
ATOM      1  C4' PXY d   1      -0.292   0.415   1.019  0.00  0.00     0.077 C 
ATOM      2  C1' PXY d   1      -2.891  -4.597  -0.223  0.00  0.00     0.077 C 
ATOM      3  C1  PXY d   1      -2.220  -3.276   0.098  0.00  0.00    -0.082 A 
ATOM      4  C2  PXY d   1      -0.905  -3.228   0.238  0.00  0.00     0.003 A 
ATOM      5  C3  PXY d   1      -0.284  -2.048   0.559  0.00  0.00     0.003 A 
ATOM      6  C4  PXY d   1      -1.012  -0.895   0.686  0.00  0.00    -0.082 A 
ATOM      7  C5  PXY d   1      -2.352  -0.934   0.535  0.00  0.00     0.003 A 
ATOM      8  C6  PXY d   1      -2.968  -2.149   0.249  0.00  0.00     0.003 A 
ENDROOT
TORSDOF 0
ENDMDL
