MODEL 1
REMARK minimizedAffinity 17.9347382
REMARK minimizedRMSD -1
REMARK  0 active torsions:
REMARK  status: ('A' for Active; 'I' for Inactive)
ROOT
ATOM      1  C4' PXY d   1       0.371  -4.177  -0.547  0.00  0.00     0.077 C 
ATOM      2  C1' PXY d   1       1.021   0.372   2.960  0.00  0.00     0.077 C 
ATOM      3  C1  PXY d   1       0.864  -0.822   2.039  0.00  0.00    -0.082 A 
ATOM      4  C2  PXY d   1      -0.258  -0.977   1.355  0.00  0.00     0.003 A 
ATOM      5  C3  PXY d   1      -0.430  -2.067   0.542  0.00  0.00     0.003 A 
ATOM      6  C4  PXY d   1       0.578  -2.982   0.387  0.00  0.00    -0.082 A 
ATOM      7  C5  PXY d   1       1.729  -2.825   1.074  0.00  0.00     0.003 A 
ATOM      8  C6  PXY d   1       1.868  -1.733   1.926  0.00  0.00     0.003 A 
ENDROOT
TORSDOF 0
ENDMDL
