MODEL 1
REMARK minimizedAffinity 4.62901831
REMARK minimizedRMSD -1
REMARK  0 active torsions:
REMARK  status: ('A' for Active; 'I' for Inactive)
ROOT
ATOM      1  C4' PXY d   1       2.491  -3.054   6.000  0.00  0.00     0.077 C 
ATOM      2  C1' PXY d   1       0.943  -0.214   1.208  0.00  0.00     0.077 C 
ATOM      3  C1  PXY d   1       1.349  -0.947   2.471  0.00  0.00    -0.082 A 
ATOM      4  C2  PXY d   1       1.949  -2.123   2.381  0.00  0.00     0.003 A 
ATOM      5  C3  PXY d   1       2.294  -2.815   3.513  0.00  0.00     0.003 A 
ATOM      6  C4  PXY d   1       2.072  -2.273   4.751  0.00  0.00    -0.082 A 
ATOM      7  C5  PXY d   1       1.470  -1.069   4.851  0.00  0.00     0.003 A 
ATOM      8  C6  PXY d   1       1.090  -0.402   3.691  0.00  0.00     0.003 A 
ENDROOT
TORSDOF 0
ENDMDL
