MODEL 1
REMARK minimizedAffinity 4.40859747
REMARK minimizedRMSD -1
REMARK  0 active torsions:
REMARK  status: ('A' for Active; 'I' for Inactive)
ROOT
ATOM      1  C4' PXY d   1       2.990  -2.505   0.592  0.00  0.00     0.077 C 
ATOM      2  C1' PXY d   1       1.123  -1.674   5.999  0.00  0.00     0.077 C 
ATOM      3  C1  PXY d   1       1.604  -1.884   4.577  0.00  0.00    -0.082 A 
ATOM      4  C2  PXY d   1       2.250  -2.995   4.262  0.00  0.00     0.003 A 
ATOM      5  C3  PXY d   1       2.719  -3.187   2.988  0.00  0.00     0.003 A 
ATOM      6  C4  PXY d   1       2.479  -2.255   2.014  0.00  0.00    -0.082 A 
ATOM      7  C5  PXY d   1       1.811  -1.124   2.325  0.00  0.00     0.003 A 
ATOM      8  C6  PXY d   1       1.379  -0.930   3.633  0.00  0.00     0.003 A 
ENDROOT
TORSDOF 0
ENDMDL
