MODEL 1
REMARK minimizedAffinity 7.86534119
REMARK minimizedRMSD -1
REMARK  0 active torsions:
REMARK  status: ('A' for Active; 'I' for Inactive)
ROOT
ATOM      1  C4' PXY d   1       3.113  -4.503   3.554  0.00  0.00     0.077 C 
ATOM      2  C1' PXY d   1       1.199   0.903   4.286  0.00  0.00     0.077 C 
ATOM      3  C1  PXY d   1       1.697  -0.515   4.082  0.00  0.00    -0.082 A 
ATOM      4  C2  PXY d   1       1.825  -1.319   5.124  0.00  0.00     0.003 A 
ATOM      5  C3  PXY d   1       2.304  -2.594   4.961  0.00  0.00     0.003 A 
ATOM      6  C4  PXY d   1       2.605  -3.067   3.712  0.00  0.00    -0.082 A 
ATOM      7  C5  PXY d   1       2.467  -2.255   2.642  0.00  0.00     0.003 A 
ATOM      8  C6  PXY d   1       2.018  -0.952   2.834  0.00  0.00     0.003 A 
ENDROOT
TORSDOF 0
ENDMDL
