MODEL 1
REMARK minimizedAffinity 10.0845718
REMARK minimizedRMSD -1
REMARK  0 active torsions:
REMARK  status: ('A' for Active; 'I' for Inactive)
ROOT
ATOM      1  C4' PXY d   1       1.037  -0.559   1.752  0.00  0.00     0.077 C 
ATOM      2  C1' PXY d   1      -3.563   2.034  -0.600  0.00  0.00     0.077 C 
ATOM      3  C1  PXY d   1      -2.349   1.362   0.010  0.00  0.00    -0.082 A 
ATOM      4  C2  PXY d   1      -2.448   0.126   0.471  0.00  0.00     0.003 A 
ATOM      5  C3  PXY d   1      -1.369  -0.485   1.055  0.00  0.00     0.003 A 
ATOM      6  C4  PXY d   1      -0.160   0.156   1.119  0.00  0.00    -0.082 A 
ATOM      7  C5  PXY d   1      -0.048   1.413   0.641  0.00  0.00     0.003 A 
ATOM      8  C6  PXY d   1      -1.167   2.031   0.089  0.00  0.00     0.003 A 
ENDROOT
TORSDOF 0
ENDMDL
