MODEL 1
REMARK minimizedAffinity 5.52282143
REMARK minimizedRMSD -1
REMARK  0 active torsions:
REMARK  status: ('A' for Active; 'I' for Inactive)
ROOT
ATOM      1  C4' PXY d   1      -1.830   2.368  -0.005  0.00  0.00     0.077 C 
ATOM      2  C1' PXY d   1      -2.642  -3.353  -0.175  0.00  0.00     0.077 C 
ATOM      3  C1  PXY d   1      -2.430  -1.852  -0.143  0.00  0.00    -0.082 A 
ATOM      4  C2  PXY d   1      -1.807  -1.301   0.886  0.00  0.00     0.003 A 
ATOM      5  C3  PXY d   1      -1.635   0.058   0.946  0.00  0.00     0.003 A 
ATOM      6  C4  PXY d   1      -2.058   0.856  -0.084  0.00  0.00    -0.082 A 
ATOM      7  C5  PXY d   1      -2.684   0.300  -1.142  0.00  0.00     0.003 A 
ATOM      8  C6  PXY d   1      -2.886  -1.077  -1.165  0.00  0.00     0.003 A 
ENDROOT
TORSDOF 0
ENDMDL
