MODEL 1
REMARK minimizedAffinity -1.49963367
REMARK minimizedRMSD -1
REMARK  0 active torsions:
REMARK  status: ('A' for Active; 'I' for Inactive)
ROOT
ATOM      1  C4' PXY d   1       1.458  -1.671   2.744  0.00  0.00     0.077 C 
ATOM      2  C1' PXY d   1      -2.977  -2.253  -0.919  0.00  0.00     0.077 C 
ATOM      3  C1  PXY d   1      -1.812  -2.088   0.037  0.00  0.00    -0.082 A 
ATOM      4  C2  PXY d   1      -1.170  -3.158   0.476  0.00  0.00     0.003 A 
ATOM      5  C3  PXY d   1      -0.135  -3.030   1.366  0.00  0.00     0.003 A 
ATOM      6  C4  PXY d   1       0.282  -1.789   1.770  0.00  0.00    -0.082 A 
ATOM      7  C5  PXY d   1      -0.361  -0.692   1.318  0.00  0.00     0.003 A 
ATOM      8  C6  PXY d   1      -1.436  -0.846   0.447  0.00  0.00     0.003 A 
ENDROOT
TORSDOF 0
ENDMDL
