MODEL 1
REMARK minimizedAffinity 2.82607508
REMARK minimizedRMSD -1
REMARK  0 active torsions:
REMARK  status: ('A' for Active; 'I' for Inactive)
ROOT
ATOM      1  C4' PXY d   1       2.508  -5.344   3.086  0.00  0.00     0.077 C 
ATOM      2  C1' PXY d   1       0.869   0.148   2.333  0.00  0.00     0.077 C 
ATOM      3  C1  PXY d   1       1.301  -1.289   2.543  0.00  0.00    -0.082 A 
ATOM      4  C2  PXY d   1       1.709  -2.007   1.509  0.00  0.00     0.003 A 
ATOM      5  C3  PXY d   1       2.073  -3.319   1.676  0.00  0.00     0.003 A 
ATOM      6  C4  PXY d   1       2.071  -3.885   2.922  0.00  0.00    -0.082 A 
ATOM      7  C5  PXY d   1       1.666  -3.156   3.983  0.00  0.00     0.003 A 
ATOM      8  C6  PXY d   1       1.261  -1.839   3.787  0.00  0.00     0.003 A 
ENDROOT
TORSDOF 0
ENDMDL
