MODEL 1
REMARK minimizedAffinity 14.0842667
REMARK minimizedRMSD -1
REMARK  0 active torsions:
REMARK  status: ('A' for Active; 'I' for Inactive)
ROOT
ATOM      1  C4' PXY d   1       0.822   4.776   0.774  0.00  0.00     0.077 C 
ATOM      2  C1' PXY d   1       5.998   6.000  -1.490  0.00  0.00     0.077 C 
ATOM      3  C1  PXY d   1       4.647   5.671  -0.888  0.00  0.00    -0.082 A 
ATOM      4  C2  PXY d   1       3.554   5.796  -1.624  0.00  0.00     0.003 A 
ATOM      5  C3  PXY d   1       2.321   5.534  -1.085  0.00  0.00     0.003 A 
ATOM      6  C4  PXY d   1       2.209   5.088   0.204  0.00  0.00    -0.082 A 
ATOM      7  C5  PXY d   1       3.319   4.948   0.959  0.00  0.00     0.003 A 
ATOM      8  C6  PXY d   1       4.558   5.259   0.406  0.00  0.00     0.003 A 
ENDROOT
TORSDOF 0
ENDMDL
