MODEL 1
REMARK minimizedAffinity -3.59492922
REMARK minimizedRMSD -1
REMARK  1 active torsions:
REMARK  status: ('A' for Active; 'I' for Inactive)
REMARK    1  A    between atoms: C1_2  and  C2_3 
ROOT
ATOM      1  C2  UNL d   1       0.166  -0.180   0.624  0.00  0.00    -0.076 A 
ATOM      2  C3  UNL d   1       1.520   0.035   0.933  0.00  0.00     0.004 A 
ATOM      3  C4  UNL d   1       1.989  -0.101   2.238  0.00  0.00    -0.003 A 
ATOM      4  C5  UNL d   1       1.111  -0.455   3.256  0.00  0.00     0.000 A 
ATOM      5  C6  UNL d   1      -0.233  -0.691   2.965  0.00  0.00     0.000 A 
ATOM      6  C7  UNL d   1      -0.718  -0.574   1.652  0.00  0.00    -0.073 A 
ATOM      7  C8  UNL d   1      -2.178  -0.833   1.396  0.00  0.00     0.078 C 
ENDROOT
BRANCH   1   8
ATOM      8  C1  UNL d   1      -0.291   0.009  -0.805  0.00  0.00     0.053 C 
ATOM      9  C   UNL d   1      -0.131   1.444  -1.283  0.00  0.00     0.018 C 
ENDBRANCH   1   8
TORSDOF 1
ENDMDL
