MODEL 1
REMARK minimizedAffinity -5.70300579
REMARK minimizedRMSD -1
REMARK  1 active torsions:
REMARK  status: ('A' for Active; 'I' for Inactive)
REMARK    1  A    between atoms: C1_2  and  C2_3 
ROOT
ATOM      1  C2  UNL d   1       0.177  -0.454   0.722  0.00  0.00    -0.076 A 
ATOM      2  C3  UNL d   1       1.447  -1.039   0.582  0.00  0.00     0.004 A 
ATOM      3  C4  UNL d   1       2.273  -1.234   1.688  0.00  0.00    -0.003 A 
ATOM      4  C5  UNL d   1       1.841  -0.848   2.952  0.00  0.00     0.000 A 
ATOM      5  C6  UNL d   1       0.577  -0.284   3.112  0.00  0.00     0.000 A 
ATOM      6  C7  UNL d   1      -0.275  -0.095   2.010  0.00  0.00    -0.073 A 
ATOM      7  C8  UNL d   1      -1.626   0.525   2.240  0.00  0.00     0.078 C 
ENDROOT
BRANCH   1   8
ATOM      8  C1  UNL d   1      -0.664  -0.243  -0.516  0.00  0.00     0.053 C 
ATOM      9  C   UNL d   1      -0.424   1.115  -1.158  0.00  0.00     0.018 C 
ENDBRANCH   1   8
TORSDOF 1
ENDMDL
