MODEL 1
REMARK minimizedAffinity -3.72107935
REMARK minimizedRMSD -1
REMARK  1 active torsions:
REMARK  status: ('A' for Active; 'I' for Inactive)
REMARK    1  A    between atoms: C1_2  and  C2_3 
ROOT
ATOM      1  C2  UNL d   1       0.636  -0.352   0.783  0.00  0.00    -0.076 A 
ATOM      2  C3  UNL d   1      -0.709  -0.034   0.526  0.00  0.00     0.004 A 
ATOM      3  C4  UNL d   1      -1.196   0.025  -0.779  0.00  0.00    -0.003 A 
ATOM      4  C5  UNL d   1      -0.345  -0.234  -1.848  0.00  0.00     0.000 A 
ATOM      5  C6  UNL d   1       0.988  -0.569  -1.610  0.00  0.00     0.000 A 
ATOM      6  C7  UNL d   1       1.490  -0.648  -0.300  0.00  0.00    -0.073 A 
ATOM      7  C8  UNL d   1       2.938  -1.007  -0.102  0.00  0.00     0.078 C 
ENDROOT
BRANCH   1   8
ATOM      8  C1  UNL d   1       1.113  -0.373   2.218  0.00  0.00     0.053 C 
ATOM      9  C   UNL d   1       0.183  -1.159   3.129  0.00  0.00     0.018 C 
ENDBRANCH   1   8
TORSDOF 1
ENDMDL
