MODEL 1
REMARK minimizedAffinity -4.35238028
REMARK minimizedRMSD -1
REMARK  1 active torsions:
REMARK  status: ('A' for Active; 'I' for Inactive)
REMARK    1  A    between atoms: C1_2  and  C2_3 
ROOT
ATOM      1  C2  UNL d   1       1.036  -0.788   0.436  0.00  0.00    -0.076 A 
ATOM      2  C3  UNL d   1       0.067  -0.748  -0.582  0.00  0.00     0.004 A 
ATOM      3  C4  UNL d   1      -1.292  -0.689  -0.277  0.00  0.00    -0.003 A 
ATOM      4  C5  UNL d   1      -1.704  -0.668   1.051  0.00  0.00     0.000 A 
ATOM      5  C6  UNL d   1      -0.756  -0.690   2.073  0.00  0.00     0.000 A 
ATOM      6  C7  UNL d   1       0.619  -0.733   1.783  0.00  0.00    -0.073 A 
ATOM      7  C8  UNL d   1       1.597  -0.760   2.925  0.00  0.00     0.078 C 
ENDROOT
BRANCH   1   8
ATOM      8  C1  UNL d   1       2.493  -0.879   0.044  0.00  0.00     0.053 C 
ATOM      9  C   UNL d   1       2.751  -1.957  -0.997  0.00  0.00     0.018 C 
ENDBRANCH   1   8
TORSDOF 1
ENDMDL
