MODEL 1
REMARK minimizedAffinity -4.83100939
REMARK minimizedRMSD -1
REMARK  1 active torsions:
REMARK  status: ('A' for Active; 'I' for Inactive)
REMARK    1  A    between atoms: C1_2  and  C2_3 
ROOT
ATOM      1  C2  UNL d   1       0.014  -0.058  -0.210  0.00  0.00    -0.076 A 
ATOM      2  C3  UNL d   1      -1.117   0.209   0.581  0.00  0.00     0.004 A 
ATOM      3  C4  UNL d   1      -1.102  -0.022   1.956  0.00  0.00    -0.003 A 
ATOM      4  C5  UNL d   1       0.044  -0.523   2.562  0.00  0.00     0.000 A 
ATOM      5  C6  UNL d   1       1.181  -0.776   1.796  0.00  0.00     0.000 A 
ATOM      6  C7  UNL d   1       1.189  -0.534   0.412  0.00  0.00    -0.073 A 
ATOM      7  C8  UNL d   1       2.441  -0.831  -0.367  0.00  0.00     0.078 C 
ENDROOT
BRANCH   1   8
ATOM      8  C1  UNL d   1      -0.069   0.187  -1.699  0.00  0.00     0.053 C 
ATOM      9  C   UNL d   1      -0.167   1.665  -2.043  0.00  0.00     0.018 C 
ENDBRANCH   1   8
TORSDOF 1
ENDMDL
