MODEL 1
REMARK minimizedAffinity -3.30272794
REMARK minimizedRMSD -1
REMARK  1 active torsions:
REMARK  status: ('A' for Active; 'I' for Inactive)
REMARK    1  A    between atoms: C1_2  and  C2_3 
ROOT
ATOM      1  C2  UNL d   1      -0.131   0.246   0.195  0.00  0.00    -0.076 A 
ATOM      2  C3  UNL d   1       1.221   0.485   0.495  0.00  0.00     0.004 A 
ATOM      3  C4  UNL d   1       1.793  -0.005   1.668  0.00  0.00    -0.003 A 
ATOM      4  C5  UNL d   1       1.021  -0.742   2.560  0.00  0.00     0.000 A 
ATOM      5  C6  UNL d   1      -0.318  -1.003   2.270  0.00  0.00     0.000 A 
ATOM      6  C7  UNL d   1      -0.905  -0.531   1.083  0.00  0.00    -0.073 A 
ATOM      7  C8  UNL d   1      -2.355  -0.837   0.824  0.00  0.00     0.078 C 
ENDROOT
BRANCH   1   8
ATOM      8  C1  UNL d   1      -0.703   0.826  -1.079  0.00  0.00     0.053 C 
ATOM      9  C   UNL d   1       0.075   2.037  -1.569  0.00  0.00     0.018 C 
ENDBRANCH   1   8
TORSDOF 1
ENDMDL
