MODEL 1
REMARK minimizedAffinity 11.8025675
REMARK minimizedRMSD -1
REMARK  0 active torsions:
REMARK  status: ('A' for Active; 'I' for Inactive)
ROOT
ATOM      1  C   UNL d   1       0.531   1.822  -2.633  0.00  0.00     0.023 A 
ATOM      2  C1  UNL d   1       1.424   1.203  -1.760  0.00  0.00     0.003 A 
ATOM      3  C2  UNL d   1       1.199   1.246  -0.382  0.00  0.00     0.048 A 
ATOM      4  C3  UNL d   1       0.077   1.908   0.115  0.00  0.00     0.023 A 
ATOM      5  C4  UNL d   1      -0.820   2.528  -0.756  0.00  0.00     0.048 A 
ATOM      6  C5  UNL d   1      -0.590   2.484  -2.132  0.00  0.00     0.003 A 
ATOM      7  I   UNL d   1      -0.261   1.973   2.164  0.00  0.00    -0.146 I 
ENDROOT
TORSDOF 0
ENDMDL
