MODEL 1
REMARK minimizedAffinity 19.8773746
REMARK minimizedRMSD -1
REMARK  0 active torsions:
REMARK  status: ('A' for Active; 'I' for Inactive)
ROOT
ATOM      1  C   UNL d   1      -2.385   1.643   0.391  0.00  0.00     0.023 A 
ATOM      2  C1  UNL d   1      -3.105   1.645   1.585  0.00  0.00     0.003 A 
ATOM      3  C2  UNL d   1      -3.971   2.700   1.878  0.00  0.00     0.048 A 
ATOM      4  C3  UNL d   1      -4.113   3.750   0.971  0.00  0.00     0.023 A 
ATOM      5  C4  UNL d   1      -3.395   3.751  -0.226  0.00  0.00     0.048 A 
ATOM      6  C5  UNL d   1      -2.530   2.695  -0.514  0.00  0.00     0.003 A 
ATOM      7  I   UNL d   1      -5.402   5.322   1.404  0.00  0.00    -0.146 I 
ENDROOT
TORSDOF 0
ENDMDL
