MODEL 1
REMARK minimizedAffinity 12.9516144
REMARK minimizedRMSD -1
REMARK  0 active torsions:
REMARK  status: ('A' for Active; 'I' for Inactive)
ROOT
ATOM      1  C   UNL d   1       1.464  -1.802   1.539  0.00  0.00     0.023 A 
ATOM      2  C1  UNL d   1       0.793  -3.021   1.640  0.00  0.00     0.003 A 
ATOM      3  C2  UNL d   1      -0.017  -3.284   2.746  0.00  0.00     0.048 A 
ATOM      4  C3  UNL d   1      -0.153  -2.324   3.747  0.00  0.00     0.023 A 
ATOM      5  C4  UNL d   1       0.516  -1.102   3.651  0.00  0.00     0.048 A 
ATOM      6  C5  UNL d   1       1.326  -0.844   2.543  0.00  0.00     0.003 A 
ATOM      7  I   UNL d   1      -1.359  -2.713   5.395  0.00  0.00    -0.146 I 
ENDROOT
TORSDOF 0
ENDMDL
