MODEL 1
REMARK minimizedAffinity 1.28279531
REMARK minimizedRMSD -1
REMARK  0 active torsions:
REMARK  status: ('A' for Active; 'I' for Inactive)
ROOT
ATOM      1  C   UNL d   1      -2.439   5.645  -4.981  0.00  0.00     0.023 A 
ATOM      2  C1  UNL d   1      -3.579   5.995  -5.705  0.00  0.00     0.003 A 
ATOM      3  C2  UNL d   1      -4.545   5.030  -5.999  0.00  0.00     0.048 A 
ATOM      4  C3  UNL d   1      -4.365   3.717  -5.564  0.00  0.00     0.023 A 
ATOM      5  C4  UNL d   1      -3.227   3.363  -4.839  0.00  0.00     0.048 A 
ATOM      6  C5  UNL d   1      -2.263   4.330  -4.549  0.00  0.00     0.003 A 
ATOM      7  I   UNL d   1      -5.802   2.280  -6.000  0.00  0.00    -0.146 I 
ENDROOT
TORSDOF 0
ENDMDL
