MODEL 1
REMARK minimizedAffinity 5.55347157
REMARK minimizedRMSD -1
REMARK  0 active torsions:
REMARK  status: ('A' for Active; 'I' for Inactive)
ROOT
ATOM      1  C   UNL d   1      -1.499  -1.968   5.222  0.00  0.00     0.023 A 
ATOM      2  C1  UNL d   1      -2.487  -1.160   5.786  0.00  0.00     0.003 A 
ATOM      3  C2  UNL d   1      -3.769  -1.670   5.999  0.00  0.00     0.048 A 
ATOM      4  C3  UNL d   1      -4.057  -2.988   5.648  0.00  0.00     0.023 A 
ATOM      5  C4  UNL d   1      -3.072  -3.800   5.084  0.00  0.00     0.048 A 
ATOM      6  C5  UNL d   1      -1.792  -3.287   4.872  0.00  0.00     0.003 A 
ATOM      7  I   UNL d   1      -5.966  -3.748   5.965  0.00  0.00    -0.146 I 
ENDROOT
TORSDOF 0
ENDMDL
