MODEL 1
REMARK minimizedAffinity 9.05475903
REMARK minimizedRMSD -1
REMARK  0 active torsions:
REMARK  status: ('A' for Active; 'I' for Inactive)
ROOT
ATOM      1  C   UNL d   1      -1.860   4.901  -4.830  0.00  0.00     0.023 A 
ATOM      2  C1  UNL d   1      -1.723   3.593  -4.366  0.00  0.00     0.003 A 
ATOM      3  C2  UNL d   1      -2.719   2.650  -4.627  0.00  0.00     0.048 A 
ATOM      4  C3  UNL d   1      -3.850   3.021  -5.353  0.00  0.00     0.023 A 
ATOM      5  C4  UNL d   1      -3.991   4.329  -5.821  0.00  0.00     0.048 A 
ATOM      6  C5  UNL d   1      -2.993   5.269  -5.557  0.00  0.00     0.003 A 
ATOM      7  I   UNL d   1      -5.333   1.619  -5.743  0.00  0.00    -0.146 I 
ENDROOT
TORSDOF 0
ENDMDL
