MODEL 1
REMARK minimizedAffinity 7.39182568
REMARK minimizedRMSD -1
REMARK  0 active torsions:
REMARK  status: ('A' for Active; 'I' for Inactive)
ROOT
ATOM      1  C   UNL d   1      -5.999  -4.856   4.994  0.00  0.00     0.023 A 
ATOM      2  C1  UNL d   1      -5.891  -3.818   5.920  0.00  0.00     0.003 A 
ATOM      3  C2  UNL d   1      -4.714  -3.071   5.999  0.00  0.00     0.048 A 
ATOM      4  C3  UNL d   1      -3.649  -3.367   5.149  0.00  0.00     0.023 A 
ATOM      5  C4  UNL d   1      -3.753  -4.403   4.220  0.00  0.00     0.048 A 
ATOM      6  C5  UNL d   1      -4.932  -5.148   4.145  0.00  0.00     0.003 A 
ATOM      7  I   UNL d   1      -1.896  -2.256   5.264  0.00  0.00    -0.146 I 
ENDROOT
TORSDOF 0
ENDMDL
