MODEL 1
REMARK minimizedAffinity 11.265233
REMARK minimizedRMSD -1
REMARK  0 active torsions:
REMARK  status: ('A' for Active; 'I' for Inactive)
ROOT
ATOM      1  C   UNL d   1      -3.055  -1.719   4.836  0.00  0.00     0.023 A 
ATOM      2  C1  UNL d   1      -1.997  -1.344   5.664  0.00  0.00     0.003 A 
ATOM      3  C2  UNL d   1      -1.008  -2.271   5.999  0.00  0.00     0.048 A 
ATOM      4  C3  UNL d   1      -1.084  -3.572   5.503  0.00  0.00     0.023 A 
ATOM      5  C4  UNL d   1      -2.141  -3.952   4.674  0.00  0.00     0.048 A 
ATOM      6  C5  UNL d   1      -3.127  -3.021   4.342  0.00  0.00     0.003 A 
ATOM      7  I   UNL d   1       0.386  -4.954   6.000  0.00  0.00    -0.146 I 
ENDROOT
TORSDOF 0
ENDMDL
