MODEL 1
REMARK minimizedAffinity 0.330919653
REMARK minimizedRMSD -1
REMARK  0 active torsions:
REMARK  status: ('A' for Active; 'I' for Inactive)
ROOT
ATOM      1  C   UNL d   1      -3.001   5.908  -5.016  0.00  0.00     0.023 A 
ATOM      2  C1  UNL d   1      -2.729   4.724  -4.331  0.00  0.00     0.003 A 
ATOM      3  C2  UNL d   1      -3.574   3.621  -4.477  0.00  0.00     0.048 A 
ATOM      4  C3  UNL d   1      -4.688   3.710  -5.311  0.00  0.00     0.023 A 
ATOM      5  C4  UNL d   1      -4.963   4.893  -5.999  0.00  0.00     0.048 A 
ATOM      6  C5  UNL d   1      -4.116   5.993  -5.849  0.00  0.00     0.003 A 
ATOM      7  I   UNL d   1      -5.947   2.071  -5.531  0.00  0.00    -0.146 I 
ENDROOT
TORSDOF 0
ENDMDL
