MODEL 1
REMARK minimizedAffinity -0.556834459
REMARK minimizedRMSD -1
REMARK  0 active torsions:
REMARK  status: ('A' for Active; 'I' for Inactive)
ROOT
ATOM      1  C   UNL d   1      -1.812   5.635  -5.319  0.00  0.00     0.023 A 
ATOM      2  C1  UNL d   1      -1.528   4.300  -5.032  0.00  0.00     0.003 A 
ATOM      3  C2  UNL d   1      -2.505   3.320  -5.227  0.00  0.00     0.048 A 
ATOM      4  C3  UNL d   1      -3.762   3.683  -5.709  0.00  0.00     0.023 A 
ATOM      5  C4  UNL d   1      -4.049   5.018  -5.999  0.00  0.00     0.048 A 
ATOM      6  C5  UNL d   1      -3.070   5.994  -5.802  0.00  0.00     0.003 A 
ATOM      7  I   UNL d   1      -5.216   2.227  -6.000  0.00  0.00    -0.146 I 
ENDROOT
TORSDOF 0
ENDMDL
