MODEL 1
REMARK minimizedAffinity 1.58516812
REMARK minimizedRMSD -1
REMARK  0 active torsions:
REMARK  status: ('A' for Active; 'I' for Inactive)
ROOT
ATOM      1  C   UNL d   1      -1.389   5.371  -4.800  0.00  0.00     0.023 A 
ATOM      2  C1  UNL d   1      -1.055   4.019  -4.721  0.00  0.00     0.003 A 
ATOM      3  C2  UNL d   1      -2.058   3.048  -4.748  0.00  0.00     0.048 A 
ATOM      4  C3  UNL d   1      -3.393   3.436  -4.855  0.00  0.00     0.023 A 
ATOM      5  C4  UNL d   1      -3.732   4.787  -4.935  0.00  0.00     0.048 A 
ATOM      6  C5  UNL d   1      -2.726   5.755  -4.906  0.00  0.00     0.003 A 
ATOM      7  I   UNL d   1      -4.887   1.992  -4.896  0.00  0.00    -0.146 I 
ENDROOT
TORSDOF 0
ENDMDL
