MODEL 1
REMARK minimizedAffinity 17.1883659
REMARK minimizedRMSD -1
REMARK  0 active torsions:
REMARK  status: ('A' for Active; 'I' for Inactive)
ROOT
ATOM      1  C   UNL d   1      -2.243  -2.997   5.982  0.00  0.00     0.023 A 
ATOM      2  C1  UNL d   1      -1.128  -3.319   5.209  0.00  0.00     0.003 A 
ATOM      3  C2  UNL d   1      -0.493  -2.333   4.452  0.00  0.00     0.048 A 
ATOM      4  C3  UNL d   1      -0.979  -1.026   4.473  0.00  0.00     0.023 A 
ATOM      5  C4  UNL d   1      -2.095  -0.699   5.245  0.00  0.00     0.048 A 
ATOM      6  C5  UNL d   1      -2.726  -1.689   6.000  0.00  0.00     0.003 A 
ATOM      7  I   UNL d   1      -0.036   0.445   3.346  0.00  0.00    -0.146 I 
ENDROOT
TORSDOF 0
ENDMDL
