MODEL 1
REMARK minimizedAffinity 16.6678448
REMARK minimizedRMSD -1
REMARK  0 active torsions:
REMARK  status: ('A' for Active; 'I' for Inactive)
ROOT
ATOM      1  C   UNL d   1      -2.161   2.012   0.224  0.00  0.00     0.023 A 
ATOM      2  C1  UNL d   1      -1.880   3.251  -0.352  0.00  0.00     0.003 A 
ATOM      3  C2  UNL d   1      -2.715   4.342  -0.106  0.00  0.00     0.048 A 
ATOM      4  C3  UNL d   1      -3.829   4.189   0.718  0.00  0.00     0.023 A 
ATOM      5  C4  UNL d   1      -4.114   2.952   1.298  0.00  0.00     0.048 A 
ATOM      6  C5  UNL d   1      -3.277   1.863   1.048  0.00  0.00     0.003 A 
ATOM      7  I   UNL d   1      -5.073   5.813   1.085  0.00  0.00    -0.146 I 
ENDROOT
TORSDOF 0
ENDMDL
