MODEL 1
REMARK minimizedAffinity 12.4479799
REMARK minimizedRMSD -1
REMARK  0 active torsions:
REMARK  status: ('A' for Active; 'I' for Inactive)
ROOT
ATOM      1  C   UNL d   1      -2.926  -1.975   4.942  0.00  0.00     0.023 A 
ATOM      2  C1  UNL d   1      -1.865  -1.449   5.680  0.00  0.00     0.003 A 
ATOM      3  C2  UNL d   1      -0.761  -2.246   5.984  0.00  0.00     0.048 A 
ATOM      4  C3  UNL d   1      -0.722  -3.570   5.547  0.00  0.00     0.023 A 
ATOM      5  C4  UNL d   1      -1.780  -4.101   4.807  0.00  0.00     0.048 A 
ATOM      6  C5  UNL d   1      -2.883  -3.300   4.507  0.00  0.00     0.003 A 
ATOM      7  I   UNL d   1       0.922  -4.759   5.998  0.00  0.00    -0.146 I 
ENDROOT
TORSDOF 0
ENDMDL
