MODEL 1
REMARK minimizedAffinity 14.0587473
REMARK minimizedRMSD -1
REMARK  0 active torsions:
REMARK  status: ('A' for Active; 'I' for Inactive)
ROOT
ATOM      1  C   UNL d   1       3.319  -6.000  -2.136  0.00  0.00     0.023 A 
ATOM      2  C1  UNL d   1       4.114  -5.459  -1.126  0.00  0.00     0.003 A 
ATOM      3  C2  UNL d   1       3.610  -4.451  -0.302  0.00  0.00     0.048 A 
ATOM      4  C3  UNL d   1       2.308  -3.989  -0.493  0.00  0.00     0.023 A 
ATOM      5  C4  UNL d   1       1.508  -4.528  -1.502  0.00  0.00     0.048 A 
ATOM      6  C5  UNL d   1       2.017  -5.535  -2.324  0.00  0.00     0.003 A 
ATOM      7  I   UNL d   1       1.555  -2.489   0.733  0.00  0.00    -0.146 I 
ENDROOT
TORSDOF 0
ENDMDL
