MODEL 1
REMARK minimizedAffinity 6.00313663
REMARK minimizedRMSD -1
REMARK  0 active torsions:
REMARK  status: ('A' for Active; 'I' for Inactive)
ROOT
ATOM      1  C   UNL d   1      -1.840   5.966  -4.955  0.00  0.00     0.023 A 
ATOM      2  C1  UNL d   1      -2.859   6.000  -5.908  0.00  0.00     0.003 A 
ATOM      3  C2  UNL d   1      -3.765   4.942  -6.000  0.00  0.00     0.048 A 
ATOM      4  C3  UNL d   1      -3.649   3.854  -5.136  0.00  0.00     0.023 A 
ATOM      5  C4  UNL d   1      -2.632   3.817  -4.180  0.00  0.00     0.048 A 
ATOM      6  C5  UNL d   1      -1.727   4.876  -4.092  0.00  0.00     0.003 A 
ATOM      7  I   UNL d   1      -4.997   2.278  -5.270  0.00  0.00    -0.146 I 
ENDROOT
TORSDOF 0
ENDMDL
