MODEL 1
REMARK minimizedAffinity 4.15213156
REMARK minimizedRMSD -1
REMARK  0 active torsions:
REMARK  status: ('A' for Active; 'I' for Inactive)
ROOT
ATOM      1  C   UNL d   1      -1.900   5.077  -5.069  0.00  0.00     0.023 A 
ATOM      2  C1  UNL d   1      -1.679   3.731  -4.775  0.00  0.00     0.003 A 
ATOM      3  C2  UNL d   1      -2.672   2.785  -5.037  0.00  0.00     0.048 A 
ATOM      4  C3  UNL d   1      -3.884   3.192  -5.595  0.00  0.00     0.023 A 
ATOM      5  C4  UNL d   1      -4.110   4.537  -5.892  0.00  0.00     0.048 A 
ATOM      6  C5  UNL d   1      -3.114   5.479  -5.627  0.00  0.00     0.003 A 
ATOM      7  I   UNL d   1      -5.363   1.785  -5.986  0.00  0.00    -0.146 I 
ENDROOT
TORSDOF 0
ENDMDL
