MODEL 1
REMARK minimizedAffinity 4.27398396
REMARK minimizedRMSD -1
REMARK  2 active torsions:
REMARK  status: ('A' for Active; 'I' for Inactive)
REMARK    1  A    between atoms: C2'_3  and  C1'_4 
REMARK    2  A    between atoms: C1'_4  and  C1_5 
ROOT
ATOM      1  C1  I4B d   1       5.184   2.749   3.799  0.00  0.00    -0.075 A 
ATOM      2  C2  I4B d   1       5.859   3.943   3.863  0.00  0.00     0.003 A 
ATOM      3  C3  I4B d   1       5.710   4.787   4.989  0.00  0.00     0.002 A 
ATOM      4  C4  I4B d   1       4.843   4.425   6.000  0.00  0.00    -0.004 A 
ATOM      5  C5  I4B d   1       4.177   3.204   5.945  0.00  0.00     0.002 A 
ATOM      6  C6  I4B d   1       4.358   2.355   4.844  0.00  0.00     0.003 A 
ENDROOT
BRANCH   1   7
ATOM      7  C1' I4B d   1       5.339   1.897   2.580  0.00  0.00     0.060 C 
BRANCH   7   8
ATOM      8  C2' I4B d   1       4.854   2.696   1.387  0.00  0.00    -0.013 C 
ATOM      9  C4' I4B d   1       5.994   3.401   0.702  0.00  0.00     0.013 C 
ATOM     10  C3' I4B d   1       4.158   1.753   0.451  0.00  0.00     0.013 C 
ENDBRANCH   7   8
ENDBRANCH   1   7
TORSDOF 2
ENDMDL
