MODEL 1
REMARK minimizedAffinity -0.475918233
REMARK minimizedRMSD -1
REMARK  2 active torsions:
REMARK  status: ('A' for Active; 'I' for Inactive)
REMARK    1  A    between atoms: C2'_3  and  C1'_4 
REMARK    2  A    between atoms: C1'_4  and  C1_5 
ROOT
ATOM      1  C1  I4B d   1       3.497   3.676   5.788  0.00  0.00    -0.075 A 
ATOM      2  C2  I4B d   1       3.144   4.996   5.921  0.00  0.00     0.003 A 
ATOM      3  C3  I4B d   1       4.142   5.998   5.988  0.00  0.00     0.002 A 
ATOM      4  C4  I4B d   1       5.473   5.633   5.970  0.00  0.00    -0.004 A 
ATOM      5  C5  I4B d   1       5.829   4.297   5.813  0.00  0.00     0.002 A 
ATOM      6  C6  I4B d   1       4.835   3.313   5.709  0.00  0.00     0.003 A 
ENDROOT
BRANCH   1   7
ATOM      7  C1' I4B d   1       2.417   2.641   5.753  0.00  0.00     0.060 C 
BRANCH   7   8
ATOM      8  C2' I4B d   1       2.959   1.426   5.029  0.00  0.00    -0.013 C 
ATOM      9  C4' I4B d   1       3.352   0.343   6.000  0.00  0.00     0.013 C 
ATOM     10  C3' I4B d   1       1.903   0.944   4.080  0.00  0.00     0.013 C 
ENDBRANCH   7   8
ENDBRANCH   1   7
TORSDOF 2
ENDMDL
