MODEL 1
REMARK minimizedAffinity 0.820972681
REMARK minimizedRMSD -1
REMARK  2 active torsions:
REMARK  status: ('A' for Active; 'I' for Inactive)
REMARK    1  A    between atoms: C2'_3  and  C1'_4 
REMARK    2  A    between atoms: C1'_4  and  C1_5 
ROOT
ATOM      1  C1  I4B d   1       4.018   3.587   4.941  0.00  0.00    -0.075 A 
ATOM      2  C2  I4B d   1       3.449   4.812   4.695  0.00  0.00     0.003 A 
ATOM      3  C3  I4B d   1       4.138   6.000   5.041  0.00  0.00     0.002 A 
ATOM      4  C4  I4B d   1       5.361   5.916   5.673  0.00  0.00    -0.004 A 
ATOM      5  C5  I4B d   1       5.947   4.674   5.901  0.00  0.00     0.002 A 
ATOM      6  C6  I4B d   1       5.276   3.502   5.521  0.00  0.00     0.003 A 
ENDROOT
BRANCH   1   7
ATOM      7  C1' I4B d   1       3.249   2.352   4.592  0.00  0.00     0.060 C 
BRANCH   7   8
ATOM      8  C2' I4B d   1       2.708   1.760   5.878  0.00  0.00    -0.013 C 
ATOM      9  C4' I4B d   1       1.224   1.985   6.000  0.00  0.00     0.013 C 
ATOM     10  C3' I4B d   1       3.037   0.297   5.888  0.00  0.00     0.013 C 
ENDBRANCH   7   8
ENDBRANCH   1   7
TORSDOF 2
ENDMDL
