MODEL 1
REMARK minimizedAffinity -2.60801077
REMARK minimizedRMSD -1
REMARK  2 active torsions:
REMARK  status: ('A' for Active; 'I' for Inactive)
REMARK    1  A    between atoms: C2'_3  and  C1'_4 
REMARK    2  A    between atoms: C1'_4  and  C1_5 
ROOT
ATOM      1  C1  I4B d   1       4.090   3.715   4.583  0.00  0.00    -0.075 A 
ATOM      2  C2  I4B d   1       3.465   4.933   4.678  0.00  0.00     0.003 A 
ATOM      3  C3  I4B d   1       4.084   5.999   5.375  0.00  0.00     0.002 A 
ATOM      4  C4  I4B d   1       5.297   5.790   6.000  0.00  0.00    -0.004 A 
ATOM      5  C5  I4B d   1       5.939   4.561   5.883  0.00  0.00     0.002 A 
ATOM      6  C6  I4B d   1       5.338   3.520   5.160  0.00  0.00     0.003 A 
ENDROOT
BRANCH   1   7
ATOM      7  C1' I4B d   1       3.393   2.601   3.869  0.00  0.00     0.060 C 
BRANCH   7   8
ATOM      8  C2' I4B d   1       2.916   1.606   4.907  0.00  0.00    -0.013 C 
ATOM      9  C4' I4B d   1       3.937   1.427   5.999  0.00  0.00     0.013 C 
ATOM     10  C3' I4B d   1       1.614   2.102   5.460  0.00  0.00     0.013 C 
ENDBRANCH   7   8
ENDBRANCH   1   7
TORSDOF 2
ENDMDL
