MODEL 1
REMARK minimizedAffinity -5.0410285
REMARK minimizedRMSD -1
REMARK  2 active torsions:
REMARK  status: ('A' for Active; 'I' for Inactive)
REMARK    1  A    between atoms: C2'_3  and  C1'_4 
REMARK    2  A    between atoms: C1'_4  and  C1_5 
ROOT
ATOM      1  C1  I4B d   1       2.472   4.023   4.326  0.00  0.00    -0.075 A 
ATOM      2  C2  I4B d   1       1.753   4.301   5.461  0.00  0.00     0.003 A 
ATOM      3  C3  I4B d   1       0.509   4.970   5.371  0.00  0.00     0.002 A 
ATOM      4  C4  I4B d   1       0.048   5.386   4.139  0.00  0.00    -0.004 A 
ATOM      5  C5  I4B d   1       0.768   5.083   2.986  0.00  0.00     0.002 A 
ATOM      6  C6  I4B d   1       1.981   4.386   3.078  0.00  0.00     0.003 A 
ENDROOT
BRANCH   1   7
ATOM      7  C1' I4B d   1       3.798   3.344   4.460  0.00  0.00     0.060 C 
BRANCH   7   8
ATOM      8  C2' I4B d   1       4.868   4.415   4.511  0.00  0.00    -0.013 C 
ATOM      9  C4' I4B d   1       4.538   5.560   3.590  0.00  0.00     0.013 C 
ATOM     10  C3' I4B d   1       4.990   4.881   5.932  0.00  0.00     0.013 C 
ENDBRANCH   7   8
ENDBRANCH   1   7
TORSDOF 2
ENDMDL
