MODEL 1
REMARK minimizedAffinity -3.15918922
REMARK minimizedRMSD -1
REMARK  2 active torsions:
REMARK  status: ('A' for Active; 'I' for Inactive)
REMARK    1  A    between atoms: C2'_3  and  C1'_4 
REMARK    2  A    between atoms: C1'_4  and  C1_5 
ROOT
ATOM      1  C1  I4B d   1       2.894   4.257   5.471  0.00  0.00    -0.075 A 
ATOM      2  C2  I4B d   1       4.252   4.236   5.673  0.00  0.00     0.003 A 
ATOM      3  C3  I4B d   1       4.918   3.010   5.914  0.00  0.00     0.002 A 
ATOM      4  C4  I4B d   1       4.186   1.843   5.993  0.00  0.00    -0.004 A 
ATOM      5  C5  I4B d   1       2.813   1.863   5.765  0.00  0.00     0.002 A 
ATOM      6  C6  I4B d   1       2.164   3.076   5.490  0.00  0.00     0.003 A 
ENDROOT
BRANCH   1   7
ATOM      7  C1' I4B d   1       2.218   5.574   5.252  0.00  0.00     0.060 C 
BRANCH   7   8
ATOM      8  C2' I4B d   1       2.464   5.992   3.817  0.00  0.00    -0.013 C 
ATOM      9  C4' I4B d   1       3.651   5.271   3.235  0.00  0.00     0.013 C 
ATOM     10  C3' I4B d   1       1.219   5.706   3.032  0.00  0.00     0.013 C 
ENDBRANCH   7   8
ENDBRANCH   1   7
TORSDOF 2
ENDMDL
