MODEL 1
REMARK minimizedAffinity -2.46303225
REMARK minimizedRMSD -1
REMARK  2 active torsions:
REMARK  status: ('A' for Active; 'I' for Inactive)
REMARK    1  A    between atoms: C2'_3  and  C1'_4 
REMARK    2  A    between atoms: C1'_4  and  C1_5 
ROOT
ATOM      1  C1  I4B d   1       2.479   4.858   5.768  0.00  0.00    -0.075 A 
ATOM      2  C2  I4B d   1       3.082   3.700   5.344  0.00  0.00     0.003 A 
ATOM      3  C3  I4B d   1       4.481   3.662   5.130  0.00  0.00     0.002 A 
ATOM      4  C4  I4B d   1       5.227   4.811   5.301  0.00  0.00    -0.004 A 
ATOM      5  C5  I4B d   1       4.617   5.978   5.753  0.00  0.00     0.002 A 
ATOM      6  C6  I4B d   1       3.237   5.999   6.000  0.00  0.00     0.003 A 
ENDROOT
BRANCH   1   7
ATOM      7  C1' I4B d   1       0.995   4.872   5.953  0.00  0.00     0.060 C 
BRANCH   7   8
ATOM      8  C2' I4B d   1       0.425   5.963   5.070  0.00  0.00    -0.013 C 
ATOM      9  C4' I4B d   1       1.116   6.000   3.732  0.00  0.00     0.013 C 
ATOM     10  C3' I4B d   1      -1.045   5.711   4.913  0.00  0.00     0.013 C 
ENDBRANCH   7   8
ENDBRANCH   1   7
TORSDOF 2
ENDMDL
