MODEL 1
REMARK minimizedAffinity 2.67946696
REMARK minimizedRMSD -1
REMARK  1 active torsions:
REMARK  status: ('A' for Active; 'I' for Inactive)
REMARK    1  A    between atoms: C3_4  and  O_7 
ROOT
ATOM      1  C   UNL d   1      -5.993  -1.898  -4.254  0.00  0.00    -0.033 A 
ATOM      2  C1  UNL d   1      -5.247  -2.620  -3.320  0.00  0.00     0.039 A 
ATOM      3  C2  UNL d   1      -4.510  -3.735  -3.725  0.00  0.00    -0.080 A 
ATOM      4  C3  UNL d   1      -4.526  -4.116  -5.064  0.00  0.00     0.150 A 
ATOM      5  C4  UNL d   1      -5.264  -3.398  -6.000  0.00  0.00    -0.007 A 
ATOM      6  C5  UNL d   1      -6.000  -2.286  -5.594  0.00  0.00     0.039 A 
ENDROOT
BRANCH   4   7
ATOM      7  O   UNL d   1      -3.827  -5.199  -5.505  0.00  0.00    -0.526 OA
ATOM      8  H5  UNL d   1      -3.389  -5.614  -4.743  0.00  0.00     0.418 HD
ENDBRANCH   4   7
TORSDOF 1
ENDMDL
