MODEL 1
REMARK minimizedAffinity 0.10179878
REMARK minimizedRMSD -1
REMARK  1 active torsions:
REMARK  status: ('A' for Active; 'I' for Inactive)
REMARK    1  A    between atoms: C3_4  and  O_7 
ROOT
ATOM      1  C   UNL d   1      -5.810  -2.179   0.155  0.00  0.00    -0.033 A 
ATOM      2  C1  UNL d   1      -5.726  -2.363   1.536  0.00  0.00     0.039 A 
ATOM      3  C2  UNL d   1      -5.164  -3.532   2.053  0.00  0.00    -0.080 A 
ATOM      4  C3  UNL d   1      -4.690  -4.507   1.180  0.00  0.00     0.150 A 
ATOM      5  C4  UNL d   1      -4.767  -4.328  -0.197  0.00  0.00    -0.007 A 
ATOM      6  C5  UNL d   1      -5.329  -3.161  -0.712  0.00  0.00     0.039 A 
ENDROOT
BRANCH   4   7
ATOM      7  O   UNL d   1      -4.137  -5.666   1.638  0.00  0.00    -0.526 OA
ATOM      8  H5  UNL d   1      -4.177  -5.663   2.609  0.00  0.00     0.418 HD
ENDBRANCH   4   7
TORSDOF 1
ENDMDL
