MODEL 1
REMARK minimizedAffinity 8.65382195
REMARK minimizedRMSD -1
REMARK  1 active torsions:
REMARK  status: ('A' for Active; 'I' for Inactive)
REMARK    1  A    between atoms: C3_4  and  O_7 
ROOT
ATOM      1  C   UNL d   1       3.035   4.878  -5.021  0.00  0.00    -0.033 A 
ATOM      2  C1  UNL d   1       3.328   3.541  -4.744  0.00  0.00     0.039 A 
ATOM      3  C2  UNL d   1       2.701   2.893  -3.679  0.00  0.00    -0.080 A 
ATOM      4  C3  UNL d   1       1.783   3.591  -2.899  0.00  0.00     0.150 A 
ATOM      5  C4  UNL d   1       1.483   4.922  -3.171  0.00  0.00    -0.007 A 
ATOM      6  C5  UNL d   1       2.111   5.568  -4.235  0.00  0.00     0.039 A 
ENDROOT
BRANCH   4   7
ATOM      7  O   UNL d   1       1.149   3.002  -1.845  0.00  0.00    -0.526 OA
ATOM      8  H5  UNL d   1       1.477   2.091  -1.759  0.00  0.00     0.418 HD
ENDBRANCH   4   7
TORSDOF 1
ENDMDL
