MODEL 1
REMARK minimizedAffinity -1.60945106
REMARK minimizedRMSD -1
REMARK  1 active torsions:
REMARK  status: ('A' for Active; 'I' for Inactive)
REMARK    1  A    between atoms: C3_4  and  O_7 
ROOT
ATOM      1  C   UNL d   1      -5.999  -2.624   0.787  0.00  0.00    -0.033 A 
ATOM      2  C1  UNL d   1      -5.996  -3.708   1.668  0.00  0.00     0.039 A 
ATOM      3  C2  UNL d   1      -5.256  -4.852   1.366  0.00  0.00    -0.080 A 
ATOM      4  C3  UNL d   1      -4.523  -4.900   0.183  0.00  0.00     0.150 A 
ATOM      5  C4  UNL d   1      -4.519  -3.823  -0.697  0.00  0.00    -0.007 A 
ATOM      6  C5  UNL d   1      -5.259  -2.681  -0.394  0.00  0.00     0.039 A 
ENDROOT
BRANCH   4   7
ATOM      7  O   UNL d   1      -3.790  -5.998  -0.156  0.00  0.00    -0.526 OA
ATOM      8  H5  UNL d   1      -3.910  -6.674   0.531  0.00  0.00     0.418 HD
ENDBRANCH   4   7
TORSDOF 1
ENDMDL
