MODEL 1
REMARK minimizedAffinity 10.9398203
REMARK minimizedRMSD -1
REMARK  1 active torsions:
REMARK  status: ('A' for Active; 'I' for Inactive)
REMARK    1  A    between atoms: C3_4  and  O_7 
ROOT
ATOM      1  C   UNL d   1       2.208   1.182  -5.099  0.00  0.00    -0.033 A 
ATOM      2  C1  UNL d   1       1.809  -0.027  -4.526  0.00  0.00     0.039 A 
ATOM      3  C2  UNL d   1       2.592  -1.172  -4.691  0.00  0.00    -0.080 A 
ATOM      4  C3  UNL d   1       3.770  -1.093  -5.429  0.00  0.00     0.150 A 
ATOM      5  C4  UNL d   1       4.175   0.109  -6.000  0.00  0.00    -0.007 A 
ATOM      6  C5  UNL d   1       3.392   1.250  -5.835  0.00  0.00     0.039 A 
ENDROOT
BRANCH   4   7
ATOM      7  O   UNL d   1       4.564  -2.185  -5.622  0.00  0.00    -0.526 OA
ATOM      8  H5  UNL d   1       4.144  -2.950  -5.195  0.00  0.00     0.418 HD
ENDBRANCH   4   7
TORSDOF 1
ENDMDL
