MODEL 1
REMARK minimizedAffinity 9.0767231
REMARK minimizedRMSD -1
REMARK  1 active torsions:
REMARK  status: ('A' for Active; 'I' for Inactive)
REMARK    1  A    between atoms: C3_4  and  O_7 
ROOT
ATOM      1  C   UNL d   1       1.863   1.099  -5.221  0.00  0.00    -0.033 A 
ATOM      2  C1  UNL d   1       2.657   0.276  -4.419  0.00  0.00     0.039 A 
ATOM      3  C2  UNL d   1       2.381  -1.089  -4.326  0.00  0.00    -0.080 A 
ATOM      4  C3  UNL d   1       1.309  -1.619  -5.040  0.00  0.00     0.150 A 
ATOM      5  C4  UNL d   1       0.517  -0.807  -5.844  0.00  0.00    -0.007 A 
ATOM      6  C5  UNL d   1       0.794   0.557  -5.935  0.00  0.00     0.039 A 
ENDROOT
BRANCH   4   7
ATOM      7  O   UNL d   1       0.998  -2.945  -4.978  0.00  0.00    -0.526 OA
ATOM      8  H5  UNL d   1       1.613  -3.377  -4.362  0.00  0.00     0.418 HD
ENDBRANCH   4   7
TORSDOF 1
ENDMDL
