MODEL 1
REMARK minimizedAffinity 7.50385094
REMARK minimizedRMSD -1
REMARK  1 active torsions:
REMARK  status: ('A' for Active; 'I' for Inactive)
REMARK    1  A    between atoms: C3_4  and  O_7 
ROOT
ATOM      1  C   UNL d   1      -2.840  -3.496  -5.999  0.00  0.00    -0.033 A 
ATOM      2  C1  UNL d   1      -4.002  -2.844  -5.580  0.00  0.00     0.039 A 
ATOM      3  C2  UNL d   1      -5.074  -3.580  -5.073  0.00  0.00    -0.080 A 
ATOM      4  C3  UNL d   1      -4.972  -4.966  -4.988  0.00  0.00     0.150 A 
ATOM      5  C4  UNL d   1      -3.816  -5.622  -5.400  0.00  0.00    -0.007 A 
ATOM      6  C5  UNL d   1      -2.747  -4.885  -5.907  0.00  0.00     0.039 A 
ENDROOT
BRANCH   4   7
ATOM      7  O   UNL d   1      -5.993  -5.728  -4.504  0.00  0.00    -0.526 OA
ATOM      8  H5  UNL d   1      -6.737  -5.142  -4.285  0.00  0.00     0.418 HD
ENDBRANCH   4   7
TORSDOF 1
ENDMDL
