MODEL 1
REMARK minimizedAffinity 2.1335609
REMARK minimizedRMSD -1
REMARK  1 active torsions:
REMARK  status: ('A' for Active; 'I' for Inactive)
REMARK    1  A    between atoms: C3_4  and  O_7 
ROOT
ATOM      1  C   UNL d   1       0.685  -5.171   3.153  0.00  0.00    -0.033 A 
ATOM      2  C1  UNL d   1       1.158  -4.895   1.869  0.00  0.00     0.039 A 
ATOM      3  C2  UNL d   1       2.487  -5.169   1.538  0.00  0.00    -0.080 A 
ATOM      4  C3  UNL d   1       3.331  -5.719   2.500  0.00  0.00     0.150 A 
ATOM      5  C4  UNL d   1       2.865  -6.000   3.780  0.00  0.00    -0.007 A 
ATOM      6  C5  UNL d   1       1.538  -5.725   4.108  0.00  0.00     0.039 A 
ENDROOT
BRANCH   4   7
ATOM      7  O   UNL d   1       4.636  -5.999   2.225  0.00  0.00    -0.526 OA
ATOM      8  H5  UNL d   1       4.824  -5.726   1.312  0.00  0.00     0.418 HD
ENDBRANCH   4   7
TORSDOF 1
ENDMDL
