MODEL 1
REMARK minimizedAffinity 2.58785295
REMARK minimizedRMSD -1
REMARK  1 active torsions:
REMARK  status: ('A' for Active; 'I' for Inactive)
REMARK    1  A    between atoms: C3_4  and  O_7 
ROOT
ATOM      1  C   UNL d   1      -2.889   1.546   1.327  0.00  0.00    -0.033 A 
ATOM      2  C1  UNL d   1      -1.930   0.536   1.417  0.00  0.00     0.039 A 
ATOM      3  C2  UNL d   1      -2.264  -0.778   1.084  0.00  0.00    -0.080 A 
ATOM      4  C3  UNL d   1      -3.558  -1.069   0.663  0.00  0.00     0.150 A 
ATOM      5  C4  UNL d   1      -4.518  -0.067   0.568  0.00  0.00    -0.007 A 
ATOM      6  C5  UNL d   1      -4.183   1.245   0.901  0.00  0.00     0.039 A 
ENDROOT
BRANCH   4   7
ATOM      7  O   UNL d   1      -3.933  -2.337   0.333  0.00  0.00    -0.526 OA
ATOM      8  H5  UNL d   1      -3.174  -2.928   0.474  0.00  0.00     0.418 HD
ENDBRANCH   4   7
TORSDOF 1
ENDMDL
