MODEL 1
REMARK minimizedAffinity 7.18248653
REMARK minimizedRMSD -1
REMARK  1 active torsions:
REMARK  status: ('A' for Active; 'I' for Inactive)
REMARK    1  A    between atoms: C3_4  and  O_7 
ROOT
ATOM      1  C   UNL d   1      -2.423  -0.302   1.844  0.00  0.00    -0.033 A 
ATOM      2  C1  UNL d   1      -2.776   1.043   1.722  0.00  0.00     0.039 A 
ATOM      3  C2  UNL d   1      -1.864   2.041   2.071  0.00  0.00    -0.080 A 
ATOM      4  C3  UNL d   1      -0.603   1.681   2.539  0.00  0.00     0.150 A 
ATOM      5  C4  UNL d   1      -0.244   0.343   2.660  0.00  0.00    -0.007 A 
ATOM      6  C5  UNL d   1      -1.156  -0.652   2.312  0.00  0.00     0.039 A 
ENDROOT
BRANCH   4   7
ATOM      7  O   UNL d   1       0.319   2.619   2.897  0.00  0.00    -0.526 OA
ATOM      8  H5  UNL d   1      -0.079   3.499   2.788  0.00  0.00     0.418 HD
ENDBRANCH   4   7
TORSDOF 1
ENDMDL
