MODEL 1
REMARK minimizedAffinity 6.29001427
REMARK minimizedRMSD -1
REMARK  1 active torsions:
REMARK  status: ('A' for Active; 'I' for Inactive)
REMARK    1  A    between atoms: C3_4  and  O_7 
ROOT
ATOM      1  C   UNL d   1      -5.892   4.685   5.988  0.00  0.00    -0.033 A 
ATOM      2  C1  UNL d   1      -5.998   3.716   4.989  0.00  0.00     0.039 A 
ATOM      3  C2  UNL d   1      -5.022   3.626   3.994  0.00  0.00    -0.080 A 
ATOM      4  C3  UNL d   1      -3.946   4.509   4.011  0.00  0.00     0.150 A 
ATOM      5  C4  UNL d   1      -3.832   5.475   5.006  0.00  0.00    -0.007 A 
ATOM      6  C5  UNL d   1      -4.809   5.564   5.997  0.00  0.00     0.039 A 
ENDROOT
BRANCH   4   7
ATOM      7  O   UNL d   1      -2.972   4.463   3.059  0.00  0.00    -0.526 OA
ATOM      8  H5  UNL d   1      -3.197   3.766   2.421  0.00  0.00     0.418 HD
ENDBRANCH   4   7
TORSDOF 1
ENDMDL
