MODEL 1
REMARK minimizedAffinity 9.15641594
REMARK minimizedRMSD -1
REMARK  1 active torsions:
REMARK  status: ('A' for Active; 'I' for Inactive)
REMARK    1  A    between atoms: C3_4  and  O_7 
ROOT
ATOM      1  C   UNL d   1      -2.552  -0.581   1.047  0.00  0.00    -0.033 A 
ATOM      2  C1  UNL d   1      -3.364   0.335   0.376  0.00  0.00     0.039 A 
ATOM      3  C2  UNL d   1      -3.405   1.668   0.789  0.00  0.00    -0.080 A 
ATOM      4  C3  UNL d   1      -2.629   2.072   1.872  0.00  0.00     0.150 A 
ATOM      5  C4  UNL d   1      -1.814   1.165   2.543  0.00  0.00    -0.007 A 
ATOM      6  C5  UNL d   1      -1.776  -0.166   2.129  0.00  0.00     0.039 A 
ENDROOT
BRANCH   4   7
ATOM      7  O   UNL d   1      -2.639   3.361   2.315  0.00  0.00    -0.526 OA
ATOM      8  H5  UNL d   1      -3.269   3.867   1.775  0.00  0.00     0.418 HD
ENDBRANCH   4   7
TORSDOF 1
ENDMDL
