MODEL 1
REMARK minimizedAffinity -0.0378167666
REMARK minimizedRMSD -1
REMARK  1 active torsions:
REMARK  status: ('A' for Active; 'I' for Inactive)
REMARK    1  A    between atoms: C3_4  and  O_7 
ROOT
ATOM      1  C   UNL d   1      -3.739  -0.765   0.769  0.00  0.00    -0.033 A 
ATOM      2  C1  UNL d   1      -4.769  -1.556   0.258  0.00  0.00     0.039 A 
ATOM      3  C2  UNL d   1      -4.485  -2.807  -0.292  0.00  0.00    -0.080 A 
ATOM      4  C3  UNL d   1      -3.167  -3.256  -0.324  0.00  0.00     0.150 A 
ATOM      5  C4  UNL d   1      -2.136  -2.475   0.187  0.00  0.00    -0.007 A 
ATOM      6  C5  UNL d   1      -2.422  -1.225   0.735  0.00  0.00     0.039 A 
ENDROOT
BRANCH   4   7
ATOM      7  O   UNL d   1      -2.839  -4.468  -0.855  0.00  0.00    -0.526 OA
ATOM      8  H5  UNL d   1      -3.649  -4.884  -1.195  0.00  0.00     0.418 HD
ENDBRANCH   4   7
TORSDOF 1
ENDMDL
