MODEL 1
REMARK minimizedAffinity 8.54902554
REMARK minimizedRMSD -1
REMARK  1 active torsions:
REMARK  status: ('A' for Active; 'I' for Inactive)
REMARK    1  A    between atoms: C3_4  and  O_7 
ROOT
ATOM      1  C   UNL d   1       3.801   4.706  -4.388  0.00  0.00    -0.033 A 
ATOM      2  C1  UNL d   1       2.908   5.586  -3.773  0.00  0.00     0.039 A 
ATOM      3  C2  UNL d   1       2.155   5.166  -2.675  0.00  0.00    -0.080 A 
ATOM      4  C3  UNL d   1       2.304   3.865  -2.202  0.00  0.00     0.150 A 
ATOM      5  C4  UNL d   1       3.194   2.984  -2.807  0.00  0.00    -0.007 A 
ATOM      6  C5  UNL d   1       3.945   3.405  -3.904  0.00  0.00     0.039 A 
ENDROOT
BRANCH   4   7
ATOM      7  O   UNL d   1       1.587   3.407  -1.137  0.00  0.00    -0.526 OA
ATOM      8  H5  UNL d   1       0.992   4.116  -0.839  0.00  0.00     0.418 HD
ENDBRANCH   4   7
TORSDOF 1
ENDMDL
