MODEL 1
REMARK minimizedAffinity 7.30231714
REMARK minimizedRMSD -1
REMARK  1 active torsions:
REMARK  status: ('A' for Active; 'I' for Inactive)
REMARK    1  A    between atoms: C3_4  and  O_7 
ROOT
ATOM      1  C   UNL d   1       6.000  -0.260   1.659  0.00  0.00    -0.033 A 
ATOM      2  C1  UNL d   1       5.823  -1.168   2.705  0.00  0.00     0.039 A 
ATOM      3  C2  UNL d   1       4.558  -1.349   3.268  0.00  0.00    -0.080 A 
ATOM      4  C3  UNL d   1       3.480  -0.618   2.775  0.00  0.00     0.150 A 
ATOM      5  C4  UNL d   1       3.649   0.285   1.731  0.00  0.00    -0.007 A 
ATOM      6  C5  UNL d   1       4.913   0.465   1.171  0.00  0.00     0.039 A 
ENDROOT
BRANCH   4   7
ATOM      7  O   UNL d   1       2.228  -0.757   3.296  0.00  0.00    -0.526 OA
ATOM      8  H5  UNL d   1       2.268  -1.393   4.029  0.00  0.00     0.418 HD
ENDBRANCH   4   7
TORSDOF 1
ENDMDL
