MODEL 1
REMARK minimizedAffinity 0.821208954
REMARK minimizedRMSD -1
REMARK  1 active torsions:
REMARK  status: ('A' for Active; 'I' for Inactive)
REMARK    1  A    between atoms: C3_4  and  O_7 
ROOT
ATOM      1  C   UNL d   1      -3.897   0.768   2.045  0.00  0.00    -0.033 A 
ATOM      2  C1  UNL d   1      -3.002   1.009   1.000  0.00  0.00     0.039 A 
ATOM      3  C2  UNL d   1      -1.627   0.914   1.220  0.00  0.00    -0.080 A 
ATOM      4  C3  UNL d   1      -1.160   0.576   2.487  0.00  0.00     0.150 A 
ATOM      5  C4  UNL d   1      -2.045   0.330   3.532  0.00  0.00    -0.007 A 
ATOM      6  C5  UNL d   1      -3.418   0.427   3.310  0.00  0.00     0.039 A 
ENDROOT
BRANCH   4   7
ATOM      7  O   UNL d   1       0.174   0.475   2.752  0.00  0.00    -0.526 OA
ATOM      8  H5  UNL d   1       0.666   0.700   1.944  0.00  0.00     0.418 HD
ENDBRANCH   4   7
TORSDOF 1
ENDMDL
