MODEL 1
REMARK minimizedAffinity 1.43523097
REMARK minimizedRMSD -1
REMARK  1 active torsions:
REMARK  status: ('A' for Active; 'I' for Inactive)
REMARK    1  A    between atoms: C1_2  and  C2_3 
ROOT
ATOM      1  C2  UNL d   1      -3.154   0.890  -5.993  0.00  0.00    -0.081 A 
ATOM      2  C3  UNL d   1      -2.715   2.220  -6.000  0.00  0.00     0.006 A 
ATOM      3  C4  UNL d   1      -3.633   3.270  -5.932  0.00  0.00     0.002 A 
ATOM      4  C5  UNL d   1      -5.005   3.009  -5.849  0.00  0.00    -0.080 A 
ATOM      5  C6  UNL d   1      -6.000   4.126  -5.746  0.00  0.00     0.076 C 
ATOM      6  C7  UNL d   1      -5.446   1.681  -5.860  0.00  0.00     0.002 A 
ATOM      7  C8  UNL d   1      -4.528   0.630  -5.928  0.00  0.00     0.006 A 
ENDROOT
BRANCH   1   8
ATOM      8  C1  UNL d   1      -2.163  -0.245  -6.000  0.00  0.00     0.054 C 
ATOM      9  C   UNL d   1      -1.423  -0.342  -4.673  0.00  0.00     0.018 C 
ENDBRANCH   1   8
TORSDOF 1
ENDMDL
