MODEL 1
REMARK minimizedAffinity -1.95937526
REMARK minimizedRMSD -1
REMARK  1 active torsions:
REMARK  status: ('A' for Active; 'I' for Inactive)
REMARK    1  A    between atoms: C1_2  and  C2_3 
ROOT
ATOM      1  C2  UNL d   1      -3.064   3.585  -5.955  0.00  0.00    -0.081 A 
ATOM      2  C3  UNL d   1      -4.452   3.398  -5.973  0.00  0.00     0.006 A 
ATOM      3  C4  UNL d   1      -4.992   2.110  -5.998  0.00  0.00     0.002 A 
ATOM      4  C5  UNL d   1      -4.155   0.989  -5.999  0.00  0.00    -0.080 A 
ATOM      5  C6  UNL d   1      -4.723  -0.399  -5.996  0.00  0.00     0.076 C 
ATOM      6  C7  UNL d   1      -2.769   1.176  -5.999  0.00  0.00     0.002 A 
ATOM      7  C8  UNL d   1      -2.228   2.464  -5.974  0.00  0.00     0.006 A 
ENDROOT
BRANCH   1   8
ATOM      8  C1  UNL d   1      -2.479   4.971  -5.862  0.00  0.00     0.054 C 
ATOM      9  C   UNL d   1      -0.962   4.941  -5.985  0.00  0.00     0.018 C 
ENDBRANCH   1   8
TORSDOF 1
ENDMDL
