MODEL 1
REMARK minimizedAffinity -1.62829077
REMARK minimizedRMSD -1
REMARK  1 active torsions:
REMARK  status: ('A' for Active; 'I' for Inactive)
REMARK    1  A    between atoms: C1_2  and  C2_3 
ROOT
ATOM      1  C2  UNL d   1      -4.030   1.252  -5.939  0.00  0.00    -0.081 A 
ATOM      2  C3  UNL d   1      -5.194   2.029  -5.883  0.00  0.00     0.006 A 
ATOM      3  C4  UNL d   1      -5.116   3.423  -5.888  0.00  0.00     0.002 A 
ATOM      4  C5  UNL d   1      -3.874   4.064  -5.959  0.00  0.00    -0.080 A 
ATOM      5  C6  UNL d   1      -3.778   5.560  -5.996  0.00  0.00     0.076 C 
ATOM      6  C7  UNL d   1      -2.711   3.289  -5.998  0.00  0.00     0.002 A 
ATOM      7  C8  UNL d   1      -2.788   1.894  -5.991  0.00  0.00     0.006 A 
ENDROOT
BRANCH   1   8
ATOM      8  C1  UNL d   1      -4.114  -0.252  -5.999  0.00  0.00     0.054 C 
ATOM      9  C   UNL d   1      -5.539  -0.736  -5.767  0.00  0.00     0.018 C 
ENDBRANCH   1   8
TORSDOF 1
ENDMDL
