MODEL 1
REMARK minimizedAffinity -1.46973097
REMARK minimizedRMSD -1
REMARK  1 active torsions:
REMARK  status: ('A' for Active; 'I' for Inactive)
REMARK    1  A    between atoms: C1_2  and  C2_3 
ROOT
ATOM      1  C2  UNL d   1      -3.903   2.050  -5.933  0.00  0.00    -0.081 A 
ATOM      2  C3  UNL d   1      -2.783   1.211  -5.912  0.00  0.00     0.006 A 
ATOM      3  C4  UNL d   1      -2.938  -0.177  -5.914  0.00  0.00     0.002 A 
ATOM      4  C5  UNL d   1      -4.214  -0.749  -5.943  0.00  0.00    -0.080 A 
ATOM      5  C6  UNL d   1      -4.394  -2.238  -5.975  0.00  0.00     0.076 C 
ATOM      6  C7  UNL d   1      -5.334   0.089  -5.945  0.00  0.00     0.002 A 
ATOM      7  C8  UNL d   1      -5.180   1.477  -5.944  0.00  0.00     0.006 A 
ENDROOT
BRANCH   1   8
ATOM      8  C1  UNL d   1      -3.739   3.547  -5.997  0.00  0.00     0.054 C 
ATOM      9  C   UNL d   1      -5.087   4.253  -5.982  0.00  0.00     0.018 C 
ENDBRANCH   1   8
TORSDOF 1
ENDMDL
