MODEL 1
REMARK minimizedAffinity 7.54234028
REMARK minimizedRMSD -1
REMARK  1 active torsions:
REMARK  status: ('A' for Active; 'I' for Inactive)
REMARK    1  A    between atoms: C1_2  and  C2_3 
ROOT
ATOM      1  C2  UNL d   1       0.518   0.177   1.215  0.00  0.00    -0.081 A 
ATOM      2  C3  UNL d   1       1.443   1.026   0.597  0.00  0.00     0.006 A 
ATOM      3  C4  UNL d   1       1.727   0.893  -0.765  0.00  0.00     0.002 A 
ATOM      4  C5  UNL d   1       1.085  -0.085  -1.531  0.00  0.00    -0.080 A 
ATOM      5  C6  UNL d   1       1.358  -0.219  -3.000  0.00  0.00     0.076 C 
ATOM      6  C7  UNL d   1       0.173  -0.945  -0.909  0.00  0.00     0.002 A 
ATOM      7  C8  UNL d   1      -0.110  -0.813   0.452  0.00  0.00     0.006 A 
ENDROOT
BRANCH   1   8
ATOM      8  C1  UNL d   1       0.162   0.360   2.669  0.00  0.00     0.054 C 
ATOM      9  C   UNL d   1       1.399   0.302   3.553  0.00  0.00     0.018 C 
ENDBRANCH   1   8
TORSDOF 1
ENDMDL
