MODEL 1
REMARK minimizedAffinity -1.57784808
REMARK minimizedRMSD -1
REMARK  1 active torsions:
REMARK  status: ('A' for Active; 'I' for Inactive)
REMARK    1  A    between atoms: C1_2  and  C2_3 
ROOT
ATOM      1  C2  UNL d   1      -3.948  -0.403  -5.941  0.00  0.00    -0.081 A 
ATOM      2  C3  UNL d   1      -5.193   0.238  -5.940  0.00  0.00     0.006 A 
ATOM      3  C4  UNL d   1      -5.272   1.632  -5.947  0.00  0.00     0.002 A 
ATOM      4  C5  UNL d   1      -4.108   2.409  -5.962  0.00  0.00    -0.080 A 
ATOM      5  C6  UNL d   1      -4.179   3.907  -6.000  0.00  0.00     0.076 C 
ATOM      6  C7  UNL d   1      -2.864   1.769  -5.946  0.00  0.00     0.002 A 
ATOM      7  C8  UNL d   1      -2.785   0.375  -5.939  0.00  0.00     0.006 A 
ENDROOT
BRANCH   1   8
ATOM      8  C1  UNL d   1      -3.859  -1.906  -6.000  0.00  0.00     0.054 C 
ATOM      9  C   UNL d   1      -5.241  -2.544  -5.960  0.00  0.00     0.018 C 
ENDBRANCH   1   8
TORSDOF 1
ENDMDL
