MODEL 1
REMARK minimizedAffinity -0.452535003
REMARK minimizedRMSD -1
REMARK  1 active torsions:
REMARK  status: ('A' for Active; 'I' for Inactive)
REMARK    1  A    between atoms: C1_2  and  C2_3 
ROOT
ATOM      1  C2  UNL d   1      -4.226   2.545  -5.941  0.00  0.00    -0.081 A 
ATOM      2  C3  UNL d   1      -4.284   3.943  -5.991  0.00  0.00     0.006 A 
ATOM      3  C4  UNL d   1      -3.111   4.701  -5.997  0.00  0.00     0.002 A 
ATOM      4  C5  UNL d   1      -1.861   4.074  -5.962  0.00  0.00    -0.080 A 
ATOM      5  C6  UNL d   1      -0.593   4.874  -5.999  0.00  0.00     0.076 C 
ATOM      6  C7  UNL d   1      -1.803   2.678  -5.895  0.00  0.00     0.002 A 
ATOM      7  C8  UNL d   1      -2.975   1.919  -5.887  0.00  0.00     0.006 A 
ENDROOT
BRANCH   1   8
ATOM      8  C1  UNL d   1      -5.488   1.723  -5.999  0.00  0.00     0.054 C 
ATOM      9  C   UNL d   1      -5.178   0.232  -5.999  0.00  0.00     0.018 C 
ENDBRANCH   1   8
TORSDOF 1
ENDMDL
