MODEL 1
REMARK minimizedAffinity 9.61465263
REMARK minimizedRMSD -1
REMARK  1 active torsions:
REMARK  status: ('A' for Active; 'I' for Inactive)
REMARK    1  A    between atoms: C1_2  and  C2_3 
ROOT
ATOM      1  C2  UNL d   1       1.123   0.214  -0.987  0.00  0.00    -0.081 A 
ATOM      2  C3  UNL d   1       0.400   0.581   0.154  0.00  0.00     0.006 A 
ATOM      3  C4  UNL d   1       0.859   1.608   0.983  0.00  0.00     0.002 A 
ATOM      4  C5  UNL d   1       2.043   2.288   0.681  0.00  0.00    -0.080 A 
ATOM      5  C6  UNL d   1       2.530   3.413   1.546  0.00  0.00     0.076 C 
ATOM      6  C7  UNL d   1       2.775   1.910  -0.450  0.00  0.00     0.002 A 
ATOM      7  C8  UNL d   1       2.317   0.883  -1.279  0.00  0.00     0.006 A 
ENDROOT
BRANCH   1   8
ATOM      8  C1  UNL d   1       0.598  -0.849  -1.919  0.00  0.00     0.054 C 
ATOM      9  C   UNL d   1       0.786  -0.450  -3.375  0.00  0.00     0.018 C 
ENDBRANCH   1   8
TORSDOF 1
ENDMDL
