MODEL 1
REMARK minimizedAffinity 1.79552448
REMARK minimizedRMSD -1
REMARK  1 active torsions:
REMARK  status: ('A' for Active; 'I' for Inactive)
REMARK    1  A    between atoms: C1_2  and  C2_3 
ROOT
ATOM      1  C2  UNL d   1       0.627   0.845   0.310  0.00  0.00    -0.081 A 
ATOM      2  C3  UNL d   1       0.893   0.876   1.684  0.00  0.00     0.006 A 
ATOM      3  C4  UNL d   1      -0.037   1.421   2.573  0.00  0.00     0.002 A 
ATOM      4  C5  UNL d   1      -1.251   1.935   2.104  0.00  0.00    -0.080 A 
ATOM      5  C6  UNL d   1      -2.270   2.494   3.051  0.00  0.00     0.076 C 
ATOM      6  C7  UNL d   1      -1.509   1.919   0.729  0.00  0.00     0.002 A 
ATOM      7  C8  UNL d   1      -0.580   1.375  -0.160  0.00  0.00     0.006 A 
ENDROOT
BRANCH   1   8
ATOM      8  C1  UNL d   1       1.599   0.200  -0.645  0.00  0.00     0.054 C 
ATOM      9  C   UNL d   1       0.894  -0.306  -1.895  0.00  0.00     0.018 C 
ENDBRANCH   1   8
TORSDOF 1
ENDMDL
