MODEL 1
REMARK minimizedAffinity 3.91900396
REMARK minimizedRMSD -1
REMARK  1 active torsions:
REMARK  status: ('A' for Active; 'I' for Inactive)
REMARK    1  A    between atoms: C1_2  and  C2_3 
ROOT
ATOM      1  C2  UNL d   1      -2.793  -3.695  -4.220  0.00  0.00    -0.081 A 
ATOM      2  C3  UNL d   1      -4.027  -3.096  -4.499  0.00  0.00     0.006 A 
ATOM      3  C4  UNL d   1      -5.056  -3.835  -5.087  0.00  0.00     0.002 A 
ATOM      4  C5  UNL d   1      -4.872  -5.187  -5.397  0.00  0.00    -0.080 A 
ATOM      5  C6  UNL d   1      -5.978  -6.000  -5.999  0.00  0.00     0.076 C 
ATOM      6  C7  UNL d   1      -3.633  -5.781  -5.133  0.00  0.00     0.002 A 
ATOM      7  C8  UNL d   1      -2.603  -5.042  -4.547  0.00  0.00     0.006 A 
ENDROOT
BRANCH   1   8
ATOM      8  C1  UNL d   1      -1.703  -2.917  -3.528  0.00  0.00     0.054 C 
ATOM      9  C   UNL d   1      -2.080  -2.597  -2.088  0.00  0.00     0.018 C 
ENDBRANCH   1   8
TORSDOF 1
ENDMDL
