MODEL 1
REMARK minimizedAffinity -0.116316564
REMARK minimizedRMSD -1
REMARK  1 active torsions:
REMARK  status: ('A' for Active; 'I' for Inactive)
REMARK    1  A    between atoms: C1_2  and  C2_3 
ROOT
ATOM      1  C2  UNL d   1      -4.237  -3.128  -5.330  0.00  0.00    -0.081 A 
ATOM      2  C3  UNL d   1      -4.005  -4.335  -6.000  0.00  0.00     0.006 A 
ATOM      3  C4  UNL d   1      -2.980  -5.189  -5.586  0.00  0.00     0.002 A 
ATOM      4  C5  UNL d   1      -2.176  -4.855  -4.491  0.00  0.00    -0.080 A 
ATOM      5  C6  UNL d   1      -1.093  -5.777  -4.017  0.00  0.00     0.076 C 
ATOM      6  C7  UNL d   1      -2.397  -3.640  -3.832  0.00  0.00     0.002 A 
ATOM      7  C8  UNL d   1      -3.421  -2.785  -4.246  0.00  0.00     0.006 A 
ENDROOT
BRANCH   1   8
ATOM      8  C1  UNL d   1      -5.382  -2.235  -5.734  0.00  0.00     0.054 C 
ATOM      9  C   UNL d   1      -4.908  -0.813  -5.999  0.00  0.00     0.018 C 
ENDBRANCH   1   8
TORSDOF 1
ENDMDL
