MODEL 1
REMARK minimizedAffinity -1.89637482
REMARK minimizedRMSD -1
REMARK  1 active torsions:
REMARK  status: ('A' for Active; 'I' for Inactive)
REMARK    1  A    between atoms: C1_2  and  C2_3 
ROOT
ATOM      1  C2  UNL d   1      -0.281   0.765  -1.527  0.00  0.00    -0.081 A 
ATOM      2  C3  UNL d   1       0.920   0.269  -1.003  0.00  0.00     0.006 A 
ATOM      3  C4  UNL d   1       0.937  -0.383   0.233  0.00  0.00     0.002 A 
ATOM      4  C5  UNL d   1      -0.245  -0.557   0.960  0.00  0.00    -0.080 A 
ATOM      5  C6  UNL d   1      -0.244  -1.281   2.274  0.00  0.00     0.076 C 
ATOM      6  C7  UNL d   1      -1.441  -0.046   0.445  0.00  0.00     0.002 A 
ATOM      7  C8  UNL d   1      -1.459   0.606  -0.789  0.00  0.00     0.006 A 
ENDROOT
BRANCH   1   8
ATOM      8  C1  UNL d   1      -0.314   1.411  -2.888  0.00  0.00     0.054 C 
ATOM      9  C   UNL d   1      -0.971   2.782  -2.834  0.00  0.00     0.018 C 
ENDBRANCH   1   8
TORSDOF 1
ENDMDL
