MODEL 1
REMARK minimizedAffinity -1.85087001
REMARK minimizedRMSD -1
REMARK  1 active torsions:
REMARK  status: ('A' for Active; 'I' for Inactive)
REMARK    1  A    between atoms: C1_2  and  C2_3 
ROOT
ATOM      1  C2  UNL d   1      -0.633   0.820  -0.673  0.00  0.00    -0.081 A 
ATOM      2  C3  UNL d   1       0.319  -0.182  -0.893  0.00  0.00     0.006 A 
ATOM      3  C4  UNL d   1       0.707  -1.031   0.146  0.00  0.00     0.002 A 
ATOM      4  C5  UNL d   1       0.144  -0.898   1.419  0.00  0.00    -0.080 A 
ATOM      5  C6  UNL d   1       0.530  -1.822   2.536  0.00  0.00     0.076 C 
ATOM      6  C7  UNL d   1      -0.795   0.115   1.644  0.00  0.00     0.002 A 
ATOM      7  C8  UNL d   1      -1.182   0.965   0.606  0.00  0.00     0.006 A 
ENDROOT
BRANCH   1   8
ATOM      8  C1  UNL d   1      -1.101   1.696  -1.807  0.00  0.00     0.054 C 
ATOM      9  C   UNL d   1      -0.029   2.697  -2.212  0.00  0.00     0.018 C 
ENDBRANCH   1   8
TORSDOF 1
ENDMDL
