MODEL 1
REMARK minimizedAffinity -2.74139786
REMARK minimizedRMSD -1
REMARK  1 active torsions:
REMARK  status: ('A' for Active; 'I' for Inactive)
REMARK    1  A    between atoms: N_2  and  C1_3 
ROOT
ATOM      1  C1  UNL d   1       0.033   0.936  -0.551  0.00  0.00     0.143 A 
ATOM      2  C2  UNL d   1      -1.071   0.348  -1.177  0.00  0.00    -0.057 A 
ATOM      3  C3  UNL d   1      -1.207  -1.043  -1.253  0.00  0.00     0.033 A 
ATOM      4  C4  UNL d   1      -0.223  -1.874  -0.726  0.00  0.00    -0.042 A 
ATOM      5  C5  UNL d   1       0.895  -1.311  -0.122  0.00  0.00     0.033 A 
ATOM      6  C6  UNL d   1       1.022   0.079  -0.044  0.00  0.00    -0.057 A 
ENDROOT
BRANCH   1   7
ATOM      7  N   UNL d   1       0.274   2.312  -0.531  0.00  0.00    -0.732 N 
ATOM      8  C   UNL d   1       1.498   2.838   0.034  0.00  0.00     0.284 C 
ATOM      9  H3  UNL d   1      -0.017   2.770  -1.392  0.00  0.00     0.395 HD
ENDBRANCH   1   7
TORSDOF 1
ENDMDL
