MODEL 1
REMARK minimizedAffinity -3.21773791
REMARK minimizedRMSD -1
REMARK  1 active torsions:
REMARK  status: ('A' for Active; 'I' for Inactive)
REMARK    1  A    between atoms: N_2  and  C1_3 
ROOT
ATOM      1  C1  UNL d   1       1.258  -0.974  -0.257  0.00  0.00     0.143 A 
ATOM      2  C2  UNL d   1       0.750   0.205   0.298  0.00  0.00    -0.057 A 
ATOM      3  C3  UNL d   1      -0.540   0.654  -0.009  0.00  0.00     0.033 A 
ATOM      4  C4  UNL d   1      -1.337  -0.056  -0.901  0.00  0.00    -0.042 A 
ATOM      5  C5  UNL d   1      -0.843  -1.218  -1.483  0.00  0.00     0.033 A 
ATOM      6  C6  UNL d   1       0.444  -1.665  -1.168  0.00  0.00    -0.057 A 
ENDROOT
BRANCH   1   7
ATOM      7  N   UNL d   1       2.569  -1.421  -0.069  0.00  0.00    -0.732 N 
ATOM      8  C   UNL d   1       3.692  -0.602  -0.472  0.00  0.00     0.284 C 
ATOM      9  H3  UNL d   1       2.695  -1.888   0.826  0.00  0.00     0.395 HD
ENDBRANCH   1   7
TORSDOF 1
ENDMDL
