MODEL 1
REMARK minimizedAffinity -2.67772818
REMARK minimizedRMSD -1
REMARK  1 active torsions:
REMARK  status: ('A' for Active; 'I' for Inactive)
REMARK    1  A    between atoms: N_2  and  C1_3 
ROOT
ATOM      1  C1  UNL d   1       0.382   0.056  -0.787  0.00  0.00     0.143 A 
ATOM      2  C2  UNL d   1      -0.788  -0.694  -0.941  0.00  0.00    -0.057 A 
ATOM      3  C3  UNL d   1      -0.756  -2.093  -0.970  0.00  0.00     0.033 A 
ATOM      4  C4  UNL d   1       0.457  -2.769  -0.873  0.00  0.00    -0.042 A 
ATOM      5  C5  UNL d   1       1.636  -2.043  -0.745  0.00  0.00     0.033 A 
ATOM      6  C6  UNL d   1       1.595  -0.646  -0.710  0.00  0.00    -0.057 A 
ENDROOT
BRANCH   1   7
ATOM      7  N   UNL d   1       0.426   1.451  -0.850  0.00  0.00    -0.732 N 
ATOM      8  C   UNL d   1       1.556   2.178  -0.313  0.00  0.00     0.284 C 
ATOM      9  H3  UNL d   1       0.085   1.811  -1.739  0.00  0.00     0.395 HD
ENDBRANCH   1   7
TORSDOF 1
ENDMDL
