MODEL 1
REMARK minimizedAffinity -2.15505433
REMARK minimizedRMSD -1
REMARK  1 active torsions:
REMARK  status: ('A' for Active; 'I' for Inactive)
REMARK    1  A    between atoms: N_2  and  C1_3 
ROOT
ATOM      1  C1  UNL d   1       1.564  -0.749  -0.316  0.00  0.00     0.143 A 
ATOM      2  C2  UNL d   1       0.946   0.497  -0.162  0.00  0.00    -0.057 A 
ATOM      3  C3  UNL d   1      -0.437   0.647  -0.320  0.00  0.00     0.033 A 
ATOM      4  C4  UNL d   1      -1.226  -0.446  -0.665  0.00  0.00    -0.042 A 
ATOM      5  C5  UNL d   1      -0.630  -1.689  -0.848  0.00  0.00     0.033 A 
ATOM      6  C6  UNL d   1       0.751  -1.833  -0.682  0.00  0.00    -0.057 A 
ENDROOT
BRANCH   1   7
ATOM      7  N   UNL d   1       2.946  -0.943  -0.268  0.00  0.00    -0.732 N 
ATOM      8  C   UNL d   1       3.852   0.184  -0.331  0.00  0.00     0.284 C 
ATOM      9  H3  UNL d   1       3.215  -1.656   0.406  0.00  0.00     0.395 HD
ENDBRANCH   1   7
TORSDOF 1
ENDMDL
