MODEL 1
REMARK minimizedAffinity -2.61619639
REMARK minimizedRMSD -1
REMARK  0 active torsions:
REMARK  status: ('A' for Active; 'I' for Inactive)
ROOT
ATOM      1  C2' OXE d   1       0.864  -2.886   1.476  0.00  0.00     0.078 C 
ATOM      2  C1' OXE d   1       2.960  -1.025   1.624  0.00  0.00     0.078 C 
ATOM      3  C1  OXE d   1       1.582  -0.508   1.294  0.00  0.00    -0.078 A 
ATOM      4  C2  OXE d   1       0.571  -1.432   1.178  0.00  0.00    -0.078 A 
ATOM      5  C3  OXE d   1      -0.730  -1.003   0.930  0.00  0.00     0.003 A 
ATOM      6  C4  OXE d   1      -0.990   0.343   0.646  0.00  0.00    -0.002 A 
ATOM      7  C5  OXE d   1       0.032   1.295   0.720  0.00  0.00    -0.002 A 
ATOM      8  C6  OXE d   1       1.312   0.893   1.084  0.00  0.00     0.003 A 
ENDROOT
TORSDOF 0
ENDMDL
