MODEL 1
REMARK minimizedAffinity -5.26088285
REMARK minimizedRMSD -1
REMARK  0 active torsions:
REMARK  status: ('A' for Active; 'I' for Inactive)
ROOT
ATOM      1  C2' OXE d   1      -0.631   0.385   0.059  0.00  0.00     0.078 C 
ATOM      2  C1' OXE d   1      -0.415  -2.145   1.256  0.00  0.00     0.078 C 
ATOM      3  C1  OXE d   1       0.815  -1.273   1.228  0.00  0.00    -0.078 A 
ATOM      4  C2  OXE d   1       0.713  -0.056   0.599  0.00  0.00    -0.078 A 
ATOM      5  C3  OXE d   1       1.802   0.811   0.592  0.00  0.00     0.003 A 
ATOM      6  C4  OXE d   1       3.044   0.391   1.084  0.00  0.00    -0.002 A 
ATOM      7  C5  OXE d   1       3.181  -0.861   1.693  0.00  0.00    -0.002 A 
ATOM      8  C6  OXE d   1       2.068  -1.686   1.811  0.00  0.00     0.003 A 
ENDROOT
TORSDOF 0
ENDMDL
