MODEL 1
REMARK minimizedAffinity 8.82628918
REMARK minimizedRMSD -1
REMARK  0 active torsions:
REMARK  status: ('A' for Active; 'I' for Inactive)
ROOT
ATOM      1  C2' OXE d   1       1.495   0.323   0.728  0.00  0.00     0.078 C 
ATOM      2  C1' OXE d   1       2.231  -1.089   3.041  0.00  0.00     0.078 C 
ATOM      3  C1  OXE d   1       2.396   0.410   3.049  0.00  0.00    -0.078 A 
ATOM      4  C2  OXE d   1       2.077   1.088   1.897  0.00  0.00    -0.078 A 
ATOM      5  C3  OXE d   1       2.159   2.477   1.870  0.00  0.00     0.003 A 
ATOM      6  C4  OXE d   1       2.708   3.177   2.952  0.00  0.00    -0.002 A 
ATOM      7  C5  OXE d   1       3.076   2.501   4.120  0.00  0.00    -0.002 A 
ATOM      8  C6  OXE d   1       2.887   1.126   4.201  0.00  0.00     0.003 A 
ENDROOT
TORSDOF 0
ENDMDL
