MODEL 1
REMARK minimizedAffinity 1.89704645
REMARK minimizedRMSD -1
REMARK  0 active torsions:
REMARK  status: ('A' for Active; 'I' for Inactive)
ROOT
ATOM      1  C2' OXE d   1      -5.783  -5.945  -3.134  0.00  0.00     0.078 C 
ATOM      2  C1' OXE d   1      -6.000  -5.997  -5.932  0.00  0.00     0.078 C 
ATOM      3  C1  OXE d   1      -5.934  -4.650  -5.256  0.00  0.00    -0.078 A 
ATOM      4  C2  OXE d   1      -5.875  -4.634  -3.884  0.00  0.00    -0.078 A 
ATOM      5  C3  OXE d   1      -5.757  -3.420  -3.213  0.00  0.00     0.003 A 
ATOM      6  C4  OXE d   1      -5.853  -2.211  -3.914  0.00  0.00    -0.002 A 
ATOM      7  C5  OXE d   1      -5.953  -2.205  -5.309  0.00  0.00    -0.002 A 
ATOM      8  C6  OXE d   1      -5.952  -3.413  -5.997  0.00  0.00     0.003 A 
ENDROOT
TORSDOF 0
ENDMDL
