MODEL 1
REMARK minimizedAffinity 4.21347046
REMARK minimizedRMSD -1
REMARK  0 active torsions:
REMARK  status: ('A' for Active; 'I' for Inactive)
ROOT
ATOM      1  C2' OXE d   1       2.796   1.157   1.146  0.00  0.00     0.078 C 
ATOM      2  C1' OXE d   1       0.712   2.819   0.266  0.00  0.00     0.078 C 
ATOM      3  C1  OXE d   1       0.406   1.356   0.473  0.00  0.00    -0.078 A 
ATOM      4  C2  OXE d   1       1.444   0.542   0.858  0.00  0.00    -0.078 A 
ATOM      5  C3  OXE d   1       1.204  -0.805   1.116  0.00  0.00     0.003 A 
ATOM      6  C4  OXE d   1      -0.048  -1.368   0.837  0.00  0.00    -0.002 A 
ATOM      7  C5  OXE d   1      -1.108  -0.563   0.406  0.00  0.00    -0.002 A 
ATOM      8  C6  OXE d   1      -0.909   0.805   0.260  0.00  0.00     0.003 A 
ENDROOT
TORSDOF 0
ENDMDL
