MODEL 1
REMARK minimizedAffinity 10.5116615
REMARK minimizedRMSD -1
REMARK  0 active torsions:
REMARK  status: ('A' for Active; 'I' for Inactive)
ROOT
ATOM      1  C2' OXE d   1      -0.030  -2.016   1.045  0.00  0.00     0.078 C 
ATOM      2  C1' OXE d   1       1.378  -4.012  -0.338  0.00  0.00     0.078 C 
ATOM      3  C1  OXE d   1       0.094  -3.506  -0.947  0.00  0.00    -0.078 A 
ATOM      4  C2  OXE d   1      -0.612  -2.562  -0.241  0.00  0.00    -0.078 A 
ATOM      5  C3  OXE d   1      -1.774  -2.021  -0.783  0.00  0.00     0.003 A 
ATOM      6  C4  OXE d   1      -2.311  -2.539  -1.968  0.00  0.00    -0.002 A 
ATOM      7  C5  OXE d   1      -1.628  -3.529  -2.684  0.00  0.00    -0.002 A 
ATOM      8  C6  OXE d   1      -0.405  -3.991  -2.210  0.00  0.00     0.003 A 
ENDROOT
TORSDOF 0
ENDMDL
