MODEL 1
REMARK minimizedAffinity 1.08151126
REMARK minimizedRMSD -1
REMARK  0 active torsions:
REMARK  status: ('A' for Active; 'I' for Inactive)
ROOT
ATOM      1  C2' OXE d   1       1.395  -2.575   3.150  0.00  0.00     0.078 C 
ATOM      2  C1' OXE d   1       0.143  -1.834   0.749  0.00  0.00     0.078 C 
ATOM      3  C1  OXE d   1       1.175  -0.896   1.323  0.00  0.00    -0.078 A 
ATOM      4  C2  OXE d   1       1.749  -1.244   2.522  0.00  0.00    -0.078 A 
ATOM      5  C3  OXE d   1       2.747  -0.442   3.067  0.00  0.00     0.003 A 
ATOM      6  C4  OXE d   1       3.061   0.792   2.485  0.00  0.00    -0.002 A 
ATOM      7  C5  OXE d   1       2.460   1.185   1.285  0.00  0.00    -0.002 A 
ATOM      8  C6  OXE d   1       1.548   0.334   0.669  0.00  0.00     0.003 A 
ENDROOT
TORSDOF 0
ENDMDL
