MODEL 1
REMARK minimizedAffinity -2.4458077
REMARK minimizedRMSD -1
REMARK  0 active torsions:
REMARK  status: ('A' for Active; 'I' for Inactive)
ROOT
ATOM      1  O1  BZF d   1       1.807  -1.461  -1.808  0.00  0.00    -0.204 OA
ATOM      2  C2  BZF d   1       0.668  -2.241  -1.861  0.00  0.00     0.174 A 
ATOM      3  C3  BZF d   1      -0.182  -1.916  -0.866  0.00  0.00    -0.012 A 
ATOM      4  C3A BZF d   1       0.426  -0.805  -0.200  0.00  0.00    -0.107 A 
ATOM      5  C4  BZF d   1       0.055  -0.029   0.860  0.00  0.00     0.055 A 
ATOM      6  C5  BZF d   1       0.908   0.930   1.307  0.00  0.00    -0.016 A 
ATOM      7  C6  BZF d   1       2.140   1.136   0.722  0.00  0.00     0.022 A 
ATOM      8  C7  BZF d   1       2.549   0.395  -0.336  0.00  0.00     0.029 A 
ATOM      9  C7A BZF d   1       1.676  -0.553  -0.811  0.00  0.00     0.058 A 
ENDROOT
TORSDOF 0
ENDMDL
