MODEL 1
REMARK minimizedAffinity -3.34617352
REMARK minimizedRMSD -1
REMARK  0 active torsions:
REMARK  status: ('A' for Active; 'I' for Inactive)
ROOT
ATOM      1  O1  BZF d   1       2.198  -1.752  -1.420  0.00  0.00    -0.204 OA
ATOM      2  C2  BZF d   1       3.293  -0.911  -1.475  0.00  0.00     0.174 A 
ATOM      3  C3  BZF d   1       2.997   0.295  -0.948  0.00  0.00    -0.012 A 
ATOM      4  C3A BZF d   1       1.660   0.172  -0.455  0.00  0.00    -0.107 A 
ATOM      5  C4  BZF d   1       0.815   1.030   0.190  0.00  0.00     0.055 A 
ATOM      6  C5  BZF d   1      -0.452   0.624   0.469  0.00  0.00    -0.016 A 
ATOM      7  C6  BZF d   1      -0.908  -0.629   0.114  0.00  0.00     0.022 A 
ATOM      8  C7  BZF d   1      -0.105  -1.516  -0.522  0.00  0.00     0.029 A 
ATOM      9  C7A BZF d   1       1.186  -1.121  -0.777  0.00  0.00     0.058 A 
ENDROOT
TORSDOF 0
ENDMDL
