MODEL 1
REMARK minimizedAffinity -3.02286768
REMARK minimizedRMSD -1
REMARK  0 active torsions:
REMARK  status: ('A' for Active; 'I' for Inactive)
ROOT
ATOM      1  O1  BZF d   1       2.211  -1.586  -1.489  0.00  0.00    -0.204 OA
ATOM      2  C2  BZF d   1       3.267  -0.713  -1.310  0.00  0.00     0.174 A 
ATOM      3  C3  BZF d   1       2.872   0.382  -0.629  0.00  0.00    -0.012 A 
ATOM      4  C3A BZF d   1       1.505   0.139  -0.286  0.00  0.00    -0.107 A 
ATOM      5  C4  BZF d   1       0.569   0.854   0.406  0.00  0.00     0.055 A 
ATOM      6  C5  BZF d   1      -0.697   0.368   0.500  0.00  0.00    -0.016 A 
ATOM      7  C6  BZF d   1      -1.062  -0.825  -0.089  0.00  0.00     0.022 A 
ATOM      8  C7  BZF d   1      -0.167  -1.572  -0.781  0.00  0.00     0.029 A 
ATOM      9  C7A BZF d   1       1.120  -1.100  -0.850  0.00  0.00     0.058 A 
ENDROOT
TORSDOF 0
ENDMDL
