MODEL 1
REMARK minimizedAffinity -4.4252615
REMARK minimizedRMSD -1
REMARK  0 active torsions:
REMARK  status: ('A' for Active; 'I' for Inactive)
ROOT
ATOM      1  O1  BZF d   1       1.914  -1.473  -1.122  0.00  0.00    -0.204 OA
ATOM      2  C2  BZF d   1       2.812  -0.436  -1.286  0.00  0.00     0.174 A 
ATOM      3  C3  BZF d   1       2.320   0.709  -0.771  0.00  0.00    -0.012 A 
ATOM      4  C3A BZF d   1       1.073   0.346  -0.170  0.00  0.00    -0.107 A 
ATOM      5  C4  BZF d   1       0.123   1.046   0.517  0.00  0.00     0.055 A 
ATOM      6  C5  BZF d   1      -1.013   0.410   0.906  0.00  0.00    -0.016 A 
ATOM      7  C6  BZF d   1      -1.234  -0.922   0.622  0.00  0.00     0.022 A 
ATOM      8  C7  BZF d   1      -0.317  -1.659  -0.052  0.00  0.00     0.029 A 
ATOM      9  C7A BZF d   1       0.846  -1.028  -0.418  0.00  0.00     0.058 A 
ENDROOT
TORSDOF 0
ENDMDL
