MODEL 1
REMARK minimizedAffinity -3.89569521
REMARK minimizedRMSD -1
REMARK  0 active torsions:
REMARK  status: ('A' for Active; 'I' for Inactive)
ROOT
ATOM      1  O1  BZF d   1      -1.934   3.288   4.529  0.00  0.00    -0.204 OA
ATOM      2  C2  BZF d   1      -1.660   3.415   3.181  0.00  0.00     0.174 A 
ATOM      3  C3  BZF d   1      -2.624   4.127   2.562  0.00  0.00    -0.012 A 
ATOM      4  C3A BZF d   1      -3.511   4.545   3.604  0.00  0.00    -0.107 A 
ATOM      5  C4  BZF d   1      -4.651   5.296   3.622  0.00  0.00     0.055 A 
ATOM      6  C5  BZF d   1      -5.318   5.457   4.795  0.00  0.00    -0.016 A 
ATOM      7  C6  BZF d   1      -4.876   4.879   5.967  0.00  0.00     0.022 A 
ATOM      8  C7  BZF d   1      -3.747   4.130   6.000  0.00  0.00     0.029 A 
ATOM      9  C7A BZF d   1      -3.053   3.992   4.823  0.00  0.00     0.058 A 
ENDROOT
TORSDOF 0
ENDMDL
