MODEL 1
REMARK minimizedAffinity -3.82610512
REMARK minimizedRMSD -1
REMARK  0 active torsions:
REMARK  status: ('A' for Active; 'I' for Inactive)
ROOT
ATOM      1  O1  BZF d   1       0.020   1.766  -0.757  0.00  0.00    -0.204 OA
ATOM      2  C2  BZF d   1      -1.164   1.458  -0.117  0.00  0.00     0.174 A 
ATOM      3  C3  BZF d   1      -1.163   0.176   0.301  0.00  0.00    -0.012 A 
ATOM      4  C3A BZF d   1       0.139  -0.323  -0.021  0.00  0.00    -0.107 A 
ATOM      5  C4  BZF d   1       0.753  -1.529   0.161  0.00  0.00     0.055 A 
ATOM      6  C5  BZF d   1       2.005  -1.714  -0.334  0.00  0.00    -0.016 A 
ATOM      7  C6  BZF d   1       2.669  -0.718  -1.020  0.00  0.00     0.022 A 
ATOM      8  C7  BZF d   1       2.102   0.497  -1.220  0.00  0.00     0.029 A 
ATOM      9  C7A BZF d   1       0.850   0.698  -0.692  0.00  0.00     0.058 A 
ENDROOT
TORSDOF 0
ENDMDL
