MODEL 1
REMARK minimizedAffinity -3.74758601
REMARK minimizedRMSD -1
REMARK  0 active torsions:
REMARK  status: ('A' for Active; 'I' for Inactive)
ROOT
ATOM      1  O1  BZF d   1      -0.815  -1.261  -0.767  0.00  0.00    -0.204 OA
ATOM      2  C2  BZF d   1      -1.452  -0.345   0.048  0.00  0.00     0.174 A 
ATOM      3  C3  BZF d   1      -0.559   0.491   0.616  0.00  0.00    -0.012 A 
ATOM      4  C3A BZF d   1       0.706   0.129   0.054  0.00  0.00    -0.107 A 
ATOM      5  C4  BZF d   1       1.976   0.607   0.213  0.00  0.00     0.055 A 
ATOM      6  C5  BZF d   1       3.001  -0.016  -0.426  0.00  0.00    -0.016 A 
ATOM      7  C6  BZF d   1       2.793  -1.120  -1.227  0.00  0.00     0.022 A 
ATOM      8  C7  BZF d   1       1.551  -1.627  -1.419  0.00  0.00     0.029 A 
ATOM      9  C7A BZF d   1       0.509  -0.980  -0.801  0.00  0.00     0.058 A 
ENDROOT
TORSDOF 0
ENDMDL
