MODEL 1
REMARK minimizedAffinity -4.03314114
REMARK minimizedRMSD -1
REMARK  0 active torsions:
REMARK  status: ('A' for Active; 'I' for Inactive)
ROOT
ATOM      1  O1  BZF d   1       1.947  -1.835  -1.211  0.00  0.00    -0.204 OA
ATOM      2  C2  BZF d   1       2.747  -0.768  -1.572  0.00  0.00     0.174 A 
ATOM      3  C3  BZF d   1       2.116   0.401  -1.340  0.00  0.00    -0.012 A 
ATOM      4  C3A BZF d   1       0.879   0.045  -0.716  0.00  0.00    -0.107 A 
ATOM      5  C4  BZF d   1      -0.173   0.770  -0.235  0.00  0.00     0.055 A 
ATOM      6  C5  BZF d   1      -1.261   0.115   0.248  0.00  0.00    -0.016 A 
ATOM      7  C6  BZF d   1      -1.333  -1.262   0.259  0.00  0.00     0.022 A 
ATOM      8  C7  BZF d   1      -0.312  -2.025  -0.203  0.00  0.00     0.029 A 
ATOM      9  C7A BZF d   1       0.802  -1.366  -0.660  0.00  0.00     0.058 A 
ENDROOT
TORSDOF 0
ENDMDL
