MODEL 1
REMARK minimizedAffinity -5.39165926
REMARK minimizedRMSD -1
REMARK  0 active torsions:
REMARK  status: ('A' for Active; 'I' for Inactive)
ROOT
ATOM      1  O1  BZF d   1      -0.716   1.109  -0.235  0.00  0.00    -0.204 OA
ATOM      2  C2  BZF d   1      -1.306  -0.057   0.215  0.00  0.00     0.174 A 
ATOM      3  C3  BZF d   1      -0.536  -1.125  -0.075  0.00  0.00    -0.012 A 
ATOM      4  C3A BZF d   1       0.650  -0.586  -0.665  0.00  0.00    -0.107 A 
ATOM      5  C4  BZF d   1       1.798  -1.147  -1.149  0.00  0.00     0.055 A 
ATOM      6  C5  BZF d   1       2.732  -0.347  -1.727  0.00  0.00    -0.016 A 
ATOM      7  C6  BZF d   1       2.549   1.016  -1.842  0.00  0.00     0.022 A 
ATOM      8  C7  BZF d   1       1.430   1.619  -1.373  0.00  0.00     0.029 A 
ATOM      9  C7A BZF d   1       0.499   0.817  -0.759  0.00  0.00     0.058 A 
ENDROOT
TORSDOF 0
ENDMDL
