MODEL 1
REMARK minimizedAffinity -3.99443197
REMARK minimizedRMSD -1
REMARK  0 active torsions:
REMARK  status: ('A' for Active; 'I' for Inactive)
ROOT
ATOM      1  O1  BZF d   1       2.218   0.693  -1.347  0.00  0.00    -0.204 OA
ATOM      2  C2  BZF d   1       2.850  -0.487  -1.689  0.00  0.00     0.174 A 
ATOM      3  C3  BZF d   1       2.117  -1.551  -1.303  0.00  0.00    -0.012 A 
ATOM      4  C3A BZF d   1       0.911  -1.002  -0.764  0.00  0.00    -0.107 A 
ATOM      5  C4  BZF d   1      -0.217  -1.558  -0.231  0.00  0.00     0.055 A 
ATOM      6  C5  BZF d   1      -1.180  -0.742   0.272  0.00  0.00    -0.016 A 
ATOM      7  C6  BZF d   1      -1.047   0.631   0.263  0.00  0.00     0.022 A 
ATOM      8  C7  BZF d   1       0.052   1.228  -0.259  0.00  0.00     0.029 A 
ATOM      9  C7A BZF d   1       1.013   0.408  -0.798  0.00  0.00     0.058 A 
ENDROOT
TORSDOF 0
ENDMDL
