MODEL 1
REMARK minimizedAffinity -5.42930508
REMARK minimizedRMSD -1
REMARK  0 active torsions:
REMARK  status: ('A' for Active; 'I' for Inactive)
ROOT
ATOM      1  O1  BZF d   1      -0.060   1.516   0.966  0.00  0.00    -0.204 OA
ATOM      2  C2  BZF d   1      -1.113   0.788   1.485  0.00  0.00     0.174 A 
ATOM      3  C3  BZF d   1      -1.123  -0.463   0.982  0.00  0.00    -0.012 A 
ATOM      4  C3A BZF d   1       0.047  -0.549   0.163  0.00  0.00    -0.107 A 
ATOM      5  C4  BZF d   1       0.593  -1.548  -0.592  0.00  0.00     0.055 A 
ATOM      6  C5  BZF d   1       1.704  -1.285  -1.330  0.00  0.00    -0.016 A 
ATOM      7  C6  BZF d   1       2.290  -0.037  -1.341  0.00  0.00     0.022 A 
ATOM      8  C7  BZF d   1       1.787   0.984  -0.605  0.00  0.00     0.029 A 
ATOM      9  C7A BZF d   1       0.684   0.713   0.168  0.00  0.00     0.058 A 
ENDROOT
TORSDOF 0
ENDMDL
