MODEL 1
REMARK minimizedAffinity -2.41595459
REMARK minimizedRMSD -1
REMARK  0 active torsions:
REMARK  status: ('A' for Active; 'I' for Inactive)
ROOT
ATOM      1  O1  BZF d   1      -1.417   2.023  -1.548  0.00  0.00    -0.204 OA
ATOM      2  C2  BZF d   1      -0.344   2.786  -1.966  0.00  0.00     0.174 A 
ATOM      3  C3  BZF d   1       0.816   2.126  -1.775  0.00  0.00    -0.012 A 
ATOM      4  C3A BZF d   1       0.438   0.835  -1.286  0.00  0.00    -0.107 A 
ATOM      5  C4  BZF d   1       1.145  -0.276  -0.925  0.00  0.00     0.055 A 
ATOM      6  C5  BZF d   1       0.479  -1.347  -0.419  0.00  0.00    -0.016 A 
ATOM      7  C6  BZF d   1      -0.891  -1.340  -0.256  0.00  0.00     0.022 A 
ATOM      8  C7  BZF d   1      -1.635  -0.262  -0.604  0.00  0.00     0.029 A 
ATOM      9  C7A BZF d   1      -0.969   0.810  -1.146  0.00  0.00     0.058 A 
ENDROOT
TORSDOF 0
ENDMDL
