MODEL 1
REMARK minimizedAffinity -3.35280371
REMARK minimizedRMSD -1
REMARK  0 active torsions:
REMARK  status: ('A' for Active; 'I' for Inactive)
ROOT
ATOM      1  O1  BZF d   1       0.022   1.492   0.426  0.00  0.00    -0.204 OA
ATOM      2  C2  BZF d   1      -1.163   0.855   0.741  0.00  0.00     0.174 A 
ATOM      3  C3  BZF d   1      -1.143  -0.427   0.325  0.00  0.00    -0.012 A 
ATOM      4  C3A BZF d   1       0.171  -0.630  -0.205  0.00  0.00    -0.107 A 
ATOM      5  C4  BZF d   1       0.805  -1.707  -0.756  0.00  0.00     0.055 A 
ATOM      6  C5  BZF d   1       2.065  -1.554  -1.242  0.00  0.00    -0.016 A 
ATOM      7  C6  BZF d   1       2.717  -0.339  -1.198  0.00  0.00     0.022 A 
ATOM      8  C7  BZF d   1       2.131   0.756  -0.657  0.00  0.00     0.029 A 
ATOM      9  C7A BZF d   1       0.870   0.597  -0.135  0.00  0.00     0.058 A 
ENDROOT
TORSDOF 0
ENDMDL
