MODEL 1
REMARK minimizedAffinity -3.8226459
REMARK minimizedRMSD -1
REMARK  0 active torsions:
REMARK  status: ('A' for Active; 'I' for Inactive)
ROOT
ATOM      1  O1  BZF d   1       1.948  -1.876  -1.417  0.00  0.00    -0.204 OA
ATOM      2  C2  BZF d   1       2.853  -0.834  -1.485  0.00  0.00     0.174 A 
ATOM      3  C3  BZF d   1       2.296   0.313  -1.048  0.00  0.00    -0.012 A 
ATOM      4  C3A BZF d   1       0.987  -0.051  -0.598  0.00  0.00    -0.107 A 
ATOM      5  C4  BZF d   1      -0.043   0.651  -0.041  0.00  0.00     0.055 A 
ATOM      6  C5  BZF d   1      -1.215   0.011   0.216  0.00  0.00    -0.016 A 
ATOM      7  C6  BZF d   1      -1.391  -1.325  -0.075  0.00  0.00     0.022 A 
ATOM      8  C7  BZF d   1      -0.396  -2.064  -0.623  0.00  0.00     0.029 A 
ATOM      9  C7A BZF d   1       0.800  -1.429  -0.854  0.00  0.00     0.058 A 
ENDROOT
TORSDOF 0
ENDMDL
