MODEL 1
REMARK minimizedAffinity -0.411085159
REMARK minimizedRMSD -1
REMARK  0 active torsions:
REMARK  status: ('A' for Active; 'I' for Inactive)
ROOT
ATOM      1  O1  BZF d   1      -0.929   1.451   0.430  0.00  0.00    -0.204 OA
ATOM      2  C2  BZF d   1      -1.144   0.309  -0.317  0.00  0.00     0.174 A 
ATOM      3  C3  BZF d   1      -1.639  -0.681   0.454  0.00  0.00    -0.012 A 
ATOM      4  C3A BZF d   1      -1.827  -0.094   1.745  0.00  0.00    -0.107 A 
ATOM      5  C4  BZF d   1      -2.306  -0.570   2.932  0.00  0.00     0.055 A 
ATOM      6  C5  BZF d   1      -2.290   0.240   4.023  0.00  0.00    -0.016 A 
ATOM      7  C6  BZF d   1      -1.798   1.527   3.965  0.00  0.00     0.022 A 
ATOM      8  C7  BZF d   1      -1.317   2.045   2.809  0.00  0.00     0.029 A 
ATOM      9  C7A BZF d   1      -1.362   1.240   1.696  0.00  0.00     0.058 A 
ENDROOT
TORSDOF 0
ENDMDL
