MODEL 1
REMARK minimizedAffinity -3.51948309
REMARK minimizedRMSD -1
REMARK  0 active torsions:
REMARK  status: ('A' for Active; 'I' for Inactive)
ROOT
ATOM      1  O1  BZF d   1      -0.228   1.694  -1.276  0.00  0.00    -0.204 OA
ATOM      2  C2  BZF d   1      -1.427   1.466  -0.629  0.00  0.00     0.174 A 
ATOM      3  C3  BZF d   1      -1.425   0.258  -0.029  0.00  0.00    -0.012 A 
ATOM      4  C3A BZF d   1      -0.110  -0.265  -0.242  0.00  0.00    -0.107 A 
ATOM      5  C4  BZF d   1       0.511  -1.424   0.128  0.00  0.00     0.055 A 
ATOM      6  C5  BZF d   1       1.777  -1.662  -0.303  0.00  0.00    -0.016 A 
ATOM      7  C6  BZF d   1       2.450  -0.766  -1.108  0.00  0.00     0.022 A 
ATOM      8  C7  BZF d   1       1.877   0.399  -1.497  0.00  0.00     0.029 A 
ATOM      9  C7A BZF d   1       0.610   0.657  -1.036  0.00  0.00     0.058 A 
ENDROOT
TORSDOF 0
ENDMDL
