MODEL 1
REMARK minimizedAffinity -4.26953983
REMARK minimizedRMSD -1
REMARK  0 active torsions:
REMARK  status: ('A' for Active; 'I' for Inactive)
ROOT
ATOM      1  O1  BZF d   1       0.739  -1.312   0.607  0.00  0.00    -0.204 OA
ATOM      2  C2  BZF d   1      -0.431  -1.648   1.260  0.00  0.00     0.174 A 
ATOM      3  C3  BZF d   1      -1.389  -0.726   1.032  0.00  0.00    -0.012 A 
ATOM      4  C3A BZF d   1      -0.807   0.200   0.108  0.00  0.00    -0.107 A 
ATOM      5  C4  BZF d   1      -1.270   1.327  -0.509  0.00  0.00     0.055 A 
ATOM      6  C5  BZF d   1      -0.426   2.042  -1.297  0.00  0.00    -0.016 A 
ATOM      7  C6  BZF d   1       0.887   1.663  -1.486  0.00  0.00     0.022 A 
ATOM      8  C7  BZF d   1       1.390   0.550  -0.899  0.00  0.00     0.029 A 
ATOM      9  C7A BZF d   1       0.530  -0.193  -0.129  0.00  0.00     0.058 A 
ENDROOT
TORSDOF 0
ENDMDL
