MODEL 1
REMARK minimizedAffinity -1.25205779
REMARK minimizedRMSD -1
REMARK  0 active torsions:
REMARK  status: ('A' for Active; 'I' for Inactive)
ROOT
ATOM      1  O1  BZF d   1      -0.169   1.474   0.763  0.00  0.00    -0.204 OA
ATOM      2  C2  BZF d   1      -0.355   0.439  -0.133  0.00  0.00     0.174 A 
ATOM      3  C3  BZF d   1      -1.388  -0.341   0.243  0.00  0.00    -0.012 A 
ATOM      4  C3A BZF d   1      -1.938   0.296   1.401  0.00  0.00    -0.107 A 
ATOM      5  C4  BZF d   1      -2.991   0.006   2.221  0.00  0.00     0.055 A 
ATOM      6  C5  BZF d   1      -3.217   0.790   3.308  0.00  0.00    -0.016 A 
ATOM      7  C6  BZF d   1      -2.407   1.866   3.608  0.00  0.00     0.022 A 
ATOM      8  C7  BZF d   1      -1.353   2.195   2.822  0.00  0.00     0.029 A 
ATOM      9  C7A BZF d   1      -1.142   1.425   1.704  0.00  0.00     0.058 A 
ENDROOT
TORSDOF 0
ENDMDL
