MODEL 1
REMARK minimizedAffinity -3.64001822
REMARK minimizedRMSD -1
REMARK  1 active torsions:
REMARK  status: ('A' for Active; 'I' for Inactive)
REMARK    1  A    between atoms: C1_2  and  C2_3 
ROOT
ATOM      1  C2  UNL d   1      -0.451  -0.002  -0.020  0.00  0.00    -0.081 A 
ATOM      2  C3  UNL d   1       0.126  -1.261  -0.228  0.00  0.00     0.006 A 
ATOM      3  C4  UNL d   1       1.416  -1.370  -0.754  0.00  0.00     0.002 A 
ATOM      4  C5  UNL d   1       2.151  -0.224  -1.074  0.00  0.00    -0.080 A 
ATOM      5  C6  UNL d   1       3.548  -0.327  -1.611  0.00  0.00     0.076 C 
ATOM      6  C7  UNL d   1       1.568   1.033  -0.882  0.00  0.00     0.002 A 
ATOM      7  C8  UNL d   1       0.279   1.143  -0.357  0.00  0.00     0.006 A 
ENDROOT
BRANCH   1   8
ATOM      8  C1  UNL d   1      -1.816   0.121   0.608  0.00  0.00     0.054 C 
ATOM      9  C   UNL d   1      -1.715   0.468   2.087  0.00  0.00     0.018 C 
ENDBRANCH   1   8
TORSDOF 1
ENDMDL
