MODEL 1
REMARK minimizedAffinity 2.91349745
REMARK minimizedRMSD -1
REMARK  1 active torsions:
REMARK  status: ('A' for Active; 'I' for Inactive)
REMARK    1  A    between atoms: C1_2  and  C2_3 
ROOT
ATOM      1  C2  UNL d   1      -0.559  -0.131   1.380  0.00  0.00    -0.081 A 
ATOM      2  C3  UNL d   1      -0.038  -1.430   1.332  0.00  0.00     0.006 A 
ATOM      3  C4  UNL d   1       0.777  -1.828   0.270  0.00  0.00     0.002 A 
ATOM      4  C5  UNL d   1       1.092  -0.932  -0.758  0.00  0.00    -0.080 A 
ATOM      5  C6  UNL d   1       1.990  -1.337  -1.888  0.00  0.00     0.076 C 
ATOM      6  C7  UNL d   1       0.557   0.360  -0.720  0.00  0.00     0.002 A 
ATOM      7  C8  UNL d   1      -0.259   0.758   0.342  0.00  0.00     0.006 A 
ENDROOT
BRANCH   1   8
ATOM      8  C1  UNL d   1      -1.386   0.320   2.556  0.00  0.00     0.054 C 
ATOM      9  C   UNL d   1      -0.897   1.658   3.095  0.00  0.00     0.018 C 
ENDBRANCH   1   8
TORSDOF 1
ENDMDL
