MODEL 1
REMARK minimizedAffinity -4.0354476
REMARK minimizedRMSD -1
REMARK  1 active torsions:
REMARK  status: ('A' for Active; 'I' for Inactive)
REMARK    1  A    between atoms: C1_2  and  C2_3 
ROOT
ATOM      1  C2  UNL d   1      -0.368   0.056   0.406  0.00  0.00    -0.081 A 
ATOM      2  C3  UNL d   1       0.182  -1.231   0.462  0.00  0.00     0.006 A 
ATOM      3  C4  UNL d   1       1.369  -1.523  -0.215  0.00  0.00     0.002 A 
ATOM      4  C5  UNL d   1       2.029  -0.533  -0.951  0.00  0.00    -0.080 A 
ATOM      5  C6  UNL d   1       3.319  -0.826  -1.656  0.00  0.00     0.076 C 
ATOM      6  C7  UNL d   1       1.470   0.748  -1.020  0.00  0.00     0.002 A 
ATOM      7  C8  UNL d   1       0.283   1.040  -0.345  0.00  0.00     0.006 A 
ENDROOT
BRANCH   1   8
ATOM      8  C1  UNL d   1      -1.613   0.391   1.187  0.00  0.00     0.054 C 
ATOM      9  C   UNL d   1      -1.278   1.148   2.465  0.00  0.00     0.018 C 
ENDBRANCH   1   8
TORSDOF 1
ENDMDL
