MODEL 1
REMARK minimizedAffinity 1.59683692
REMARK minimizedRMSD -1
REMARK  1 active torsions:
REMARK  status: ('A' for Active; 'I' for Inactive)
REMARK    1  A    between atoms: C1_2  and  C2_3 
ROOT
ATOM      1  C2  UNL d   1      -0.196  -0.508   0.320  0.00  0.00    -0.081 A 
ATOM      2  C3  UNL d   1       0.387   0.689  -0.115  0.00  0.00     0.006 A 
ATOM      3  C4  UNL d   1       1.554   0.671  -0.882  0.00  0.00     0.002 A 
ATOM      4  C5  UNL d   1       2.154  -0.544  -1.233  0.00  0.00    -0.080 A 
ATOM      5  C6  UNL d   1       3.390  -0.578  -2.081  0.00  0.00     0.076 C 
ATOM      6  C7  UNL d   1       1.582  -1.739  -0.784  0.00  0.00     0.002 A 
ATOM      7  C8  UNL d   1       0.415  -1.721  -0.016  0.00  0.00     0.006 A 
ENDROOT
BRANCH   1   8
ATOM      8  C1  UNL d   1      -1.490  -0.494   1.093  0.00  0.00     0.054 C 
ATOM      9  C   UNL d   1      -1.345   0.269   2.402  0.00  0.00     0.018 C 
ENDBRANCH   1   8
TORSDOF 1
ENDMDL
