MODEL 1
REMARK minimizedAffinity -3.53875899
REMARK minimizedRMSD -1
REMARK  1 active torsions:
REMARK  status: ('A' for Active; 'I' for Inactive)
REMARK    1  A    between atoms: C1_2  and  C2_3 
ROOT
ATOM      1  C2  UNL d   1       1.052   0.857  -0.815  0.00  0.00    -0.081 A 
ATOM      2  C3  UNL d   1       2.078  -0.077  -1.005  0.00  0.00     0.006 A 
ATOM      3  C4  UNL d   1       1.881  -1.421  -0.678  0.00  0.00     0.002 A 
ATOM      4  C5  UNL d   1       0.654  -1.854  -0.164  0.00  0.00    -0.080 A 
ATOM      5  C6  UNL d   1       0.420  -3.300   0.162  0.00  0.00     0.076 C 
ATOM      6  C7  UNL d   1      -0.365  -0.918   0.042  0.00  0.00     0.002 A 
ATOM      7  C8  UNL d   1      -0.168   0.426  -0.283  0.00  0.00     0.006 A 
ENDROOT
BRANCH   1   8
ATOM      8  C1  UNL d   1       1.239   2.295  -1.226  0.00  0.00     0.054 C 
ATOM      9  C   UNL d   1      -0.031   2.864  -1.842  0.00  0.00     0.018 C 
ENDBRANCH   1   8
TORSDOF 1
ENDMDL
