MODEL 1
REMARK minimizedAffinity -2.6916163
REMARK minimizedRMSD -1
REMARK  1 active torsions:
REMARK  status: ('A' for Active; 'I' for Inactive)
REMARK    1  A    between atoms: C1_2  and  C2_3 
ROOT
ATOM      1  C2  UNL d   1      -0.594  -0.172   0.202  0.00  0.00    -0.081 A 
ATOM      2  C3  UNL d   1       0.154  -1.355   0.181  0.00  0.00     0.006 A 
ATOM      3  C4  UNL d   1       1.406  -1.391  -0.439  0.00  0.00     0.002 A 
ATOM      4  C5  UNL d   1       1.932  -0.243  -1.042  0.00  0.00    -0.080 A 
ATOM      5  C6  UNL d   1       3.287  -0.260  -1.685  0.00  0.00     0.076 C 
ATOM      6  C7  UNL d   1       1.176   0.934  -1.037  0.00  0.00     0.002 A 
ATOM      7  C8  UNL d   1      -0.075   0.970  -0.417  0.00  0.00     0.006 A 
ENDROOT
BRANCH   1   8
ATOM      8  C1  UNL d   1      -1.915  -0.114   0.926  0.00  0.00     0.054 C 
ATOM      9  C   UNL d   1      -1.752   0.451   2.330  0.00  0.00     0.018 C 
ENDBRANCH   1   8
TORSDOF 1
ENDMDL
