MODEL 1
REMARK minimizedAffinity -3.24586177
REMARK minimizedRMSD -1
REMARK  1 active torsions:
REMARK  status: ('A' for Active; 'I' for Inactive)
REMARK    1  A    between atoms: C1_2  and  C2_3 
ROOT
ATOM      1  C2  UNL d   1      -0.237   0.755   0.908  0.00  0.00    -0.081 A 
ATOM      2  C3  UNL d   1      -0.952  -0.074   0.035  0.00  0.00     0.006 A 
ATOM      3  C4  UNL d   1      -0.279  -0.924  -0.846  0.00  0.00     0.002 A 
ATOM      4  C5  UNL d   1       1.119  -0.965  -0.863  0.00  0.00    -0.080 A 
ATOM      5  C6  UNL d   1       1.854  -1.895  -1.782  0.00  0.00     0.076 C 
ATOM      6  C7  UNL d   1       1.834  -0.124  -0.004  0.00  0.00     0.002 A 
ATOM      7  C8  UNL d   1       1.162   0.726   0.877  0.00  0.00     0.006 A 
ENDROOT
BRANCH   1   8
ATOM      8  C1  UNL d   1      -0.960   1.626   1.904  0.00  0.00     0.054 C 
ATOM      9  C   UNL d   1      -1.047   0.953   3.266  0.00  0.00     0.018 C 
ENDBRANCH   1   8
TORSDOF 1
ENDMDL
