MODEL 1
REMARK minimizedAffinity -2.82064939
REMARK minimizedRMSD -1
REMARK  1 active torsions:
REMARK  status: ('A' for Active; 'I' for Inactive)
REMARK    1  A    between atoms: C1_2  and  C2_3 
ROOT
ATOM      1  C2  UNL d   1      -0.251  -0.002  -0.034  0.00  0.00    -0.081 A 
ATOM      2  C3  UNL d   1       0.188  -1.299  -0.326  0.00  0.00     0.006 A 
ATOM      3  C4  UNL d   1       1.507  -1.527  -0.728  0.00  0.00     0.002 A 
ATOM      4  C5  UNL d   1       2.409  -0.464  -0.836  0.00  0.00    -0.080 A 
ATOM      5  C6  UNL d   1       3.836  -0.699  -1.236  0.00  0.00     0.076 C 
ATOM      6  C7  UNL d   1       1.966   0.834  -0.561  0.00  0.00     0.002 A 
ATOM      7  C8  UNL d   1       0.648   1.063  -0.160  0.00  0.00     0.006 A 
ENDROOT
BRANCH   1   8
ATOM      8  C1  UNL d   1      -1.654   0.239   0.461  0.00  0.00     0.054 C 
ATOM      9  C   UNL d   1      -1.651   0.845   1.857  0.00  0.00     0.018 C 
ENDBRANCH   1   8
TORSDOF 1
ENDMDL
