MODEL 1
REMARK minimizedAffinity -2.71885204
REMARK minimizedRMSD -1
REMARK  1 active torsions:
REMARK  status: ('A' for Active; 'I' for Inactive)
REMARK    1  A    between atoms: C1_2  and  C2_3 
ROOT
ATOM      1  C2  UNL d   1      -0.563   0.598   0.491  0.00  0.00    -0.081 A 
ATOM      2  C3  UNL d   1      -0.323  -0.757   0.233  0.00  0.00     0.006 A 
ATOM      3  C4  UNL d   1       0.832  -1.156  -0.444  0.00  0.00     0.002 A 
ATOM      4  C5  UNL d   1       1.769  -0.207  -0.868  0.00  0.00    -0.080 A 
ATOM      5  C6  UNL d   1       3.028  -0.624  -1.569  0.00  0.00     0.076 C 
ATOM      6  C7  UNL d   1       1.521   1.148  -0.626  0.00  0.00     0.002 A 
ATOM      7  C8  UNL d   1       0.366   1.547   0.050  0.00  0.00     0.006 A 
ENDROOT
BRANCH   1   8
ATOM      8  C1  UNL d   1      -1.775   1.026   1.277  0.00  0.00     0.054 C 
ATOM      9  C   UNL d   1      -1.932   0.198   2.545  0.00  0.00     0.018 C 
ENDBRANCH   1   8
TORSDOF 1
ENDMDL
