MODEL 1
REMARK minimizedAffinity -4.38272905
REMARK minimizedRMSD -1
REMARK  1 active torsions:
REMARK  status: ('A' for Active; 'I' for Inactive)
REMARK    1  A    between atoms: C1_2  and  C2_3 
ROOT
ATOM      1  C2  UNL d   1      -1.517  -0.270   1.062  0.00  0.00    -0.081 A 
ATOM      2  C3  UNL d   1      -1.030  -1.542   0.737  0.00  0.00     0.006 A 
ATOM      3  C4  UNL d   1       0.139  -1.682  -0.015  0.00  0.00     0.002 A 
ATOM      4  C5  UNL d   1       0.844  -0.553  -0.448  0.00  0.00    -0.080 A 
ATOM      5  C6  UNL d   1       2.116  -0.689  -1.230  0.00  0.00     0.076 C 
ATOM      6  C7  UNL d   1       0.347   0.718  -0.138  0.00  0.00     0.002 A 
ATOM      7  C8  UNL d   1      -0.822   0.858   0.613  0.00  0.00     0.006 A 
ENDROOT
BRANCH   1   8
ATOM      8  C1  UNL d   1      -2.742  -0.117   1.928  0.00  0.00     0.054 C 
ATOM      9  C   UNL d   1      -2.422   0.640   3.209  0.00  0.00     0.018 C 
ENDBRANCH   1   8
TORSDOF 1
ENDMDL
