MODEL 1
REMARK minimizedAffinity -0.329441041
REMARK minimizedRMSD -1
REMARK  0 active torsions:
REMARK  status: ('A' for Active; 'I' for Inactive)
ROOT
ATOM      1  C1  BNZ d   1      -5.465   2.084   4.821  0.00  0.00     0.000 A 
ATOM      2  C2  BNZ d   1      -5.589   2.777   5.996  0.00  0.00     0.000 A 
ATOM      3  C3  BNZ d   1      -5.876   4.113   5.993  0.00  0.00     0.000 A 
ATOM      4  C4  BNZ d   1      -5.999   4.763   4.818  0.00  0.00     0.000 A 
ATOM      5  C5  BNZ d   1      -5.868   4.080   3.625  0.00  0.00     0.000 A 
ATOM      6  C6  BNZ d   1      -5.617   2.727   3.632  0.00  0.00     0.000 A 
ENDROOT
TORSDOF 0
ENDMDL
