MODEL 1
REMARK minimizedAffinity -1.30544174
REMARK minimizedRMSD -1
REMARK  0 active torsions:
REMARK  status: ('A' for Active; 'I' for Inactive)
ROOT
ATOM      1  C1  BNZ d   1       4.945   0.123   2.043  0.00  0.00     0.000 A 
ATOM      2  C2  BNZ d   1       4.163  -0.789   2.700  0.00  0.00     0.000 A 
ATOM      3  C3  BNZ d   1       2.886  -1.045   2.285  0.00  0.00     0.000 A 
ATOM      4  C4  BNZ d   1       2.380  -0.360   1.239  0.00  0.00     0.000 A 
ATOM      5  C5  BNZ d   1       3.152   0.570   0.572  0.00  0.00     0.000 A 
ATOM      6  C6  BNZ d   1       4.450   0.797   0.969  0.00  0.00     0.000 A 
ENDROOT
TORSDOF 0
ENDMDL
