MODEL 1
REMARK minimizedAffinity 5.43755627
REMARK minimizedRMSD -1
REMARK  0 active torsions:
REMARK  status: ('A' for Active; 'I' for Inactive)
ROOT
ATOM      1  C1  BNZ d   1      -4.149  -4.059   4.978  0.00  0.00     0.000 A 
ATOM      2  C2  BNZ d   1      -3.699  -3.265   5.999  0.00  0.00     0.000 A 
ATOM      3  C3  BNZ d   1      -3.291  -1.983   5.761  0.00  0.00     0.000 A 
ATOM      4  C4  BNZ d   1      -3.294  -1.509   4.498  0.00  0.00     0.000 A 
ATOM      5  C5  BNZ d   1      -3.736  -2.300   3.457  0.00  0.00     0.000 A 
ATOM      6  C6  BNZ d   1      -4.183  -3.578   3.706  0.00  0.00     0.000 A 
ENDROOT
TORSDOF 0
ENDMDL
