MODEL 1
REMARK minimizedAffinity 2.09323716
REMARK minimizedRMSD -1
REMARK  0 active torsions:
REMARK  status: ('A' for Active; 'I' for Inactive)
ROOT
ATOM      1  C1  BNZ d   1       4.857  -0.026   1.969  0.00  0.00     0.000 A 
ATOM      2  C2  BNZ d   1       4.092  -0.872   2.727  0.00  0.00     0.000 A 
ATOM      3  C3  BNZ d   1       2.728  -0.791   2.706  0.00  0.00     0.000 A 
ATOM      4  C4  BNZ d   1       2.132   0.160   1.959  0.00  0.00     0.000 A 
ATOM      5  C5  BNZ d   1       2.889   1.027   1.196  0.00  0.00     0.000 A 
ATOM      6  C6  BNZ d   1       4.260   0.917   1.189  0.00  0.00     0.000 A 
ENDROOT
TORSDOF 0
ENDMDL
