MODEL 1
REMARK minimizedAffinity 1.52105677
REMARK minimizedRMSD -1
REMARK  0 active torsions:
REMARK  status: ('A' for Active; 'I' for Inactive)
ROOT
ATOM      1  C1  BNZ d   1       1.740   0.360   0.722  0.00  0.00     0.000 A 
ATOM      2  C2  BNZ d   1       1.627  -0.486   1.792  0.00  0.00     0.000 A 
ATOM      3  C3  BNZ d   1       2.678  -0.682   2.644  0.00  0.00     0.000 A 
ATOM      4  C4  BNZ d   1       3.852  -0.064   2.401  0.00  0.00     0.000 A 
ATOM      5  C5  BNZ d   1       3.984   0.786   1.321  0.00  0.00     0.000 A 
ATOM      6  C6  BNZ d   1       2.912   1.011   0.489  0.00  0.00     0.000 A 
ENDROOT
TORSDOF 0
ENDMDL
