MODEL 1
REMARK minimizedAffinity 0.760946274
REMARK minimizedRMSD -1
REMARK  0 active torsions:
REMARK  status: ('A' for Active; 'I' for Inactive)
ROOT
ATOM      1  C1  BNZ d   1       4.706   0.252  -3.209  0.00  0.00     0.000 A 
ATOM      2  C2  BNZ d   1       4.989  -0.417  -2.048  0.00  0.00     0.000 A 
ATOM      3  C3  BNZ d   1       4.171  -1.415  -1.598  0.00  0.00     0.000 A 
ATOM      4  C4  BNZ d   1       3.051  -1.715  -2.286  0.00  0.00     0.000 A 
ATOM      5  C5  BNZ d   1       2.746  -1.043  -3.453  0.00  0.00     0.000 A 
ATOM      6  C6  BNZ d   1       3.593  -0.065  -3.924  0.00  0.00     0.000 A 
ENDROOT
TORSDOF 0
ENDMDL
