MODEL 1
REMARK minimizedAffinity 1.99420762
REMARK minimizedRMSD -1
REMARK  0 active torsions:
REMARK  status: ('A' for Active; 'I' for Inactive)
ROOT
ATOM      1  C1  BNZ d   1      -5.995   4.213   5.951  0.00  0.00     0.000 A 
ATOM      2  C2  BNZ d   1      -5.406   5.448   5.979  0.00  0.00     0.000 A 
ATOM      3  C3  BNZ d   1      -4.045   5.575   5.981  0.00  0.00     0.000 A 
ATOM      4  C4  BNZ d   1      -3.276   4.467   5.995  0.00  0.00     0.000 A 
ATOM      5  C5  BNZ d   1      -3.856   3.214   5.976  0.00  0.00     0.000 A 
ATOM      6  C6  BNZ d   1      -5.225   3.091   5.935  0.00  0.00     0.000 A 
ENDROOT
TORSDOF 0
ENDMDL
