MODEL 1
REMARK minimizedAffinity -3.20998621
REMARK minimizedRMSD -1
REMARK  0 active torsions:
REMARK  status: ('A' for Active; 'I' for Inactive)
ROOT
ATOM      1  C1  BNZ d   1       4.084  -0.078   2.137  0.00  0.00     0.000 A 
ATOM      2  C2  BNZ d   1       3.832   0.752   1.078  0.00  0.00     0.000 A 
ATOM      3  C3  BNZ d   1       2.639   0.695   0.412  0.00  0.00     0.000 A 
ATOM      4  C4  BNZ d   1       1.718  -0.219   0.779  0.00  0.00     0.000 A 
ATOM      5  C5  BNZ d   1       1.961  -1.070   1.839  0.00  0.00     0.000 A 
ATOM      6  C6  BNZ d   1       3.147  -0.983   2.532  0.00  0.00     0.000 A 
ENDROOT
TORSDOF 0
ENDMDL
