MODEL 1
REMARK minimizedAffinity 5.17076302
REMARK minimizedRMSD -1
REMARK  0 active torsions:
REMARK  status: ('A' for Active; 'I' for Inactive)
ROOT
ATOM      1  C1  BNZ d   1       1.263  -1.132   1.557  0.00  0.00     0.000 A 
ATOM      2  C2  BNZ d   1       2.230  -0.269   2.000  0.00  0.00     0.000 A 
ATOM      3  C3  BNZ d   1       3.455  -0.733   2.393  0.00  0.00     0.000 A 
ATOM      4  C4  BNZ d   1       3.696  -2.060   2.381  0.00  0.00     0.000 A 
ATOM      5  C5  BNZ d   1       2.728  -2.943   1.945  0.00  0.00     0.000 A 
ATOM      6  C6  BNZ d   1       1.511  -2.469   1.514  0.00  0.00     0.000 A 
ENDROOT
TORSDOF 0
ENDMDL
