MODEL 1
REMARK minimizedAffinity 7.96066141
REMARK minimizedRMSD -1
REMARK  0 active torsions:
REMARK  status: ('A' for Active; 'I' for Inactive)
ROOT
ATOM      1  C1  BNZ d   1      -5.997   2.104   2.995  0.00  0.00     0.000 A 
ATOM      2  C2  BNZ d   1      -5.999   0.735   3.012  0.00  0.00     0.000 A 
ATOM      3  C3  BNZ d   1      -5.190   0.024   2.170  0.00  0.00     0.000 A 
ATOM      4  C4  BNZ d   1      -4.411   0.681   1.287  0.00  0.00     0.000 A 
ATOM      5  C5  BNZ d   1      -4.404   2.061   1.252  0.00  0.00     0.000 A 
ATOM      6  C6  BNZ d   1      -5.191   2.774   2.127  0.00  0.00     0.000 A 
ENDROOT
TORSDOF 0
ENDMDL
