MODEL 1
REMARK minimizedAffinity 3.57683492
REMARK minimizedRMSD -1
REMARK  0 active torsions:
REMARK  status: ('A' for Active; 'I' for Inactive)
ROOT
ATOM      1  C1  BNZ d   1      -2.710   4.807   4.838  0.00  0.00     0.000 A 
ATOM      2  C2  BNZ d   1      -1.971   4.750   3.686  0.00  0.00     0.000 A 
ATOM      3  C3  BNZ d   1      -0.733   4.171   3.678  0.00  0.00     0.000 A 
ATOM      4  C4  BNZ d   1      -0.219   3.688   4.827  0.00  0.00     0.000 A 
ATOM      5  C5  BNZ d   1      -0.948   3.747   5.998  0.00  0.00     0.000 A 
ATOM      6  C6  BNZ d   1      -2.210   4.294   5.995  0.00  0.00     0.000 A 
ENDROOT
TORSDOF 0
ENDMDL
