MODEL 1
REMARK minimizedAffinity 2.09299445
REMARK minimizedRMSD -1
REMARK  0 active torsions:
REMARK  status: ('A' for Active; 'I' for Inactive)
ROOT
ATOM      1  C1  BNZ d   1       3.928   0.847   0.789  0.00  0.00     0.000 A 
ATOM      2  C2  BNZ d   1       2.563   0.863   0.677  0.00  0.00     0.000 A 
ATOM      3  C3  BNZ d   1       1.778   0.217   1.591  0.00  0.00     0.000 A 
ATOM      4  C4  BNZ d   1       2.359  -0.477   2.591  0.00  0.00     0.000 A 
ATOM      5  C5  BNZ d   1       3.734  -0.510   2.712  0.00  0.00     0.000 A 
ATOM      6  C6  BNZ d   1       4.519   0.174   1.813  0.00  0.00     0.000 A 
ENDROOT
TORSDOF 0
ENDMDL
