MODEL 1
REMARK minimizedAffinity -0.0441163145
REMARK minimizedRMSD -1
REMARK  0 active torsions:
REMARK  status: ('A' for Active; 'I' for Inactive)
ROOT
ATOM      1  C1  BNZ d   1       4.940   0.360   1.491  0.00  0.00     0.000 A 
ATOM      2  C2  BNZ d   1       4.734  -0.518   2.521  0.00  0.00     0.000 A 
ATOM      3  C3  BNZ d   1       3.469  -0.881   2.889  0.00  0.00     0.000 A 
ATOM      4  C4  BNZ d   1       2.411  -0.336   2.254  0.00  0.00     0.000 A 
ATOM      5  C5  BNZ d   1       2.603   0.558   1.219  0.00  0.00     0.000 A 
ATOM      6  C6  BNZ d   1       3.878   0.892   0.826  0.00  0.00     0.000 A 
ENDROOT
TORSDOF 0
ENDMDL
