MODEL 1
REMARK minimizedAffinity 0.595507324
REMARK minimizedRMSD -1
REMARK  0 active torsions:
REMARK  status: ('A' for Active; 'I' for Inactive)
ROOT
ATOM      1  C1  BNZ d   1       3.751   0.424   1.737  0.00  0.00     0.000 A 
ATOM      2  C2  BNZ d   1       2.998   0.893   0.693  0.00  0.00     0.000 A 
ATOM      3  C3  BNZ d   1       1.705   0.484   0.525  0.00  0.00     0.000 A 
ATOM      4  C4  BNZ d   1       1.179  -0.421   1.376  0.00  0.00     0.000 A 
ATOM      5  C5  BNZ d   1       1.929  -0.910   2.427  0.00  0.00     0.000 A 
ATOM      6  C6  BNZ d   1       3.218  -0.467   2.616  0.00  0.00     0.000 A 
ENDROOT
TORSDOF 0
ENDMDL
