MODEL 1
REMARK minimizedAffinity 0.724652112
REMARK minimizedRMSD -1
REMARK  0 active torsions:
REMARK  status: ('A' for Active; 'I' for Inactive)
ROOT
ATOM      1  C1  BNZ d   1      -5.783   1.073   3.407  0.00  0.00     0.000 A 
ATOM      2  C2  BNZ d   1      -5.238   1.155   4.661  0.00  0.00     0.000 A 
ATOM      3  C3  BNZ d   1      -4.916   2.366   5.207  0.00  0.00     0.000 A 
ATOM      4  C4  BNZ d   1      -5.101   3.490   4.483  0.00  0.00     0.000 A 
ATOM      5  C5  BNZ d   1      -5.640   3.423   3.214  0.00  0.00     0.000 A 
ATOM      6  C6  BNZ d   1      -6.000   2.205   2.683  0.00  0.00     0.000 A 
ENDROOT
TORSDOF 0
ENDMDL
