MODEL 1
REMARK minimizedAffinity -0.617418528
REMARK minimizedRMSD -1
REMARK  0 active torsions:
REMARK  status: ('A' for Active; 'I' for Inactive)
ROOT
ATOM      1  C1  BNZ d   1      -3.358  -2.987   4.837  0.00  0.00     0.000 A 
ATOM      2  C2  BNZ d   1      -3.355  -2.263   5.999  0.00  0.00     0.000 A 
ATOM      3  C3  BNZ d   1      -3.681  -0.936   5.998  0.00  0.00     0.000 A 
ATOM      4  C4  BNZ d   1      -3.970  -0.325   4.830  0.00  0.00     0.000 A 
ATOM      5  C5  BNZ d   1      -3.968  -1.040   3.649  0.00  0.00     0.000 A 
ATOM      6  C6  BNZ d   1      -3.677  -2.385   3.659  0.00  0.00     0.000 A 
ENDROOT
TORSDOF 0
ENDMDL
