MODEL 1
REMARK minimizedAffinity 4.08984709
REMARK minimizedRMSD -1
REMARK  0 active torsions:
REMARK  status: ('A' for Active; 'I' for Inactive)
ROOT
ATOM      1  C   UNL d   1       1.543  -5.984   2.301  0.00  0.00     0.172 C 
ATOM      2  N   UNL d   1       0.196  -5.989   1.781  0.00  0.00    -0.070 N 
ATOM      3  C1  UNL d   1      -0.950  -5.993   2.531  0.00  0.00    -0.004 A 
ATOM      4  C2  UNL d   1      -2.021  -5.996   1.665  0.00  0.00    -0.047 A 
ATOM      5  C3  UNL d   1      -1.502  -5.995   0.348  0.00  0.00    -0.047 A 
ATOM      6  C4  UNL d   1      -0.127  -5.991   0.449  0.00  0.00    -0.004 A 
ENDROOT
TORSDOF 0
ENDMDL
