MODEL 1
REMARK minimizedAffinity 0.495003581
REMARK minimizedRMSD -1
REMARK  0 active torsions:
REMARK  status: ('A' for Active; 'I' for Inactive)
ROOT
ATOM      1  C   UNL d   1       0.258  -6.000   3.610  0.00  0.00     0.172 C 
ATOM      2  N   UNL d   1       1.573  -5.995   4.207  0.00  0.00    -0.070 N 
ATOM      3  C1  UNL d   1       1.840  -5.983   5.550  0.00  0.00    -0.004 A 
ATOM      4  C2  UNL d   1       3.209  -5.982   5.708  0.00  0.00    -0.047 A 
ATOM      5  C3  UNL d   1       3.785  -5.992   4.415  0.00  0.00    -0.047 A 
ATOM      6  C4  UNL d   1       2.749  -6.000   3.504  0.00  0.00    -0.004 A 
ENDROOT
TORSDOF 0
ENDMDL
