MODEL 1
REMARK minimizedAffinity 5.03520536
REMARK minimizedRMSD -1
REMARK  0 active torsions:
REMARK  status: ('A' for Active; 'I' for Inactive)
ROOT
ATOM      1  C   UNL d   1       5.916   2.456  -5.984  0.00  0.00     0.172 C 
ATOM      2  N   UNL d   1       4.985   1.565  -5.333  0.00  0.00    -0.070 N 
ATOM      3  C1  UNL d   1       3.871   1.015  -5.908  0.00  0.00    -0.004 A 
ATOM      4  C2  UNL d   1       3.252   0.227  -4.962  0.00  0.00    -0.047 A 
ATOM      5  C3  UNL d   1       4.020   0.308  -3.776  0.00  0.00    -0.047 A 
ATOM      6  C4  UNL d   1       5.087   1.143  -4.034  0.00  0.00    -0.004 A 
ENDROOT
TORSDOF 0
ENDMDL
