MODEL 1
REMARK minimizedAffinity 3.4180522
REMARK minimizedRMSD -1
REMARK  0 active torsions:
REMARK  status: ('A' for Active; 'I' for Inactive)
ROOT
ATOM      1  C   UNL d   1       0.162  -1.991  -5.000  0.00  0.00     0.172 C 
ATOM      2  N   UNL d   1      -1.110  -2.302  -4.391  0.00  0.00    -0.070 N 
ATOM      3  C1  UNL d   1      -1.742  -1.553  -3.435  0.00  0.00    -0.004 A 
ATOM      4  C2  UNL d   1      -2.925  -2.185  -3.117  0.00  0.00    -0.047 A 
ATOM      5  C3  UNL d   1      -3.007  -3.354  -3.910  0.00  0.00    -0.047 A 
ATOM      6  C4  UNL d   1      -1.870  -3.402  -4.689  0.00  0.00    -0.004 A 
ENDROOT
TORSDOF 0
ENDMDL
