MODEL 1
REMARK minimizedAffinity 1.59605002
REMARK minimizedRMSD -1
REMARK  0 active torsions:
REMARK  status: ('A' for Active; 'I' for Inactive)
ROOT
ATOM      1  C   UNL d   1       0.820   0.952   0.389  0.00  0.00     0.172 C 
ATOM      2  N   UNL d   1      -0.059   0.552   1.463  0.00  0.00    -0.070 N 
ATOM      3  C1  UNL d   1      -0.543   1.373   2.446  0.00  0.00    -0.004 A 
ATOM      4  C2  UNL d   1      -1.343   0.614   3.273  0.00  0.00    -0.047 A 
ATOM      5  C3  UNL d   1      -1.338  -0.709   2.770  0.00  0.00    -0.047 A 
ATOM      6  C4  UNL d   1      -0.536  -0.719   1.649  0.00  0.00    -0.004 A 
ENDROOT
TORSDOF 0
ENDMDL
