MODEL 1
REMARK minimizedAffinity 3.37044263
REMARK minimizedRMSD -1
REMARK  0 active torsions:
REMARK  status: ('A' for Active; 'I' for Inactive)
ROOT
ATOM      1  C   UNL d   1       1.841  -5.977   5.264  0.00  0.00     0.172 C 
ATOM      2  N   UNL d   1       1.335  -5.979   3.912  0.00  0.00    -0.070 N 
ATOM      3  C1  UNL d   1       2.098  -5.996   2.774  0.00  0.00    -0.004 A 
ATOM      4  C2  UNL d   1       1.243  -5.993   1.693  0.00  0.00    -0.047 A 
ATOM      5  C3  UNL d   1      -0.079  -5.972   2.198  0.00  0.00    -0.047 A 
ATOM      6  C4  UNL d   1       0.007  -5.964   3.574  0.00  0.00    -0.004 A 
ENDROOT
TORSDOF 0
ENDMDL
