MODEL 1
REMARK minimizedAffinity 2.80303979
REMARK minimizedRMSD -1
REMARK  0 active torsions:
REMARK  status: ('A' for Active; 'I' for Inactive)
ROOT
ATOM      1  C   UNL d   1      -1.187  -5.981   0.040  0.00  0.00     0.172 C 
ATOM      2  N   UNL d   1      -1.052  -5.987   1.478  0.00  0.00    -0.070 N 
ATOM      3  C1  UNL d   1      -2.085  -5.988   2.377  0.00  0.00    -0.004 A 
ATOM      4  C2  UNL d   1      -1.542  -5.995   3.644  0.00  0.00    -0.047 A 
ATOM      5  C3  UNL d   1      -0.134  -5.998   3.501  0.00  0.00    -0.047 A 
ATOM      6  C4  UNL d   1       0.142  -5.993   2.150  0.00  0.00    -0.004 A 
ENDROOT
TORSDOF 0
ENDMDL
