MODEL 1
REMARK minimizedAffinity 1.58891654
REMARK minimizedRMSD -1
REMARK  0 active torsions:
REMARK  status: ('A' for Active; 'I' for Inactive)
ROOT
ATOM      1  C   UNL d   1       2.860  -5.992   3.003  0.00  0.00     0.172 C 
ATOM      2  N   UNL d   1       1.433  -5.995   3.221  0.00  0.00    -0.070 N 
ATOM      3  C1  UNL d   1       0.811  -5.996   4.441  0.00  0.00    -0.004 A 
ATOM      4  C2  UNL d   1      -0.549  -5.999   4.221  0.00  0.00    -0.047 A 
ATOM      5  C3  UNL d   1      -0.753  -6.000   2.821  0.00  0.00    -0.047 A 
ATOM      6  C4  UNL d   1       0.491  -5.998   2.226  0.00  0.00    -0.004 A 
ENDROOT
TORSDOF 0
ENDMDL
