MODEL 1
REMARK minimizedAffinity 4.86288261
REMARK minimizedRMSD -1
REMARK  0 active torsions:
REMARK  status: ('A' for Active; 'I' for Inactive)
ROOT
ATOM      1  C   UNL d   1      -1.029  -5.960   0.582  0.00  0.00     0.172 C 
ATOM      2  N   UNL d   1      -0.294  -5.972   1.825  0.00  0.00    -0.070 N 
ATOM      3  C1  UNL d   1      -0.846  -5.994   3.078  0.00  0.00    -0.004 A 
ATOM      4  C2  UNL d   1       0.184  -5.999   3.993  0.00  0.00    -0.047 A 
ATOM      5  C3  UNL d   1       1.397  -5.979   3.265  0.00  0.00    -0.047 A 
ATOM      6  C4  UNL d   1       1.072  -5.963   1.925  0.00  0.00    -0.004 A 
ENDROOT
TORSDOF 0
ENDMDL
