MODEL 1
REMARK minimizedAffinity 3.52149558
REMARK minimizedRMSD -1
REMARK  0 active torsions:
REMARK  status: ('A' for Active; 'I' for Inactive)
ROOT
ATOM      1  C   UNL d   1      -1.846  -3.701  -4.544  0.00  0.00     0.172 C 
ATOM      2  N   UNL d   1      -2.247  -2.521  -3.814  0.00  0.00    -0.070 N 
ATOM      3  C1  UNL d   1      -3.431  -2.360  -3.146  0.00  0.00    -0.004 A 
ATOM      4  C2  UNL d   1      -3.430  -1.102  -2.583  0.00  0.00    -0.047 A 
ATOM      5  C3  UNL d   1      -2.203  -0.485  -2.927  0.00  0.00    -0.047 A 
ATOM      6  C4  UNL d   1      -1.490  -1.386  -3.689  0.00  0.00    -0.004 A 
ENDROOT
TORSDOF 0
ENDMDL
