MODEL 1
REMARK minimizedAffinity 1.83543479
REMARK minimizedRMSD -1
REMARK  0 active torsions:
REMARK  status: ('A' for Active; 'I' for Inactive)
ROOT
ATOM      1  C   UNL d   1      -1.074  -5.982   3.713  0.00  0.00     0.172 C 
ATOM      2  N   UNL d   1       0.070  -5.988   2.832  0.00  0.00    -0.070 N 
ATOM      3  C1  UNL d   1       1.381  -5.994   3.227  0.00  0.00    -0.004 A 
ATOM      4  C2  UNL d   1       2.163  -6.000   2.092  0.00  0.00    -0.047 A 
ATOM      5  C3  UNL d   1       1.292  -5.996   0.977  0.00  0.00    -0.047 A 
ATOM      6  C4  UNL d   1       0.002  -5.989   1.464  0.00  0.00    -0.004 A 
ENDROOT
TORSDOF 0
ENDMDL
