MODEL 1
REMARK minimizedAffinity 3.47182965
REMARK minimizedRMSD -1
REMARK  0 active torsions:
REMARK  status: ('A' for Active; 'I' for Inactive)
ROOT
ATOM      1  C   UNL d   1       0.859  -2.339  -4.057  0.00  0.00     0.172 C 
ATOM      2  N   UNL d   1      -0.485  -2.370  -3.531  0.00  0.00    -0.070 N 
ATOM      3  C1  UNL d   1      -1.394  -3.376  -3.720  0.00  0.00    -0.004 A 
ATOM      4  C2  UNL d   1      -2.552  -3.029  -3.059  0.00  0.00    -0.047 A 
ATOM      5  C3  UNL d   1      -2.332  -1.769  -2.452  0.00  0.00    -0.047 A 
ATOM      6  C4  UNL d   1      -1.045  -1.384  -2.761  0.00  0.00    -0.004 A 
ENDROOT
TORSDOF 0
ENDMDL
