MODEL 1
REMARK minimizedAffinity -0.353987008
REMARK minimizedRMSD -1
REMARK  0 active torsions:
REMARK  status: ('A' for Active; 'I' for Inactive)
ROOT
ATOM      1  C   UNL d   1      -3.400  -1.833  -3.346  0.00  0.00     0.172 C 
ATOM      2  N   UNL d   1      -2.010  -1.954  -3.717  0.00  0.00    -0.070 N 
ATOM      3  C1  UNL d   1      -1.079  -0.951  -3.663  0.00  0.00    -0.004 A 
ATOM      4  C2  UNL d   1       0.122  -1.467  -4.098  0.00  0.00    -0.047 A 
ATOM      5  C3  UNL d   1      -0.094  -2.826  -4.425  0.00  0.00    -0.047 A 
ATOM      6  C4  UNL d   1      -1.423  -3.101  -4.180  0.00  0.00    -0.004 A 
ENDROOT
TORSDOF 0
ENDMDL
