MODEL 1
REMARK minimizedAffinity 2.23351598
REMARK minimizedRMSD -1
REMARK  0 active torsions:
REMARK  status: ('A' for Active; 'I' for Inactive)
ROOT
ATOM      1  C   UNL d   1      -1.750  -5.972   0.405  0.00  0.00     0.172 C 
ATOM      2  N   UNL d   1      -0.865  -5.983   1.546  0.00  0.00    -0.070 N 
ATOM      3  C1  UNL d   1       0.503  -5.988   1.495  0.00  0.00    -0.004 A 
ATOM      4  C2  UNL d   1       0.973  -5.997   2.791  0.00  0.00    -0.047 A 
ATOM      5  C3  UNL d   1      -0.151  -6.000   3.650  0.00  0.00    -0.047 A 
ATOM      6  C4  UNL d   1      -1.277  -5.991   2.853  0.00  0.00    -0.004 A 
ENDROOT
TORSDOF 0
ENDMDL
