MODEL 1
REMARK minimizedAffinity 0.608769596
REMARK minimizedRMSD -1
REMARK  0 active torsions:
REMARK  status: ('A' for Active; 'I' for Inactive)
ROOT
ATOM      1  C   UNL d   1      -3.475  -5.991   2.695  0.00  0.00     0.172 C 
ATOM      2  N   UNL d   1      -2.031  -5.994   2.710  0.00  0.00    -0.070 N 
ATOM      3  C1  UNL d   1      -1.221  -5.995   1.606  0.00  0.00    -0.004 A 
ATOM      4  C2  UNL d   1       0.087  -5.998   2.042  0.00  0.00    -0.047 A 
ATOM      5  C3  UNL d   1       0.062  -5.999   3.457  0.00  0.00    -0.047 A 
ATOM      6  C4  UNL d   1      -1.262  -5.997   3.844  0.00  0.00    -0.004 A 
ENDROOT
TORSDOF 0
ENDMDL
