MODEL 1
REMARK minimizedAffinity 4.94740009
REMARK minimizedRMSD -1
REMARK  0 active torsions:
REMARK  status: ('A' for Active; 'I' for Inactive)
ROOT
ATOM      1  C   UNL d   1      -1.423  -0.547   3.463  0.00  0.00     0.172 C 
ATOM      2  N   UNL d   1      -0.692  -0.115   2.296  0.00  0.00    -0.070 N 
ATOM      3  C1  UNL d   1      -0.403  -0.887   1.202  0.00  0.00    -0.004 A 
ATOM      4  C2  UNL d   1       0.305  -0.110   0.311  0.00  0.00    -0.047 A 
ATOM      5  C3  UNL d   1       0.448   1.173   0.889  0.00  0.00    -0.047 A 
ATOM      6  C4  UNL d   1      -0.178   1.143   2.118  0.00  0.00    -0.004 A 
ENDROOT
TORSDOF 0
ENDMDL
