MODEL 1
REMARK minimizedAffinity 1.61768401
REMARK minimizedRMSD -1
REMARK  0 active torsions:
REMARK  status: ('A' for Active; 'I' for Inactive)
ROOT
ATOM      1  C   UNL d   1       0.416  -5.998   4.948  0.00  0.00     0.172 C 
ATOM      2  N   UNL d   1      -0.094  -5.998   3.597  0.00  0.00    -0.070 N 
ATOM      3  C1  UNL d   1       0.664  -5.995   2.457  0.00  0.00    -0.004 A 
ATOM      4  C2  UNL d   1      -0.195  -5.997   1.379  0.00  0.00    -0.047 A 
ATOM      5  C3  UNL d   1      -1.515  -5.999   1.889  0.00  0.00    -0.047 A 
ATOM      6  C4  UNL d   1      -1.423  -6.000   3.265  0.00  0.00    -0.004 A 
ENDROOT
TORSDOF 0
ENDMDL
