MODEL 1
REMARK minimizedAffinity -0.86671418
REMARK minimizedRMSD -1
REMARK  0 active torsions:
REMARK  status: ('A' for Active; 'I' for Inactive)
ROOT
ATOM      1  C   UNL d   1      -0.205  -5.983   3.898  0.00  0.00     0.172 C 
ATOM      2  N   UNL d   1       1.212  -5.987   4.173  0.00  0.00    -0.070 N 
ATOM      3  C1  UNL d   1       1.785  -5.979   5.416  0.00  0.00    -0.004 A 
ATOM      4  C2  UNL d   1       3.153  -5.986   5.251  0.00  0.00    -0.047 A 
ATOM      5  C3  UNL d   1       3.412  -5.999   3.860  0.00  0.00    -0.047 A 
ATOM      6  C4  UNL d   1       2.193  -5.999   3.216  0.00  0.00    -0.004 A 
ENDROOT
TORSDOF 0
ENDMDL
