MODEL 1
REMARK minimizedAffinity -3.35394073
REMARK minimizedRMSD -1
REMARK  0 active torsions:
REMARK  status: ('A' for Active; 'I' for Inactive)
ROOT
ATOM      1  C   UNL d   1       0.398  -0.659  -0.613  0.00  0.00     0.172 C 
ATOM      2  N   UNL d   1       0.080   0.146   0.543  0.00  0.00    -0.070 N 
ATOM      3  C1  UNL d   1       0.988   0.782   1.347  0.00  0.00    -0.004 A 
ATOM      4  C2  UNL d   1       0.288   1.442   2.334  0.00  0.00    -0.047 A 
ATOM      5  C3  UNL d   1      -1.088   1.193   2.116  0.00  0.00    -0.047 A 
ATOM      6  C4  UNL d   1      -1.188   0.388   1.001  0.00  0.00    -0.004 A 
ENDROOT
TORSDOF 0
ENDMDL
