MODEL 1
REMARK minimizedAffinity -3.54098177
REMARK minimizedRMSD -1
REMARK  0 active torsions:
REMARK  status: ('A' for Active; 'I' for Inactive)
ROOT
ATOM      1  C   UNL d   1      -1.060   1.487   2.683  0.00  0.00     0.172 C 
ATOM      2  N   UNL d   1      -0.708   0.767   1.482  0.00  0.00    -0.070 N 
ATOM      3  C1  UNL d   1       0.545   0.320   1.158  0.00  0.00    -0.004 A 
ATOM      4  C2  UNL d   1       0.464  -0.316  -0.063  0.00  0.00    -0.047 A 
ATOM      5  C3  UNL d   1      -0.884  -0.246  -0.487  0.00  0.00    -0.047 A 
ATOM      6  C4  UNL d   1      -1.588   0.429   0.488  0.00  0.00    -0.004 A 
ENDROOT
TORSDOF 0
ENDMDL
