MODEL 1
REMARK minimizedAffinity -1.75218296
REMARK minimizedRMSD -1
REMARK  0 active torsions:
REMARK  status: ('A' for Active; 'I' for Inactive)
ROOT
ATOM      1  C   UNL d   1       0.881   1.396   1.602  0.00  0.00     0.172 C 
ATOM      2  N   UNL d   1       0.296   0.504   0.628  0.00  0.00    -0.070 N 
ATOM      3  C1  UNL d   1       0.989  -0.296  -0.240  0.00  0.00    -0.004 A 
ATOM      4  C2  UNL d   1       0.072  -0.990  -0.999  0.00  0.00    -0.047 A 
ATOM      5  C3  UNL d   1      -1.218  -0.593  -0.572  0.00  0.00    -0.047 A 
ATOM      6  C4  UNL d   1      -1.050   0.333   0.436  0.00  0.00    -0.004 A 
ENDROOT
TORSDOF 0
ENDMDL
