MODEL 1
REMARK minimizedAffinity -3.47794414
REMARK minimizedRMSD -1
REMARK  0 active torsions:
REMARK  status: ('A' for Active; 'I' for Inactive)
ROOT
ATOM      1  C   UNL d   1       0.518   0.191  -1.072  0.00  0.00     0.172 C 
ATOM      2  N   UNL d   1      -0.143   0.363   0.200  0.00  0.00    -0.070 N 
ATOM      3  C1  UNL d   1       0.321   1.118   1.245  0.00  0.00    -0.004 A 
ATOM      4  C2  UNL d   1      -0.593   1.024   2.272  0.00  0.00    -0.047 A 
ATOM      5  C3  UNL d   1      -1.642   0.184   1.829  0.00  0.00    -0.047 A 
ATOM      6  C4  UNL d   1      -1.338  -0.211   0.544  0.00  0.00    -0.004 A 
ENDROOT
TORSDOF 0
ENDMDL
