MODEL 1
REMARK minimizedAffinity -2.05119038
REMARK minimizedRMSD -1
REMARK  0 active torsions:
REMARK  status: ('A' for Active; 'I' for Inactive)
ROOT
ATOM      1  C   UNL d   1       0.558   1.681   1.754  0.00  0.00     0.172 C 
ATOM      2  N   UNL d   1       0.661   0.552   0.859  0.00  0.00    -0.070 N 
ATOM      3  C1  UNL d   1      -0.216   0.249  -0.148  0.00  0.00    -0.004 A 
ATOM      4  C2  UNL d   1       0.233  -0.898  -0.767  0.00  0.00    -0.047 A 
ATOM      5  C3  UNL d   1       1.419  -1.298  -0.108  0.00  0.00    -0.047 A 
ATOM      6  C4  UNL d   1       1.661  -0.383   0.894  0.00  0.00    -0.004 A 
ENDROOT
TORSDOF 0
ENDMDL
