MODEL 1
REMARK minimizedAffinity -4.75908279
REMARK minimizedRMSD -1
REMARK  0 active torsions:
REMARK  status: ('A' for Active; 'I' for Inactive)
ROOT
ATOM      1  C   UNL d   1       1.354   1.618   0.636  0.00  0.00     0.078 C 
ATOM      2  C1  UNL d   1      -0.102   1.262   0.582  0.00  0.00    -0.077 A 
ATOM      3  C2  UNL d   1      -0.532  -0.051   0.810  0.00  0.00    -0.001 A 
ATOM      4  C3  UNL d   1      -1.889  -0.370   0.747  0.00  0.00     0.003 A 
ATOM      5  C4  UNL d   1      -2.828   0.618   0.455  0.00  0.00    -0.005 A 
ATOM      6  C5  UNL d   1      -2.409   1.927   0.224  0.00  0.00     0.003 A 
ATOM      7  C6  UNL d   1      -1.052   2.248   0.287  0.00  0.00    -0.001 A 
ENDROOT
TORSDOF 0
ENDMDL
