MODEL 1
REMARK minimizedAffinity 3.51123595
REMARK minimizedRMSD -1
REMARK  0 active torsions:
REMARK  status: ('A' for Active; 'I' for Inactive)
ROOT
ATOM      1  C   UNL d   1       0.114   0.418   2.697  0.00  0.00     0.078 C 
ATOM      2  C1  UNL d   1      -0.655   0.824   1.476  0.00  0.00    -0.077 A 
ATOM      3  C2  UNL d   1      -0.320   1.983   0.765  0.00  0.00    -0.001 A 
ATOM      4  C3  UNL d   1      -1.052   2.354  -0.364  0.00  0.00     0.003 A 
ATOM      5  C4  UNL d   1      -2.123   1.573  -0.792  0.00  0.00    -0.005 A 
ATOM      6  C5  UNL d   1      -2.466   0.419  -0.089  0.00  0.00     0.003 A 
ATOM      7  C6  UNL d   1      -1.735   0.046   1.040  0.00  0.00    -0.001 A 
ENDROOT
TORSDOF 0
ENDMDL
