MODEL 1
REMARK minimizedAffinity 0.273021042
REMARK minimizedRMSD -1
REMARK  0 active torsions:
REMARK  status: ('A' for Active; 'I' for Inactive)
ROOT
ATOM      1  C   UNL d   1      -3.751   2.141  -0.553  0.00  0.00     0.078 C 
ATOM      2  C1  UNL d   1      -2.420   1.686  -0.034  0.00  0.00    -0.077 A 
ATOM      3  C2  UNL d   1      -2.245   0.389   0.465  0.00  0.00    -0.001 A 
ATOM      4  C3  UNL d   1      -1.003  -0.018   0.954  0.00  0.00     0.003 A 
ATOM      5  C4  UNL d   1       0.075   0.866   0.949  0.00  0.00    -0.005 A 
ATOM      6  C5  UNL d   1      -0.090   2.159   0.457  0.00  0.00     0.003 A 
ATOM      7  C6  UNL d   1      -1.332   2.568  -0.032  0.00  0.00    -0.001 A 
ENDROOT
TORSDOF 0
ENDMDL
