MODEL 1
REMARK minimizedAffinity 3.35246634
REMARK minimizedRMSD -1
REMARK  0 active torsions:
REMARK  status: ('A' for Active; 'I' for Inactive)
ROOT
ATOM      1  C   UNL d   1       1.305   4.427  -0.731  0.00  0.00     0.078 C 
ATOM      2  C1  UNL d   1       0.202   3.414  -0.657  0.00  0.00    -0.077 A 
ATOM      3  C2  UNL d   1       0.466   2.048  -0.810  0.00  0.00    -0.001 A 
ATOM      4  C3  UNL d   1      -0.572   1.117  -0.749  0.00  0.00     0.003 A 
ATOM      5  C4  UNL d   1      -1.881   1.542  -0.536  0.00  0.00    -0.005 A 
ATOM      6  C5  UNL d   1      -2.155   2.900  -0.384  0.00  0.00     0.003 A 
ATOM      7  C6  UNL d   1      -1.118   3.832  -0.445  0.00  0.00    -0.001 A 
ENDROOT
TORSDOF 0
ENDMDL
