MODEL 1
REMARK minimizedAffinity -2.76985383
REMARK minimizedRMSD -1
REMARK  0 active torsions:
REMARK  status: ('A' for Active; 'I' for Inactive)
ROOT
ATOM      1  C   UNL d   1      -0.406   2.136   0.035  0.00  0.00     0.078 C 
ATOM      2  C1  UNL d   1       1.024   1.764   0.291  0.00  0.00    -0.077 A 
ATOM      3  C2  UNL d   1       1.973   1.793  -0.738  0.00  0.00    -0.001 A 
ATOM      4  C3  UNL d   1       3.298   1.435  -0.488  0.00  0.00     0.003 A 
ATOM      5  C4  UNL d   1       3.687   1.044   0.792  0.00  0.00    -0.005 A 
ATOM      6  C5  UNL d   1       2.750   1.009   1.822  0.00  0.00     0.003 A 
ATOM      7  C6  UNL d   1       1.424   1.367   1.574  0.00  0.00    -0.001 A 
ENDROOT
TORSDOF 0
ENDMDL
