MODEL 1
REMARK minimizedAffinity -1.98387873
REMARK minimizedRMSD -1
REMARK  0 active torsions:
REMARK  status: ('A' for Active; 'I' for Inactive)
ROOT
ATOM      1  C   UNL d   1       1.079   1.052   0.226  0.00  0.00     0.078 C 
ATOM      2  C1  UNL d   1      -0.412   0.978   0.367  0.00  0.00    -0.077 A 
ATOM      3  C2  UNL d   1      -1.024  -0.115   0.994  0.00  0.00    -0.001 A 
ATOM      4  C3  UNL d   1      -2.413  -0.175   1.109  0.00  0.00     0.003 A 
ATOM      5  C4  UNL d   1      -3.203   0.854   0.600  0.00  0.00    -0.005 A 
ATOM      6  C5  UNL d   1      -2.603   1.944  -0.028  0.00  0.00     0.003 A 
ATOM      7  C6  UNL d   1      -1.214   2.006  -0.144  0.00  0.00    -0.001 A 
ENDROOT
TORSDOF 0
ENDMDL
