MODEL 1
REMARK minimizedAffinity -0.529931366
REMARK minimizedRMSD -1
REMARK  0 active torsions:
REMARK  status: ('A' for Active; 'I' for Inactive)
ROOT
ATOM      1  C   UNL d   1      -0.585  -0.693   2.778  0.00  0.00     0.078 C 
ATOM      2  C1  UNL d   1      -0.699   0.208   1.586  0.00  0.00    -0.077 A 
ATOM      3  C2  UNL d   1       0.442   0.683   0.928  0.00  0.00    -0.001 A 
ATOM      4  C3  UNL d   1       0.321   1.530  -0.175  0.00  0.00     0.003 A 
ATOM      5  C4  UNL d   1      -0.940   1.910  -0.630  0.00  0.00    -0.005 A 
ATOM      6  C5  UNL d   1      -2.082   1.445   0.020  0.00  0.00     0.003 A 
ATOM      7  C6  UNL d   1      -1.962   0.598   1.123  0.00  0.00    -0.001 A 
ENDROOT
TORSDOF 0
ENDMDL
