MODEL 1
REMARK minimizedAffinity -1.0787251
REMARK minimizedRMSD -1
REMARK  0 active torsions:
REMARK  status: ('A' for Active; 'I' for Inactive)
ROOT
ATOM      1  C   UNL d   1       1.382   1.440   0.872  0.00  0.00     0.078 C 
ATOM      2  C1  UNL d   1      -0.112   1.445   0.735  0.00  0.00    -0.077 A 
ATOM      3  C2  UNL d   1      -0.865   0.299   1.018  0.00  0.00    -0.001 A 
ATOM      4  C3  UNL d   1      -2.254   0.315   0.877  0.00  0.00     0.003 A 
ATOM      5  C4  UNL d   1      -2.901   1.473   0.451  0.00  0.00    -0.005 A 
ATOM      6  C5  UNL d   1      -2.159   2.617   0.164  0.00  0.00     0.003 A 
ATOM      7  C6  UNL d   1      -0.770   2.604   0.305  0.00  0.00    -0.001 A 
ENDROOT
TORSDOF 0
ENDMDL
