MODEL 1
REMARK minimizedAffinity 5.15097952
REMARK minimizedRMSD -1
REMARK  0 active torsions:
REMARK  status: ('A' for Active; 'I' for Inactive)
ROOT
ATOM      1  C   UNL d   1      -3.318   2.255  -0.187  0.00  0.00     0.078 C 
ATOM      2  C1  UNL d   1      -1.873   2.195   0.210  0.00  0.00    -0.077 A 
ATOM      3  C2  UNL d   1      -1.489   1.710   1.466  0.00  0.00    -0.001 A 
ATOM      4  C3  UNL d   1      -0.141   1.669   1.826  0.00  0.00     0.003 A 
ATOM      5  C4  UNL d   1       0.834   2.114   0.935  0.00  0.00    -0.005 A 
ATOM      6  C5  UNL d   1       0.462   2.600  -0.316  0.00  0.00     0.003 A 
ATOM      7  C6  UNL d   1      -0.886   2.642  -0.677  0.00  0.00    -0.001 A 
ENDROOT
TORSDOF 0
ENDMDL
