MODEL 1
REMARK minimizedAffinity -0.171576038
REMARK minimizedRMSD -1
REMARK  0 active torsions:
REMARK  status: ('A' for Active; 'I' for Inactive)
ROOT
ATOM      1  C   UNL d   1      -0.079   1.930   0.767  0.00  0.00     0.078 C 
ATOM      2  C1  UNL d   1      -1.546   1.622   0.738  0.00  0.00    -0.077 A 
ATOM      3  C2  UNL d   1      -2.447   2.466   0.077  0.00  0.00    -0.001 A 
ATOM      4  C3  UNL d   1      -3.812   2.172   0.067  0.00  0.00     0.003 A 
ATOM      5  C4  UNL d   1      -4.288   1.036   0.718  0.00  0.00    -0.005 A 
ATOM      6  C5  UNL d   1      -3.399   0.192   1.381  0.00  0.00     0.003 A 
ATOM      7  C6  UNL d   1      -2.034   0.484   1.392  0.00  0.00    -0.001 A 
ENDROOT
TORSDOF 0
ENDMDL
