MODEL 1
REMARK minimizedAffinity 1.97071826
REMARK minimizedRMSD -1
REMARK  0 active torsions:
REMARK  status: ('A' for Active; 'I' for Inactive)
ROOT
ATOM      1  C   UNL d   1      -1.118   2.892   2.823  0.00  0.00     0.078 C 
ATOM      2  C1  UNL d   1      -0.064   2.337   1.913  0.00  0.00    -0.077 A 
ATOM      3  C2  UNL d   1      -0.400   1.799   0.664  0.00  0.00    -0.001 A 
ATOM      4  C3  UNL d   1       0.590   1.276  -0.169  0.00  0.00     0.003 A 
ATOM      5  C4  UNL d   1       1.923   1.285   0.238  0.00  0.00    -0.005 A 
ATOM      6  C5  UNL d   1       2.267   1.816   1.479  0.00  0.00     0.003 A 
ATOM      7  C6  UNL d   1       1.278   2.339   2.314  0.00  0.00    -0.001 A 
ENDROOT
TORSDOF 0
ENDMDL
