MODEL 1
REMARK minimizedAffinity 0.820745349
REMARK minimizedRMSD -1
REMARK  0 active torsions:
REMARK  status: ('A' for Active; 'I' for Inactive)
ROOT
ATOM      1  C   UNL d   1       1.183   3.361   3.205  0.00  0.00     0.078 C 
ATOM      2  C1  UNL d   1       1.042   2.458   2.016  0.00  0.00    -0.077 A 
ATOM      3  C2  UNL d   1      -0.193   2.295   1.377  0.00  0.00    -0.001 A 
ATOM      4  C3  UNL d   1      -0.312   1.443   0.277  0.00  0.00     0.003 A 
ATOM      5  C4  UNL d   1       0.800   0.747  -0.192  0.00  0.00    -0.005 A 
ATOM      6  C5  UNL d   1       2.033   0.901   0.439  0.00  0.00     0.003 A 
ATOM      7  C6  UNL d   1       2.153   1.752   1.539  0.00  0.00    -0.001 A 
ENDROOT
TORSDOF 0
ENDMDL
