MODEL 1
REMARK minimizedAffinity -3.15472794
REMARK minimizedRMSD -1
REMARK  0 active torsions:
REMARK  status: ('A' for Active; 'I' for Inactive)
ROOT
ATOM      1  C   UNL d   1       1.502   3.407   3.135  0.00  0.00     0.078 C 
ATOM      2  C1  UNL d   1       1.124   2.450   2.045  0.00  0.00    -0.077 A 
ATOM      3  C2  UNL d   1       2.047   1.522   1.547  0.00  0.00    -0.001 A 
ATOM      4  C3  UNL d   1       1.683   0.643   0.525  0.00  0.00     0.003 A 
ATOM      5  C4  UNL d   1       0.396   0.684  -0.008  0.00  0.00    -0.005 A 
ATOM      6  C5  UNL d   1      -0.528   1.605   0.479  0.00  0.00     0.003 A 
ATOM      7  C6  UNL d   1      -0.167   2.485   1.501  0.00  0.00    -0.001 A 
ENDROOT
TORSDOF 0
ENDMDL
