MODEL 1
REMARK minimizedAffinity 4.95236874
REMARK minimizedRMSD -1
REMARK  0 active torsions:
REMARK  status: ('A' for Active; 'I' for Inactive)
ROOT
ATOM      1  C   UNL d   1       0.605   2.773   2.515  0.00  0.00     0.077 C 
ATOM      2  C1  UNL d   1       0.273   2.348   1.116  0.00  0.00    -0.074 A 
ATOM      3  C2  UNL d   1      -1.024   2.487   0.610  0.00  0.00    -0.005 A 
ATOM      4  C3  UNL d   1      -1.315   2.096  -0.696  0.00  0.00     0.006 A 
ATOM      5  C4  UNL d   1      -0.315   1.562  -1.510  0.00  0.00    -0.005 A 
ATOM      6  C5  UNL d   1       0.988   1.416  -1.022  0.00  0.00    -0.074 A 
ATOM      7  C6  UNL d   1       2.077   0.853  -1.886  0.00  0.00     0.077 C 
ATOM      8  C7  UNL d   1       1.274   1.818   0.290  0.00  0.00    -0.001 A 
ENDROOT
TORSDOF 0
ENDMDL
