MODEL 1
REMARK minimizedAffinity 18.6172905
REMARK minimizedRMSD -1
REMARK  0 active torsions:
REMARK  status: ('A' for Active; 'I' for Inactive)
ROOT
ATOM      1  C   UNL d   1      -5.992  -2.413   1.561  0.00  0.00     0.077 C 
ATOM      2  C1  UNL d   1      -5.998  -1.640   2.846  0.00  0.00    -0.074 A 
ATOM      3  C2  UNL d   1      -5.988  -2.297   4.080  0.00  0.00    -0.005 A 
ATOM      4  C3  UNL d   1      -5.984  -1.565   5.267  0.00  0.00     0.006 A 
ATOM      5  C4  UNL d   1      -5.990  -0.170   5.232  0.00  0.00    -0.005 A 
ATOM      6  C5  UNL d   1      -5.999   0.505   4.007  0.00  0.00    -0.074 A 
ATOM      7  C6  UNL d   1      -5.996   2.004   3.952  0.00  0.00     0.077 C 
ATOM      8  C7  UNL d   1      -5.996  -0.238   2.819  0.00  0.00    -0.001 A 
ENDROOT
TORSDOF 0
ENDMDL
