MODEL 1
REMARK minimizedAffinity 10.4894037
REMARK minimizedRMSD -1
REMARK  0 active torsions:
REMARK  status: ('A' for Active; 'I' for Inactive)
ROOT
ATOM      1  C   UNL d   1       0.715   0.190  -1.542  0.00  0.00     0.077 C 
ATOM      2  C1  UNL d   1       1.050   1.325  -2.464  0.00  0.00    -0.074 A 
ATOM      3  C2  UNL d   1       0.564   2.614  -2.223  0.00  0.00    -0.005 A 
ATOM      4  C3  UNL d   1       0.891   3.661  -3.084  0.00  0.00     0.006 A 
ATOM      5  C4  UNL d   1       1.706   3.431  -4.193  0.00  0.00    -0.005 A 
ATOM      6  C5  UNL d   1       2.202   2.149  -4.449  0.00  0.00    -0.074 A 
ATOM      7  C6  UNL d   1       3.087   1.886  -5.631  0.00  0.00     0.077 C 
ATOM      8  C7  UNL d   1       1.874   1.103  -3.576  0.00  0.00    -0.001 A 
ENDROOT
TORSDOF 0
ENDMDL
