MODEL 1
REMARK minimizedAffinity 8.2403059
REMARK minimizedRMSD -1
REMARK  0 active torsions:
REMARK  status: ('A' for Active; 'I' for Inactive)
ROOT
ATOM      1  C   UNL d   1       3.677   1.738   2.567  0.00  0.00     0.077 C 
ATOM      2  C1  UNL d   1       2.893   2.493   1.535  0.00  0.00    -0.074 A 
ATOM      3  C2  UNL d   1       2.695   3.872   1.650  0.00  0.00    -0.005 A 
ATOM      4  C3  UNL d   1       1.971   4.562   0.677  0.00  0.00     0.006 A 
ATOM      5  C4  UNL d   1       1.440   3.881  -0.419  0.00  0.00    -0.005 A 
ATOM      6  C5  UNL d   1       1.629   2.502  -0.551  0.00  0.00    -0.074 A 
ATOM      7  C6  UNL d   1       1.074   1.756  -1.728  0.00  0.00     0.077 C 
ATOM      8  C7  UNL d   1       2.363   1.817   0.427  0.00  0.00    -0.001 A 
ENDROOT
TORSDOF 0
ENDMDL
