MODEL 1
REMARK minimizedAffinity 4.50911283
REMARK minimizedRMSD -1
REMARK  0 active torsions:
REMARK  status: ('A' for Active; 'I' for Inactive)
ROOT
ATOM      1  C   UNL d   1       0.700  -3.037  -2.372  0.00  0.00     0.077 C 
ATOM      2  C1  UNL d   1       2.015  -2.526  -1.863  0.00  0.00    -0.074 A 
ATOM      3  C2  UNL d   1       2.680  -3.171  -0.816  0.00  0.00    -0.005 A 
ATOM      4  C3  UNL d   1       3.907  -2.689  -0.359  0.00  0.00     0.006 A 
ATOM      5  C4  UNL d   1       4.480  -1.559  -0.944  0.00  0.00    -0.005 A 
ATOM      6  C5  UNL d   1       3.830  -0.901  -1.993  0.00  0.00    -0.074 A 
ATOM      7  C6  UNL d   1       4.436   0.309  -2.639  0.00  0.00     0.077 C 
ATOM      8  C7  UNL d   1       2.601  -1.395  -2.451  0.00  0.00    -0.001 A 
ENDROOT
TORSDOF 0
ENDMDL
