MODEL 1
REMARK minimizedAffinity 1.0996232
REMARK minimizedRMSD -1
REMARK  0 active torsions:
REMARK  status: ('A' for Active; 'I' for Inactive)
ROOT
ATOM      1  C   UNL d   1      -0.333  -2.663  -1.444  0.00  0.00     0.077 C 
ATOM      2  C1  UNL d   1       0.961  -1.908  -1.363  0.00  0.00    -0.074 A 
ATOM      3  C2  UNL d   1       2.034  -2.399  -0.613  0.00  0.00    -0.005 A 
ATOM      4  C3  UNL d   1       3.234  -1.691  -0.555  0.00  0.00     0.006 A 
ATOM      5  C4  UNL d   1       3.373  -0.486  -1.246  0.00  0.00    -0.005 A 
ATOM      6  C5  UNL d   1       2.311   0.020  -2.002  0.00  0.00    -0.074 A 
ATOM      7  C6  UNL d   1       2.447   1.308  -2.758  0.00  0.00     0.077 C 
ATOM      8  C7  UNL d   1       1.111  -0.701  -2.060  0.00  0.00    -0.001 A 
ENDROOT
TORSDOF 0
ENDMDL
