MODEL 1
REMARK minimizedAffinity 2.19020176
REMARK minimizedRMSD -1
REMARK  0 active torsions:
REMARK  status: ('A' for Active; 'I' for Inactive)
ROOT
ATOM      1  C   UNL d   1       0.268   2.222  -1.457  0.00  0.00     0.077 C 
ATOM      2  C1  UNL d   1       1.085   0.968  -1.559  0.00  0.00    -0.074 A 
ATOM      3  C2  UNL d   1       2.211   0.909  -2.387  0.00  0.00    -0.005 A 
ATOM      4  C3  UNL d   1       2.967  -0.260  -2.464  0.00  0.00     0.006 A 
ATOM      5  C4  UNL d   1       2.605  -1.381  -1.716  0.00  0.00    -0.005 A 
ATOM      6  C5  UNL d   1       1.483  -1.341  -0.882  0.00  0.00    -0.074 A 
ATOM      7  C6  UNL d   1       1.087  -2.533  -0.063  0.00  0.00     0.077 C 
ATOM      8  C7  UNL d   1       0.733  -0.159  -0.804  0.00  0.00    -0.001 A 
ENDROOT
TORSDOF 0
ENDMDL
