MODEL 1
REMARK minimizedAffinity 0.599453151
REMARK minimizedRMSD -1
REMARK  0 active torsions:
REMARK  status: ('A' for Active; 'I' for Inactive)
ROOT
ATOM      1  C   UNL d   1       0.740  -2.824  -3.386  0.00  0.00     0.077 C 
ATOM      2  C1  UNL d   1       1.400  -1.881  -2.425  0.00  0.00    -0.074 A 
ATOM      3  C2  UNL d   1       1.796  -2.310  -1.154  0.00  0.00    -0.005 A 
ATOM      4  C3  UNL d   1       2.417  -1.424  -0.274  0.00  0.00     0.006 A 
ATOM      5  C4  UNL d   1       2.649  -0.102  -0.655  0.00  0.00    -0.005 A 
ATOM      6  C5  UNL d   1       2.262   0.345  -1.923  0.00  0.00    -0.074 A 
ATOM      7  C6  UNL d   1       2.513   1.760  -2.352  0.00  0.00     0.077 C 
ATOM      8  C7  UNL d   1       1.644  -0.554  -2.804  0.00  0.00    -0.001 A 
ENDROOT
TORSDOF 0
ENDMDL
