MODEL 1
REMARK minimizedAffinity 9.79709911
REMARK minimizedRMSD -1
REMARK  0 active torsions:
REMARK  status: ('A' for Active; 'I' for Inactive)
ROOT
ATOM      1  C   UNL d   1       1.919  -2.356  -1.484  0.00  0.00     0.077 C 
ATOM      2  C1  UNL d   1       1.973  -0.864  -1.628  0.00  0.00    -0.074 A 
ATOM      3  C2  UNL d   1       3.153  -0.222  -2.018  0.00  0.00    -0.005 A 
ATOM      4  C3  UNL d   1       3.186   1.166  -2.157  0.00  0.00     0.006 A 
ATOM      5  C4  UNL d   1       2.041   1.924  -1.908  0.00  0.00    -0.005 A 
ATOM      6  C5  UNL d   1       0.852   1.299  -1.518  0.00  0.00    -0.074 A 
ATOM      7  C6  UNL d   1      -0.390   2.098  -1.256  0.00  0.00     0.077 C 
ATOM      8  C7  UNL d   1       0.825  -0.096  -1.387  0.00  0.00    -0.001 A 
ENDROOT
TORSDOF 0
ENDMDL
