MODEL 1
REMARK minimizedAffinity 0.419467509
REMARK minimizedRMSD -1
REMARK  0 active torsions:
REMARK  status: ('A' for Active; 'I' for Inactive)
ROOT
ATOM      1  C   UNL d   1       1.096   2.280   2.684  0.00  0.00     0.077 C 
ATOM      2  C1  UNL d   1       0.607   2.527   1.288  0.00  0.00    -0.074 A 
ATOM      3  C2  UNL d   1      -0.180   3.644   0.989  0.00  0.00    -0.005 A 
ATOM      4  C3  UNL d   1      -0.620   3.866  -0.316  0.00  0.00     0.006 A 
ATOM      5  C4  UNL d   1      -0.277   2.974  -1.334  0.00  0.00    -0.005 A 
ATOM      6  C5  UNL d   1       0.510   1.853  -1.054  0.00  0.00    -0.074 A 
ATOM      7  C6  UNL d   1       0.895   0.890  -2.138  0.00  0.00     0.077 C 
ATOM      8  C7  UNL d   1       0.953   1.641   0.258  0.00  0.00    -0.001 A 
ENDROOT
TORSDOF 0
ENDMDL
