MODEL 1
REMARK minimizedAffinity 1.22977591
REMARK minimizedRMSD -1
REMARK  0 active torsions:
REMARK  status: ('A' for Active; 'I' for Inactive)
ROOT
ATOM      1  C   UNL d   1       0.785   2.606   2.264  0.00  0.00     0.077 C 
ATOM      2  C1  UNL d   1       0.607   2.107   0.861  0.00  0.00    -0.074 A 
ATOM      3  C2  UNL d   1      -0.489   2.507   0.089  0.00  0.00    -0.005 A 
ATOM      4  C3  UNL d   1      -0.637   2.042  -1.217  0.00  0.00     0.006 A 
ATOM      5  C4  UNL d   1       0.309   1.174  -1.765  0.00  0.00    -0.005 A 
ATOM      6  C5  UNL d   1       1.411   0.764  -1.009  0.00  0.00    -0.074 A 
ATOM      7  C6  UNL d   1       2.442  -0.161  -1.586  0.00  0.00     0.077 C 
ATOM      8  C7  UNL d   1       1.556   1.241   0.301  0.00  0.00    -0.001 A 
ENDROOT
TORSDOF 0
ENDMDL
