MODEL 1
REMARK minimizedAffinity 12.04391
REMARK minimizedRMSD -1
REMARK  0 active torsions:
REMARK  status: ('A' for Active; 'I' for Inactive)
ROOT
ATOM      1  C   UNL d   1      -5.978   0.048   6.000  0.00  0.00     0.077 C 
ATOM      2  C1  UNL d   1      -5.248  -0.089   4.697  0.00  0.00    -0.074 A 
ATOM      3  C2  UNL d   1      -3.903  -0.473   4.663  0.00  0.00    -0.005 A 
ATOM      4  C3  UNL d   1      -3.240  -0.605   3.444  0.00  0.00     0.006 A 
ATOM      5  C4  UNL d   1      -3.914  -0.357   2.247  0.00  0.00    -0.005 A 
ATOM      6  C5  UNL d   1      -5.258   0.027   2.261  0.00  0.00    -0.074 A 
ATOM      7  C6  UNL d   1      -6.000   0.288   0.983  0.00  0.00     0.077 C 
ATOM      8  C7  UNL d   1      -5.920   0.151   3.490  0.00  0.00    -0.001 A 
ENDROOT
TORSDOF 0
ENDMDL
