MODEL 1
REMARK minimizedAffinity 1.21102393
REMARK minimizedRMSD -1
REMARK  0 active torsions:
REMARK  status: ('A' for Active; 'I' for Inactive)
ROOT
ATOM      1  C   UNL d   1       2.178  -2.650  -2.491  0.00  0.00     0.077 C 
ATOM      2  C1  UNL d   1       2.566  -1.250  -2.121  0.00  0.00    -0.074 A 
ATOM      3  C2  UNL d   1       3.792  -0.983  -1.503  0.00  0.00    -0.005 A 
ATOM      4  C3  UNL d   1       4.143   0.326  -1.173  0.00  0.00     0.006 A 
ATOM      5  C4  UNL d   1       3.273   1.380  -1.456  0.00  0.00    -0.005 A 
ATOM      6  C5  UNL d   1       2.043   1.132  -2.074  0.00  0.00    -0.074 A 
ATOM      7  C6  UNL d   1       1.101   2.254  -2.394  0.00  0.00     0.077 C 
ATOM      8  C7  UNL d   1       1.701  -0.185  -2.409  0.00  0.00    -0.001 A 
ENDROOT
TORSDOF 0
ENDMDL
