MODEL 1
REMARK minimizedAffinity 11.3026018
REMARK minimizedRMSD -1
REMARK  0 active torsions:
REMARK  status: ('A' for Active; 'I' for Inactive)
ROOT
ATOM      1  C   UNL d   1      -0.112   2.279  -1.879  0.00  0.00     0.077 C 
ATOM      2  C1  UNL d   1       1.001   1.274  -1.867  0.00  0.00    -0.074 A 
ATOM      3  C2  UNL d   1       2.331   1.673  -2.035  0.00  0.00    -0.005 A 
ATOM      4  C3  UNL d   1       3.357   0.729  -2.013  0.00  0.00     0.006 A 
ATOM      5  C4  UNL d   1       3.064  -0.622  -1.822  0.00  0.00    -0.005 A 
ATOM      6  C5  UNL d   1       1.741  -1.040  -1.651  0.00  0.00    -0.074 A 
ATOM      7  C6  UNL d   1       1.409  -2.487  -1.435  0.00  0.00     0.077 C 
ATOM      8  C7  UNL d   1       0.716  -0.084  -1.668  0.00  0.00    -0.001 A 
ENDROOT
TORSDOF 0
ENDMDL
