MODEL 1
REMARK minimizedAffinity 11.1325865
REMARK minimizedRMSD -1
REMARK  0 active torsions:
REMARK  status: ('A' for Active; 'I' for Inactive)
ROOT
ATOM      1  C   UNL d   1       2.332   2.665   2.558  0.00  0.00     0.077 C 
ATOM      2  C1  UNL d   1       1.276   2.438   1.517  0.00  0.00    -0.074 A 
ATOM      3  C2  UNL d   1      -0.054   2.801   1.751  0.00  0.00    -0.005 A 
ATOM      4  C3  UNL d   1      -1.023   2.593   0.770  0.00  0.00     0.006 A 
ATOM      5  C4  UNL d   1      -0.673   2.020  -0.453  0.00  0.00    -0.005 A 
ATOM      6  C5  UNL d   1       0.652   1.651  -0.706  0.00  0.00    -0.074 A 
ATOM      7  C6  UNL d   1       1.047   1.043  -2.019  0.00  0.00     0.077 C 
ATOM      8  C7  UNL d   1       1.621   1.870   0.283  0.00  0.00    -0.001 A 
ENDROOT
TORSDOF 0
ENDMDL
