MODEL 1
REMARK minimizedAffinity 2.89749098
REMARK minimizedRMSD -1
REMARK  0 active torsions:
REMARK  status: ('A' for Active; 'I' for Inactive)
ROOT
ATOM      1  C   UNL d   1       1.503   1.999   1.956  0.00  0.00     0.077 C 
ATOM      2  C1  UNL d   1       1.368   1.599   0.516  0.00  0.00    -0.074 A 
ATOM      3  C2  UNL d   1       0.111   1.505  -0.089  0.00  0.00    -0.005 A 
ATOM      4  C3  UNL d   1       0.003   1.142  -1.432  0.00  0.00     0.006 A 
ATOM      5  C4  UNL d   1       1.148   0.869  -2.180  0.00  0.00    -0.005 A 
ATOM      6  C5  UNL d   1       2.414   0.959  -1.592  0.00  0.00    -0.074 A 
ATOM      7  C6  UNL d   1       3.656   0.679  -2.385  0.00  0.00     0.077 C 
ATOM      8  C7  UNL d   1       2.515   1.332  -0.245  0.00  0.00    -0.001 A 
ENDROOT
TORSDOF 0
ENDMDL
