MODEL 1
REMARK minimizedAffinity -6.02289534
REMARK minimizedRMSD -1
REMARK  0 active torsions:
REMARK  status: ('A' for Active; 'I' for Inactive)
ROOT
ATOM      1  N1  IND d   1       1.039  -0.372  -0.422  0.00  0.00    -0.196 N 
ATOM      2  C2  IND d   1      -0.030  -0.116  -1.234  0.00  0.00     0.054 A 
ATOM      3  C3  IND d   1      -1.048   0.414  -0.519  0.00  0.00    -0.031 A 
ATOM      4  C4  IND d   1      -1.140   1.042   1.976  0.00  0.00     0.051 A 
ATOM      5  C5  IND d   1      -0.419   0.963   3.134  0.00  0.00    -0.031 A 
ATOM      6  C6  IND d   1       0.852   0.427   3.166  0.00  0.00     0.015 A 
ATOM      7  C7  IND d   1       1.456  -0.042   2.034  0.00  0.00    -0.016 A 
ATOM      8  C8  IND d   1       0.724   0.030   0.857  0.00  0.00    -0.047 A 
ATOM      9  C9  IND d   1      -0.582   0.534   0.826  0.00  0.00    -0.096 A 
ATOM     10  HN1 IND d   1       1.784  -0.724  -0.669  0.00  0.00     0.298 HD
ENDROOT
TORSDOF 0
ENDMDL
