MODEL 1
REMARK minimizedAffinity -5.97322369
REMARK minimizedRMSD -1
REMARK  0 active torsions:
REMARK  status: ('A' for Active; 'I' for Inactive)
ROOT
ATOM      1  N1  IND d   1       0.228   0.098  -0.523  0.00  0.00    -0.196 N 
ATOM      2  C2  IND d   1      -0.895   0.341  -1.263  0.00  0.00     0.054 A 
ATOM      3  C3  IND d   1      -1.872   0.852  -0.481  0.00  0.00    -0.031 A 
ATOM      4  C4  IND d   1      -1.813   1.469   2.017  0.00  0.00     0.051 A 
ATOM      5  C5  IND d   1      -1.018   1.397   3.126  0.00  0.00    -0.031 A 
ATOM      6  C6  IND d   1       0.261   0.880   3.074  0.00  0.00     0.015 A 
ATOM      7  C7  IND d   1       0.798   0.425   1.903  0.00  0.00    -0.016 A 
ATOM      8  C8  IND d   1      -0.010   0.490   0.776  0.00  0.00    -0.047 A 
ATOM      9  C9  IND d   1      -1.323   0.974   0.832  0.00  0.00    -0.096 A 
ATOM     10  HN1 IND d   1       0.960  -0.242  -0.819  0.00  0.00     0.298 HD
ENDROOT
TORSDOF 0
ENDMDL
