MODEL 1
REMARK minimizedAffinity -5.97928524
REMARK minimizedRMSD -1
REMARK  0 active torsions:
REMARK  status: ('A' for Active; 'I' for Inactive)
ROOT
ATOM      1  N1  IND d   1       0.946  -0.094  -0.003  0.00  0.00    -0.196 N 
ATOM      2  C2  IND d   1      -0.085   0.191  -0.854  0.00  0.00     0.054 A 
ATOM      3  C3  IND d   1      -1.103   0.773  -0.181  0.00  0.00    -0.031 A 
ATOM      4  C4  IND d   1      -1.251   1.447   2.299  0.00  0.00     0.051 A 
ATOM      5  C5  IND d   1      -0.571   1.360   3.481  0.00  0.00    -0.031 A 
ATOM      6  C6  IND d   1       0.676   0.774   3.564  0.00  0.00     0.015 A 
ATOM      7  C7  IND d   1       1.297   0.262   2.460  0.00  0.00    -0.016 A 
ATOM      8  C8  IND d   1       0.606   0.342   1.259  0.00  0.00    -0.047 A 
ATOM      9  C9  IND d   1      -0.677   0.898   1.177  0.00  0.00    -0.096 A 
ATOM     10  HN1 IND d   1       1.683  -0.480  -0.220  0.00  0.00     0.298 HD
ENDROOT
TORSDOF 0
ENDMDL
