MODEL 1
REMARK minimizedAffinity -4.97721863
REMARK minimizedRMSD -1
REMARK  0 active torsions:
REMARK  status: ('A' for Active; 'I' for Inactive)
ROOT
ATOM      1  N1  IND d   1       0.618  -0.051  -0.298  0.00  0.00    -0.196 N 
ATOM      2  C2  IND d   1      -0.525  -0.236  -1.024  0.00  0.00     0.054 A 
ATOM      3  C3  IND d   1      -1.613   0.005  -0.258  0.00  0.00    -0.031 A 
ATOM      4  C4  IND d   1      -1.748   0.813   2.183  0.00  0.00     0.051 A 
ATOM      5  C5  IND d   1      -0.969   1.087   3.272  0.00  0.00    -0.031 A 
ATOM      6  C6  IND d   1       0.407   0.996   3.225  0.00  0.00     0.015 A 
ATOM      7  C7  IND d   1       1.059   0.637   2.079  0.00  0.00    -0.016 A 
ATOM      8  C8  IND d   1       0.271   0.352   0.973  0.00  0.00    -0.047 A 
ATOM      9  C9  IND d   1      -1.128   0.401   1.026  0.00  0.00    -0.096 A 
ATOM     10  HN1 IND d   1       1.420  -0.167  -0.586  0.00  0.00     0.298 HD
ENDROOT
TORSDOF 0
ENDMDL
