MODEL 1
REMARK minimizedAffinity -1.64468825
REMARK minimizedRMSD -1
REMARK  0 active torsions:
REMARK  status: ('A' for Active; 'I' for Inactive)
ROOT
ATOM      1  N1  IND d   1       1.444  -1.299   0.172  0.00  0.00    -0.196 N 
ATOM      2  C2  IND d   1       2.165  -0.951   1.281  0.00  0.00     0.054 A 
ATOM      3  C3  IND d   1       1.377  -0.307   2.171  0.00  0.00    -0.031 A 
ATOM      4  C4  IND d   1      -1.146   0.194   2.060  0.00  0.00     0.051 A 
ATOM      5  C5  IND d   1      -2.227   0.103   1.228  0.00  0.00    -0.031 A 
ATOM      6  C6  IND d   1      -2.138  -0.474  -0.022  0.00  0.00     0.015 A 
ATOM      7  C7  IND d   1      -0.962  -0.994  -0.485  0.00  0.00    -0.016 A 
ATOM      8  C8  IND d   1       0.139  -0.897   0.354  0.00  0.00    -0.047 A 
ATOM      9  C9  IND d   1       0.065  -0.274   1.607  0.00  0.00    -0.096 A 
ATOM     10  HN1 IND d   1       1.754  -1.700  -0.522  0.00  0.00     0.298 HD
ENDROOT
TORSDOF 0
ENDMDL
