MODEL 1
REMARK minimizedAffinity -1.32269967
REMARK minimizedRMSD -1
REMARK  0 active torsions:
REMARK  status: ('A' for Active; 'I' for Inactive)
ROOT
ATOM      1  N1  IND d   1       1.966  -1.242   1.868  0.00  0.00    -0.196 N 
ATOM      2  C2  IND d   1       2.008  -1.099   3.227  0.00  0.00     0.054 A 
ATOM      3  C3  IND d   1       0.878  -0.505   3.672  0.00  0.00    -0.031 A 
ATOM      4  C4  IND d   1      -1.214   0.222   2.359  0.00  0.00     0.051 A 
ATOM      5  C5  IND d   1      -1.705   0.328   1.088  0.00  0.00    -0.031 A 
ATOM      6  C6  IND d   1      -0.984  -0.095  -0.010  0.00  0.00     0.015 A 
ATOM      7  C7  IND d   1       0.256  -0.653   0.124  0.00  0.00    -0.016 A 
ATOM      8  C8  IND d   1       0.761  -0.756   1.412  0.00  0.00    -0.047 A 
ATOM      9  C9  IND d   1       0.051  -0.289   2.527  0.00  0.00    -0.096 A 
ATOM     10  HN1 IND d   1       2.589  -1.580   1.380  0.00  0.00     0.298 HD
ENDROOT
TORSDOF 0
ENDMDL
