MODEL 1
REMARK minimizedAffinity -2.52541709
REMARK minimizedRMSD -1
REMARK  0 active torsions:
REMARK  status: ('A' for Active; 'I' for Inactive)
ROOT
ATOM      1  N1  IND d   1       0.951  -0.990  -3.247  0.00  0.00    -0.196 N 
ATOM      2  C2  IND d   1       0.926   0.128  -4.034  0.00  0.00     0.054 A 
ATOM      3  C3  IND d   1       0.360   1.159  -3.367  0.00  0.00    -0.031 A 
ATOM      4  C4  IND d   1      -0.500   1.265  -0.943  0.00  0.00     0.051 A 
ATOM      5  C5  IND d   1      -0.721   0.485   0.157  0.00  0.00    -0.031 A 
ATOM      6  C6  IND d   1      -0.386  -0.854   0.180  0.00  0.00     0.015 A 
ATOM      7  C7  IND d   1       0.194  -1.461  -0.897  0.00  0.00    -0.016 A 
ATOM      8  C8  IND d   1       0.414  -0.673  -2.018  0.00  0.00    -0.047 A 
ATOM      9  C9  IND d   1       0.037   0.675  -2.063  0.00  0.00    -0.096 A 
ATOM     10  HN1 IND d   1       1.252  -1.761  -3.480  0.00  0.00     0.298 HD
ENDROOT
TORSDOF 0
ENDMDL
