MODEL 1
REMARK minimizedAffinity -4.88388824
REMARK minimizedRMSD -1
REMARK  0 active torsions:
REMARK  status: ('A' for Active; 'I' for Inactive)
ROOT
ATOM      1  N1  IND d   1      -1.265  -0.800  -0.009  0.00  0.00    -0.196 N 
ATOM      2  C2  IND d   1      -0.074  -1.102  -0.606  0.00  0.00     0.054 A 
ATOM      3  C3  IND d   1       0.936  -0.431  -0.008  0.00  0.00    -0.031 A 
ATOM      4  C4  IND d   1       0.874   1.138   2.033  0.00  0.00     0.051 A 
ATOM      5  C5  IND d   1       0.009   1.747   2.897  0.00  0.00    -0.031 A 
ATOM      6  C6  IND d   1      -1.353   1.533   2.837  0.00  0.00     0.015 A 
ATOM      7  C7  IND d   1      -1.901   0.688   1.914  0.00  0.00    -0.016 A 
ATOM      8  C8  IND d   1      -1.026   0.072   1.031  0.00  0.00    -0.047 A 
ATOM      9  C9  IND d   1       0.353   0.319   1.059  0.00  0.00    -0.096 A 
ATOM     10  HN1 IND d   1      -2.035  -1.103  -0.243  0.00  0.00     0.298 HD
ENDROOT
TORSDOF 0
ENDMDL
