MODEL 1
REMARK minimizedAffinity -3.01515102
REMARK minimizedRMSD -1
REMARK  0 active torsions:
REMARK  status: ('A' for Active; 'I' for Inactive)
ROOT
ATOM      1  N1  IND d   1       0.522  -0.675  -2.959  0.00  0.00    -0.196 N 
ATOM      2  C2  IND d   1       0.581   0.424  -3.770  0.00  0.00     0.054 A 
ATOM      3  C3  IND d   1       0.130   1.517  -3.114  0.00  0.00    -0.031 A 
ATOM      4  C4  IND d   1      -0.657   1.751  -0.674  0.00  0.00     0.051 A 
ATOM      5  C5  IND d   1      -0.923   1.016   0.448  0.00  0.00    -0.031 A 
ATOM      6  C6  IND d   1      -0.713  -0.347   0.493  0.00  0.00     0.015 A 
ATOM      7  C7  IND d   1      -0.218  -1.027  -0.583  0.00  0.00    -0.016 A 
ATOM      8  C8  IND d   1       0.046  -0.286  -1.726  0.00  0.00    -0.047 A 
ATOM      9  C9  IND d   1      -0.205   1.091  -1.792  0.00  0.00    -0.096 A 
ATOM     10  HN1 IND d   1       0.744  -1.475  -3.182  0.00  0.00     0.298 HD
ENDROOT
TORSDOF 0
ENDMDL
