MODEL 1
REMARK minimizedAffinity -3.12778926
REMARK minimizedRMSD -1
REMARK  0 active torsions:
REMARK  status: ('A' for Active; 'I' for Inactive)
ROOT
ATOM      1  N1  IND d   1       1.156  -0.187  -0.749  0.00  0.00    -0.196 N 
ATOM      2  C2  IND d   1       0.143   0.165  -1.597  0.00  0.00     0.054 A 
ATOM      3  C3  IND d   1      -0.972   0.470  -0.897  0.00  0.00    -0.031 A 
ATOM      4  C4  IND d   1      -1.331   0.558   1.651  0.00  0.00     0.051 A 
ATOM      5  C5  IND d   1      -0.708   0.285   2.837  0.00  0.00    -0.031 A 
ATOM      6  C6  IND d   1       0.595  -0.166   2.889  0.00  0.00     0.015 A 
ATOM      7  C7  IND d   1       1.331  -0.351   1.753  0.00  0.00    -0.016 A 
ATOM      8  C8  IND d   1       0.699  -0.081   0.547  0.00  0.00    -0.047 A 
ATOM      9  C9  IND d   1      -0.637   0.336   0.485  0.00  0.00    -0.096 A 
ATOM     10  HN1 IND d   1       1.945  -0.434  -0.985  0.00  0.00     0.298 HD
ENDROOT
TORSDOF 0
ENDMDL
