MODEL 1
REMARK minimizedAffinity -1.92746294
REMARK minimizedRMSD -1
REMARK  0 active torsions:
REMARK  status: ('A' for Active; 'I' for Inactive)
ROOT
ATOM      1  N1  IND d   1       1.140  -0.834   1.361  0.00  0.00    -0.196 N 
ATOM      2  C2  IND d   1       1.360  -1.344   0.112  0.00  0.00     0.054 A 
ATOM      3  C3  IND d   1       0.303  -1.092  -0.692  0.00  0.00    -0.031 A 
ATOM      4  C4  IND d   1      -1.850   0.229  -0.197  0.00  0.00     0.051 A 
ATOM      5  C5  IND d   1      -2.520   0.856   0.816  0.00  0.00    -0.031 A 
ATOM      6  C6  IND d   1      -1.993   0.956   2.087  0.00  0.00     0.015 A 
ATOM      7  C7  IND d   1      -0.765   0.440   2.391  0.00  0.00    -0.016 A 
ATOM      8  C8  IND d   1      -0.084  -0.203   1.367  0.00  0.00    -0.047 A 
ATOM      9  C9  IND d   1      -0.633  -0.345   0.086  0.00  0.00    -0.096 A 
ATOM     10  HN1 IND d   1       1.677  -0.896   2.030  0.00  0.00     0.298 HD
ENDROOT
TORSDOF 0
ENDMDL
