MODEL 1
REMARK minimizedAffinity -1.09775543
REMARK minimizedRMSD -1
REMARK  0 active torsions:
REMARK  status: ('A' for Active; 'I' for Inactive)
ROOT
ATOM      1  N1  IND d   1       0.572  -1.325  -0.702  0.00  0.00    -0.196 N 
ATOM      2  C2  IND d   1       1.663  -1.155   0.104  0.00  0.00     0.054 A 
ATOM      3  C3  IND d   1       1.318  -0.484   1.227  0.00  0.00    -0.031 A 
ATOM      4  C4  IND d   1      -0.997   0.339   1.993  0.00  0.00     0.051 A 
ATOM      5  C5  IND d   1      -2.295   0.447   1.577  0.00  0.00    -0.031 A 
ATOM      6  C6  IND d   1      -2.712  -0.043   0.356  0.00  0.00     0.015 A 
ATOM      7  C7  IND d   1      -1.845  -0.671  -0.493  0.00  0.00    -0.016 A 
ATOM      8  C8  IND d   1      -0.526  -0.777  -0.076  0.00  0.00    -0.047 A 
ATOM      9  C9  IND d   1      -0.088  -0.244   1.143  0.00  0.00    -0.096 A 
ATOM     10  HN1 IND d   1       0.572  -1.711  -1.471  0.00  0.00     0.298 HD
ENDROOT
TORSDOF 0
ENDMDL
