MODEL 1
REMARK minimizedAffinity -3.05482626
REMARK minimizedRMSD -1
REMARK  0 active torsions:
REMARK  status: ('A' for Active; 'I' for Inactive)
ROOT
ATOM      1  N1  IND d   1       1.406  -0.597  -0.145  0.00  0.00    -0.196 N 
ATOM      2  C2  IND d   1       0.978  -0.587  -1.443  0.00  0.00     0.054 A 
ATOM      3  C3  IND d   1      -0.324  -0.230  -1.507  0.00  0.00    -0.031 A 
ATOM      4  C4  IND d   1      -1.919   0.480   0.385  0.00  0.00     0.051 A 
ATOM      5  C5  IND d   1      -1.995   0.592   1.745  0.00  0.00    -0.031 A 
ATOM      6  C6  IND d   1      -0.918   0.311   2.561  0.00  0.00     0.015 A 
ATOM      7  C7  IND d   1       0.283  -0.084   2.044  0.00  0.00    -0.016 A 
ATOM      8  C8  IND d   1       0.362  -0.206   0.664  0.00  0.00    -0.047 A 
ATOM      9  C9  IND d   1      -0.740   0.037  -0.166  0.00  0.00    -0.096 A 
ATOM     10  HN1 IND d   1       2.195  -0.811   0.122  0.00  0.00     0.298 HD
ENDROOT
TORSDOF 0
ENDMDL
