MODEL 1
REMARK minimizedAffinity -1.64054585
REMARK minimizedRMSD -1
REMARK  0 active torsions:
REMARK  status: ('A' for Active; 'I' for Inactive)
ROOT
ATOM      1  N1  IND d   1       1.137   2.299  -2.278  0.00  0.00    -0.196 N 
ATOM      2  C2  IND d   1       1.696   1.736  -3.391  0.00  0.00     0.054 A 
ATOM      3  C3  IND d   1       1.610   0.388  -3.330  0.00  0.00    -0.031 A 
ATOM      4  C4  IND d   1       0.502  -1.101  -1.547  0.00  0.00     0.051 A 
ATOM      5  C5  IND d   1      -0.109  -1.046  -0.325  0.00  0.00    -0.031 A 
ATOM      6  C6  IND d   1      -0.343   0.151   0.319  0.00  0.00     0.015 A 
ATOM      7  C7  IND d   1       0.016   1.344  -0.241  0.00  0.00    -0.016 A 
ATOM      8  C8  IND d   1       0.643   1.292  -1.478  0.00  0.00    -0.047 A 
ATOM      9  C9  IND d   1       0.922   0.077  -2.118  0.00  0.00    -0.096 A 
ATOM     10  HN1 IND d   1       1.100   3.141  -2.106  0.00  0.00     0.298 HD
ENDROOT
TORSDOF 0
ENDMDL
