MODEL 1
REMARK minimizedAffinity -4.15741587
REMARK minimizedRMSD -1
REMARK  2 active torsions:
REMARK  status: ('A' for Active; 'I' for Inactive)
REMARK    1  A    between atoms: C2'_3  and  C1'_4 
REMARK    2  A    between atoms: C1'_4  and  C1_5 
ROOT
ATOM      1  C1  I4B d   1       0.397  -0.235  -0.917  0.00  0.00    -0.075 A 
ATOM      2  C2  I4B d   1       1.300  -0.031   0.096  0.00  0.00     0.003 A 
ATOM      3  C3  I4B d   1       0.856   0.379   1.376  0.00  0.00     0.002 A 
ATOM      4  C4  I4B d   1      -0.487   0.619   1.585  0.00  0.00    -0.004 A 
ATOM      5  C5  I4B d   1      -1.404   0.390   0.563  0.00  0.00     0.002 A 
ATOM      6  C6  I4B d   1      -0.962  -0.052  -0.692  0.00  0.00     0.003 A 
ENDROOT
BRANCH   1   7
ATOM      7  C1' I4B d   1       0.904  -0.636  -2.266  0.00  0.00     0.060 C 
BRANCH   7   8
ATOM      8  C2' I4B d   1       1.597   0.564  -2.879  0.00  0.00    -0.013 C 
ATOM      9  C4' I4B d   1       3.041   0.262  -3.184  0.00  0.00     0.013 C 
ATOM     10  C3' I4B d   1       0.850   0.946  -4.121  0.00  0.00     0.013 C 
ENDBRANCH   7   8
ENDBRANCH   1   7
TORSDOF 2
ENDMDL
