MODEL 1
REMARK minimizedAffinity -3.82998562
REMARK minimizedRMSD -1
REMARK  2 active torsions:
REMARK  status: ('A' for Active; 'I' for Inactive)
REMARK    1  A    between atoms: C2'_3  and  C1'_4 
REMARK    2  A    between atoms: C1'_4  and  C1_5 
ROOT
ATOM      1  C1  I4B d   1      -0.261  -0.264  -0.501  0.00  0.00    -0.075 A 
ATOM      2  C2  I4B d   1      -1.602  -0.473  -0.300  0.00  0.00     0.003 A 
ATOM      3  C3  I4B d   1      -2.226  -0.008   0.883  0.00  0.00     0.002 A 
ATOM      4  C4  I4B d   1      -1.466   0.612   1.854  0.00  0.00    -0.004 A 
ATOM      5  C5  I4B d   1      -0.111   0.843   1.638  0.00  0.00     0.002 A 
ATOM      6  C6  I4B d   1       0.494   0.414   0.448  0.00  0.00     0.003 A 
ENDROOT
BRANCH   1   7
ATOM      7  C1' I4B d   1       0.373  -0.797  -1.747  0.00  0.00     0.060 C 
BRANCH   7   8
ATOM      8  C2' I4B d   1       1.009   0.365  -2.482  0.00  0.00    -0.013 C 
ATOM      9  C4' I4B d   1       2.485   0.449  -2.196  0.00  0.00     0.013 C 
ATOM     10  C3' I4B d   1       0.750   0.184  -3.948  0.00  0.00     0.013 C 
ENDBRANCH   7   8
ENDBRANCH   1   7
TORSDOF 2
ENDMDL
