MODEL 1
REMARK minimizedAffinity -5.33711576
REMARK minimizedRMSD -1
REMARK  2 active torsions:
REMARK  status: ('A' for Active; 'I' for Inactive)
REMARK    1  A    between atoms: C2'_3  and  C1'_4 
REMARK    2  A    between atoms: C1'_4  and  C1_5 
ROOT
ATOM      1  C1  I4B d   1       0.180  -0.150  -0.263  0.00  0.00    -0.075 A 
ATOM      2  C2  I4B d   1       0.812   0.298   0.871  0.00  0.00     0.003 A 
ATOM      3  C3  I4B d   1       0.064   0.888   1.918  0.00  0.00     0.002 A 
ATOM      4  C4  I4B d   1      -1.298   1.055   1.770  0.00  0.00    -0.004 A 
ATOM      5  C5  I4B d   1      -1.940   0.580   0.630  0.00  0.00     0.002 A 
ATOM      6  C6  I4B d   1      -1.198  -0.038  -0.388  0.00  0.00     0.003 A 
ENDROOT
BRANCH   1   7
ATOM      7  C1' I4B d   1       1.005  -0.738  -1.363  0.00  0.00     0.060 C 
BRANCH   7   8
ATOM      8  C2' I4B d   1       0.747   0.066  -2.621  0.00  0.00    -0.013 C 
ATOM      9  C4' I4B d   1       1.983   0.807  -3.058  0.00  0.00     0.013 C 
ATOM     10  C3' I4B d   1       0.277  -0.879  -3.686  0.00  0.00     0.013 C 
ENDBRANCH   7   8
ENDBRANCH   1   7
TORSDOF 2
ENDMDL
