MODEL 1
REMARK minimizedAffinity -3.59134245
REMARK minimizedRMSD -1
REMARK  2 active torsions:
REMARK  status: ('A' for Active; 'I' for Inactive)
REMARK    1  A    between atoms: C2'_3  and  C1'_4 
REMARK    2  A    between atoms: C1'_4  and  C1_5 
ROOT
ATOM      1  C1  I4B d   1       0.982  -0.343  -0.793  0.00  0.00    -0.075 A 
ATOM      2  C2  I4B d   1       1.951  -0.820   0.054  0.00  0.00     0.003 A 
ATOM      3  C3  I4B d   1       2.101  -0.268   1.349  0.00  0.00     0.002 A 
ATOM      4  C4  I4B d   1       1.299   0.786   1.735  0.00  0.00    -0.004 A 
ATOM      5  C5  I4B d   1       0.301   1.253   0.884  0.00  0.00     0.002 A 
ATOM      6  C6  I4B d   1       0.133   0.677  -0.383  0.00  0.00     0.003 A 
ENDROOT
BRANCH   1   7
ATOM      7  C1' I4B d   1       0.873  -0.927  -2.166  0.00  0.00     0.060 C 
BRANCH   7   8
ATOM      8  C2' I4B d   1       1.169   0.172  -3.165  0.00  0.00    -0.013 C 
ATOM      9  C4' I4B d   1       2.650   0.412  -3.289  0.00  0.00     0.013 C 
ATOM     10  C3' I4B d   1       0.573  -0.227  -4.482  0.00  0.00     0.013 C 
ENDBRANCH   7   8
ENDBRANCH   1   7
TORSDOF 2
ENDMDL
