MODEL 1
REMARK minimizedAffinity -1.68768859
REMARK minimizedRMSD -1
REMARK  2 active torsions:
REMARK  status: ('A' for Active; 'I' for Inactive)
REMARK    1  A    between atoms: C2'_3  and  C1'_4 
REMARK    2  A    between atoms: C1'_4  and  C1_5 
ROOT
ATOM      1  C1  I4B d   1       0.091  -0.059  -0.220  0.00  0.00    -0.075 A 
ATOM      2  C2  I4B d   1       0.909   0.368   0.797  0.00  0.00     0.003 A 
ATOM      3  C3  I4B d   1       0.360   1.031   1.921  0.00  0.00     0.002 A 
ATOM      4  C4  I4B d   1      -0.994   1.290   1.964  0.00  0.00    -0.004 A 
ATOM      5  C5  I4B d   1      -1.825   0.837   0.943  0.00  0.00     0.002 A 
ATOM      6  C6  I4B d   1      -1.281   0.147  -0.150  0.00  0.00     0.003 A 
ENDROOT
BRANCH   1   7
ATOM      7  C1' I4B d   1       0.707  -0.727  -1.408  0.00  0.00     0.060 C 
BRANCH   7   8
ATOM      8  C2' I4B d   1       0.267   0.025  -2.647  0.00  0.00    -0.013 C 
ATOM      9  C4' I4B d   1       1.404   0.818  -3.237  0.00  0.00     0.013 C 
ATOM     10  C3' I4B d   1      -0.264  -0.974  -3.631  0.00  0.00     0.013 C 
ENDBRANCH   7   8
ENDBRANCH   1   7
TORSDOF 2
ENDMDL
