MODEL 1
REMARK minimizedAffinity -3.1980741
REMARK minimizedRMSD -1
REMARK  2 active torsions:
REMARK  status: ('A' for Active; 'I' for Inactive)
REMARK    1  A    between atoms: C2'_3  and  C1'_4 
REMARK    2  A    between atoms: C1'_4  and  C1_5 
ROOT
ATOM      1  C1  I4B d   1      -0.038   0.536  -0.596  0.00  0.00    -0.075 A 
ATOM      2  C2  I4B d   1      -0.801   1.639  -0.886  0.00  0.00     0.003 A 
ATOM      3  C3  I4B d   1      -1.451   2.349   0.152  0.00  0.00     0.002 A 
ATOM      4  C4  I4B d   1      -1.354   1.894   1.451  0.00  0.00    -0.004 A 
ATOM      5  C5  I4B d   1      -0.561   0.789   1.747  0.00  0.00     0.002 A 
ATOM      6  C6  I4B d   1       0.111   0.112   0.719  0.00  0.00     0.003 A 
ENDROOT
BRANCH   1   7
ATOM      7  C1' I4B d   1       0.609  -0.210  -1.720  0.00  0.00     0.060 C 
BRANCH   7   8
ATOM      8  C2' I4B d   1       0.944   0.788  -2.810  0.00  0.00    -0.013 C 
ATOM      9  C4' I4B d   1       2.363   1.276  -2.684  0.00  0.00     0.013 C 
ATOM     10  C3' I4B d   1       0.716   0.121  -4.133  0.00  0.00     0.013 C 
ENDBRANCH   7   8
ENDBRANCH   1   7
TORSDOF 2
ENDMDL
