MODEL 1
REMARK minimizedAffinity -4.16218805
REMARK minimizedRMSD -1
REMARK  2 active torsions:
REMARK  status: ('A' for Active; 'I' for Inactive)
REMARK    1  A    between atoms: C2'_3  and  C1'_4 
REMARK    2  A    between atoms: C1'_4  and  C1_5 
ROOT
ATOM      1  C1  I4B d   1       0.222  -0.059   0.052  0.00  0.00    -0.075 A 
ATOM      2  C2  I4B d   1       0.917   0.520   1.084  0.00  0.00     0.003 A 
ATOM      3  C3  I4B d   1       0.227   1.210   2.110  0.00  0.00     0.002 A 
ATOM      4  C4  I4B d   1      -1.145   1.340   2.038  0.00  0.00    -0.004 A 
ATOM      5  C5  I4B d   1      -1.850   0.733   1.003  0.00  0.00     0.002 A 
ATOM      6  C6  I4B d   1      -1.164   0.018   0.010  0.00  0.00     0.003 A 
ENDROOT
BRANCH   1   7
ATOM      7  C1' I4B d   1       0.985  -0.752  -1.032  0.00  0.00     0.060 C 
BRANCH   7   8
ATOM      8  C2' I4B d   1       0.535  -0.178  -2.360  0.00  0.00    -0.013 C 
ATOM      9  C4' I4B d   1       1.672   0.507  -3.070  0.00  0.00     0.013 C 
ATOM     10  C3' I4B d   1      -0.021  -1.300  -3.185  0.00  0.00     0.013 C 
ENDBRANCH   7   8
ENDBRANCH   1   7
TORSDOF 2
ENDMDL
