MODEL 1
REMARK minimizedAffinity -2.90545344
REMARK minimizedRMSD -1
REMARK  2 active torsions:
REMARK  status: ('A' for Active; 'I' for Inactive)
REMARK    1  A    between atoms: C2'_3  and  C1'_4 
REMARK    2  A    between atoms: C1'_4  and  C1_5 
ROOT
ATOM      1  C1  I4B d   1       0.275   0.682  -1.158  0.00  0.00    -0.075 A 
ATOM      2  C2  I4B d   1       0.190   1.781  -1.976  0.00  0.00     0.003 A 
ATOM      3  C3  I4B d   1       0.824   1.778  -3.242  0.00  0.00     0.002 A 
ATOM      4  C4  I4B d   1       1.569   0.683  -3.626  0.00  0.00    -0.004 A 
ATOM      5  C5  I4B d   1       1.636  -0.439  -2.806  0.00  0.00     0.002 A 
ATOM      6  C6  I4B d   1       0.974  -0.445  -1.569  0.00  0.00     0.003 A 
ENDROOT
BRANCH   1   7
ATOM      7  C1' I4B d   1      -0.379   0.731   0.186  0.00  0.00     0.060 C 
BRANCH   7   8
ATOM      8  C2' I4B d   1       0.530   1.506   1.119  0.00  0.00    -0.013 C 
ATOM      9  C4' I4B d   1      -0.251   2.136   2.243  0.00  0.00     0.013 C 
ATOM     10  C3' I4B d   1       1.568   0.559   1.646  0.00  0.00     0.013 C 
ENDBRANCH   7   8
ENDBRANCH   1   7
TORSDOF 2
ENDMDL
