MODEL 1
REMARK minimizedAffinity -2.05442524
REMARK minimizedRMSD -1
REMARK  3 active torsions:
REMARK  status: ('A' for Active; 'I' for Inactive)
REMARK    1  A    between atoms: C3'_2  and  C2'_3 
REMARK    2  A    between atoms: C2'_3  and  C1'_4 
REMARK    3  A    between atoms: C1'_4  and  C1_5 
ROOT
ATOM      1  C1  N4B d   1       0.651  -0.354  -0.053  0.00  0.00    -0.075 A 
ATOM      2  C2  N4B d   1       1.508  -1.232  -0.752  0.00  0.00     0.002 A 
ATOM      3  C3  N4B d   1       2.744  -1.539  -0.238  0.00  0.00     0.002 A 
ATOM      4  C4  N4B d   1       3.151  -0.967   0.958  0.00  0.00    -0.004 A 
ATOM      5  C5  N4B d   1       2.307  -0.139   1.639  0.00  0.00     0.002 A 
ATOM      6  C6  N4B d   1       1.061   0.174   1.137  0.00  0.00     0.002 A 
ENDROOT
BRANCH   1   7
ATOM      7  C1' N4B d   1      -0.675   0.078  -0.617  0.00  0.00     0.057 C 
BRANCH   7   8
ATOM      8  C2' N4B d   1      -1.498   0.736   0.486  0.00  0.00     0.009 C 
BRANCH   8   9
ATOM      9  C3' N4B d   1      -2.887   1.120   0.007  0.00  0.00     0.004 C 
ATOM     10  C4' N4B d   1      -3.901   1.128   1.111  0.00  0.00     0.003 C 
ENDBRANCH   8   9
ENDBRANCH   7   8
ENDBRANCH   1   7
TORSDOF 3
ENDMDL
