MODEL 1
REMARK minimizedAffinity -3.55857491
REMARK minimizedRMSD -1
REMARK  3 active torsions:
REMARK  status: ('A' for Active; 'I' for Inactive)
REMARK    1  A    between atoms: C3'_2  and  C2'_3 
REMARK    2  A    between atoms: C2'_3  and  C1'_4 
REMARK    3  A    between atoms: C1'_4  and  C1_5 
ROOT
ATOM      1  C1  N4B d   1       0.020  -0.149   0.027  0.00  0.00    -0.075 A 
ATOM      2  C2  N4B d   1       0.698   0.763   0.865  0.00  0.00     0.002 A 
ATOM      3  C3  N4B d   1       1.927   0.438   1.383  0.00  0.00     0.002 A 
ATOM      4  C4  N4B d   1       2.488  -0.797   1.093  0.00  0.00    -0.004 A 
ATOM      5  C5  N4B d   1       1.839  -1.662   0.261  0.00  0.00     0.002 A 
ATOM      6  C6  N4B d   1       0.605  -1.346  -0.269  0.00  0.00     0.002 A 
ENDROOT
BRANCH   1   7
ATOM      7  C1' N4B d   1      -1.364   0.127  -0.493  0.00  0.00     0.057 C 
BRANCH   7   8
ATOM      8  C2' N4B d   1      -2.245   0.606   0.657  0.00  0.00     0.009 C 
BRANCH   8   9
ATOM      9  C3' N4B d   1      -3.723   0.499   0.323  0.00  0.00     0.004 C 
ATOM     10  C4' N4B d   1      -4.554   0.075   1.497  0.00  0.00     0.003 C 
ENDBRANCH   8   9
ENDBRANCH   7   8
ENDBRANCH   1   7
TORSDOF 3
ENDMDL
