MODEL 1
REMARK minimizedAffinity -4.52011585
REMARK minimizedRMSD -1
REMARK  3 active torsions:
REMARK  status: ('A' for Active; 'I' for Inactive)
REMARK    1  A    between atoms: C3'_2  and  C2'_3 
REMARK    2  A    between atoms: C2'_3  and  C1'_4 
REMARK    3  A    between atoms: C1'_4  and  C1_5 
ROOT
ATOM      1  C1  N4B d   1       1.234   0.921   0.279  0.00  0.00    -0.075 A 
ATOM      2  C2  N4B d   1       1.502  -0.461   0.170  0.00  0.00     0.002 A 
ATOM      3  C3  N4B d   1       2.798  -0.902   0.055  0.00  0.00     0.002 A 
ATOM      4  C4  N4B d   1       3.836   0.017   0.028  0.00  0.00    -0.004 A 
ATOM      5  C5  N4B d   1       3.570   1.349   0.160  0.00  0.00     0.002 A 
ATOM      6  C6  N4B d   1       2.273   1.806   0.280  0.00  0.00     0.002 A 
ENDROOT
BRANCH   1   7
ATOM      7  C1' N4B d   1      -0.171   1.457   0.321  0.00  0.00     0.057 C 
BRANCH   7   8
ATOM      8  C2' N4B d   1      -1.103   0.470  -0.375  0.00  0.00     0.009 C 
BRANCH   8   9
ATOM      9  C3' N4B d   1      -2.564   0.765  -0.081  0.00  0.00     0.004 C 
ATOM     10  C4' N4B d   1      -2.752   1.597   1.152  0.00  0.00     0.003 C 
ENDBRANCH   8   9
ENDBRANCH   7   8
ENDBRANCH   1   7
TORSDOF 3
ENDMDL
