MODEL 1
REMARK minimizedAffinity -1.96261692
REMARK minimizedRMSD -1
REMARK  3 active torsions:
REMARK  status: ('A' for Active; 'I' for Inactive)
REMARK    1  A    between atoms: C3'_2  and  C2'_3 
REMARK    2  A    between atoms: C2'_3  and  C1'_4 
REMARK    3  A    between atoms: C1'_4  and  C1_5 
ROOT
ATOM      1  C1  N4B d   1      -2.403   0.664   0.719  0.00  0.00    -0.075 A 
ATOM      2  C2  N4B d   1      -1.712  -0.185   1.611  0.00  0.00     0.002 A 
ATOM      3  C3  N4B d   1      -0.408  -0.532   1.358  0.00  0.00     0.002 A 
ATOM      4  C4  N4B d   1       0.218  -0.059   0.215  0.00  0.00    -0.004 A 
ATOM      5  C5  N4B d   1      -0.447   0.781  -0.629  0.00  0.00     0.002 A 
ATOM      6  C6  N4B d   1      -1.758   1.141  -0.386  0.00  0.00     0.002 A 
ENDROOT
BRANCH   1   7
ATOM      7  C1' N4B d   1      -3.856   1.002   0.908  0.00  0.00     0.057 C 
BRANCH   7   8
ATOM      8  C2' N4B d   1      -4.707   0.019   0.108  0.00  0.00     0.009 C 
BRANCH   8   9
ATOM      9  C3' N4B d   1      -5.512   0.716  -0.975  0.00  0.00     0.004 C 
ATOM     10  C4' N4B d   1      -5.239   0.170  -2.345  0.00  0.00     0.003 C 
ENDBRANCH   8   9
ENDBRANCH   7   8
ENDBRANCH   1   7
TORSDOF 3
ENDMDL
