MODEL 1
REMARK minimizedAffinity -4.48427248
REMARK minimizedRMSD -1
REMARK  0 active torsions:
REMARK  status: ('A' for Active; 'I' for Inactive)
ROOT
ATOM      1  C   UNL d   1      -0.742   0.383  -1.760  0.00  0.00     0.078 C 
ATOM      2  C1  UNL d   1       0.202   0.014  -0.655  0.00  0.00    -0.077 A 
ATOM      3  C2  UNL d   1      -0.065   0.372   0.672  0.00  0.00    -0.001 A 
ATOM      4  C3  UNL d   1       0.828   0.031   1.689  0.00  0.00     0.003 A 
ATOM      5  C4  UNL d   1       1.995  -0.670   1.389  0.00  0.00    -0.005 A 
ATOM      6  C5  UNL d   1       2.270  -1.029   0.072  0.00  0.00     0.003 A 
ATOM      7  C6  UNL d   1       1.378  -0.688  -0.947  0.00  0.00    -0.001 A 
ENDROOT
TORSDOF 0
ENDMDL
