MODEL 1
REMARK minimizedAffinity -5.15498161
REMARK minimizedRMSD -1
REMARK  0 active torsions:
REMARK  status: ('A' for Active; 'I' for Inactive)
ROOT
ATOM      1  C   UNL d   1      -0.620   0.436  -1.287  0.00  0.00     0.078 C 
ATOM      2  C1  UNL d   1      -0.168   0.008   0.078  0.00  0.00    -0.077 A 
ATOM      3  C2  UNL d   1      -1.079  -0.496   1.014  0.00  0.00    -0.001 A 
ATOM      4  C3  UNL d   1      -0.646  -0.882   2.284  0.00  0.00     0.003 A 
ATOM      5  C4  UNL d   1       0.699  -0.767   2.629  0.00  0.00    -0.005 A 
ATOM      6  C5  UNL d   1       1.613  -0.264   1.704  0.00  0.00     0.003 A 
ATOM      7  C6  UNL d   1       1.181   0.122   0.434  0.00  0.00    -0.001 A 
ENDROOT
TORSDOF 0
ENDMDL
