MODEL 1
REMARK minimizedAffinity -2.25289989
REMARK minimizedRMSD -1
REMARK  0 active torsions:
REMARK  status: ('A' for Active; 'I' for Inactive)
ROOT
ATOM      1  C   UNL d   1       1.771  -0.367   2.276  0.00  0.00     0.078 C 
ATOM      2  C1  UNL d   1       1.114  -0.407   0.929  0.00  0.00    -0.077 A 
ATOM      3  C2  UNL d   1       1.851  -0.702  -0.224  0.00  0.00    -0.001 A 
ATOM      4  C3  UNL d   1       1.229  -0.726  -1.473  0.00  0.00     0.003 A 
ATOM      5  C4  UNL d   1      -0.134  -0.455  -1.581  0.00  0.00    -0.005 A 
ATOM      6  C5  UNL d   1      -0.876  -0.159  -0.439  0.00  0.00     0.003 A 
ATOM      7  C6  UNL d   1      -0.255  -0.134   0.810  0.00  0.00    -0.001 A 
ENDROOT
TORSDOF 0
ENDMDL
