MODEL 1
REMARK minimizedAffinity -4.41897535
REMARK minimizedRMSD -1
REMARK  0 active torsions:
REMARK  status: ('A' for Active; 'I' for Inactive)
ROOT
ATOM      1  C   UNL d   1      -0.471   0.140  -1.582  0.00  0.00     0.078 C 
ATOM      2  C1  UNL d   1      -0.018  -0.149  -0.182  0.00  0.00    -0.077 A 
ATOM      3  C2  UNL d   1       1.321  -0.451   0.095  0.00  0.00    -0.001 A 
ATOM      4  C3  UNL d   1       1.726  -0.728   1.402  0.00  0.00     0.003 A 
ATOM      5  C4  UNL d   1       0.798  -0.707   2.441  0.00  0.00    -0.005 A 
ATOM      6  C5  UNL d   1      -0.537  -0.410   2.175  0.00  0.00     0.003 A 
ATOM      7  C6  UNL d   1      -0.944  -0.133   0.869  0.00  0.00    -0.001 A 
ENDROOT
TORSDOF 0
ENDMDL
