MODEL 1
REMARK minimizedAffinity -4.52096653
REMARK minimizedRMSD -1
REMARK  0 active torsions:
REMARK  status: ('A' for Active; 'I' for Inactive)
ROOT
ATOM      1  C   UNL d   1       1.219  -0.814   3.096  0.00  0.00     0.078 C 
ATOM      2  C1  UNL d   1       0.523  -0.477   1.811  0.00  0.00    -0.077 A 
ATOM      3  C2  UNL d   1      -0.858  -0.251   1.776  0.00  0.00    -0.001 A 
ATOM      4  C3  UNL d   1      -1.494   0.052   0.571  0.00  0.00     0.003 A 
ATOM      5  C4  UNL d   1      -0.757   0.130  -0.609  0.00  0.00    -0.005 A 
ATOM      6  C5  UNL d   1       0.618  -0.096  -0.585  0.00  0.00     0.003 A 
ATOM      7  C6  UNL d   1       1.255  -0.399   0.620  0.00  0.00    -0.001 A 
ENDROOT
TORSDOF 0
ENDMDL
