MODEL 1
REMARK minimizedAffinity -4.69662905
REMARK minimizedRMSD -1
REMARK  0 active torsions:
REMARK  status: ('A' for Active; 'I' for Inactive)
ROOT
ATOM      1  C   UNL d   1      -0.114   0.608  -1.273  0.00  0.00     0.078 C 
ATOM      2  C1  UNL d   1       0.092  -0.060   0.054  0.00  0.00    -0.077 A 
ATOM      3  C2  UNL d   1      -0.966  -0.700   0.711  0.00  0.00    -0.001 A 
ATOM      4  C3  UNL d   1      -0.762  -1.309   1.950  0.00  0.00     0.003 A 
ATOM      5  C4  UNL d   1       0.499  -1.283   2.543  0.00  0.00    -0.005 A 
ATOM      6  C5  UNL d   1       1.557  -0.647   1.898  0.00  0.00     0.003 A 
ATOM      7  C6  UNL d   1       1.355  -0.037   0.659  0.00  0.00    -0.001 A 
ENDROOT
TORSDOF 0
ENDMDL
