MODEL 1
REMARK minimizedAffinity 1.69509017
REMARK minimizedRMSD -1
REMARK  2 active torsions:
REMARK  status: ('A' for Active; 'I' for Inactive)
REMARK    1  A    between atoms: C2'_3  and  C1'_4 
REMARK    2  A    between atoms: C1'_4  and  C1_5 
ROOT
ATOM      1  C1  I4B d   1       3.495   5.137  -5.360  0.00  0.00    -0.075 A 
ATOM      2  C2  I4B d   1       3.636   3.969  -4.654  0.00  0.00     0.003 A 
ATOM      3  C3  I4B d   1       4.886   3.629  -4.081  0.00  0.00     0.002 A 
ATOM      4  C4  I4B d   1       5.972   4.455  -4.282  0.00  0.00    -0.004 A 
ATOM      5  C5  I4B d   1       5.822   5.650  -4.979  0.00  0.00     0.002 A 
ATOM      6  C6  I4B d   1       4.572   6.000  -5.511  0.00  0.00     0.003 A 
ENDROOT
BRANCH   1   7
ATOM      7  C1' I4B d   1       2.169   5.449  -5.979  0.00  0.00     0.060 C 
BRANCH   7   8
ATOM      8  C2' I4B d   1       1.088   4.912  -5.063  0.00  0.00    -0.013 C 
ATOM      9  C4' I4B d   1       0.130   6.000  -4.655  0.00  0.00     0.013 C 
ATOM     10  C3' I4B d   1       0.378   3.806  -5.785  0.00  0.00     0.013 C 
ENDBRANCH   7   8
ENDBRANCH   1   7
TORSDOF 2
ENDMDL
