MODEL 1
REMARK minimizedAffinity 6.19363213
REMARK minimizedRMSD -1
REMARK  2 active torsions:
REMARK  status: ('A' for Active; 'I' for Inactive)
REMARK    1  A    between atoms: C2'_3  and  C1'_4 
REMARK    2  A    between atoms: C1'_4  and  C1_5 
ROOT
ATOM      1  C1  I4B d   1       3.181   4.700  -4.757  0.00  0.00    -0.075 A 
ATOM      2  C2  I4B d   1       4.108   3.718  -4.512  0.00  0.00     0.003 A 
ATOM      3  C3  I4B d   1       5.443   3.869  -4.958  0.00  0.00     0.002 A 
ATOM      4  C4  I4B d   1       5.794   4.988  -5.685  0.00  0.00    -0.004 A 
ATOM      5  C5  I4B d   1       4.859   5.994  -5.913  0.00  0.00     0.002 A 
ATOM      6  C6  I4B d   1       3.548   5.855  -5.436  0.00  0.00     0.003 A 
ENDROOT
BRANCH   1   7
ATOM      7  C1' I4B d   1       1.772   4.493  -4.301  0.00  0.00     0.060 C 
BRANCH   7   8
ATOM      8  C2' I4B d   1       1.101   5.849  -4.228  0.00  0.00    -0.013 C 
ATOM      9  C4' I4B d   1       0.056   5.998  -5.302  0.00  0.00     0.013 C 
ATOM     10  C3' I4B d   1       0.498   5.994  -2.862  0.00  0.00     0.013 C 
ENDBRANCH   7   8
ENDBRANCH   1   7
TORSDOF 2
ENDMDL
