MODEL 1
REMARK minimizedAffinity 5.21006155
REMARK minimizedRMSD -1
REMARK  2 active torsions:
REMARK  status: ('A' for Active; 'I' for Inactive)
REMARK    1  A    between atoms: C2'_3  and  C1'_4 
REMARK    2  A    between atoms: C1'_4  and  C1_5 
ROOT
ATOM      1  C1  I4B d   1       1.255   0.910   0.141  0.00  0.00    -0.075 A 
ATOM      2  C2  I4B d   1       1.419   0.858  -1.221  0.00  0.00     0.003 A 
ATOM      3  C3  I4B d   1       1.673   2.042  -1.954  0.00  0.00     0.002 A 
ATOM      4  C4  I4B d   1       1.705   3.255  -1.297  0.00  0.00    -0.004 A 
ATOM      5  C5  I4B d   1       1.561   3.303   0.087  0.00  0.00     0.002 A 
ATOM      6  C6  I4B d   1       1.347   2.122   0.812  0.00  0.00     0.003 A 
ENDROOT
BRANCH   1   7
ATOM      7  C1' I4B d   1       0.955  -0.356   0.880  0.00  0.00     0.060 C 
BRANCH   7   8
ATOM      8  C2' I4B d   1      -0.353  -0.164   1.621  0.00  0.00    -0.013 C 
ATOM      9  C4' I4B d   1      -0.166   0.692   2.846  0.00  0.00     0.013 C 
ATOM     10  C3' I4B d   1      -1.336   0.455   0.673  0.00  0.00     0.013 C 
ENDBRANCH   7   8
ENDBRANCH   1   7
TORSDOF 2
ENDMDL
