MODEL 1
REMARK minimizedAffinity 12.8126249
REMARK minimizedRMSD -1
REMARK  2 active torsions:
REMARK  status: ('A' for Active; 'I' for Inactive)
REMARK    1  A    between atoms: C2'_3  and  C1'_4 
REMARK    2  A    between atoms: C1'_4  and  C1_5 
ROOT
ATOM      1  C1  I4B d   1      -3.083  -1.604  -1.601  0.00  0.00    -0.075 A 
ATOM      2  C2  I4B d   1      -4.442  -1.587  -1.792  0.00  0.00     0.003 A 
ATOM      3  C3  I4B d   1      -5.269  -2.517  -1.117  0.00  0.00     0.002 A 
ATOM      4  C4  I4B d   1      -4.694  -3.472  -0.304  0.00  0.00    -0.004 A 
ATOM      5  C5  I4B d   1      -3.318  -3.473  -0.093  0.00  0.00     0.002 A 
ATOM      6  C6  I4B d   1      -2.508  -2.525  -0.735  0.00  0.00     0.003 A 
ENDROOT
BRANCH   1   7
ATOM      7  C1' I4B d   1      -2.237  -0.628  -2.356  0.00  0.00     0.060 C 
BRANCH   7   8
ATOM      8  C2' I4B d   1      -2.280  -1.009  -3.822  0.00  0.00    -0.013 C 
ATOM      9  C4' I4B d   1      -2.336   0.212  -4.701  0.00  0.00     0.013 C 
ATOM     10  C3' I4B d   1      -1.066  -1.837  -4.121  0.00  0.00     0.013 C 
ENDBRANCH   7   8
ENDBRANCH   1   7
TORSDOF 2
ENDMDL
