MODEL 1
REMARK minimizedAffinity 3.3594203
REMARK minimizedRMSD -1
REMARK  2 active torsions:
REMARK  status: ('A' for Active; 'I' for Inactive)
REMARK    1  A    between atoms: C2'_3  and  C1'_4 
REMARK    2  A    between atoms: C1'_4  and  C1_5 
ROOT
ATOM      1  C1  I4B d   1      -0.658   5.566  -4.605  0.00  0.00    -0.075 A 
ATOM      2  C2  I4B d   1      -1.926   5.722  -5.108  0.00  0.00     0.003 A 
ATOM      3  C3  I4B d   1      -3.014   5.967  -4.235  0.00  0.00     0.002 A 
ATOM      4  C4  I4B d   1      -2.799   5.999  -2.873  0.00  0.00    -0.004 A 
ATOM      5  C5  I4B d   1      -1.509   5.864  -2.366  0.00  0.00     0.002 A 
ATOM      6  C6  I4B d   1      -0.430   5.659  -3.238  0.00  0.00     0.003 A 
ENDROOT
BRANCH   1   7
ATOM      7  C1' I4B d   1       0.462   5.276  -5.552  0.00  0.00     0.060 C 
BRANCH   7   8
ATOM      8  C2' I4B d   1       1.717   5.046  -4.734  0.00  0.00    -0.013 C 
ATOM      9  C4' I4B d   1       2.170   3.612  -4.822  0.00  0.00     0.013 C 
ATOM     10  C3' I4B d   1       2.776   5.980  -5.238  0.00  0.00     0.013 C 
ENDBRANCH   7   8
ENDBRANCH   1   7
TORSDOF 2
ENDMDL
