MODEL 1
REMARK minimizedAffinity 3.6989491
REMARK minimizedRMSD -1
REMARK  2 active torsions:
REMARK  status: ('A' for Active; 'I' for Inactive)
REMARK    1  A    between atoms: C2'_3  and  C1'_4 
REMARK    2  A    between atoms: C1'_4  and  C1_5 
ROOT
ATOM      1  C1  I4B d   1      -1.081   5.924  -3.483  0.00  0.00    -0.075 A 
ATOM      2  C2  I4B d   1      -1.362   5.798  -2.145  0.00  0.00     0.003 A 
ATOM      3  C3  I4B d   1      -2.706   5.755  -1.700  0.00  0.00     0.002 A 
ATOM      4  C4  I4B d   1      -3.730   5.891  -2.615  0.00  0.00    -0.004 A 
ATOM      5  C5  I4B d   1      -3.443   5.995  -3.973  0.00  0.00     0.002 A 
ATOM      6  C6  I4B d   1      -2.111   6.000  -4.411  0.00  0.00     0.003 A 
ENDROOT
BRANCH   1   7
ATOM      7  C1' I4B d   1       0.349   6.000  -3.914  0.00  0.00     0.060 C 
BRANCH   7   8
ATOM      8  C2' I4B d   1       0.442   5.446  -5.321  0.00  0.00    -0.013 C 
ATOM      9  C4' I4B d   1       1.738   5.841  -5.979  0.00  0.00     0.013 C 
ATOM     10  C3' I4B d   1       0.308   3.954  -5.241  0.00  0.00     0.013 C 
ENDBRANCH   7   8
ENDBRANCH   1   7
TORSDOF 2
ENDMDL
