MODEL 1
REMARK minimizedAffinity 10.205555
REMARK minimizedRMSD -1
REMARK  2 active torsions:
REMARK  status: ('A' for Active; 'I' for Inactive)
REMARK    1  A    between atoms: C2'_3  and  C1'_4 
REMARK    2  A    between atoms: C1'_4  and  C1_5 
ROOT
ATOM      1  C1  I4B d   1       3.196   3.736  -4.233  0.00  0.00    -0.075 A 
ATOM      2  C2  I4B d   1       4.277   4.480  -4.635  0.00  0.00     0.003 A 
ATOM      3  C3  I4B d   1       4.089   5.645  -5.417  0.00  0.00     0.002 A 
ATOM      4  C4  I4B d   1       2.815   5.999  -5.814  0.00  0.00    -0.004 A 
ATOM      5  C5  I4B d   1       1.719   5.256  -5.387  0.00  0.00     0.002 A 
ATOM      6  C6  I4B d   1       1.908   4.124  -4.581  0.00  0.00     0.003 A 
ENDROOT
BRANCH   1   7
ATOM      7  C1' I4B d   1       3.433   2.493  -3.435  0.00  0.00     0.060 C 
BRANCH   7   8
ATOM      8  C2' I4B d   1       2.157   2.169  -2.684  0.00  0.00    -0.013 C 
ATOM      9  C4' I4B d   1       1.767   0.726  -2.868  0.00  0.00     0.013 C 
ATOM     10  C3' I4B d   1       2.379   2.490  -1.236  0.00  0.00     0.013 C 
ENDBRANCH   7   8
ENDBRANCH   1   7
TORSDOF 2
ENDMDL
