MODEL 1
REMARK minimizedAffinity -0.344031632
REMARK minimizedRMSD -1
REMARK  2 active torsions:
REMARK  status: ('A' for Active; 'I' for Inactive)
REMARK    1  A    between atoms: C2'_3  and  C1'_4 
REMARK    2  A    between atoms: C1'_4  and  C1_5 
ROOT
ATOM      1  C1  I4B d   1      -0.577   5.835  -4.398  0.00  0.00    -0.075 A 
ATOM      2  C2  I4B d   1      -1.913   5.523  -4.459  0.00  0.00     0.003 A 
ATOM      3  C3  I4B d   1      -2.656   5.337  -3.268  0.00  0.00     0.002 A 
ATOM      4  C4  I4B d   1      -2.018   5.422  -2.048  0.00  0.00    -0.004 A 
ATOM      5  C5  I4B d   1      -0.669   5.761  -1.987  0.00  0.00     0.002 A 
ATOM      6  C6  I4B d   1       0.053   5.981  -3.169  0.00  0.00     0.003 A 
ENDROOT
BRANCH   1   7
ATOM      7  C1' I4B d   1       0.185   5.992  -5.675  0.00  0.00     0.060 C 
BRANCH   7   8
ATOM      8  C2' I4B d   1       1.440   5.148  -5.576  0.00  0.00    -0.013 C 
ATOM      9  C4' I4B d   1       2.648   5.999  -5.289  0.00  0.00     0.013 C 
ATOM     10  C3' I4B d   1       1.228   4.127  -4.499  0.00  0.00     0.013 C 
ENDBRANCH   7   8
ENDBRANCH   1   7
TORSDOF 2
ENDMDL
