MODEL 1
REMARK minimizedAffinity 9.44660282
REMARK minimizedRMSD -1
REMARK  2 active torsions:
REMARK  status: ('A' for Active; 'I' for Inactive)
REMARK    1  A    between atoms: C2'_3  and  C1'_4 
REMARK    2  A    between atoms: C1'_4  and  C1_5 
ROOT
ATOM      1  C1  I4B d   1       0.812   1.358  -0.373  0.00  0.00    -0.075 A 
ATOM      2  C2  I4B d   1      -0.501   0.985  -0.519  0.00  0.00     0.003 A 
ATOM      3  C3  I4B d   1      -1.185   0.353   0.548  0.00  0.00     0.002 A 
ATOM      4  C4  I4B d   1      -0.508   0.069   1.716  0.00  0.00    -0.004 A 
ATOM      5  C5  I4B d   1       0.816   0.469   1.870  0.00  0.00     0.002 A 
ATOM      6  C6  I4B d   1       1.477   1.129   0.824  0.00  0.00     0.003 A 
ENDROOT
BRANCH   1   7
ATOM      7  C1' I4B d   1       1.513   1.994  -1.531  0.00  0.00     0.060 C 
BRANCH   7   8
ATOM      8  C2' I4B d   1       1.783   3.442  -1.176  0.00  0.00    -0.013 C 
ATOM      9  C4' I4B d   1       0.512   4.159  -0.804  0.00  0.00     0.013 C 
ATOM     10  C3' I4B d   1       2.768   3.465  -0.045  0.00  0.00     0.013 C 
ENDBRANCH   7   8
ENDBRANCH   1   7
TORSDOF 2
ENDMDL
