MODEL 1
REMARK minimizedAffinity 10.1711111
REMARK minimizedRMSD -1
REMARK  2 active torsions:
REMARK  status: ('A' for Active; 'I' for Inactive)
REMARK    1  A    between atoms: C2'_3  and  C1'_4 
REMARK    2  A    between atoms: C1'_4  and  C1_5 
ROOT
ATOM      1  C1  I4B d   1       0.766  -0.285  -1.529  0.00  0.00    -0.075 A 
ATOM      2  C2  I4B d   1       0.585  -0.621  -0.211  0.00  0.00     0.003 A 
ATOM      3  C3  I4B d   1       0.942   0.290   0.812  0.00  0.00     0.002 A 
ATOM      4  C4  I4B d   1       1.521   1.497   0.476  0.00  0.00    -0.004 A 
ATOM      5  C5  I4B d   1       1.683   1.845  -0.862  0.00  0.00     0.002 A 
ATOM      6  C6  I4B d   1       1.292   0.954  -1.872  0.00  0.00     0.003 A 
ENDROOT
BRANCH   1   7
ATOM      7  C1' I4B d   1       0.408  -1.285  -2.583  0.00  0.00     0.060 C 
BRANCH   7   8
ATOM      8  C2' I4B d   1      -0.899  -0.849  -3.215  0.00  0.00    -0.013 C 
ATOM      9  C4' I4B d   1      -0.951  -1.223  -4.673  0.00  0.00     0.013 C 
ATOM     10  C3' I4B d   1      -2.019  -1.489  -2.451  0.00  0.00     0.013 C 
ENDBRANCH   7   8
ENDBRANCH   1   7
TORSDOF 2
ENDMDL
