MODEL 1
REMARK minimizedAffinity -2.9580698
REMARK minimizedRMSD -1
REMARK  2 active torsions:
REMARK  status: ('A' for Active; 'I' for Inactive)
REMARK    1  A    between atoms: C2'_3  and  C1'_4 
REMARK    2  A    between atoms: C1'_4  and  C1_5 
ROOT
ATOM      1  C1  I4B d   1       1.398   4.800  -5.226  0.00  0.00    -0.075 A 
ATOM      2  C2  I4B d   1       1.972   5.895  -5.824  0.00  0.00     0.003 A 
ATOM      3  C3  I4B d   1       3.380   5.997  -5.923  0.00  0.00     0.002 A 
ATOM      4  C4  I4B d   1       4.174   5.012  -5.369  0.00  0.00    -0.004 A 
ATOM      5  C5  I4B d   1       3.590   3.893  -4.784  0.00  0.00     0.002 A 
ATOM      6  C6  I4B d   1       2.194   3.779  -4.722  0.00  0.00     0.003 A 
ENDROOT
BRANCH   1   7
ATOM      7  C1' I4B d   1      -0.092   4.740  -5.110  0.00  0.00     0.060 C 
BRANCH   7   8
ATOM      8  C2' I4B d   1      -0.529   5.826  -4.147  0.00  0.00    -0.013 C 
ATOM      9  C4' I4B d   1      -2.024   6.000  -4.163  0.00  0.00     0.013 C 
ATOM     10  C3' I4B d   1      -0.042   5.453  -2.778  0.00  0.00     0.013 C 
ENDBRANCH   7   8
ENDBRANCH   1   7
TORSDOF 2
ENDMDL
