MODEL 1
REMARK minimizedAffinity 5.65814495
REMARK minimizedRMSD -1
REMARK  2 active torsions:
REMARK  status: ('A' for Active; 'I' for Inactive)
REMARK    1  A    between atoms: C2'_3  and  C1'_4 
REMARK    2  A    between atoms: C1'_4  and  C1_5 
ROOT
ATOM      1  C1  I4B d   1       1.498   5.922  -4.868  0.00  0.00    -0.075 A 
ATOM      2  C2  I4B d   1       0.221   5.938  -5.371  0.00  0.00     0.003 A 
ATOM      3  C3  I4B d   1      -0.889   5.998  -4.494  0.00  0.00     0.002 A 
ATOM      4  C4  I4B d   1      -0.680   5.989  -3.130  0.00  0.00    -0.004 A 
ATOM      5  C5  I4B d   1       0.616   5.995  -2.623  0.00  0.00     0.002 A 
ATOM      6  C6  I4B d   1       1.713   5.974  -3.496  0.00  0.00     0.003 A 
ENDROOT
BRANCH   1   7
ATOM      7  C1' I4B d   1       2.647   5.825  -5.821  0.00  0.00     0.060 C 
BRANCH   7   8
ATOM      8  C2' I4B d   1       3.859   5.351  -5.044  0.00  0.00    -0.013 C 
ATOM      9  C4' I4B d   1       3.950   3.848  -5.040  0.00  0.00     0.013 C 
ATOM     10  C3' I4B d   1       5.077   5.966  -5.667  0.00  0.00     0.013 C 
ENDBRANCH   7   8
ENDBRANCH   1   7
TORSDOF 2
ENDMDL
