MODEL 1
REMARK minimizedAffinity 9.6116848
REMARK minimizedRMSD -1
REMARK  2 active torsions:
REMARK  status: ('A' for Active; 'I' for Inactive)
REMARK    1  A    between atoms: C2'_3  and  C1'_4 
REMARK    2  A    between atoms: C1'_4  and  C1_5 
ROOT
ATOM      1  C1  I4B d   1       3.660   4.194  -5.305  0.00  0.00    -0.075 A 
ATOM      2  C2  I4B d   1       2.565   3.412  -5.034  0.00  0.00     0.003 A 
ATOM      3  C3  I4B d   1       1.259   3.914  -5.254  0.00  0.00     0.002 A 
ATOM      4  C4  I4B d   1       1.095   5.211  -5.694  0.00  0.00    -0.004 A 
ATOM      5  C5  I4B d   1       2.207   5.995  -5.989  0.00  0.00     0.002 A 
ATOM      6  C6  I4B d   1       3.498   5.479  -5.805  0.00  0.00     0.003 A 
ENDROOT
BRANCH   1   7
ATOM      7  C1' I4B d   1       5.024   3.644  -5.030  0.00  0.00     0.060 C 
BRANCH   7   8
ATOM      8  C2' I4B d   1       4.909   2.662  -3.882  0.00  0.00    -0.013 C 
ATOM      9  C4' I4B d   1       5.709   1.415  -4.148  0.00  0.00     0.013 C 
ATOM     10  C3' I4B d   1       5.378   3.351  -2.635  0.00  0.00     0.013 C 
ENDBRANCH   7   8
ENDBRANCH   1   7
TORSDOF 2
ENDMDL
