MODEL 1
REMARK minimizedAffinity -0.23907502
REMARK minimizedRMSD -1
REMARK  1 active torsions:
REMARK  status: ('A' for Active; 'I' for Inactive)
REMARK    1  A    between atoms: C1_2  and  C2_3 
ROOT
ATOM      1  C2  UNL d   1       0.066   0.110  -0.081  0.00  0.00    -0.076 A 
ATOM      2  C3  UNL d   1       0.765  -1.016   0.387  0.00  0.00     0.004 A 
ATOM      3  C4  UNL d   1       0.086  -2.119   0.902  0.00  0.00    -0.003 A 
ATOM      4  C5  UNL d   1      -1.304  -2.113   0.959  0.00  0.00     0.000 A 
ATOM      5  C6  UNL d   1      -2.014  -1.011   0.483  0.00  0.00     0.000 A 
ATOM      6  C7  UNL d   1      -1.345   0.102  -0.055  0.00  0.00    -0.073 A 
ATOM      7  C8  UNL d   1      -2.160   1.266  -0.547  0.00  0.00     0.078 C 
ENDROOT
BRANCH   1   8
ATOM      8  C1  UNL d   1       0.858   1.288  -0.604  0.00  0.00     0.053 C 
ATOM      9  C   UNL d   1       2.311   1.257  -0.158  0.00  0.00     0.018 C 
ENDBRANCH   1   8
TORSDOF 1
ENDMDL
