MODEL 1
REMARK minimizedAffinity 1.36876833
REMARK minimizedRMSD -1
REMARK  1 active torsions:
REMARK  status: ('A' for Active; 'I' for Inactive)
REMARK    1  A    between atoms: C1_2  and  C2_3 
ROOT
ATOM      1  C2  UNL d   1       0.478   0.447   0.317  0.00  0.00    -0.076 A 
ATOM      2  C3  UNL d   1      -0.672   0.976  -0.295  0.00  0.00     0.004 A 
ATOM      3  C4  UNL d   1      -0.912   2.349  -0.304  0.00  0.00    -0.003 A 
ATOM      4  C5  UNL d   1      -0.006   3.215   0.299  0.00  0.00     0.000 A 
ATOM      5  C6  UNL d   1       1.148   2.709   0.896  0.00  0.00     0.000 A 
ATOM      6  C7  UNL d   1       1.413   1.329   0.899  0.00  0.00    -0.073 A 
ATOM      7  C8  UNL d   1       2.671   0.837   1.562  0.00  0.00     0.078 C 
ENDROOT
BRANCH   1   8
ATOM      8  C1  UNL d   1       0.672  -1.053   0.320  0.00  0.00     0.053 C 
ATOM      9  C   UNL d   1       0.316  -1.688  -1.016  0.00  0.00     0.018 C 
ENDBRANCH   1   8
TORSDOF 1
ENDMDL
