MODEL 1
REMARK minimizedAffinity 4.03721142
REMARK minimizedRMSD -1
REMARK  1 active torsions:
REMARK  status: ('A' for Active; 'I' for Inactive)
REMARK    1  A    between atoms: C1_2  and  C2_3 
ROOT
ATOM      1  C2  UNL d   1       1.074  -1.087   1.514  0.00  0.00    -0.076 A 
ATOM      2  C3  UNL d   1       2.160  -0.200   1.616  0.00  0.00     0.004 A 
ATOM      3  C4  UNL d   1       2.192   0.983   0.879  0.00  0.00    -0.003 A 
ATOM      4  C5  UNL d   1       1.138   1.298   0.028  0.00  0.00     0.000 A 
ATOM      5  C6  UNL d   1       0.045   0.439  -0.072  0.00  0.00     0.000 A 
ATOM      6  C7  UNL d   1      -0.011  -0.749   0.677  0.00  0.00    -0.073 A 
ATOM      7  C8  UNL d   1      -1.212  -1.642   0.525  0.00  0.00     0.078 C 
ENDROOT
BRANCH   1   8
ATOM      8  C1  UNL d   1       1.107  -2.367   2.317  0.00  0.00     0.053 C 
ATOM      9  C   UNL d   1       1.465  -2.132   3.776  0.00  0.00     0.018 C 
ENDBRANCH   1   8
TORSDOF 1
ENDMDL
