MODEL 1
REMARK minimizedAffinity 4.67189217
REMARK minimizedRMSD -1
REMARK  1 active torsions:
REMARK  status: ('A' for Active; 'I' for Inactive)
REMARK    1  A    between atoms: C1_2  and  C2_3 
ROOT
ATOM      1  C2  UNL d   1       1.759   0.421   0.771  0.00  0.00    -0.076 A 
ATOM      2  C3  UNL d   1       0.544   1.111   0.918  0.00  0.00     0.004 A 
ATOM      3  C4  UNL d   1       0.345   2.351   0.311  0.00  0.00    -0.003 A 
ATOM      4  C5  UNL d   1       1.358   2.919  -0.453  0.00  0.00     0.000 A 
ATOM      5  C6  UNL d   1       2.564   2.239  -0.624  0.00  0.00     0.000 A 
ATOM      6  C7  UNL d   1       2.775   0.982  -0.033  0.00  0.00    -0.073 A 
ATOM      7  C8  UNL d   1       4.097   0.297  -0.245  0.00  0.00     0.078 C 
ENDROOT
BRANCH   1   8
ATOM      8  C1  UNL d   1       1.927  -0.907   1.475  0.00  0.00     0.053 C 
ATOM      9  C   UNL d   1       0.818  -1.891   1.135  0.00  0.00     0.018 C 
ENDBRANCH   1   8
TORSDOF 1
ENDMDL
