MODEL 1
REMARK minimizedAffinity 1.99282181
REMARK minimizedRMSD -1
REMARK  1 active torsions:
REMARK  status: ('A' for Active; 'I' for Inactive)
REMARK    1  A    between atoms: C1_2  and  C2_3 
ROOT
ATOM      1  C2  UNL d   1      -2.417  -1.198  -1.615  0.00  0.00    -0.076 A 
ATOM      2  C3  UNL d   1      -2.579   0.184  -1.410  0.00  0.00     0.004 A 
ATOM      3  C4  UNL d   1      -3.058   1.008  -2.427  0.00  0.00    -0.003 A 
ATOM      4  C5  UNL d   1      -3.382   0.465  -3.665  0.00  0.00     0.000 A 
ATOM      5  C6  UNL d   1      -3.244  -0.906  -3.880  0.00  0.00     0.000 A 
ATOM      6  C7  UNL d   1      -2.779  -1.754  -2.860  0.00  0.00    -0.073 A 
ATOM      7  C8  UNL d   1      -2.644  -3.224  -3.149  0.00  0.00     0.078 C 
ENDROOT
BRANCH   1   8
ATOM      8  C1  UNL d   1      -1.869  -2.038  -0.484  0.00  0.00     0.053 C 
ATOM      9  C   UNL d   1      -1.464  -1.202   0.720  0.00  0.00     0.018 C 
ENDBRANCH   1   8
TORSDOF 1
ENDMDL
