MODEL 1
REMARK minimizedAffinity -0.161436841
REMARK minimizedRMSD -1
REMARK  1 active torsions:
REMARK  status: ('A' for Active; 'I' for Inactive)
REMARK    1  A    between atoms: C1_2  and  C2_3 
ROOT
ATOM      1  C2  UNL d   1       1.690  -0.110   2.261  0.00  0.00    -0.076 A 
ATOM      2  C3  UNL d   1       2.584   0.972   2.336  0.00  0.00     0.004 A 
ATOM      3  C4  UNL d   1       2.414   2.101   1.536  0.00  0.00    -0.003 A 
ATOM      4  C5  UNL d   1       1.345   2.167   0.649  0.00  0.00     0.000 A 
ATOM      5  C6  UNL d   1       0.438   1.111   0.574  0.00  0.00     0.000 A 
ATOM      6  C7  UNL d   1       0.586  -0.028   1.385  0.00  0.00    -0.073 A 
ATOM      7  C8  UNL d   1      -0.419  -1.140   1.258  0.00  0.00     0.078 C 
ENDROOT
BRANCH   1   8
ATOM      8  C1  UNL d   1       1.941  -1.319   3.133  0.00  0.00     0.053 C 
ATOM      9  C   UNL d   1       2.647  -0.965   4.432  0.00  0.00     0.018 C 
ENDBRANCH   1   8
TORSDOF 1
ENDMDL
