MODEL 1
REMARK minimizedAffinity -6.42696953
REMARK minimizedRMSD -1
REMARK  0 active torsions:
REMARK  status: ('A' for Active; 'I' for Inactive)
ROOT
ATOM      1  O1  BZF d   1      -0.573   0.691  -0.134  0.00  0.00    -0.204 OA
ATOM      2  C2  BZF d   1      -0.489  -0.371   0.746  0.00  0.00     0.174 A 
ATOM      3  C3  BZF d   1       0.549  -1.172   0.432  0.00  0.00    -0.012 A 
ATOM      4  C3A BZF d   1       1.209  -0.523  -0.659  0.00  0.00    -0.107 A 
ATOM      5  C4  BZF d   1       2.317  -0.823  -1.399  0.00  0.00     0.055 A 
ATOM      6  C5  BZF d   1       2.652  -0.019  -2.442  0.00  0.00    -0.016 A 
ATOM      7  C6  BZF d   1       1.899   1.088  -2.777  0.00  0.00     0.022 A 
ATOM      8  C7  BZF d   1       0.795   1.428  -2.069  0.00  0.00     0.029 A 
ATOM      9  C7A BZF d   1       0.472   0.637  -0.994  0.00  0.00     0.058 A 
ENDROOT
TORSDOF 0
ENDMDL
