MODEL 1
REMARK minimizedAffinity -1.79976451
REMARK minimizedRMSD -1
REMARK  0 active torsions:
REMARK  status: ('A' for Active; 'I' for Inactive)
ROOT
ATOM      1  O1  BZF d   1       0.297   1.355   0.200  0.00  0.00    -0.204 OA
ATOM      2  C2  BZF d   1      -0.795   0.906   0.916  0.00  0.00     0.174 A 
ATOM      3  C3  BZF d   1      -0.966  -0.421   0.746  0.00  0.00    -0.012 A 
ATOM      4  C3A BZF d   1       0.141  -0.843  -0.057  0.00  0.00    -0.107 A 
ATOM      5  C4  BZF d   1       0.535  -2.054  -0.550  0.00  0.00     0.055 A 
ATOM      6  C5  BZF d   1       1.624  -2.114  -1.361  0.00  0.00    -0.016 A 
ATOM      7  C6  BZF d   1       2.337  -0.984  -1.704  0.00  0.00     0.022 A 
ATOM      8  C7  BZF d   1       1.986   0.239  -1.236  0.00  0.00     0.029 A 
ATOM      9  C7A BZF d   1       0.906   0.298  -0.389  0.00  0.00     0.058 A 
ENDROOT
TORSDOF 0
ENDMDL
