MODEL 1
REMARK minimizedAffinity -3.66712141
REMARK minimizedRMSD -1
REMARK  0 active torsions:
REMARK  status: ('A' for Active; 'I' for Inactive)
ROOT
ATOM      1  O1  BZF d   1      -0.036  -0.956  -0.527  0.00  0.00    -0.204 OA
ATOM      2  C2  BZF d   1       0.809  -1.730   0.245  0.00  0.00     0.174 A 
ATOM      3  C3  BZF d   1       0.699  -1.402   1.549  0.00  0.00    -0.012 A 
ATOM      4  C3A BZF d   1      -0.342  -0.422   1.604  0.00  0.00    -0.107 A 
ATOM      5  C4  BZF d   1      -0.922   0.276   2.625  0.00  0.00     0.055 A 
ATOM      6  C5  BZF d   1      -1.863   1.212   2.334  0.00  0.00    -0.016 A 
ATOM      7  C6  BZF d   1      -2.243   1.480   1.036  0.00  0.00     0.022 A 
ATOM      8  C7  BZF d   1      -1.700   0.811  -0.010  0.00  0.00     0.029 A 
ATOM      9  C7A BZF d   1      -0.773  -0.159   0.283  0.00  0.00     0.058 A 
ENDROOT
TORSDOF 0
ENDMDL
