MODEL 1
REMARK minimizedAffinity -5.33862352
REMARK minimizedRMSD -1
REMARK  0 active torsions:
REMARK  status: ('A' for Active; 'I' for Inactive)
ROOT
ATOM      1  O1  BZF d   1       2.248  -1.670  -1.069  0.00  0.00    -0.204 OA
ATOM      2  C2  BZF d   1       3.062  -0.704  -1.628  0.00  0.00     0.174 A 
ATOM      3  C3  BZF d   1       2.467   0.505  -1.586  0.00  0.00    -0.012 A 
ATOM      4  C3A BZF d   1       1.241   0.298  -0.878  0.00  0.00    -0.107 A 
ATOM      5  C4  BZF d   1       0.222   1.126  -0.503  0.00  0.00     0.055 A 
ATOM      6  C5  BZF d   1      -0.867   0.595   0.114  0.00  0.00    -0.016 A 
ATOM      7  C6  BZF d   1      -0.972  -0.757   0.365  0.00  0.00     0.022 A 
ATOM      8  C7  BZF d   1       0.015  -1.617   0.015  0.00  0.00     0.029 A 
ATOM      9  C7A BZF d   1       1.132  -1.080  -0.578  0.00  0.00     0.058 A 
ENDROOT
TORSDOF 0
ENDMDL
