MODEL 1
REMARK minimizedAffinity -4.79476595
REMARK minimizedRMSD -1
REMARK  0 active torsions:
REMARK  status: ('A' for Active; 'I' for Inactive)
ROOT
ATOM      1  O1  BZF d   1      -0.162   1.292  -0.005  0.00  0.00    -0.204 OA
ATOM      2  C2  BZF d   1      -1.150   0.557   0.621  0.00  0.00     0.174 A 
ATOM      3  C3  BZF d   1      -0.929  -0.765   0.474  0.00  0.00    -0.012 A 
ATOM      4  C3A BZF d   1       0.323  -0.863  -0.212  0.00  0.00    -0.107 A 
ATOM      5  C4  BZF d   1       1.084  -1.917  -0.632  0.00  0.00     0.055 A 
ATOM      6  C5  BZF d   1       2.219  -1.672  -1.338  0.00  0.00    -0.016 A 
ATOM      7  C6  BZF d   1       2.620  -0.389  -1.646  0.00  0.00     0.022 A 
ATOM      8  C7  BZF d   1       1.901   0.689  -1.247  0.00  0.00     0.029 A 
ATOM      9  C7A BZF d   1       0.771   0.446  -0.505  0.00  0.00     0.058 A 
ENDROOT
TORSDOF 0
ENDMDL
