MODEL 1
REMARK minimizedAffinity -4.23573256
REMARK minimizedRMSD -1
REMARK  0 active torsions:
REMARK  status: ('A' for Active; 'I' for Inactive)
ROOT
ATOM      1  O1  BZF d   1      -0.992  -0.468   0.495  0.00  0.00    -0.204 OA
ATOM      2  C2  BZF d   1      -1.023   0.899   0.694  0.00  0.00     0.174 A 
ATOM      3  C3  BZF d   1       0.108   1.475   0.238  0.00  0.00    -0.012 A 
ATOM      4  C3A BZF d   1       0.855   0.413  -0.362  0.00  0.00    -0.107 A 
ATOM      5  C4  BZF d   1       2.060   0.358  -1.003  0.00  0.00     0.055 A 
ATOM      6  C5  BZF d   1       2.539  -0.848  -1.406  0.00  0.00    -0.016 A 
ATOM      7  C6  BZF d   1       1.845  -2.018  -1.181  0.00  0.00     0.022 A 
ATOM      8  C7  BZF d   1       0.643  -2.013  -0.553  0.00  0.00     0.029 A 
ATOM      9  C7A BZF d   1       0.140  -0.793  -0.174  0.00  0.00     0.058 A 
ENDROOT
TORSDOF 0
ENDMDL
