MODEL 1
REMARK minimizedAffinity -3.55002356
REMARK minimizedRMSD -1
REMARK  0 active torsions:
REMARK  status: ('A' for Active; 'I' for Inactive)
ROOT
ATOM      1  O1  BZF d   1      -0.784  -1.457  -0.103  0.00  0.00    -0.204 OA
ATOM      2  C2  BZF d   1      -1.427  -0.407   0.523  0.00  0.00     0.174 A 
ATOM      3  C3  BZF d   1      -0.612   0.664   0.619  0.00  0.00    -0.012 A 
ATOM      4  C3A BZF d   1       0.586   0.288  -0.067  0.00  0.00    -0.107 A 
ATOM      5  C4  BZF d   1       1.761   0.933  -0.327  0.00  0.00     0.055 A 
ATOM      6  C5  BZF d   1       2.759   0.260  -0.958  0.00  0.00    -0.016 A 
ATOM      7  C6  BZF d   1       2.618  -1.059  -1.338  0.00  0.00     0.022 A 
ATOM      8  C7  BZF d   1       1.469  -1.739  -1.106  0.00  0.00     0.029 A 
ATOM      9  C7A BZF d   1       0.447  -1.052  -0.498  0.00  0.00     0.058 A 
ENDROOT
TORSDOF 0
ENDMDL
