MODEL 1
REMARK minimizedAffinity -3.61571741
REMARK minimizedRMSD -1
REMARK  0 active torsions:
REMARK  status: ('A' for Active; 'I' for Inactive)
ROOT
ATOM      1  O1  BZF d   1      -0.116   1.191  -1.031  0.00  0.00    -0.204 OA
ATOM      2  C2  BZF d   1      -1.050   1.074  -0.020  0.00  0.00     0.174 A 
ATOM      3  C3  BZF d   1      -0.972  -0.138   0.566  0.00  0.00    -0.012 A 
ATOM      4  C3A BZF d   1       0.139  -0.788  -0.061  0.00  0.00    -0.107 A 
ATOM      5  C4  BZF d   1       0.727  -2.009   0.104  0.00  0.00     0.055 A 
ATOM      6  C5  BZF d   1       1.749  -2.366  -0.717  0.00  0.00    -0.016 A 
ATOM      7  C6  BZF d   1       2.205  -1.529  -1.715  0.00  0.00     0.022 A 
ATOM      8  C7  BZF d   1       1.657  -0.306  -1.913  0.00  0.00     0.029 A 
ATOM      9  C7A BZF d   1       0.645   0.071  -1.064  0.00  0.00     0.058 A 
ENDROOT
TORSDOF 0
ENDMDL
