MODEL 1
REMARK minimizedAffinity -1.35827923
REMARK minimizedRMSD -1
REMARK  0 active torsions:
REMARK  status: ('A' for Active; 'I' for Inactive)
ROOT
ATOM      1  O1  BZF d   1      -0.179   1.135  -0.668  0.00  0.00    -0.204 OA
ATOM      2  C2  BZF d   1      -0.556   0.351   0.405  0.00  0.00     0.174 A 
ATOM      3  C3  BZF d   1       0.005  -0.872   0.324  0.00  0.00    -0.012 A 
ATOM      4  C3A BZF d   1       0.855  -0.822  -0.826  0.00  0.00    -0.107 A 
ATOM      5  C4  BZF d   1       1.690  -1.726  -1.416  0.00  0.00     0.055 A 
ATOM      6  C5  BZF d   1       2.321  -1.386  -2.571  0.00  0.00    -0.016 A 
ATOM      7  C6  BZF d   1       2.135  -0.155  -3.165  0.00  0.00     0.022 A 
ATOM      8  C7  BZF d   1       1.319   0.777  -2.614  0.00  0.00     0.029 A 
ATOM      9  C7A BZF d   1       0.707   0.449  -1.429  0.00  0.00     0.058 A 
ENDROOT
TORSDOF 0
ENDMDL
