MODEL 1
REMARK minimizedAffinity -4.38121319
REMARK minimizedRMSD -1
REMARK  0 active torsions:
REMARK  status: ('A' for Active; 'I' for Inactive)
ROOT
ATOM      1  O1  BZF d   1      -0.983  -0.297   0.346  0.00  0.00    -0.204 OA
ATOM      2  C2  BZF d   1      -1.003   1.068   0.137  0.00  0.00     0.174 A 
ATOM      3  C3  BZF d   1       0.144   1.481  -0.440  0.00  0.00    -0.012 A 
ATOM      4  C3A BZF d   1       0.893   0.287  -0.686  0.00  0.00    -0.107 A 
ATOM      5  C4  BZF d   1       2.111   0.042  -1.253  0.00  0.00     0.055 A 
ATOM      6  C5  BZF d   1       2.586  -1.231  -1.275  0.00  0.00    -0.016 A 
ATOM      7  C6  BZF d   1       1.873  -2.281  -0.734  0.00  0.00     0.022 A 
ATOM      8  C7  BZF d   1       0.658  -2.088  -0.165  0.00  0.00     0.029 A 
ATOM      9  C7A BZF d   1       0.161  -0.808  -0.171  0.00  0.00     0.058 A 
ENDROOT
TORSDOF 0
ENDMDL
