MODEL 1
REMARK minimizedAffinity -2.60540414
REMARK minimizedRMSD -1
REMARK  0 active torsions:
REMARK  status: ('A' for Active; 'I' for Inactive)
ROOT
ATOM      1  O1  BZF d   1       0.368   1.538   0.550  0.00  0.00    -0.204 OA
ATOM      2  C2  BZF d   1       0.707   0.266   0.131  0.00  0.00     0.174 A 
ATOM      3  C3  BZF d   1       0.026  -0.665   0.829  0.00  0.00    -0.012 A 
ATOM      4  C3A BZF d   1      -0.858   0.073   1.679  0.00  0.00    -0.107 A 
ATOM      5  C4  BZF d   1      -1.800  -0.292   2.597  0.00  0.00     0.055 A 
ATOM      6  C5  BZF d   1      -2.437   0.675   3.309  0.00  0.00    -0.016 A 
ATOM      7  C6  BZF d   1      -2.154   2.013   3.132  0.00  0.00     0.022 A 
ATOM      8  C7  BZF d   1      -1.231   2.424   2.229  0.00  0.00     0.029 A 
ATOM      9  C7A BZF d   1      -0.609   1.452   1.485  0.00  0.00     0.058 A 
ENDROOT
TORSDOF 0
ENDMDL
