MODEL 1
REMARK minimizedAffinity -3.07846236
REMARK minimizedRMSD -1
REMARK  0 active torsions:
REMARK  status: ('A' for Active; 'I' for Inactive)
ROOT
ATOM      1  O1  BZF d   1      -0.301   0.176  -0.224  0.00  0.00    -0.204 OA
ATOM      2  C2  BZF d   1      -0.182  -1.080   0.340  0.00  0.00     0.174 A 
ATOM      3  C3  BZF d   1       0.719  -1.823  -0.334  0.00  0.00    -0.012 A 
ATOM      4  C3A BZF d   1       1.261  -0.948  -1.328  0.00  0.00    -0.107 A 
ATOM      5  C4  BZF d   1       2.211  -1.102  -2.297  0.00  0.00     0.055 A 
ATOM      6  C5  BZF d   1       2.455  -0.074  -3.152  0.00  0.00    -0.016 A 
ATOM      7  C6  BZF d   1       1.765   1.117  -3.071  0.00  0.00     0.022 A 
ATOM      8  C7  BZF d   1       0.817   1.319  -2.123  0.00  0.00     0.029 A 
ATOM      9  C7A BZF d   1       0.591   0.294  -1.237  0.00  0.00     0.058 A 
ENDROOT
TORSDOF 0
ENDMDL
