MODEL 1
REMARK minimizedAffinity -3.01697445
REMARK minimizedRMSD -1
REMARK  0 active torsions:
REMARK  status: ('A' for Active; 'I' for Inactive)
ROOT
ATOM      1  O1  BZF d   1      -0.101   1.112  -0.588  0.00  0.00    -0.204 OA
ATOM      2  C2  BZF d   1      -1.221   0.987   0.211  0.00  0.00     0.174 A 
ATOM      3  C3  BZF d   1      -1.462  -0.309   0.498  0.00  0.00    -0.012 A 
ATOM      4  C3A BZF d   1      -0.374  -1.032  -0.086  0.00  0.00    -0.107 A 
ATOM      5  C4  BZF d   1      -0.042  -2.356  -0.128  0.00  0.00     0.055 A 
ATOM      6  C5  BZF d   1       1.047  -2.741  -0.843  0.00  0.00    -0.016 A 
ATOM      7  C6  BZF d   1       1.822  -1.831  -1.532  0.00  0.00     0.022 A 
ATOM      8  C7  BZF d   1       1.535  -0.507  -1.516  0.00  0.00     0.029 A 
ATOM      9  C7A BZF d   1       0.454  -0.111  -0.767  0.00  0.00     0.058 A 
ENDROOT
TORSDOF 0
ENDMDL
