MODEL 1
REMARK minimizedAffinity -6.62863588
REMARK minimizedRMSD -1
REMARK  0 active torsions:
REMARK  status: ('A' for Active; 'I' for Inactive)
ROOT
ATOM      1  O1  BZF d   1      -0.269   1.679  -1.519  0.00  0.00    -0.204 OA
ATOM      2  C2  BZF d   1      -1.047   1.118  -0.524  0.00  0.00     0.174 A 
ATOM      3  C3  BZF d   1      -0.451   0.022  -0.012  0.00  0.00    -0.012 A 
ATOM      4  C3A BZF d   1       0.818  -0.058  -0.668  0.00  0.00    -0.107 A 
ATOM      5  C4  BZF d   1       1.871  -0.922  -0.573  0.00  0.00     0.055 A 
ATOM      6  C5  BZF d   1       2.933  -0.763  -1.406  0.00  0.00    -0.016 A 
ATOM      7  C6  BZF d   1       2.972   0.244  -2.348  0.00  0.00     0.022 A 
ATOM      8  C7  BZF d   1       1.954   1.129  -2.476  0.00  0.00     0.029 A 
ATOM      9  C7A BZF d   1       0.894   0.991  -1.613  0.00  0.00     0.058 A 
ENDROOT
TORSDOF 0
ENDMDL
