MODEL 1
REMARK minimizedAffinity 1.37643051
REMARK minimizedRMSD -1
REMARK  3 active torsions:
REMARK  status: ('A' for Active; 'I' for Inactive)
REMARK    1  A    between atoms: C3'_2  and  C2'_3 
REMARK    2  A    between atoms: C2'_3  and  C1'_4 
REMARK    3  A    between atoms: C1'_4  and  C1_5 
ROOT
ATOM      1  C1  N4B d   1       0.152   1.658   0.366  0.00  0.00    -0.075 A 
ATOM      2  C2  N4B d   1       0.401   0.377  -0.176  0.00  0.00     0.002 A 
ATOM      3  C3  N4B d   1       0.591  -0.696   0.660  0.00  0.00     0.002 A 
ATOM      4  C4  N4B d   1       0.554  -0.511   2.034  0.00  0.00    -0.004 A 
ATOM      5  C5  N4B d   1       0.288   0.724   2.548  0.00  0.00     0.002 A 
ATOM      6  C6  N4B d   1       0.091   1.811   1.720  0.00  0.00     0.002 A 
ENDROOT
BRANCH   1   7
ATOM      7  C1' N4B d   1       0.024   2.877  -0.506  0.00  0.00     0.057 C 
BRANCH   7   8
ATOM      8  C2' N4B d   1       0.446   4.108   0.290  0.00  0.00     0.009 C 
BRANCH   8   9
ATOM      9  C3' N4B d   1       0.371   5.377  -0.542  0.00  0.00     0.004 C 
ATOM     10  C4' N4B d   1      -0.136   5.130  -1.932  0.00  0.00     0.003 C 
ENDBRANCH   8   9
ENDBRANCH   7   8
ENDBRANCH   1   7
TORSDOF 3
ENDMDL
