MODEL 1
REMARK minimizedAffinity 4.52476978
REMARK minimizedRMSD -1
REMARK  3 active torsions:
REMARK  status: ('A' for Active; 'I' for Inactive)
REMARK    1  A    between atoms: C3'_2  and  C2'_3 
REMARK    2  A    between atoms: C2'_3  and  C1'_4 
REMARK    3  A    between atoms: C1'_4  and  C1_5 
ROOT
ATOM      1  C1  N4B d   1      -0.781   2.166  -0.190  0.00  0.00    -0.075 A 
ATOM      2  C2  N4B d   1      -1.620   2.698  -1.193  0.00  0.00     0.002 A 
ATOM      3  C3  N4B d   1      -1.498   2.266  -2.491  0.00  0.00     0.002 A 
ATOM      4  C4  N4B d   1      -0.536   1.321  -2.812  0.00  0.00    -0.004 A 
ATOM      5  C5  N4B d   1       0.254   0.793  -1.832  0.00  0.00     0.002 A 
ATOM      6  C6  N4B d   1       0.139   1.215  -0.523  0.00  0.00     0.002 A 
ENDROOT
BRANCH   1   7
ATOM      7  C1' N4B d   1      -0.820   2.669   1.227  0.00  0.00     0.057 C 
BRANCH   7   8
ATOM      8  C2' N4B d   1       0.306   2.014   2.021  0.00  0.00     0.009 C 
BRANCH   8   9
ATOM      9  C3' N4B d   1      -0.225   1.145   3.149  0.00  0.00     0.004 C 
ATOM     10  C4' N4B d   1       0.662  -0.028   3.445  0.00  0.00     0.003 C 
ENDBRANCH   8   9
ENDBRANCH   7   8
ENDBRANCH   1   7
TORSDOF 3
ENDMDL
