MODEL 1
REMARK minimizedAffinity -4.10480404
REMARK minimizedRMSD -1
REMARK  0 active torsions:
REMARK  status: ('A' for Active; 'I' for Inactive)
ROOT
ATOM      1  C   UNL d   1      -1.029   1.178   2.189  0.00  0.00     0.023 A 
ATOM      2  C1  UNL d   1       0.330   1.123   1.880  0.00  0.00     0.003 A 
ATOM      3  C2  UNL d   1       0.744   0.704   0.614  0.00  0.00     0.048 A 
ATOM      4  C3  UNL d   1      -0.207   0.341  -0.339  0.00  0.00     0.023 A 
ATOM      5  C4  UNL d   1      -1.568   0.394  -0.035  0.00  0.00     0.048 A 
ATOM      6  C5  UNL d   1      -1.977   0.814   1.232  0.00  0.00     0.003 A 
ATOM      7  I   UNL d   1       0.406  -0.285  -2.223  0.00  0.00    -0.146 I 
ENDROOT
TORSDOF 0
ENDMDL
