MODEL 1
REMARK minimizedAffinity -3.71948457
REMARK minimizedRMSD -1
REMARK  0 active torsions:
REMARK  status: ('A' for Active; 'I' for Inactive)
ROOT
ATOM      1  C   UNL d   1      -1.130   0.933   2.633  0.00  0.00     0.023 A 
ATOM      2  C1  UNL d   1       0.161   1.214   2.184  0.00  0.00     0.003 A 
ATOM      3  C2  UNL d   1       0.531   0.894   0.876  0.00  0.00     0.048 A 
ATOM      4  C3  UNL d   1      -0.394   0.293   0.023  0.00  0.00     0.023 A 
ATOM      5  C4  UNL d   1      -1.686   0.010   0.468  0.00  0.00     0.048 A 
ATOM      6  C5  UNL d   1      -2.052   0.331   1.776  0.00  0.00     0.003 A 
ATOM      7  I   UNL d   1       0.156  -0.185  -1.924  0.00  0.00    -0.146 I 
ENDROOT
TORSDOF 0
ENDMDL
