MODEL 1
REMARK minimizedAffinity -3.64161754
REMARK minimizedRMSD -1
REMARK  0 active torsions:
REMARK  status: ('A' for Active; 'I' for Inactive)
ROOT
ATOM      1  C   UNL d   1      -0.970   0.839   2.704  0.00  0.00     0.023 A 
ATOM      2  C1  UNL d   1      -1.867   0.260   1.806  0.00  0.00     0.003 A 
ATOM      3  C2  UNL d   1      -1.423  -0.175   0.556  0.00  0.00     0.048 A 
ATOM      4  C3  UNL d   1      -0.080  -0.029   0.210  0.00  0.00     0.023 A 
ATOM      5  C4  UNL d   1       0.821   0.549   1.105  0.00  0.00     0.048 A 
ATOM      6  C5  UNL d   1       0.372   0.984   2.354  0.00  0.00     0.003 A 
ATOM      7  I   UNL d   1       0.583  -0.675  -1.650  0.00  0.00    -0.146 I 
ENDROOT
TORSDOF 0
ENDMDL
