MODEL 1
REMARK minimizedAffinity -2.15165401
REMARK minimizedRMSD -1
REMARK  0 active torsions:
REMARK  status: ('A' for Active; 'I' for Inactive)
ROOT
ATOM      1  C   UNL d   1      -0.975   0.942   2.310  0.00  0.00     0.023 A 
ATOM      2  C1  UNL d   1      -1.615  -0.074   1.601  0.00  0.00     0.003 A 
ATOM      3  C2  UNL d   1      -1.186  -0.407   0.315  0.00  0.00     0.048 A 
ATOM      4  C3  UNL d   1      -0.115   0.280  -0.256  0.00  0.00     0.023 A 
ATOM      5  C4  UNL d   1       0.529   1.297   0.450  0.00  0.00     0.048 A 
ATOM      6  C5  UNL d   1       0.096   1.627   1.736  0.00  0.00     0.003 A 
ATOM      7  I   UNL d   1       0.526  -0.214  -2.170  0.00  0.00    -0.146 I 
ENDROOT
TORSDOF 0
ENDMDL
