MODEL 1
REMARK minimizedAffinity -1.6940167
REMARK minimizedRMSD -1
REMARK  0 active torsions:
REMARK  status: ('A' for Active; 'I' for Inactive)
ROOT
ATOM      1  C   UNL d   1       1.890   0.564   1.758  0.00  0.00     0.023 A 
ATOM      2  C1  UNL d   1       1.904  -0.746   1.279  0.00  0.00     0.003 A 
ATOM      3  C2  UNL d   1       0.728  -1.330   0.804  0.00  0.00     0.048 A 
ATOM      4  C3  UNL d   1      -0.459  -0.598   0.810  0.00  0.00     0.023 A 
ATOM      5  C4  UNL d   1      -0.478   0.714   1.288  0.00  0.00     0.048 A 
ATOM      6  C5  UNL d   1       0.701   1.293   1.762  0.00  0.00     0.003 A 
ATOM      7  I   UNL d   1      -2.211  -1.465   0.104  0.00  0.00    -0.146 I 
ENDROOT
TORSDOF 0
ENDMDL
