MODEL 1
REMARK minimizedAffinity -3.41170907
REMARK minimizedRMSD -1
REMARK  0 active torsions:
REMARK  status: ('A' for Active; 'I' for Inactive)
ROOT
ATOM      1  C   UNL d   1      -1.747  -0.663   0.891  0.00  0.00     0.077 C 
ATOM      2  C1  UNL d   1      -0.305  -0.668   1.302  0.00  0.00    -0.074 A 
ATOM      3  C2  UNL d   1       0.073  -1.044   2.595  0.00  0.00    -0.005 A 
ATOM      4  C3  UNL d   1       1.419  -1.053   2.959  0.00  0.00     0.006 A 
ATOM      5  C4  UNL d   1       2.400  -0.687   2.037  0.00  0.00    -0.005 A 
ATOM      6  C5  UNL d   1       2.041  -0.309   0.739  0.00  0.00    -0.074 A 
ATOM      7  C6  UNL d   1       3.083   0.077  -0.268  0.00  0.00     0.077 C 
ATOM      8  C7  UNL d   1       0.687  -0.309   0.378  0.00  0.00    -0.001 A 
ENDROOT
TORSDOF 0
ENDMDL
