MODEL 1
REMARK minimizedAffinity -4.04502249
REMARK minimizedRMSD -1
REMARK  0 active torsions:
REMARK  status: ('A' for Active; 'I' for Inactive)
ROOT
ATOM      1  C   UNL d   1       1.821  -0.449   2.694  0.00  0.00     0.077 C 
ATOM      2  C1  UNL d   1       0.729  -0.263   1.683  0.00  0.00    -0.074 A 
ATOM      3  C2  UNL d   1      -0.577  -0.686   1.950  0.00  0.00    -0.005 A 
ATOM      4  C3  UNL d   1      -1.584  -0.498   1.003  0.00  0.00     0.006 A 
ATOM      5  C4  UNL d   1      -1.296   0.114  -0.217  0.00  0.00    -0.005 A 
ATOM      6  C5  UNL d   1       0.004   0.544  -0.501  0.00  0.00    -0.074 A 
ATOM      7  C6  UNL d   1       0.328   1.212  -1.804  0.00  0.00     0.077 C 
ATOM      8  C7  UNL d   1       1.009   0.357   0.457  0.00  0.00    -0.001 A 
ENDROOT
TORSDOF 0
ENDMDL
