MODEL 1
REMARK minimizedAffinity -5.49928474
REMARK minimizedRMSD -1
REMARK  0 active torsions:
REMARK  status: ('A' for Active; 'I' for Inactive)
ROOT
ATOM      1  C   UNL d   1      -0.889   0.284  -1.296  0.00  0.00     0.077 C 
ATOM      2  C1  UNL d   1       0.237  -0.319  -0.510  0.00  0.00    -0.074 A 
ATOM      3  C2  UNL d   1       1.321  -0.922  -1.155  0.00  0.00    -0.005 A 
ATOM      4  C3  UNL d   1       2.366  -1.470  -0.411  0.00  0.00     0.006 A 
ATOM      5  C4  UNL d   1       2.337  -1.420   0.983  0.00  0.00    -0.005 A 
ATOM      6  C5  UNL d   1       1.262  -0.820   1.645  0.00  0.00    -0.074 A 
ATOM      7  C6  UNL d   1       1.220  -0.749   3.143  0.00  0.00     0.077 C 
ATOM      8  C7  UNL d   1       0.219  -0.265   0.891  0.00  0.00    -0.001 A 
ENDROOT
TORSDOF 0
ENDMDL
