MODEL 1
REMARK minimizedAffinity -2.10769558
REMARK minimizedRMSD -1
REMARK  0 active torsions:
REMARK  status: ('A' for Active; 'I' for Inactive)
ROOT
ATOM      1  C   UNL d   1       0.065   3.539  -2.296  0.00  0.00     0.077 C 
ATOM      2  C1  UNL d   1      -0.404   2.175  -1.887  0.00  0.00    -0.074 A 
ATOM      3  C2  UNL d   1      -1.731   1.781  -2.088  0.00  0.00    -0.005 A 
ATOM      4  C3  UNL d   1      -2.151   0.505  -1.710  0.00  0.00     0.006 A 
ATOM      5  C4  UNL d   1      -1.250  -0.388  -1.130  0.00  0.00    -0.005 A 
ATOM      6  C5  UNL d   1       0.081  -0.012  -0.922  0.00  0.00    -0.074 A 
ATOM      7  C6  UNL d   1       1.065  -0.964  -0.308  0.00  0.00     0.077 C 
ATOM      8  C7  UNL d   1       0.497   1.269  -1.310  0.00  0.00    -0.001 A 
ENDROOT
TORSDOF 0
ENDMDL
