MODEL 1
REMARK minimizedAffinity -5.4352355
REMARK minimizedRMSD -1
REMARK  0 active torsions:
REMARK  status: ('A' for Active; 'I' for Inactive)
ROOT
ATOM      1  C   UNL d   1       1.240  -1.284   3.489  0.00  0.00     0.077 C 
ATOM      2  C1  UNL d   1       1.358  -1.341   1.995  0.00  0.00    -0.074 A 
ATOM      3  C2  UNL d   1       2.366  -2.092   1.382  0.00  0.00    -0.005 A 
ATOM      4  C3  UNL d   1       2.457  -2.144  -0.009  0.00  0.00     0.006 A 
ATOM      5  C4  UNL d   1       1.543  -1.446  -0.800  0.00  0.00    -0.005 A 
ATOM      6  C5  UNL d   1       0.528  -0.690  -0.204  0.00  0.00    -0.074 A 
ATOM      7  C6  UNL d   1      -0.469   0.058  -1.039  0.00  0.00     0.077 C 
ATOM      8  C7  UNL d   1       0.439  -0.649   1.194  0.00  0.00    -0.001 A 
ENDROOT
TORSDOF 0
ENDMDL
