MODEL 1
REMARK minimizedAffinity -2.05377746
REMARK minimizedRMSD -1
REMARK  0 active torsions:
REMARK  status: ('A' for Active; 'I' for Inactive)
ROOT
ATOM      1  C   UNL d   1      -0.712   0.510  -1.208  0.00  0.00     0.077 C 
ATOM      2  C1  UNL d   1      -0.203  -0.224  -0.002  0.00  0.00    -0.074 A 
ATOM      3  C2  UNL d   1      -0.808  -0.058   1.248  0.00  0.00    -0.005 A 
ATOM      4  C3  UNL d   1      -0.330  -0.754   2.358  0.00  0.00     0.006 A 
ATOM      5  C4  UNL d   1       0.756  -1.621   2.230  0.00  0.00    -0.005 A 
ATOM      6  C5  UNL d   1       1.373  -1.800   0.988  0.00  0.00    -0.074 A 
ATOM      7  C6  UNL d   1       2.535  -2.735   0.830  0.00  0.00     0.077 C 
ATOM      8  C7  UNL d   1       0.882  -1.102  -0.125  0.00  0.00    -0.001 A 
ENDROOT
TORSDOF 0
ENDMDL
