MODEL 1
REMARK minimizedAffinity -5.62880468
REMARK minimizedRMSD -1
REMARK  0 active torsions:
REMARK  status: ('A' for Active; 'I' for Inactive)
ROOT
ATOM      1  C   UNL d   1      -0.758   0.145  -1.479  0.00  0.00     0.077 C 
ATOM      2  C1  UNL d   1      -0.256  -0.313  -0.143  0.00  0.00    -0.074 A 
ATOM      3  C2  UNL d   1      -0.867   0.115   1.040  0.00  0.00    -0.005 A 
ATOM      4  C3  UNL d   1      -0.394  -0.327   2.276  0.00  0.00     0.006 A 
ATOM      5  C4  UNL d   1       0.692  -1.200   2.341  0.00  0.00    -0.005 A 
ATOM      6  C5  UNL d   1       1.315  -1.640   1.169  0.00  0.00    -0.074 A 
ATOM      7  C6  UNL d   1       2.478  -2.586   1.221  0.00  0.00     0.077 C 
ATOM      8  C7  UNL d   1       0.830  -1.197  -0.069  0.00  0.00    -0.001 A 
ENDROOT
TORSDOF 0
ENDMDL
