MODEL 1
REMARK minimizedAffinity -0.886350691
REMARK minimizedRMSD -1
REMARK  0 active torsions:
REMARK  status: ('A' for Active; 'I' for Inactive)
ROOT
ATOM      1  C   UNL d   1       3.086  -0.726  -0.363  0.00  0.00     0.077 C 
ATOM      2  C1  UNL d   1       2.050  -0.861   0.713  0.00  0.00    -0.074 A 
ATOM      3  C2  UNL d   1       2.412  -0.864   2.064  0.00  0.00    -0.005 A 
ATOM      4  C3  UNL d   1       1.436  -0.981   3.053  0.00  0.00     0.006 A 
ATOM      5  C4  UNL d   1       0.091  -1.096   2.703  0.00  0.00    -0.005 A 
ATOM      6  C5  UNL d   1      -0.291  -1.094   1.358  0.00  0.00    -0.074 A 
ATOM      7  C6  UNL d   1      -1.734  -1.207   0.964  0.00  0.00     0.077 C 
ATOM      8  C7  UNL d   1       0.695  -0.969   0.369  0.00  0.00    -0.001 A 
ENDROOT
TORSDOF 0
ENDMDL
