MODEL 1
REMARK minimizedAffinity 5.67861462
REMARK minimizedRMSD -1
REMARK  2 active torsions:
REMARK  status: ('A' for Active; 'I' for Inactive)
REMARK    1  A    between atoms: C1_2  and  C2_3 
REMARK    2  A    between atoms: C2_3  and  C3_4 
ROOT
ATOM      1  C3  UNL d   1      -4.399   1.066  -3.341  0.00  0.00    -0.075 A 
ATOM      2  C4  UNL d   1      -3.286   0.937  -2.497  0.00  0.00     0.002 A 
ATOM      3  C5  UNL d   1      -2.050   0.540  -3.009  0.00  0.00     0.002 A 
ATOM      4  C6  UNL d   1      -1.914   0.257  -4.366  0.00  0.00    -0.004 A 
ATOM      5  C7  UNL d   1      -3.017   0.366  -5.211  0.00  0.00     0.002 A 
ATOM      6  C8  UNL d   1      -4.253   0.767  -4.702  0.00  0.00     0.002 A 
ENDROOT
BRANCH   1   7
ATOM      7  C2  UNL d   1      -5.731   1.524  -2.798  0.00  0.00     0.056 C 
BRANCH   7   8
ATOM      8  C1  UNL d   1      -6.000   3.021  -2.985  0.00  0.00     0.007 C 
ATOM      9  C   UNL d   1      -5.997   3.453  -4.445  0.00  0.00     0.009 C 
ENDBRANCH   7   8
ENDBRANCH   1   7
TORSDOF 2
ENDMDL
