MODEL 1
REMARK minimizedAffinity 6.69334602
REMARK minimizedRMSD -1
REMARK  2 active torsions:
REMARK  status: ('A' for Active; 'I' for Inactive)
REMARK    1  A    between atoms: C1_2  and  C2_3 
REMARK    2  A    between atoms: C2_3  and  C3_4 
ROOT
ATOM      1  C3  UNL d   1      -3.087   0.715  -2.800  0.00  0.00    -0.075 A 
ATOM      2  C4  UNL d   1      -4.354   0.502  -2.238  0.00  0.00     0.002 A 
ATOM      3  C5  UNL d   1      -5.503   0.596  -3.025  0.00  0.00     0.002 A 
ATOM      4  C6  UNL d   1      -5.400   0.913  -4.377  0.00  0.00    -0.004 A 
ATOM      5  C7  UNL d   1      -4.148   1.142  -4.942  0.00  0.00     0.002 A 
ATOM      6  C8  UNL d   1      -2.997   1.045  -4.159  0.00  0.00     0.002 A 
ENDROOT
BRANCH   1   7
ATOM      7  C2  UNL d   1      -1.838   0.586  -1.961  0.00  0.00     0.056 C 
BRANCH   7   8
ATOM      8  C1  UNL d   1      -0.920   1.811  -2.017  0.00  0.00     0.007 C 
ATOM      9  C   UNL d   1      -0.552   2.349  -0.641  0.00  0.00     0.009 C 
ENDBRANCH   7   8
ENDBRANCH   1   7
TORSDOF 2
ENDMDL
