MODEL 1
REMARK minimizedAffinity 12.6983614
REMARK minimizedRMSD -1
REMARK  2 active torsions:
REMARK  status: ('A' for Active; 'I' for Inactive)
REMARK    1  A    between atoms: C1_2  and  C2_3 
REMARK    2  A    between atoms: C2_3  and  C3_4 
ROOT
ATOM      1  C3  UNL d   1       4.713   1.184  -1.888  0.00  0.00    -0.075 A 
ATOM      2  C4  UNL d   1       3.828   0.985  -0.818  0.00  0.00     0.002 A 
ATOM      3  C5  UNL d   1       2.847  -0.005  -0.886  0.00  0.00     0.002 A 
ATOM      4  C6  UNL d   1       2.731  -0.799  -2.024  0.00  0.00    -0.004 A 
ATOM      5  C7  UNL d   1       3.594  -0.599  -3.100  0.00  0.00     0.002 A 
ATOM      6  C8  UNL d   1       4.580   0.387  -3.033  0.00  0.00     0.002 A 
ENDROOT
BRANCH   1   7
ATOM      7  C2  UNL d   1       5.796   2.233  -1.810  0.00  0.00     0.056 C 
BRANCH   7   8
ATOM      8  C1  UNL d   1       5.998   3.020  -3.109  0.00  0.00     0.007 C 
ATOM      9  C   UNL d   1       5.951   4.529  -2.910  0.00  0.00     0.009 C 
ENDBRANCH   7   8
ENDBRANCH   1   7
TORSDOF 2
ENDMDL
