MODEL 1
REMARK minimizedAffinity 6.9496994
REMARK minimizedRMSD -1
REMARK  2 active torsions:
REMARK  status: ('A' for Active; 'I' for Inactive)
REMARK    1  A    between atoms: C1_2  and  C2_3 
REMARK    2  A    between atoms: C2_3  and  C3_4 
ROOT
ATOM      1  C3  UNL d   1       3.123   3.779   3.862  0.00  0.00    -0.075 A 
ATOM      2  C4  UNL d   1       4.384   4.187   3.406  0.00  0.00     0.002 A 
ATOM      3  C5  UNL d   1       5.245   4.897   4.243  0.00  0.00     0.002 A 
ATOM      4  C6  UNL d   1       4.853   5.216   5.541  0.00  0.00    -0.004 A 
ATOM      5  C7  UNL d   1       3.595   4.830   6.000  0.00  0.00     0.002 A 
ATOM      6  C8  UNL d   1       2.733   4.116   5.165  0.00  0.00     0.002 A 
ENDROOT
BRANCH   1   7
ATOM      7  C2  UNL d   1       2.198   2.985   2.970  0.00  0.00     0.056 C 
BRANCH   7   8
ATOM      8  C1  UNL d   1       1.147   2.169   3.730  0.00  0.00     0.007 C 
ATOM      9  C   UNL d   1      -0.282   2.520   3.341  0.00  0.00     0.009 C 
ENDBRANCH   7   8
ENDBRANCH   1   7
TORSDOF 2
ENDMDL
