MODEL 1
REMARK minimizedAffinity 12.5696325
REMARK minimizedRMSD -1
REMARK  2 active torsions:
REMARK  status: ('A' for Active; 'I' for Inactive)
REMARK    1  A    between atoms: C1_2  and  C2_3 
REMARK    2  A    between atoms: C2_3  and  C3_4 
ROOT
ATOM      1  C3  UNL d   1       5.084   1.838  -2.267  0.00  0.00    -0.075 A 
ATOM      2  C4  UNL d   1       4.174   1.053  -2.990  0.00  0.00     0.002 A 
ATOM      3  C5  UNL d   1       3.313   0.177  -2.329  0.00  0.00     0.002 A 
ATOM      4  C6  UNL d   1       3.357   0.068  -0.941  0.00  0.00    -0.004 A 
ATOM      5  C7  UNL d   1       4.268   0.831  -0.214  0.00  0.00     0.002 A 
ATOM      6  C8  UNL d   1       5.128   1.711  -0.873  0.00  0.00     0.002 A 
ENDROOT
BRANCH   1   7
ATOM      7  C2  UNL d   1       5.999   2.809  -2.975  0.00  0.00     0.056 C 
BRANCH   7   8
ATOM      8  C1  UNL d   1       5.832   4.265  -2.525  0.00  0.00     0.007 C 
ATOM      9  C   UNL d   1       5.992   5.267  -3.660  0.00  0.00     0.009 C 
ENDBRANCH   7   8
ENDBRANCH   1   7
TORSDOF 2
ENDMDL
