MODEL 1
REMARK minimizedAffinity 8.61854267
REMARK minimizedRMSD -1
REMARK  2 active torsions:
REMARK  status: ('A' for Active; 'I' for Inactive)
REMARK    1  A    between atoms: C1_2  and  C2_3 
REMARK    2  A    between atoms: C2_3  and  C3_4 
ROOT
ATOM      1  C3  UNL d   1       4.910   1.266  -1.992  0.00  0.00    -0.075 A 
ATOM      2  C4  UNL d   1       4.059   1.220  -0.878  0.00  0.00     0.002 A 
ATOM      3  C5  UNL d   1       3.078   0.233  -0.777  0.00  0.00     0.002 A 
ATOM      4  C6  UNL d   1       2.929  -0.711  -1.789  0.00  0.00    -0.004 A 
ATOM      5  C7  UNL d   1       3.758  -0.665  -2.908  0.00  0.00     0.002 A 
ATOM      6  C8  UNL d   1       4.743   0.319  -3.010  0.00  0.00     0.002 A 
ENDROOT
BRANCH   1   7
ATOM      7  C2  UNL d   1       5.993   2.314  -2.094  0.00  0.00     0.056 C 
BRANCH   7   8
ATOM      8  C1  UNL d   1       5.974   3.106  -3.406  0.00  0.00     0.007 C 
ATOM      9  C   UNL d   1       5.998   4.614  -3.197  0.00  0.00     0.009 C 
ENDBRANCH   7   8
ENDBRANCH   1   7
TORSDOF 2
ENDMDL
