MODEL 1
REMARK minimizedAffinity 7.80755377
REMARK minimizedRMSD -1
REMARK  2 active torsions:
REMARK  status: ('A' for Active; 'I' for Inactive)
REMARK    1  A    between atoms: C1_2  and  C2_3 
REMARK    2  A    between atoms: C2_3  and  C3_4 
ROOT
ATOM      1  C3  UNL d   1       4.922   1.122  -2.103  0.00  0.00    -0.075 A 
ATOM      2  C4  UNL d   1       4.338   0.166  -2.946  0.00  0.00     0.002 A 
ATOM      3  C5  UNL d   1       3.373  -0.715  -2.457  0.00  0.00     0.002 A 
ATOM      4  C6  UNL d   1       2.989  -0.659  -1.119  0.00  0.00    -0.004 A 
ATOM      5  C7  UNL d   1       3.575   0.276  -0.268  0.00  0.00     0.002 A 
ATOM      6  C8  UNL d   1       4.537   1.162  -0.756  0.00  0.00     0.002 A 
ENDROOT
BRANCH   1   7
ATOM      7  C2  UNL d   1       5.945   2.098  -2.634  0.00  0.00     0.056 C 
BRANCH   7   8
ATOM      8  C1  UNL d   1       5.675   3.556  -2.247  0.00  0.00     0.007 C 
ATOM      9  C   UNL d   1       6.000   4.543  -3.361  0.00  0.00     0.009 C 
ENDBRANCH   7   8
ENDBRANCH   1   7
TORSDOF 2
ENDMDL
