MODEL 1
REMARK minimizedAffinity 1.790223
REMARK minimizedRMSD -1
REMARK  2 active torsions:
REMARK  status: ('A' for Active; 'I' for Inactive)
REMARK    1  A    between atoms: C1_2  and  C2_3 
REMARK    2  A    between atoms: C2_3  and  C3_4 
ROOT
ATOM      1  C3  UNL d   1       0.767   0.357  -0.490  0.00  0.00    -0.075 A 
ATOM      2  C4  UNL d   1      -0.506  -0.084  -0.880  0.00  0.00     0.002 A 
ATOM      3  C5  UNL d   1      -0.699  -1.397  -1.310  0.00  0.00     0.002 A 
ATOM      4  C6  UNL d   1       0.376  -2.281  -1.364  0.00  0.00    -0.004 A 
ATOM      5  C7  UNL d   1       1.648  -1.849  -0.995  0.00  0.00     0.002 A 
ATOM      6  C8  UNL d   1       1.844  -0.536  -0.560  0.00  0.00     0.002 A 
ENDROOT
BRANCH   1   7
ATOM      7  C2  UNL d   1       0.977   1.769   0.004  0.00  0.00     0.056 C 
BRANCH   7   8
ATOM      8  C1  UNL d   1      -0.033   2.215   1.066  0.00  0.00     0.007 C 
ATOM      9  C   UNL d   1       0.588   2.402   2.444  0.00  0.00     0.009 C 
ENDBRANCH   7   8
ENDBRANCH   1   7
TORSDOF 2
ENDMDL
