MODEL 1
REMARK minimizedAffinity 8.8035965
REMARK minimizedRMSD -1
REMARK  0 active torsions:
REMARK  status: ('A' for Active; 'I' for Inactive)
ROOT
ATOM      1  C   UNL d   1       1.299  -5.955   5.533  0.00  0.00     0.020 A 
ATOM      2  C1  UNL d   1       0.819  -4.732   6.000  0.00  0.00     0.020 A 
ATOM      3  C2  UNL d   1       1.136  -3.553   5.322  0.00  0.00     0.034 A 
ATOM      4  C3  UNL d   1       1.935  -3.594   4.173  0.00  0.00     0.017 A 
ATOM      5  C4  UNL d   1       2.416  -4.822   3.705  0.00  0.00     0.017 A 
ATOM      6  C5  UNL d   1       2.096  -6.000   4.388  0.00  0.00     0.034 A 
ATOM      7 Cl   UNL d   1       3.407  -4.953   2.295  0.00  0.00    -0.070 Cl
ATOM      8 Cl1  UNL d   1       2.286  -2.097   3.384  0.00  0.00    -0.070 Cl
ENDROOT
TORSDOF 0
ENDMDL
