MODEL 1
REMARK minimizedAffinity 8.99634743
REMARK minimizedRMSD -1
REMARK  0 active torsions:
REMARK  status: ('A' for Active; 'I' for Inactive)
ROOT
ATOM      1  C   UNL d   1       3.040  -2.393   3.754  0.00  0.00     0.020 A 
ATOM      2  C1  UNL d   1       2.030  -1.754   4.471  0.00  0.00     0.020 A 
ATOM      3  C2  UNL d   1       1.580  -0.494   4.071  0.00  0.00     0.034 A 
ATOM      4  C3  UNL d   1       2.140   0.131   2.951  0.00  0.00     0.017 A 
ATOM      5  C4  UNL d   1       3.155  -0.512   2.232  0.00  0.00     0.017 A 
ATOM      6  C5  UNL d   1       3.601  -1.774   2.637  0.00  0.00     0.034 A 
ATOM      7 Cl   UNL d   1       3.895   0.195   0.839  0.00  0.00    -0.070 Cl
ATOM      8 Cl1  UNL d   1       1.535   1.689   2.512  0.00  0.00    -0.070 Cl
ENDROOT
TORSDOF 0
ENDMDL
