MODEL 1
REMARK minimizedAffinity 7.17653418
REMARK minimizedRMSD -1
REMARK  0 active torsions:
REMARK  status: ('A' for Active; 'I' for Inactive)
ROOT
ATOM      1  C   UNL d   1       5.783  -2.406   3.048  0.00  0.00     0.020 A 
ATOM      2  C1  UNL d   1       6.000  -3.783   3.035  0.00  0.00     0.020 A 
ATOM      3  C2  UNL d   1       4.962  -4.657   3.366  0.00  0.00     0.034 A 
ATOM      4  C3  UNL d   1       3.702  -4.154   3.712  0.00  0.00     0.017 A 
ATOM      5  C4  UNL d   1       3.485  -2.772   3.725  0.00  0.00     0.017 A 
ATOM      6  C5  UNL d   1       4.528  -1.902   3.393  0.00  0.00     0.034 A 
ATOM      7 Cl   UNL d   1       1.958  -2.077   4.141  0.00  0.00    -0.070 Cl
ATOM      8 Cl1  UNL d   1       2.464  -5.293   4.110  0.00  0.00    -0.070 Cl
ENDROOT
TORSDOF 0
ENDMDL
