MODEL 1
REMARK minimizedAffinity 5.0750618
REMARK minimizedRMSD -1
REMARK  0 active torsions:
REMARK  status: ('A' for Active; 'I' for Inactive)
ROOT
ATOM      1  C   UNL d   1       2.125  -2.374   3.034  0.00  0.00     0.020 A 
ATOM      2  C1  UNL d   1       1.835  -2.237   4.391  0.00  0.00     0.020 A 
ATOM      3  C2  UNL d   1       1.879  -0.976   4.989  0.00  0.00     0.034 A 
ATOM      4  C3  UNL d   1       2.214   0.152   4.231  0.00  0.00     0.017 A 
ATOM      5  C4  UNL d   1       2.505   0.013   2.870  0.00  0.00     0.017 A 
ATOM      6  C5  UNL d   1       2.459  -1.252   2.275  0.00  0.00     0.034 A 
ATOM      7 Cl   UNL d   1       2.926   1.358   1.869  0.00  0.00    -0.070 Cl
ATOM      8 Cl1  UNL d   1       2.249   1.680   5.037  0.00  0.00    -0.070 Cl
ENDROOT
TORSDOF 0
ENDMDL
