MODEL 1
REMARK minimizedAffinity -2.00851107
REMARK minimizedRMSD -1
REMARK  0 active torsions:
REMARK  status: ('A' for Active; 'I' for Inactive)
ROOT
ATOM      1  C   UNL d   1       4.159   2.919  -5.154  0.00  0.00     0.020 A 
ATOM      2  C1  UNL d   1       5.449   2.699  -5.634  0.00  0.00     0.020 A 
ATOM      3  C2  UNL d   1       5.998   1.416  -5.600  0.00  0.00     0.034 A 
ATOM      4  C3  UNL d   1       5.257   0.347  -5.083  0.00  0.00     0.017 A 
ATOM      5  C4  UNL d   1       3.962   0.569  -4.601  0.00  0.00     0.017 A 
ATOM      6  C5  UNL d   1       3.417   1.856  -4.638  0.00  0.00     0.034 A 
ATOM      7 Cl   UNL d   1       2.986  -0.700  -3.948  0.00  0.00    -0.070 Cl
ATOM      8 Cl1  UNL d   1       5.998  -1.214  -5.071  0.00  0.00    -0.070 Cl
ENDROOT
TORSDOF 0
ENDMDL
