MODEL 1
REMARK minimizedAffinity 6.13769817
REMARK minimizedRMSD -1
REMARK  0 active torsions:
REMARK  status: ('A' for Active; 'I' for Inactive)
ROOT
ATOM      1  C   UNL d   1       1.986  -5.738   5.376  0.00  0.00     0.020 A 
ATOM      2  C1  UNL d   1       0.766  -5.325   4.841  0.00  0.00     0.020 A 
ATOM      3  C2  UNL d   1       0.664  -4.081   4.215  0.00  0.00     0.034 A 
ATOM      4  C3  UNL d   1       1.783  -3.245   4.124  0.00  0.00     0.017 A 
ATOM      5  C4  UNL d   1       3.007  -3.660   4.661  0.00  0.00     0.017 A 
ATOM      6  C5  UNL d   1       3.103  -4.907   5.287  0.00  0.00     0.034 A 
ATOM      7 Cl   UNL d   1       4.431  -2.684   4.587  0.00  0.00    -0.070 Cl
ATOM      8 Cl1  UNL d   1       1.584  -1.720   3.336  0.00  0.00    -0.070 Cl
ENDROOT
TORSDOF 0
ENDMDL
