MODEL 1
REMARK minimizedAffinity 13.1069803
REMARK minimizedRMSD -1
REMARK  0 active torsions:
REMARK  status: ('A' for Active; 'I' for Inactive)
ROOT
ATOM      1  C   UNL d   1       0.525  -2.595  -1.003  0.00  0.00     0.020 A 
ATOM      2  C1  UNL d   1      -0.754  -2.140  -1.322  0.00  0.00     0.020 A 
ATOM      3  C2  UNL d   1      -1.311  -1.073  -0.614  0.00  0.00     0.034 A 
ATOM      4  C3  UNL d   1      -0.590  -0.458   0.416  0.00  0.00     0.017 A 
ATOM      5  C4  UNL d   1       0.694  -0.916   0.735  0.00  0.00     0.017 A 
ATOM      6  C5  UNL d   1       1.247  -1.985   0.023  0.00  0.00     0.034 A 
ATOM      7 Cl   UNL d   1       1.645  -0.207   1.992  0.00  0.00    -0.070 Cl
ATOM      8 Cl1  UNL d   1      -1.341   0.857   1.248  0.00  0.00    -0.070 Cl
ENDROOT
TORSDOF 0
ENDMDL
