MODEL 1
REMARK minimizedAffinity 1.17093492
REMARK minimizedRMSD -1
REMARK  0 active torsions:
REMARK  status: ('A' for Active; 'I' for Inactive)
ROOT
ATOM      1  C   UNL d   1       2.225  -0.946   4.534  0.00  0.00     0.020 A 
ATOM      2  C1  UNL d   1       1.696  -0.118   3.545  0.00  0.00     0.020 A 
ATOM      3  C2  UNL d   1       2.387   0.064   2.345  0.00  0.00     0.034 A 
ATOM      4  C3  UNL d   1       3.609  -0.582   2.131  0.00  0.00     0.017 A 
ATOM      5  C4  UNL d   1       4.139  -1.413   3.125  0.00  0.00     0.017 A 
ATOM      6  C5  UNL d   1       3.444  -1.592   4.325  0.00  0.00     0.034 A 
ATOM      7 Cl   UNL d   1       5.642  -2.245   2.934  0.00  0.00    -0.070 Cl
ATOM      8 Cl1  UNL d   1       4.409  -0.312   0.623  0.00  0.00    -0.070 Cl
ENDROOT
TORSDOF 0
ENDMDL
