MODEL 1
REMARK minimizedAffinity -5.33108377
REMARK minimizedRMSD -1
REMARK  3 active torsions:
REMARK  status: ('A' for Active; 'I' for Inactive)
REMARK    1  A    between atoms: C3'_2  and  C2'_3 
REMARK    2  A    between atoms: C2'_3  and  C1'_4 
REMARK    3  A    between atoms: C1'_4  and  C1_5 
ROOT
ATOM      1  C1  N4B d   1      -1.021   0.032   0.381  0.00  0.00    -0.075 A 
ATOM      2  C2  N4B d   1      -1.805   0.258   1.533  0.00  0.00     0.002 A 
ATOM      3  C3  N4B d   1      -2.696   1.303   1.563  0.00  0.00     0.002 A 
ATOM      4  C4  N4B d   1      -2.806   2.142   0.465  0.00  0.00    -0.004 A 
ATOM      5  C5  N4B d   1      -2.063   1.901  -0.654  0.00  0.00     0.002 A 
ATOM      6  C6  N4B d   1      -1.166   0.853  -0.699  0.00  0.00     0.002 A 
ENDROOT
BRANCH   1   7
ATOM      7  C1' N4B d   1       0.028  -1.046   0.333  0.00  0.00     0.057 C 
BRANCH   7   8
ATOM      8  C2' N4B d   1       1.408  -0.398   0.260  0.00  0.00     0.009 C 
BRANCH   8   9
ATOM      9  C3' N4B d   1       2.513  -1.430   0.116  0.00  0.00     0.004 C 
ATOM     10  C4' N4B d   1       2.598  -2.000  -1.269  0.00  0.00     0.003 C 
ENDBRANCH   8   9
ENDBRANCH   7   8
ENDBRANCH   1   7
TORSDOF 3
ENDMDL
