MODEL 1
REMARK minimizedAffinity -4.69732237
REMARK minimizedRMSD -1
REMARK  3 active torsions:
REMARK  status: ('A' for Active; 'I' for Inactive)
REMARK    1  A    between atoms: C3'_2  and  C2'_3 
REMARK    2  A    between atoms: C2'_3  and  C1'_4 
REMARK    3  A    between atoms: C1'_4  and  C1_5 
ROOT
ATOM      1  C1  N4B d   1       0.896   0.127  -0.004  0.00  0.00    -0.075 A 
ATOM      2  C2  N4B d   1       1.879   1.135   0.114  0.00  0.00     0.002 A 
ATOM      3  C3  N4B d   1       3.167   0.800   0.453  0.00  0.00     0.002 A 
ATOM      4  C4  N4B d   1       3.491  -0.526   0.695  0.00  0.00    -0.004 A 
ATOM      5  C5  N4B d   1       2.541  -1.496   0.554  0.00  0.00     0.002 A 
ATOM      6  C6  N4B d   1       1.244  -1.175   0.210  0.00  0.00     0.002 A 
ENDROOT
BRANCH   1   7
ATOM      7  C1' N4B d   1      -0.544   0.453  -0.288  0.00  0.00     0.057 C 
BRANCH   7   8
ATOM      8  C2' N4B d   1      -1.334   0.411   1.017  0.00  0.00     0.009 C 
BRANCH   8   9
ATOM      9  C3' N4B d   1      -2.792   0.787   0.811  0.00  0.00     0.004 C 
ATOM     10  C4' N4B d   1      -3.492   1.121   2.095  0.00  0.00     0.003 C 
ENDBRANCH   8   9
ENDBRANCH   7   8
ENDBRANCH   1   7
TORSDOF 3
ENDMDL
