MODEL 1
REMARK minimizedAffinity -3.20177889
REMARK minimizedRMSD -1
REMARK  3 active torsions:
REMARK  status: ('A' for Active; 'I' for Inactive)
REMARK    1  A    between atoms: C3'_2  and  C2'_3 
REMARK    2  A    between atoms: C2'_3  and  C1'_4 
REMARK    3  A    between atoms: C1'_4  and  C1_5 
ROOT
ATOM      1  C1  N4B d   1       0.293  -0.274  -0.357  0.00  0.00    -0.075 A 
ATOM      2  C2  N4B d   1       0.426  -1.490  -1.063  0.00  0.00     0.002 A 
ATOM      3  C3  N4B d   1       1.333  -2.431  -0.643  0.00  0.00     0.002 A 
ATOM      4  C4  N4B d   1       2.129  -2.173   0.463  0.00  0.00    -0.004 A 
ATOM      5  C5  N4B d   1       1.977  -1.006   1.154  0.00  0.00     0.002 A 
ATOM      6  C6  N4B d   1       1.066  -0.053   0.746  0.00  0.00     0.002 A 
ENDROOT
BRANCH   1   7
ATOM      7  C1' N4B d   1      -0.625   0.821  -0.827  0.00  0.00     0.057 C 
BRANCH   7   8
ATOM      8  C2' N4B d   1      -1.668   1.098   0.251  0.00  0.00     0.009 C 
BRANCH   8   9
ATOM      9  C3' N4B d   1      -3.048   0.611  -0.155  0.00  0.00     0.004 C 
ATOM     10  C4' N4B d   1      -4.041   0.678   0.967  0.00  0.00     0.003 C 
ENDBRANCH   8   9
ENDBRANCH   7   8
ENDBRANCH   1   7
TORSDOF 3
ENDMDL
