MODEL 1
REMARK minimizedAffinity -4.97184277
REMARK minimizedRMSD -1
REMARK  3 active torsions:
REMARK  status: ('A' for Active; 'I' for Inactive)
REMARK    1  A    between atoms: C3'_2  and  C2'_3 
REMARK    2  A    between atoms: C2'_3  and  C1'_4 
REMARK    3  A    between atoms: C1'_4  and  C1_5 
ROOT
ATOM      1  C1  N4B d   1      -0.060  -0.058  -0.236  0.00  0.00    -0.075 A 
ATOM      2  C2  N4B d   1       0.280  -1.103  -1.122  0.00  0.00     0.002 A 
ATOM      3  C3  N4B d   1       1.355  -1.913  -0.848  0.00  0.00     0.002 A 
ATOM      4  C4  N4B d   1       2.113  -1.685   0.291  0.00  0.00    -0.004 A 
ATOM      5  C5  N4B d   1       1.762  -0.689   1.155  0.00  0.00     0.002 A 
ATOM      6  C6  N4B d   1       0.682   0.129   0.895  0.00  0.00     0.002 A 
ENDROOT
BRANCH   1   7
ATOM      7  C1' N4B d   1      -1.175   0.907  -0.536  0.00  0.00     0.057 C 
BRANCH   7   8
ATOM      8  C2' N4B d   1      -2.082   1.020   0.685  0.00  0.00     0.009 C 
BRANCH   8   9
ATOM      9  C3' N4B d   1      -3.550   0.884   0.317  0.00  0.00     0.004 C 
ATOM     10  C4' N4B d   1      -4.421   0.593   1.502  0.00  0.00     0.003 C 
ENDBRANCH   8   9
ENDBRANCH   7   8
ENDBRANCH   1   7
TORSDOF 3
ENDMDL
