MODEL 1
REMARK minimizedAffinity -3.46179748
REMARK minimizedRMSD -1
REMARK  0 active torsions:
REMARK  status: ('A' for Active; 'I' for Inactive)
ROOT
ATOM      1  C1  BNZ d   1      -0.252   0.452  -0.944  0.00  0.00     0.000 A 
ATOM      2  C2  BNZ d   1      -0.673   0.376  -2.245  0.00  0.00     0.000 A 
ATOM      3  C3  BNZ d   1      -2.003   0.288  -2.546  0.00  0.00     0.000 A 
ATOM      4  C4  BNZ d   1      -2.907   0.237  -1.546  0.00  0.00     0.000 A 
ATOM      5  C5  BNZ d   1      -2.498   0.304  -0.229  0.00  0.00     0.000 A 
ATOM      6  C6  BNZ d   1      -1.160   0.431   0.069  0.00  0.00     0.000 A 
ENDROOT
TORSDOF 0
ENDMDL
