MODEL 1
REMARK minimizedAffinity -5.34133768
REMARK minimizedRMSD -1
REMARK  0 active torsions:
REMARK  status: ('A' for Active; 'I' for Inactive)
ROOT
ATOM      1  C1  BNZ d   1       2.925  -0.470   1.133  0.00  0.00     0.000 A 
ATOM      2  C2  BNZ d   1       3.042  -1.416   2.117  0.00  0.00     0.000 A 
ATOM      3  C3  BNZ d   1       2.006  -2.261   2.402  0.00  0.00     0.000 A 
ATOM      4  C4  BNZ d   1       0.843  -2.133   1.733  0.00  0.00     0.000 A 
ATOM      5  C5  BNZ d   1       0.705  -1.179   0.745  0.00  0.00     0.000 A 
ATOM      6  C6  BNZ d   1       1.763  -0.355   0.433  0.00  0.00     0.000 A 
ENDROOT
TORSDOF 0
ENDMDL
