MODEL 1
REMARK minimizedAffinity -5.08101273
REMARK minimizedRMSD -1
REMARK  0 active torsions:
REMARK  status: ('A' for Active; 'I' for Inactive)
ROOT
ATOM      1  C1  BNZ d   1       1.438   0.463   0.353  0.00  0.00     0.000 A 
ATOM      2  C2  BNZ d   1       2.602   0.148   1.002  0.00  0.00     0.000 A 
ATOM      3  C3  BNZ d   1       2.739  -1.045   1.653  0.00  0.00     0.000 A 
ATOM      4  C4  BNZ d   1       1.700  -1.904   1.689  0.00  0.00     0.000 A 
ATOM      5  C5  BNZ d   1       0.517  -1.597   1.048  0.00  0.00     0.000 A 
ATOM      6  C6  BNZ d   1       0.396  -0.411   0.360  0.00  0.00     0.000 A 
ENDROOT
TORSDOF 0
ENDMDL
