MODEL 1
REMARK minimizedAffinity -4.52948952
REMARK minimizedRMSD -1
REMARK  0 active torsions:
REMARK  status: ('A' for Active; 'I' for Inactive)
ROOT
ATOM      1  C1  BNZ d   1       0.536   0.231  -0.025  0.00  0.00     0.000 A 
ATOM      2  C2  BNZ d   1       0.732  -0.970   0.602  0.00  0.00     0.000 A 
ATOM      3  C3  BNZ d   1       1.948  -1.290   1.139  0.00  0.00     0.000 A 
ATOM      4  C4  BNZ d   1       2.976  -0.425   1.014  0.00  0.00     0.000 A 
ATOM      5  C5  BNZ d   1       2.797   0.786   0.377  0.00  0.00     0.000 A 
ATOM      6  C6  BNZ d   1       1.561   1.121  -0.128  0.00  0.00     0.000 A 
ENDROOT
TORSDOF 0
ENDMDL
