MODEL 1
REMARK minimizedAffinity -2.59664178
REMARK minimizedRMSD -1
REMARK  0 active torsions:
REMARK  status: ('A' for Active; 'I' for Inactive)
ROOT
ATOM      1  C1  BNZ d   1       0.071  -0.438   0.936  0.00  0.00     0.000 A 
ATOM      2  C2  BNZ d   1       1.160  -0.262   1.748  0.00  0.00     0.000 A 
ATOM      3  C3  BNZ d   1       2.129   0.648   1.432  0.00  0.00     0.000 A 
ATOM      4  C4  BNZ d   1       2.030   1.351   0.286  0.00  0.00     0.000 A 
ATOM      5  C5  BNZ d   1       0.943   1.179  -0.548  0.00  0.00     0.000 A 
ATOM      6  C6  BNZ d   1      -0.050   0.290  -0.207  0.00  0.00     0.000 A 
ENDROOT
TORSDOF 0
ENDMDL
