MODEL 1
REMARK minimizedAffinity 18.3935871
REMARK minimizedRMSD -1
REMARK  0 active torsions:
REMARK  status: ('A' for Active; 'I' for Inactive)
ROOT
ATOM      1  C   UNL d   1       1.941  -2.182   3.460  0.00  0.00     0.124 A 
ATOM      2  C1  UNL d   1       1.670  -1.093   2.644  0.00  0.00     0.062 A 
ATOM      3  C2  UNL d   1       1.096  -1.283   1.390  0.00  0.00     0.162 A 
ATOM      4  C3  UNL d   1       0.789  -2.569   0.944  0.00  0.00    -0.034 A 
ATOM      5  C4  UNL d   1       1.066  -3.660   1.771  0.00  0.00     0.162 A 
ATOM      6  C5  UNL d   1       1.639  -3.464   3.023  0.00  0.00     0.062 A 
ATOM      7  F   UNL d   1       1.900  -4.518   3.810  0.00  0.00    -0.097 F 
ATOM      8  F1  UNL d   1       0.784  -4.909   1.373  0.00  0.00    -0.096 F 
ATOM      9  I   UNL d   1      -0.068  -2.858  -0.930  0.00  0.00    -0.060 I 
ATOM     10  F2  UNL d   1       0.845  -0.212   0.622  0.00  0.00    -0.096 F 
ATOM     11  F3  UNL d   1       1.961   0.147   3.064  0.00  0.00    -0.097 F 
ATOM     12  F4  UNL d   1       2.493  -1.996   4.666  0.00  0.00    -0.092 F 
ENDROOT
TORSDOF 0
ENDMDL
