MODEL 1
REMARK minimizedAffinity 11.2486839
REMARK minimizedRMSD -1
REMARK  0 active torsions:
REMARK  status: ('A' for Active; 'I' for Inactive)
ROOT
ATOM      1  C   UNL d   1       1.787  -1.531   2.157  0.00  0.00     0.124 A 
ATOM      2  C1  UNL d   1       1.784  -2.423   3.220  0.00  0.00     0.062 A 
ATOM      3  C2  UNL d   1       2.986  -2.858   3.772  0.00  0.00     0.162 A 
ATOM      4  C3  UNL d   1       4.201  -2.402   3.261  0.00  0.00    -0.034 A 
ATOM      5  C4  UNL d   1       4.195  -1.505   2.191  0.00  0.00     0.162 A 
ATOM      6  C5  UNL d   1       2.992  -1.073   1.643  0.00  0.00     0.062 A 
ATOM      7  F   UNL d   1       2.996  -0.212   0.615  0.00  0.00    -0.097 F 
ATOM      8  F1  UNL d   1       5.345  -1.046   1.675  0.00  0.00    -0.096 F 
ATOM      9  I   UNL d   1       6.000  -3.050   4.083  0.00  0.00    -0.060 I 
ATOM     10  F2  UNL d   1       2.953  -3.720   4.799  0.00  0.00    -0.096 F 
ATOM     11  F3  UNL d   1       0.621  -2.867   3.718  0.00  0.00    -0.097 F 
ATOM     12  F4  UNL d   1       0.629  -1.115   1.627  0.00  0.00    -0.092 F 
ENDROOT
TORSDOF 0
ENDMDL
