MODEL 1
REMARK minimizedAffinity 2.56798053
REMARK minimizedRMSD -1
REMARK  0 active torsions:
REMARK  status: ('A' for Active; 'I' for Inactive)
ROOT
ATOM      1  C   UNL d   1       2.811   1.027   2.982  0.00  0.00     0.124 A 
ATOM      2  C1  UNL d   1       2.345  -0.157   3.537  0.00  0.00     0.062 A 
ATOM      3  C2  UNL d   1       1.631  -1.062   2.757  0.00  0.00     0.162 A 
ATOM      4  C3  UNL d   1       1.380  -0.788   1.413  0.00  0.00    -0.034 A 
ATOM      5  C4  UNL d   1       1.852   0.405   0.862  0.00  0.00     0.162 A 
ATOM      6  C5  UNL d   1       2.564   1.306   1.645  0.00  0.00     0.062 A 
ATOM      7  F   UNL d   1       3.014   2.449   1.107  0.00  0.00    -0.097 F 
ATOM      8  F1  UNL d   1       1.628   0.700  -0.427  0.00  0.00    -0.096 F 
ATOM      9  I   UNL d   1       0.313  -2.139   0.243  0.00  0.00    -0.060 I 
ATOM     10  F2  UNL d   1       1.192  -2.198   3.320  0.00  0.00    -0.096 F 
ATOM     11  F3  UNL d   1       2.581  -0.429   4.829  0.00  0.00    -0.097 F 
ATOM     12  F4  UNL d   1       3.497   1.897   3.735  0.00  0.00    -0.092 F 
ENDROOT
TORSDOF 0
ENDMDL
