MODEL 1
REMARK minimizedAffinity 4.9621315
REMARK minimizedRMSD -1
REMARK  0 active torsions:
REMARK  status: ('A' for Active; 'I' for Inactive)
ROOT
ATOM      1  C   UNL d   1       2.526   1.678   2.666  0.00  0.00     0.124 A 
ATOM      2  C1  UNL d   1       2.156   0.509   3.318  0.00  0.00     0.062 A 
ATOM      3  C2  UNL d   1       1.577  -0.537   2.606  0.00  0.00     0.162 A 
ATOM      4  C3  UNL d   1       1.365  -0.420   1.232  0.00  0.00    -0.034 A 
ATOM      5  C4  UNL d   1       1.738   0.758   0.583  0.00  0.00     0.162 A 
ATOM      6  C5  UNL d   1       2.316   1.801   1.300  0.00  0.00     0.062 A 
ATOM      7  F   UNL d   1       2.673   2.929   0.668  0.00  0.00    -0.097 F 
ATOM      8  F1  UNL d   1       1.548   0.904  -0.736  0.00  0.00    -0.096 F 
ATOM      9  I   UNL d   1       0.499  -1.982   0.163  0.00  0.00    -0.060 I 
ATOM     10  F2  UNL d   1       1.230  -1.654   3.262  0.00  0.00    -0.096 F 
ATOM     11  F3  UNL d   1       2.356   0.388   4.638  0.00  0.00    -0.097 F 
ATOM     12  F4  UNL d   1       3.082   2.683   3.354  0.00  0.00    -0.092 F 
ENDROOT
TORSDOF 0
ENDMDL
