MODEL 1
REMARK minimizedAffinity 4.28570604
REMARK minimizedRMSD -1
REMARK  0 active torsions:
REMARK  status: ('A' for Active; 'I' for Inactive)
ROOT
ATOM      1  C   UNL d   1       2.388   0.828   2.638  0.00  0.00     0.124 A 
ATOM      2  C1  UNL d   1       2.112  -0.465   3.062  0.00  0.00     0.062 A 
ATOM      3  C2  UNL d   1       1.254  -1.275   2.324  0.00  0.00     0.162 A 
ATOM      4  C3  UNL d   1       0.665  -0.795   1.154  0.00  0.00    -0.034 A 
ATOM      5  C4  UNL d   1       0.947   0.507   0.735  0.00  0.00     0.162 A 
ATOM      6  C5  UNL d   1       1.806   1.312   1.475  0.00  0.00     0.062 A 
ATOM      7  F   UNL d   1       2.071   2.561   1.065  0.00  0.00    -0.097 F 
ATOM      8  F1  UNL d   1       0.398   1.000  -0.386  0.00  0.00    -0.096 F 
ATOM      9  I   UNL d   1      -0.619  -2.003   0.048  0.00  0.00    -0.060 I 
ATOM     10  F2  UNL d   1       1.005  -2.520   2.757  0.00  0.00    -0.096 F 
ATOM     11  F3  UNL d   1       2.673  -0.935   4.185  0.00  0.00    -0.097 F 
ATOM     12  F4  UNL d   1       3.214   1.605   3.350  0.00  0.00    -0.092 F 
ENDROOT
TORSDOF 0
ENDMDL
