MODEL 1
REMARK minimizedAffinity 5.73631668
REMARK minimizedRMSD -1
REMARK  0 active torsions:
REMARK  status: ('A' for Active; 'I' for Inactive)
ROOT
ATOM      1  C   UNL d   1       0.137   1.715   0.126  0.00  0.00     0.124 A 
ATOM      2  C1  UNL d   1      -0.858   0.779  -0.120  0.00  0.00     0.062 A 
ATOM      3  C2  UNL d   1      -0.718  -0.529   0.337  0.00  0.00     0.162 A 
ATOM      4  C3  UNL d   1       0.421  -0.908   1.047  0.00  0.00    -0.034 A 
ATOM      5  C4  UNL d   1       1.418   0.039   1.290  0.00  0.00     0.162 A 
ATOM      6  C5  UNL d   1       1.273   1.344   0.831  0.00  0.00     0.062 A 
ATOM      7  F   UNL d   1       2.236   2.247   1.070  0.00  0.00    -0.097 F 
ATOM      8  F1  UNL d   1       2.526  -0.292   1.969  0.00  0.00    -0.096 F 
ATOM      9  I   UNL d   1       0.634  -2.861   1.732  0.00  0.00    -0.060 I 
ATOM     10  F2  UNL d   1      -1.695  -1.412   0.085  0.00  0.00    -0.096 F 
ATOM     11  F3  UNL d   1      -1.957   1.134  -0.801  0.00  0.00    -0.097 F 
ATOM     12  F4  UNL d   1      -0.000   2.971  -0.315  0.00  0.00    -0.092 F 
ENDROOT
TORSDOF 0
ENDMDL
