MODEL 1
REMARK minimizedAffinity 1.8896755
REMARK minimizedRMSD -1
REMARK  0 active torsions:
REMARK  status: ('A' for Active; 'I' for Inactive)
ROOT
ATOM      1  C   UNL d   1       2.273   0.870   1.260  0.00  0.00     0.124 A 
ATOM      2  C1  UNL d   1       2.276  -0.384   1.853  0.00  0.00     0.062 A 
ATOM      3  C2  UNL d   1       1.236  -1.276   1.612  0.00  0.00     0.162 A 
ATOM      4  C3  UNL d   1       0.182  -0.918   0.771  0.00  0.00    -0.034 A 
ATOM      5  C4  UNL d   1       0.185   0.346   0.178  0.00  0.00     0.162 A 
ATOM      6  C5  UNL d   1       1.227   1.234   0.423  0.00  0.00     0.062 A 
ATOM      7  F   UNL d   1       1.222   2.446  -0.152  0.00  0.00    -0.097 F 
ATOM      8  F1  UNL d   1      -0.813   0.724  -0.635  0.00  0.00    -0.096 F 
ATOM      9  I   UNL d   1      -1.376  -2.248   0.407  0.00  0.00    -0.060 I 
ATOM     10  F2  UNL d   1       1.266  -2.482   2.199  0.00  0.00    -0.096 F 
ATOM     11  F3  UNL d   1       3.285  -0.738   2.663  0.00  0.00    -0.097 F 
ATOM     12  F4  UNL d   1       3.275   1.727   1.495  0.00  0.00    -0.092 F 
ENDROOT
TORSDOF 0
ENDMDL
