MODEL 1
REMARK minimizedAffinity 12.6609058
REMARK minimizedRMSD -1
REMARK  0 active torsions:
REMARK  status: ('A' for Active; 'I' for Inactive)
ROOT
ATOM      1  C   UNL d   1      -3.623   2.551  -1.832  0.00  0.00     0.023 A 
ATOM      2  C1  UNL d   1      -3.059   2.586  -0.556  0.00  0.00     0.003 A 
ATOM      3  C2  UNL d   1      -1.676   2.705  -0.407  0.00  0.00     0.048 A 
ATOM      4  C3  UNL d   1      -0.863   2.790  -1.537  0.00  0.00     0.023 A 
ATOM      5  C4  UNL d   1      -1.423   2.756  -2.815  0.00  0.00     0.048 A 
ATOM      6  C5  UNL d   1      -2.807   2.636  -2.959  0.00  0.00     0.003 A 
ATOM      7  I   UNL d   1       1.196   2.967  -1.317  0.00  0.00    -0.146 I 
ENDROOT
TORSDOF 0
ENDMDL
