MODEL 1
REMARK minimizedAffinity 13.8698082
REMARK minimizedRMSD -1
REMARK  0 active torsions:
REMARK  status: ('A' for Active; 'I' for Inactive)
ROOT
ATOM      1  C   UNL d   1      -1.144  -2.152   3.851  0.00  0.00     0.023 A 
ATOM      2  C1  UNL d   1      -0.764  -0.880   4.277  0.00  0.00     0.003 A 
ATOM      3  C2  UNL d   1       0.159  -0.140   3.535  0.00  0.00     0.048 A 
ATOM      4  C3  UNL d   1       0.697  -0.679   2.366  0.00  0.00     0.023 A 
ATOM      5  C4  UNL d   1       0.318  -1.951   1.935  0.00  0.00     0.048 A 
ATOM      6  C5  UNL d   1      -0.604  -2.687   2.681  0.00  0.00     0.003 A 
ATOM      7  I   UNL d   1       2.070   0.421   1.260  0.00  0.00    -0.146 I 
ENDROOT
TORSDOF 0
ENDMDL
