MODEL 1
REMARK minimizedAffinity 10.0098333
REMARK minimizedRMSD -1
REMARK  0 active torsions:
REMARK  status: ('A' for Active; 'I' for Inactive)
ROOT
ATOM      1  C   UNL d   1       5.083  -4.667  -6.000  0.00  0.00     0.023 A 
ATOM      2  C1  UNL d   1       4.474  -3.516  -5.501  0.00  0.00     0.003 A 
ATOM      3  C2  UNL d   1       3.243  -3.603  -4.847  0.00  0.00     0.048 A 
ATOM      4  C3  UNL d   1       2.627  -4.845  -4.695  0.00  0.00     0.023 A 
ATOM      5  C4  UNL d   1       3.234  -6.000  -5.192  0.00  0.00     0.048 A 
ATOM      6  C5  UNL d   1       4.464  -5.907  -5.846  0.00  0.00     0.003 A 
ATOM      7  I   UNL d   1       0.795  -4.978  -3.722  0.00  0.00    -0.146 I 
ENDROOT
TORSDOF 0
ENDMDL
