MODEL 1
REMARK minimizedAffinity 4.88000488
REMARK minimizedRMSD -1
REMARK  0 active torsions:
REMARK  status: ('A' for Active; 'I' for Inactive)
ROOT
ATOM      1  C   UNL d   1      -0.231  -5.132  -4.427  0.00  0.00     0.023 A 
ATOM      2  C1  UNL d   1       0.104  -5.940  -5.513  0.00  0.00     0.003 A 
ATOM      3  C2  UNL d   1       1.424  -5.991  -5.966  0.00  0.00     0.048 A 
ATOM      4  C3  UNL d   1       2.404  -5.233  -5.327  0.00  0.00     0.023 A 
ATOM      5  C4  UNL d   1       2.074  -4.424  -4.239  0.00  0.00     0.048 A 
ATOM      6  C5  UNL d   1       0.752  -4.374  -3.791  0.00  0.00     0.003 A 
ATOM      7  I   UNL d   1       4.369  -5.308  -5.999  0.00  0.00    -0.146 I 
ENDROOT
TORSDOF 0
ENDMDL
