MODEL 1
REMARK minimizedAffinity 3.17940831
REMARK minimizedRMSD -1
REMARK  0 active torsions:
REMARK  status: ('A' for Active; 'I' for Inactive)
ROOT
ATOM      1  C   UNL d   1      -1.271  -2.051   5.409  0.00  0.00     0.023 A 
ATOM      2  C1  UNL d   1      -1.429  -2.807   4.248  0.00  0.00     0.003 A 
ATOM      3  C2  UNL d   1      -0.619  -2.562   3.138  0.00  0.00     0.048 A 
ATOM      4  C3  UNL d   1       0.349  -1.559   3.196  0.00  0.00     0.023 A 
ATOM      5  C4  UNL d   1       0.512  -0.801   4.356  0.00  0.00     0.048 A 
ATOM      6  C5  UNL d   1      -0.302  -1.049   5.464  0.00  0.00     0.003 A 
ATOM      7  I   UNL d   1       1.557  -1.192   1.545  0.00  0.00    -0.146 I 
ENDROOT
TORSDOF 0
ENDMDL
