MODEL 1
REMARK minimizedAffinity 12.0568209
REMARK minimizedRMSD -1
REMARK  0 active torsions:
REMARK  status: ('A' for Active; 'I' for Inactive)
ROOT
ATOM      1  C   UNL d   1      -3.275  -2.575   3.520  0.00  0.00     0.023 A 
ATOM      2  C1  UNL d   1      -2.327  -3.576   3.308  0.00  0.00     0.003 A 
ATOM      3  C2  UNL d   1      -2.452  -4.438   2.216  0.00  0.00     0.048 A 
ATOM      4  C3  UNL d   1      -3.527  -4.292   1.340  0.00  0.00     0.023 A 
ATOM      5  C4  UNL d   1      -4.477  -3.292   1.548  0.00  0.00     0.048 A 
ATOM      6  C5  UNL d   1      -4.349  -2.433   2.641  0.00  0.00     0.003 A 
ATOM      7  I   UNL d   1      -3.714  -5.573  -0.286  0.00  0.00    -0.146 I 
ENDROOT
TORSDOF 0
ENDMDL
