MODEL 1
REMARK minimizedAffinity 13.5446262
REMARK minimizedRMSD -1
REMARK  0 active torsions:
REMARK  status: ('A' for Active; 'I' for Inactive)
ROOT
ATOM      1  C   UNL d   1       3.326  -3.098  -0.181  0.00  0.00     0.023 A 
ATOM      2  C1  UNL d   1       2.141  -3.676   0.275  0.00  0.00     0.003 A 
ATOM      3  C2  UNL d   1       1.329  -2.986   1.177  0.00  0.00     0.048 A 
ATOM      4  C3  UNL d   1       1.707  -1.719   1.619  0.00  0.00     0.023 A 
ATOM      5  C4  UNL d   1       2.891  -1.136   1.165  0.00  0.00     0.048 A 
ATOM      6  C5  UNL d   1       3.701  -1.829   0.263  0.00  0.00     0.003 A 
ATOM      7  I   UNL d   1       0.499  -0.690   2.962  0.00  0.00    -0.146 I 
ENDROOT
TORSDOF 0
ENDMDL
