MODEL 1
REMARK minimizedAffinity 12.7962227
REMARK minimizedRMSD -1
REMARK  0 active torsions:
REMARK  status: ('A' for Active; 'I' for Inactive)
ROOT
ATOM      1  C   UNL d   1       4.167  -0.547  -1.873  0.00  0.00     0.023 A 
ATOM      2  C1  UNL d   1       5.474  -1.035  -1.900  0.00  0.00     0.003 A 
ATOM      3  C2  UNL d   1       6.000  -1.561  -3.081  0.00  0.00     0.048 A 
ATOM      4  C3  UNL d   1       5.214  -1.596  -4.233  0.00  0.00     0.023 A 
ATOM      5  C4  UNL d   1       3.906  -1.109  -4.211  0.00  0.00     0.048 A 
ATOM      6  C5  UNL d   1       3.384  -0.584  -3.027  0.00  0.00     0.003 A 
ATOM      7  I   UNL d   1       5.995  -2.379  -5.993  0.00  0.00    -0.146 I 
ENDROOT
TORSDOF 0
ENDMDL
