MODEL 1
REMARK minimizedAffinity 8.97715187
REMARK minimizedRMSD -1
REMARK  0 active torsions:
REMARK  status: ('A' for Active; 'I' for Inactive)
ROOT
ATOM      1  C   UNL d   1       4.704  -1.065  -2.611  0.00  0.00     0.023 A 
ATOM      2  C1  UNL d   1       4.146  -0.997  -3.888  0.00  0.00     0.003 A 
ATOM      3  C2  UNL d   1       4.514  -1.928  -4.862  0.00  0.00     0.048 A 
ATOM      4  C3  UNL d   1       5.438  -2.924  -4.552  0.00  0.00     0.023 A 
ATOM      5  C4  UNL d   1       5.998  -2.997  -3.275  0.00  0.00     0.048 A 
ATOM      6  C5  UNL d   1       5.628  -2.063  -2.305  0.00  0.00     0.003 A 
ATOM      7  I   UNL d   1       5.987  -4.311  -6.000  0.00  0.00    -0.146 I 
ENDROOT
TORSDOF 0
ENDMDL
