MODEL 1
REMARK minimizedAffinity 14.1388683
REMARK minimizedRMSD -1
REMARK  0 active torsions:
REMARK  status: ('A' for Active; 'I' for Inactive)
ROOT
ATOM      1  C   UNL d   1      -3.344   4.085  -5.496  0.00  0.00     0.023 A 
ATOM      2  C1  UNL d   1      -2.018   4.509  -5.580  0.00  0.00     0.003 A 
ATOM      3  C2  UNL d   1      -1.132   4.249  -4.533  0.00  0.00     0.048 A 
ATOM      4  C3  UNL d   1      -1.579   3.563  -3.404  0.00  0.00     0.023 A 
ATOM      5  C4  UNL d   1      -2.905   3.136  -3.315  0.00  0.00     0.048 A 
ATOM      6  C5  UNL d   1      -3.787   3.399  -4.365  0.00  0.00     0.003 A 
ATOM      7  I   UNL d   1      -0.262   3.174  -1.844  0.00  0.00    -0.146 I 
ENDROOT
TORSDOF 0
ENDMDL
