MODEL 1
REMARK minimizedAffinity 14.3244371
REMARK minimizedRMSD -1
REMARK  0 active torsions:
REMARK  status: ('A' for Active; 'I' for Inactive)
ROOT
ATOM      1  C   UNL d   1       3.133   0.088   2.327  0.00  0.00     0.023 A 
ATOM      2  C1  UNL d   1       3.373   1.259   1.607  0.00  0.00     0.003 A 
ATOM      3  C2  UNL d   1       3.706   1.190   0.252  0.00  0.00     0.048 A 
ATOM      4  C3  UNL d   1       3.795  -0.051  -0.376  0.00  0.00     0.023 A 
ATOM      5  C4  UNL d   1       3.554  -1.225   0.340  0.00  0.00     0.048 A 
ATOM      6  C5  UNL d   1       3.223  -1.152   1.695  0.00  0.00     0.003 A 
ATOM      7  I   UNL d   1       4.290  -0.156  -2.392  0.00  0.00    -0.146 I 
ENDROOT
TORSDOF 0
ENDMDL
