MODEL 1
REMARK minimizedAffinity 10.1646385
REMARK minimizedRMSD -1
REMARK  0 active torsions:
REMARK  status: ('A' for Active; 'I' for Inactive)
ROOT
ATOM      1  C   UNL d   1       0.199   4.938  -0.596  0.00  0.00     0.023 A 
ATOM      2  C1  UNL d   1       0.126   3.652  -1.131  0.00  0.00     0.003 A 
ATOM      3  C2  UNL d   1       0.913   2.628  -0.599  0.00  0.00     0.048 A 
ATOM      4  C3  UNL d   1       1.769   2.897   0.468  0.00  0.00     0.023 A 
ATOM      5  C4  UNL d   1       1.844   4.183   1.007  0.00  0.00     0.048 A 
ATOM      6  C5  UNL d   1       1.057   5.203   0.471  0.00  0.00     0.003 A 
ATOM      7  I   UNL d   1       2.940   1.375   1.262  0.00  0.00    -0.146 I 
ENDROOT
TORSDOF 0
ENDMDL
