MODEL 1
REMARK minimizedAffinity 8.95133495
REMARK minimizedRMSD -1
REMARK  0 active torsions:
REMARK  status: ('A' for Active; 'I' for Inactive)
ROOT
ATOM      1  C   UNL d   1      -1.551   1.315  -1.352  0.00  0.00    -0.002 A 
ATOM      2  C1  UNL d   1      -0.408   1.823  -0.751  0.00  0.00     0.010 A 
ATOM      3  C2  UNL d   1       0.275   1.083   0.216  0.00  0.00     0.041 A 
ATOM      4  C3  UNL d   1      -0.213  -0.190   0.570  0.00  0.00    -0.075 A 
ATOM      5  S   UNL d   1       0.459  -1.276   1.728  0.00  0.00     0.015 SA
ATOM      6  C4  UNL d   1      -0.754  -2.441   1.451  0.00  0.00     0.022 A 
ATOM      7  C5  UNL d   1      -1.658  -2.028   0.502  0.00  0.00     0.026 A 
ATOM      8  C6  UNL d   1      -1.361  -0.724  -0.022  0.00  0.00    -0.082 A 
ATOM      9  C7  UNL d   1      -2.032   0.052  -0.998  0.00  0.00     0.045 A 
ENDROOT
TORSDOF 0
ENDMDL
