MODEL 1
REMARK minimizedAffinity 4.42973852
REMARK minimizedRMSD -1
REMARK  0 active torsions:
REMARK  status: ('A' for Active; 'I' for Inactive)
ROOT
ATOM      1  C   UNL d   1       1.442  -2.693   5.999  0.00  0.00    -0.002 A 
ATOM      2  C1  UNL d   1       2.292  -3.745   5.688  0.00  0.00     0.010 A 
ATOM      3  C2  UNL d   1       2.768  -3.913   4.387  0.00  0.00     0.041 A 
ATOM      4  C3  UNL d   1       2.374  -2.995   3.393  0.00  0.00    -0.075 A 
ATOM      5  S   UNL d   1       2.833  -3.002   1.731  0.00  0.00     0.015 SA
ATOM      6  C4  UNL d   1       1.913  -1.607   1.394  0.00  0.00     0.022 A 
ATOM      7  C5  UNL d   1       1.265  -1.135   2.511  0.00  0.00     0.026 A 
ATOM      8  C6  UNL d   1       1.521  -1.927   3.681  0.00  0.00    -0.082 A 
ATOM      9  C7  UNL d   1       1.054  -1.784   5.010  0.00  0.00     0.045 A 
ENDROOT
TORSDOF 0
ENDMDL
