MODEL 1
REMARK minimizedAffinity 11.5030699
REMARK minimizedRMSD -1
REMARK  0 active torsions:
REMARK  status: ('A' for Active; 'I' for Inactive)
ROOT
ATOM      1  C   UNL d   1       1.941  -3.388   5.927  0.00  0.00    -0.002 A 
ATOM      2  C1  UNL d   1       1.150  -2.250   5.999  0.00  0.00     0.010 A 
ATOM      3  C2  UNL d   1       0.871  -1.505   4.852  0.00  0.00     0.041 A 
ATOM      4  C3  UNL d   1       1.406  -1.927   3.619  0.00  0.00    -0.075 A 
ATOM      5  S   UNL d   1       1.197  -1.172   2.083  0.00  0.00     0.015 SA
ATOM      6  C4  UNL d   1       2.153  -2.342   1.294  0.00  0.00     0.022 A 
ATOM      7  C5  UNL d   1       2.628  -3.293   2.167  0.00  0.00     0.026 A 
ATOM      8  C6  UNL d   1       2.204  -3.069   3.520  0.00  0.00    -0.082 A 
ATOM      9  C7  UNL d   1       2.469  -3.803   4.702  0.00  0.00     0.045 A 
ENDROOT
TORSDOF 0
ENDMDL
