MODEL 1
REMARK minimizedAffinity 14.6745005
REMARK minimizedRMSD -1
REMARK  0 active torsions:
REMARK  status: ('A' for Active; 'I' for Inactive)
ROOT
ATOM      1  C   UNL d   1       1.097  -2.117   1.503  0.00  0.00    -0.002 A 
ATOM      2  C1  UNL d   1       1.459  -3.322   2.088  0.00  0.00     0.010 A 
ATOM      3  C2  UNL d   1       1.506  -3.452   3.478  0.00  0.00     0.041 A 
ATOM      4  C3  UNL d   1       1.178  -2.339   4.277  0.00  0.00    -0.075 A 
ATOM      5  S   UNL d   1       1.165  -2.265   6.000  0.00  0.00     0.015 SA
ATOM      6  C4  UNL d   1       0.678  -0.632   6.000  0.00  0.00     0.022 A 
ATOM      7  C5  UNL d   1       0.525  -0.139   4.726  0.00  0.00     0.026 A 
ATOM      8  C6  UNL d   1       0.810  -1.115   3.712  0.00  0.00    -0.082 A 
ATOM      9  C7  UNL d   1       0.773  -1.016   2.300  0.00  0.00     0.045 A 
ENDROOT
TORSDOF 0
ENDMDL
