MODEL 1
REMARK minimizedAffinity 16.3167191
REMARK minimizedRMSD -1
REMARK  0 active torsions:
REMARK  status: ('A' for Active; 'I' for Inactive)
ROOT
ATOM      1  C   UNL d   1       1.833  -2.877   1.284  0.00  0.00    -0.002 A 
ATOM      2  C1  UNL d   1       1.442  -1.545   1.301  0.00  0.00     0.010 A 
ATOM      3  C2  UNL d   1       1.144  -0.908   2.507  0.00  0.00     0.041 A 
ATOM      4  C3  UNL d   1       1.249  -1.639   3.708  0.00  0.00    -0.075 A 
ATOM      5  S   UNL d   1       0.935  -1.066   5.303  0.00  0.00     0.015 SA
ATOM      6  C4  UNL d   1       1.314  -2.575   6.000  0.00  0.00     0.022 A 
ATOM      7  C5  UNL d   1       1.673  -3.504   5.052  0.00  0.00     0.026 A 
ATOM      8  C6  UNL d   1       1.642  -2.980   3.716  0.00  0.00    -0.082 A 
ATOM      9  C7  UNL d   1       1.936  -3.598   2.476  0.00  0.00     0.045 A 
ENDROOT
TORSDOF 0
ENDMDL
