MODEL 1
REMARK minimizedAffinity 13.2390814
REMARK minimizedRMSD -1
REMARK  0 active torsions:
REMARK  status: ('A' for Active; 'I' for Inactive)
ROOT
ATOM      1  C   UNL d   1       2.045  -3.814   2.154  0.00  0.00    -0.002 A 
ATOM      2  C1  UNL d   1       1.608  -2.561   2.559  0.00  0.00     0.010 A 
ATOM      3  C2  UNL d   1       0.318  -2.125   2.250  0.00  0.00     0.041 A 
ATOM      4  C3  UNL d   1      -0.534  -2.978   1.522  0.00  0.00    -0.075 A 
ATOM      5  S   UNL d   1      -2.155  -2.656   1.031  0.00  0.00     0.015 SA
ATOM      6  C4  UNL d   1      -2.306  -4.175   0.272  0.00  0.00     0.022 A 
ATOM      7  C5  UNL d   1      -1.157  -4.922   0.381  0.00  0.00     0.026 A 
ATOM      8  C6  UNL d   1      -0.117  -4.245   1.104  0.00  0.00    -0.082 A 
ATOM      9  C7  UNL d   1       1.197  -4.658   1.432  0.00  0.00     0.045 A 
ENDROOT
TORSDOF 0
ENDMDL
