MODEL 1
REMARK minimizedAffinity 12.0531807
REMARK minimizedRMSD -1
REMARK  0 active torsions:
REMARK  status: ('A' for Active; 'I' for Inactive)
ROOT
ATOM      1  C   UNL d   1      -1.639  -5.476  -0.249  0.00  0.00    -0.002 A 
ATOM      2  C1  UNL d   1      -0.367  -6.000  -0.432  0.00  0.00     0.010 A 
ATOM      3  C2  UNL d   1       0.756  -5.324   0.050  0.00  0.00     0.041 A 
ATOM      4  C3  UNL d   1       0.576  -4.103   0.728  0.00  0.00    -0.075 A 
ATOM      5  S   UNL d   1       1.805  -3.101   1.407  0.00  0.00     0.015 SA
ATOM      6  C4  UNL d   1       0.670  -1.954   1.957  0.00  0.00     0.022 A 
ATOM      7  C5  UNL d   1      -0.619  -2.311   1.639  0.00  0.00     0.026 A 
ATOM      8  C6  UNL d   1      -0.694  -3.556   0.927  0.00  0.00    -0.082 A 
ATOM      9  C7  UNL d   1      -1.813  -4.264   0.425  0.00  0.00     0.045 A 
ENDROOT
TORSDOF 0
ENDMDL
