MODEL 1
REMARK minimizedAffinity 11.9462557
REMARK minimizedRMSD -1
REMARK  0 active torsions:
REMARK  status: ('A' for Active; 'I' for Inactive)
ROOT
ATOM      1  C   UNL d   1       2.019  -3.369   5.400  0.00  0.00    -0.002 A 
ATOM      2  C1  UNL d   1       1.217  -2.258   5.617  0.00  0.00     0.010 A 
ATOM      3  C2  UNL d   1       0.863  -1.419   4.558  0.00  0.00     0.041 A 
ATOM      4  C3  UNL d   1       1.332  -1.721   3.264  0.00  0.00    -0.075 A 
ATOM      5  S   UNL d   1       1.026  -0.838   1.815  0.00  0.00     0.015 SA
ATOM      6  C4  UNL d   1       1.952  -1.915   0.874  0.00  0.00     0.022 A 
ATOM      7  C5  UNL d   1       2.489  -2.930   1.630  0.00  0.00     0.026 A 
ATOM      8  C6  UNL d   1       2.140  -2.835   3.020  0.00  0.00    -0.082 A 
ATOM      9  C7  UNL d   1       2.482  -3.665   4.115  0.00  0.00     0.045 A 
ENDROOT
TORSDOF 0
ENDMDL
