MODEL 1
REMARK minimizedAffinity 1.61036181
REMARK minimizedRMSD -1
REMARK  3 active torsions:
REMARK  status: ('A' for Active; 'I' for Inactive)
REMARK    1  A    between atoms: C3'_2  and  C2'_3 
REMARK    2  A    between atoms: C2'_3  and  C1'_4 
REMARK    3  A    between atoms: C1'_4  and  C1_5 
ROOT
ATOM      1  C1  N4B d   1       1.052  -1.180   1.114  0.00  0.00    -0.075 A 
ATOM      2  C2  N4B d   1       0.332  -2.332   0.730  0.00  0.00     0.002 A 
ATOM      3  C3  N4B d   1      -0.368  -2.342  -0.451  0.00  0.00     0.002 A 
ATOM      4  C4  N4B d   1      -0.380  -1.210  -1.251  0.00  0.00    -0.004 A 
ATOM      5  C5  N4B d   1       0.338  -0.109  -0.885  0.00  0.00     0.002 A 
ATOM      6  C6  N4B d   1       1.051  -0.087   0.297  0.00  0.00     0.002 A 
ENDROOT
BRANCH   1   7
ATOM      7  C1' N4B d   1       1.763  -1.091   2.437  0.00  0.00     0.057 C 
BRANCH   7   8
ATOM      8  C2' N4B d   1       3.223  -1.493   2.249  0.00  0.00     0.009 C 
BRANCH   8   9
ATOM      9  C3' N4B d   1       4.098  -1.004   3.390  0.00  0.00     0.004 C 
ATOM     10  C4' N4B d   1       5.492  -0.668   2.950  0.00  0.00     0.003 C 
ENDBRANCH   8   9
ENDBRANCH   7   8
ENDBRANCH   1   7
TORSDOF 3
ENDMDL
