MODEL 1
REMARK minimizedAffinity -4.74331379
REMARK minimizedRMSD -1
REMARK  3 active torsions:
REMARK  status: ('A' for Active; 'I' for Inactive)
REMARK    1  A    between atoms: C3'_2  and  C2'_3 
REMARK    2  A    between atoms: C2'_3  and  C1'_4 
REMARK    3  A    between atoms: C1'_4  and  C1_5 
ROOT
ATOM      1  C1  N4B d   1      -1.639  -5.774  -3.740  0.00  0.00    -0.075 A 
ATOM      2  C2  N4B d   1      -2.059  -5.310  -5.005  0.00  0.00     0.002 A 
ATOM      3  C3  N4B d   1      -1.134  -5.076  -5.993  0.00  0.00     0.002 A 
ATOM      4  C4  N4B d   1       0.213  -5.281  -5.733  0.00  0.00    -0.004 A 
ATOM      5  C5  N4B d   1       0.609  -5.754  -4.516  0.00  0.00     0.002 A 
ATOM      6  C6  N4B d   1      -0.311  -5.997  -3.516  0.00  0.00     0.002 A 
ENDROOT
BRANCH   1   7
ATOM      7  C1' N4B d   1      -2.604  -5.962  -2.602  0.00  0.00     0.057 C 
BRANCH   7   8
ATOM      8  C2' N4B d   1      -1.831  -5.987  -1.287  0.00  0.00     0.009 C 
BRANCH   8   9
ATOM      9  C3' N4B d   1      -2.754  -5.912  -0.083  0.00  0.00     0.004 C 
ATOM     10  C4' N4B d   1      -2.728  -4.570   0.586  0.00  0.00     0.003 C 
ENDBRANCH   8   9
ENDBRANCH   7   8
ENDBRANCH   1   7
TORSDOF 3
ENDMDL
