MODEL 1
REMARK minimizedAffinity 3.14384723
REMARK minimizedRMSD -1
REMARK  3 active torsions:
REMARK  status: ('A' for Active; 'I' for Inactive)
REMARK    1  A    between atoms: C3'_2  and  C2'_3 
REMARK    2  A    between atoms: C2'_3  and  C1'_4 
REMARK    3  A    between atoms: C1'_4  and  C1_5 
ROOT
ATOM      1  C1  N4B d   1      -4.717  -5.318   0.687  0.00  0.00    -0.075 A 
ATOM      2  C2  N4B d   1      -5.074  -5.317   2.054  0.00  0.00     0.002 A 
ATOM      3  C3  N4B d   1      -4.228  -4.764   2.984  0.00  0.00     0.002 A 
ATOM      4  C4  N4B d   1      -3.017  -4.227   2.576  0.00  0.00    -0.004 A 
ATOM      5  C5  N4B d   1      -2.690  -4.210   1.251  0.00  0.00     0.002 A 
ATOM      6  C6  N4B d   1      -3.533  -4.758   0.305  0.00  0.00     0.002 A 
ENDROOT
BRANCH   1   7
ATOM      7  C1' N4B d   1      -5.570  -5.987  -0.356  0.00  0.00     0.057 C 
BRANCH   7   8
ATOM      8  C2' N4B d   1      -4.821  -5.995  -1.685  0.00  0.00     0.009 C 
BRANCH   8   9
ATOM      9  C3' N4B d   1      -5.442  -5.044  -2.693  0.00  0.00     0.004 C 
ATOM     10  C4' N4B d   1      -4.552  -3.883  -3.021  0.00  0.00     0.003 C 
ENDBRANCH   8   9
ENDBRANCH   7   8
ENDBRANCH   1   7
TORSDOF 3
ENDMDL
