MODEL 1
REMARK minimizedAffinity -3.05567765
REMARK minimizedRMSD -1
REMARK  3 active torsions:
REMARK  status: ('A' for Active; 'I' for Inactive)
REMARK    1  A    between atoms: C3'_2  and  C2'_3 
REMARK    2  A    between atoms: C2'_3  and  C1'_4 
REMARK    3  A    between atoms: C1'_4  and  C1_5 
ROOT
ATOM      1  C1  N4B d   1       1.484  -2.633   3.301  0.00  0.00    -0.075 A 
ATOM      2  C2  N4B d   1       2.018  -3.758   2.636  0.00  0.00     0.002 A 
ATOM      3  C3  N4B d   1       2.008  -4.987   3.250  0.00  0.00     0.002 A 
ATOM      4  C4  N4B d   1       1.491  -5.110   4.530  0.00  0.00    -0.004 A 
ATOM      5  C5  N4B d   1       0.954  -4.023   5.156  0.00  0.00     0.002 A 
ATOM      6  C6  N4B d   1       0.953  -2.783   4.550  0.00  0.00     0.002 A 
ENDROOT
BRANCH   1   7
ATOM      7  C1' N4B d   1       1.549  -1.253   2.705  0.00  0.00     0.057 C 
BRANCH   7   8
ATOM      8  C2' N4B d   1       2.971  -0.983   2.222  0.00  0.00     0.009 C 
BRANCH   8   9
ATOM      9  C3' N4B d   1       3.936  -0.784   3.378  0.00  0.00     0.004 C 
ATOM     10  C4' N4B d   1       5.351  -0.581   2.926  0.00  0.00     0.003 C 
ENDBRANCH   8   9
ENDBRANCH   7   8
ENDBRANCH   1   7
TORSDOF 3
ENDMDL
