MODEL 1
REMARK minimizedAffinity -2.88810706
REMARK minimizedRMSD -1
REMARK  3 active torsions:
REMARK  status: ('A' for Active; 'I' for Inactive)
REMARK    1  A    between atoms: C3'_2  and  C2'_3 
REMARK    2  A    between atoms: C2'_3  and  C1'_4 
REMARK    3  A    between atoms: C1'_4  and  C1_5 
ROOT
ATOM      1  C1  N4B d   1      -0.786  -5.904  -3.376  0.00  0.00    -0.075 A 
ATOM      2  C2  N4B d   1      -1.287  -5.940  -4.695  0.00  0.00     0.002 A 
ATOM      3  C3  N4B d   1      -0.419  -5.997  -5.758  0.00  0.00     0.002 A 
ATOM      4  C4  N4B d   1       0.948  -6.000  -5.527  0.00  0.00    -0.004 A 
ATOM      5  C5  N4B d   1       1.424  -5.991  -4.249  0.00  0.00     0.002 A 
ATOM      6  C6  N4B d   1       0.563  -5.937  -3.171  0.00  0.00     0.002 A 
ENDROOT
BRANCH   1   7
ATOM      7  C1' N4B d   1      -1.693  -5.755  -2.185  0.00  0.00     0.057 C 
BRANCH   7   8
ATOM      8  C2' N4B d   1      -3.135  -5.997  -2.621  0.00  0.00     0.009 C 
BRANCH   8   9
ATOM      9  C3' N4B d   1      -4.130  -5.589  -1.548  0.00  0.00     0.004 C 
ATOM     10  C4' N4B d   1      -3.698  -5.996  -0.171  0.00  0.00     0.003 C 
ENDBRANCH   8   9
ENDBRANCH   7   8
ENDBRANCH   1   7
TORSDOF 3
ENDMDL
