MODEL 1
REMARK minimizedAffinity -2.06491208
REMARK minimizedRMSD -1
REMARK  3 active torsions:
REMARK  status: ('A' for Active; 'I' for Inactive)
REMARK    1  A    between atoms: C3'_2  and  C2'_3 
REMARK    2  A    between atoms: C2'_3  and  C1'_4 
REMARK    3  A    between atoms: C1'_4  and  C1_5 
ROOT
ATOM      1  C1  N4B d   1      -1.436  -5.981  -3.853  0.00  0.00    -0.075 A 
ATOM      2  C2  N4B d   1      -1.224  -5.999  -5.249  0.00  0.00     0.002 A 
ATOM      3  C3  N4B d   1       0.052  -5.914  -5.750  0.00  0.00     0.002 A 
ATOM      4  C4  N4B d   1       1.124  -5.790  -4.879  0.00  0.00    -0.004 A 
ATOM      5  C5  N4B d   1       0.912  -5.799  -3.531  0.00  0.00     0.002 A 
ATOM      6  C6  N4B d   1      -0.364  -5.888  -3.013  0.00  0.00     0.002 A 
ENDROOT
BRANCH   1   7
ATOM      7  C1' N4B d   1      -2.819  -5.986  -3.260  0.00  0.00     0.057 C 
BRANCH   7   8
ATOM      8  C2' N4B d   1      -2.711  -5.981  -1.738  0.00  0.00     0.009 C 
BRANCH   8   9
ATOM      9  C3' N4B d   1      -4.076  -5.998  -1.072  0.00  0.00     0.004 C 
ATOM     10  C4' N4B d   1      -5.204  -5.882  -2.054  0.00  0.00     0.003 C 
ENDBRANCH   8   9
ENDBRANCH   7   8
ENDBRANCH   1   7
TORSDOF 3
ENDMDL
