MODEL 1
REMARK minimizedAffinity -4.8045907
REMARK minimizedRMSD -1
REMARK  3 active torsions:
REMARK  status: ('A' for Active; 'I' for Inactive)
REMARK    1  A    between atoms: C3'_2  and  C2'_3 
REMARK    2  A    between atoms: C2'_3  and  C1'_4 
REMARK    3  A    between atoms: C1'_4  and  C1_5 
ROOT
ATOM      1  C1  N4B d   1       1.535  -3.382   4.205  0.00  0.00    -0.075 A 
ATOM      2  C2  N4B d   1       0.817  -3.439   2.990  0.00  0.00     0.002 A 
ATOM      3  C3  N4B d   1       1.098  -2.548   1.983  0.00  0.00     0.002 A 
ATOM      4  C4  N4B d   1       2.075  -1.583   2.175  0.00  0.00    -0.004 A 
ATOM      5  C5  N4B d   1       2.782  -1.551   3.341  0.00  0.00     0.002 A 
ATOM      6  C6  N4B d   1       2.513  -2.443   4.360  0.00  0.00     0.002 A 
ENDROOT
BRANCH   1   7
ATOM      7  C1' N4B d   1       1.204  -4.279   5.366  0.00  0.00     0.057 C 
BRANCH   7   8
ATOM      8  C2' N4B d   1       1.464  -5.729   4.968  0.00  0.00     0.009 C 
BRANCH   8   9
ATOM      9  C3' N4B d   1       2.940  -5.998   4.732  0.00  0.00     0.004 C 
ATOM     10  C4' N4B d   1       3.745  -5.969   5.996  0.00  0.00     0.003 C 
ENDBRANCH   8   9
ENDBRANCH   7   8
ENDBRANCH   1   7
TORSDOF 3
ENDMDL
