MODEL 1
REMARK minimizedAffinity 0.264537096
REMARK minimizedRMSD -1
REMARK  3 active torsions:
REMARK  status: ('A' for Active; 'I' for Inactive)
REMARK    1  A    between atoms: C3'_2  and  C2'_3 
REMARK    2  A    between atoms: C2'_3  and  C1'_4 
REMARK    3  A    between atoms: C1'_4  and  C1_5 
ROOT
ATOM      1  C1  N4B d   1       2.104  -2.145   3.749  0.00  0.00    -0.075 A 
ATOM      2  C2  N4B d   1       0.743  -1.922   3.441  0.00  0.00     0.002 A 
ATOM      3  C3  N4B d   1       0.385  -1.484   2.190  0.00  0.00     0.002 A 
ATOM      4  C4  N4B d   1       1.367  -1.243   1.240  0.00  0.00    -0.004 A 
ATOM      5  C5  N4B d   1       2.676  -1.484   1.537  0.00  0.00     0.002 A 
ATOM      6  C6  N4B d   1       3.050  -1.929   2.789  0.00  0.00     0.002 A 
ENDROOT
BRANCH   1   7
ATOM      7  C1' N4B d   1       2.551  -2.542   5.129  0.00  0.00     0.057 C 
BRANCH   7   8
ATOM      8  C2' N4B d   1       1.944  -3.897   5.481  0.00  0.00     0.009 C 
BRANCH   8   9
ATOM      9  C3' N4B d   1       2.989  -4.870   6.000  0.00  0.00     0.004 C 
ATOM     10  C4' N4B d   1       3.253  -6.000   5.050  0.00  0.00     0.003 C 
ENDBRANCH   8   9
ENDBRANCH   7   8
ENDBRANCH   1   7
TORSDOF 3
ENDMDL
