MODEL 1
REMARK minimizedAffinity -3.45157576
REMARK minimizedRMSD -1
REMARK  3 active torsions:
REMARK  status: ('A' for Active; 'I' for Inactive)
REMARK    1  A    between atoms: C3'_2  and  C2'_3 
REMARK    2  A    between atoms: C2'_3  and  C1'_4 
REMARK    3  A    between atoms: C1'_4  and  C1_5 
ROOT
ATOM      1  C1  N4B d   1      -2.325  -5.786  -3.222  0.00  0.00    -0.075 A 
ATOM      2  C2  N4B d   1      -3.703  -5.953  -2.961  0.00  0.00     0.002 A 
ATOM      3  C3  N4B d   1      -4.156  -5.998  -1.666  0.00  0.00     0.002 A 
ATOM      4  C4  N4B d   1      -3.252  -5.899  -0.619  0.00  0.00    -0.004 A 
ATOM      5  C5  N4B d   1      -1.926  -5.713  -0.879  0.00  0.00     0.002 A 
ATOM      6  C6  N4B d   1      -1.457  -5.661  -2.176  0.00  0.00     0.002 A 
ENDROOT
BRANCH   1   7
ATOM      7  C1' N4B d   1      -1.772  -5.816  -4.620  0.00  0.00     0.057 C 
BRANCH   7   8
ATOM      8  C2' N4B d   1      -0.248  -5.876  -4.555  0.00  0.00     0.009 C 
BRANCH   8   9
ATOM      9  C3' N4B d   1       0.375  -5.997  -5.935  0.00  0.00     0.004 C 
ATOM     10  C4' N4B d   1       1.855  -5.754  -5.927  0.00  0.00     0.003 C 
ENDBRANCH   8   9
ENDBRANCH   7   8
ENDBRANCH   1   7
TORSDOF 3
ENDMDL
