MODEL 1
REMARK minimizedAffinity -2.40061855
REMARK minimizedRMSD -1
REMARK  3 active torsions:
REMARK  status: ('A' for Active; 'I' for Inactive)
REMARK    1  A    between atoms: C3'_2  and  C2'_3 
REMARK    2  A    between atoms: C2'_3  and  C1'_4 
REMARK    3  A    between atoms: C1'_4  and  C1_5 
ROOT
ATOM      1  C1  N4B d   1       2.004  -2.150   3.771  0.00  0.00    -0.075 A 
ATOM      2  C2  N4B d   1       0.823  -1.564   3.266  0.00  0.00     0.002 A 
ATOM      3  C3  N4B d   1       0.773  -1.133   1.963  0.00  0.00     0.002 A 
ATOM      4  C4  N4B d   1       1.893  -1.259   1.156  0.00  0.00    -0.004 A 
ATOM      5  C5  N4B d   1       3.022  -1.849   1.643  0.00  0.00     0.002 A 
ATOM      6  C6  N4B d   1       3.085  -2.291   2.949  0.00  0.00     0.002 A 
ENDROOT
BRANCH   1   7
ATOM      7  C1' N4B d   1       2.135  -2.559   5.213  0.00  0.00     0.057 C 
BRANCH   7   8
ATOM      8  C2' N4B d   1       1.643  -3.995   5.372  0.00  0.00     0.009 C 
BRANCH   8   9
ATOM      9  C3' N4B d   1       2.791  -4.969   5.572  0.00  0.00     0.004 C 
ATOM     10  C4' N4B d   1       2.878  -5.996   4.482  0.00  0.00     0.003 C 
ENDBRANCH   8   9
ENDBRANCH   7   8
ENDBRANCH   1   7
TORSDOF 3
ENDMDL
