MODEL 1
REMARK minimizedAffinity 5.11896992
REMARK minimizedRMSD -1
REMARK  3 active torsions:
REMARK  status: ('A' for Active; 'I' for Inactive)
REMARK    1  A    between atoms: C3'_2  and  C2'_3 
REMARK    2  A    between atoms: C2'_3  and  C1'_4 
REMARK    3  A    between atoms: C1'_4  and  C1_5 
ROOT
ATOM      1  C1  N4B d   1       2.755  -0.826   1.350  0.00  0.00    -0.075 A 
ATOM      2  C2  N4B d   1       4.091  -0.497   1.029  0.00  0.00     0.002 A 
ATOM      3  C3  N4B d   1       5.089  -0.708   1.948  0.00  0.00     0.002 A 
ATOM      4  C4  N4B d   1       4.775  -1.227   3.196  0.00  0.00    -0.004 A 
ATOM      5  C5  N4B d   1       3.487  -1.565   3.489  0.00  0.00     0.002 A 
ATOM      6  C6  N4B d   1       2.473  -1.362   2.573  0.00  0.00     0.002 A 
ENDROOT
BRANCH   1   7
ATOM      7  C1' N4B d   1       1.618  -0.533   0.411  0.00  0.00     0.057 C 
BRANCH   7   8
ATOM      8  C2' N4B d   1       0.379  -1.297   0.870  0.00  0.00     0.009 C 
BRANCH   8   9
ATOM      9  C3' N4B d   1       0.095  -2.502  -0.011  0.00  0.00     0.004 C 
ATOM     10  C4' N4B d   1      -1.122  -3.264   0.422  0.00  0.00     0.003 C 
ENDBRANCH   8   9
ENDBRANCH   7   8
ENDBRANCH   1   7
TORSDOF 3
ENDMDL
