MODEL 1
REMARK minimizedAffinity -3.4813273
REMARK minimizedRMSD -1
REMARK  3 active torsions:
REMARK  status: ('A' for Active; 'I' for Inactive)
REMARK    1  A    between atoms: C3'_2  and  C2'_3 
REMARK    2  A    between atoms: C2'_3  and  C1'_4 
REMARK    3  A    between atoms: C1'_4  and  C1_5 
ROOT
ATOM      1  C1  N4B d   1       0.029  -0.093   0.350  0.00  0.00    -0.075 A 
ATOM      2  C2  N4B d   1      -0.778   0.329   1.429  0.00  0.00     0.002 A 
ATOM      3  C3  N4B d   1      -0.495   1.505   2.080  0.00  0.00     0.002 A 
ATOM      4  C4  N4B d   1       0.596   2.263   1.682  0.00  0.00    -0.004 A 
ATOM      5  C5  N4B d   1       1.355   1.862   0.622  0.00  0.00     0.002 A 
ATOM      6  C6  N4B d   1       1.080   0.684  -0.044  0.00  0.00     0.002 A 
ENDROOT
BRANCH   1   7
ATOM      7  C1' N4B d   1      -0.189  -1.413  -0.337  0.00  0.00     0.057 C 
BRANCH   7   8
ATOM      8  C2' N4B d   1      -1.126  -1.212  -1.524  0.00  0.00     0.009 C 
BRANCH   8   9
ATOM      9  C3' N4B d   1      -2.206  -2.279  -1.584  0.00  0.00     0.004 C 
ATOM     10  C4' N4B d   1      -3.241  -2.000  -2.633  0.00  0.00     0.003 C 
ENDBRANCH   8   9
ENDBRANCH   7   8
ENDBRANCH   1   7
TORSDOF 3
ENDMDL
