MODEL 1
REMARK minimizedAffinity -5.10645723
REMARK minimizedRMSD -1
REMARK  3 active torsions:
REMARK  status: ('A' for Active; 'I' for Inactive)
REMARK    1  A    between atoms: C3'_2  and  C2'_3 
REMARK    2  A    between atoms: C2'_3  and  C1'_4 
REMARK    3  A    between atoms: C1'_4  and  C1_5 
ROOT
ATOM      1  C1  N4B d   1       0.632   0.379  -0.099  0.00  0.00    -0.075 A 
ATOM      2  C2  N4B d   1       1.328   1.509  -0.582  0.00  0.00     0.002 A 
ATOM      3  C3  N4B d   1       1.255   2.701   0.097  0.00  0.00     0.002 A 
ATOM      4  C4  N4B d   1       0.481   2.792   1.243  0.00  0.00    -0.004 A 
ATOM      5  C5  N4B d   1      -0.168   1.689   1.717  0.00  0.00     0.002 A 
ATOM      6  C6  N4B d   1      -0.100   0.483   1.048  0.00  0.00     0.002 A 
ENDROOT
BRANCH   1   7
ATOM      7  C1' N4B d   1       0.612  -0.923  -0.853  0.00  0.00     0.057 C 
BRANCH   7   8
ATOM      8  C2' N4B d   1      -0.834  -1.309  -1.147  0.00  0.00     0.009 C 
BRANCH   8   9
ATOM      9  C3' N4B d   1      -1.181  -1.140  -2.616  0.00  0.00     0.004 C 
ATOM     10  C4' N4B d   1      -2.544  -1.665  -2.956  0.00  0.00     0.003 C 
ENDBRANCH   8   9
ENDBRANCH   7   8
ENDBRANCH   1   7
TORSDOF 3
ENDMDL
