MODEL 1
REMARK minimizedAffinity -6.02341938
REMARK minimizedRMSD -1
REMARK  3 active torsions:
REMARK  status: ('A' for Active; 'I' for Inactive)
REMARK    1  A    between atoms: C3'_2  and  C2'_3 
REMARK    2  A    between atoms: C2'_3  and  C1'_4 
REMARK    3  A    between atoms: C1'_4  and  C1_5 
ROOT
ATOM      1  C1  N4B d   1       0.339   0.065   0.263  0.00  0.00    -0.075 A 
ATOM      2  C2  N4B d   1       1.624   0.508  -0.118  0.00  0.00     0.002 A 
ATOM      3  C3  N4B d   1       2.140   1.662   0.421  0.00  0.00     0.002 A 
ATOM      4  C4  N4B d   1       1.384   2.395   1.323  0.00  0.00    -0.004 A 
ATOM      5  C5  N4B d   1       0.154   1.946   1.705  0.00  0.00     0.002 A 
ATOM      6  C6  N4B d   1      -0.376   0.787   1.175  0.00  0.00     0.002 A 
ENDROOT
BRANCH   1   7
ATOM      7  C1' N4B d   1      -0.302  -1.143  -0.363  0.00  0.00     0.057 C 
BRANCH   7   8
ATOM      8  C2' N4B d   1      -1.346  -0.688  -1.378  0.00  0.00     0.009 C 
BRANCH   8   9
ATOM      9  C3' N4B d   1      -2.205  -1.841  -1.867  0.00  0.00     0.004 C 
ATOM     10  C4' N4B d   1      -2.583  -1.712  -3.312  0.00  0.00     0.003 C 
ENDBRANCH   8   9
ENDBRANCH   7   8
ENDBRANCH   1   7
TORSDOF 3
ENDMDL
