MODEL 1
REMARK minimizedAffinity -3.49426413
REMARK minimizedRMSD -1
REMARK  3 active torsions:
REMARK  status: ('A' for Active; 'I' for Inactive)
REMARK    1  A    between atoms: C3'_2  and  C2'_3 
REMARK    2  A    between atoms: C2'_3  and  C1'_4 
REMARK    3  A    between atoms: C1'_4  and  C1_5 
ROOT
ATOM      1  C1  N4B d   1      -0.195   0.167  -0.466  0.00  0.00    -0.075 A 
ATOM      2  C2  N4B d   1       0.328   1.479  -0.478  0.00  0.00     0.002 A 
ATOM      3  C3  N4B d   1       0.666   2.094   0.702  0.00  0.00     0.002 A 
ATOM      4  C4  N4B d   1       0.472   1.428   1.903  0.00  0.00    -0.004 A 
ATOM      5  C5  N4B d   1      -0.010   0.152   1.905  0.00  0.00     0.002 A 
ATOM      6  C6  N4B d   1      -0.350  -0.481   0.726  0.00  0.00     0.002 A 
ENDROOT
BRANCH   1   7
ATOM      7  C1' N4B d   1      -0.659  -0.515  -1.724  0.00  0.00     0.057 C 
BRANCH   7   8
ATOM      8  C2' N4B d   1      -1.936  -1.296  -1.428  0.00  0.00     0.009 C 
BRANCH   8   9
ATOM      9  C3' N4B d   1      -2.894  -1.286  -2.607  0.00  0.00     0.004 C 
ATOM     10  C4' N4B d   1      -2.227  -0.902  -3.894  0.00  0.00     0.003 C 
ENDBRANCH   8   9
ENDBRANCH   7   8
ENDBRANCH   1   7
TORSDOF 3
ENDMDL
