MODEL 1
REMARK minimizedAffinity -5.41141081
REMARK minimizedRMSD -1
REMARK  3 active torsions:
REMARK  status: ('A' for Active; 'I' for Inactive)
REMARK    1  A    between atoms: C3'_2  and  C2'_3 
REMARK    2  A    between atoms: C2'_3  and  C1'_4 
REMARK    3  A    between atoms: C1'_4  and  C1_5 
ROOT
ATOM      1  C1  N4B d   1       0.344   0.398   0.082  0.00  0.00    -0.075 A 
ATOM      2  C2  N4B d   1       0.683   0.444   1.452  0.00  0.00     0.002 A 
ATOM      3  C3  N4B d   1       0.671   1.643   2.122  0.00  0.00     0.002 A 
ATOM      4  C4  N4B d   1       0.345   2.806   1.440  0.00  0.00    -0.004 A 
ATOM      5  C5  N4B d   1      -0.006   2.749   0.123  0.00  0.00     0.002 A 
ATOM      6  C6  N4B d   1      -0.003   1.550  -0.561  0.00  0.00     0.002 A 
ENDROOT
BRANCH   1   7
ATOM      7  C1' N4B d   1       0.425  -0.877  -0.713  0.00  0.00     0.057 C 
BRANCH   7   8
ATOM      8  C2' N4B d   1      -0.975  -1.271  -1.173  0.00  0.00     0.009 C 
BRANCH   8   9
ATOM      9  C3' N4B d   1      -1.152  -1.096  -2.671  0.00  0.00     0.004 C 
ATOM     10  C4' N4B d   1      -2.591  -1.119  -3.093  0.00  0.00     0.003 C 
ENDBRANCH   8   9
ENDBRANCH   7   8
ENDBRANCH   1   7
TORSDOF 3
ENDMDL
