MODEL 1
REMARK minimizedAffinity -0.148622841
REMARK minimizedRMSD -1
REMARK  3 active torsions:
REMARK  status: ('A' for Active; 'I' for Inactive)
REMARK    1  A    between atoms: C3'_2  and  C2'_3 
REMARK    2  A    between atoms: C2'_3  and  C1'_4 
REMARK    3  A    between atoms: C1'_4  and  C1_5 
ROOT
ATOM      1  C1  N4B d   1      -0.302   0.027   0.342  0.00  0.00    -0.075 A 
ATOM      2  C2  N4B d   1      -1.566   0.410   0.842  0.00  0.00     0.002 A 
ATOM      3  C3  N4B d   1      -1.650   1.216   1.950  0.00  0.00     0.002 A 
ATOM      4  C4  N4B d   1      -0.490   1.635   2.584  0.00  0.00    -0.004 A 
ATOM      5  C5  N4B d   1       0.727   1.281   2.079  0.00  0.00     0.002 A 
ATOM      6  C6  N4B d   1       0.827   0.475   0.964  0.00  0.00     0.002 A 
ENDROOT
BRANCH   1   7
ATOM      7  C1' N4B d   1      -0.161  -0.923  -0.816  0.00  0.00     0.057 C 
BRANCH   7   8
ATOM      8  C2' N4B d   1      -1.390  -1.825  -0.877  0.00  0.00     0.009 C 
BRANCH   8   9
ATOM      9  C3' N4B d   1      -2.018  -1.836  -2.260  0.00  0.00     0.004 C 
ATOM     10  C4' N4B d   1      -3.502  -1.621  -2.226  0.00  0.00     0.003 C 
ENDBRANCH   8   9
ENDBRANCH   7   8
ENDBRANCH   1   7
TORSDOF 3
ENDMDL
