MODEL 1
REMARK minimizedAffinity -1.90505481
REMARK minimizedRMSD -1
REMARK  3 active torsions:
REMARK  status: ('A' for Active; 'I' for Inactive)
REMARK    1  A    between atoms: C3'_2  and  C2'_3 
REMARK    2  A    between atoms: C2'_3  and  C1'_4 
REMARK    3  A    between atoms: C1'_4  and  C1_5 
ROOT
ATOM      1  C1  N4B d   1      -0.102  -0.203  -0.014  0.00  0.00    -0.075 A 
ATOM      2  C2  N4B d   1      -0.863  -0.016   1.161  0.00  0.00     0.002 A 
ATOM      3  C3  N4B d   1      -0.600   1.050   1.986  0.00  0.00     0.002 A 
ATOM      4  C4  N4B d   1       0.426   1.927   1.669  0.00  0.00    -0.004 A 
ATOM      5  C5  N4B d   1       1.140   1.753   0.520  0.00  0.00     0.002 A 
ATOM      6  C6  N4B d   1       0.885   0.689  -0.321  0.00  0.00     0.002 A 
ENDROOT
BRANCH   1   7
ATOM      7  C1' N4B d   1      -0.295  -1.401  -0.903  0.00  0.00     0.057 C 
BRANCH   7   8
ATOM      8  C2' N4B d   1      -1.766  -1.807  -0.884  0.00  0.00     0.009 C 
BRANCH   8   9
ATOM      9  C3' N4B d   1      -2.263  -2.208  -2.262  0.00  0.00     0.004 C 
ATOM     10  C4' N4B d   1      -1.509  -1.533  -3.370  0.00  0.00     0.003 C 
ENDBRANCH   8   9
ENDBRANCH   7   8
ENDBRANCH   1   7
TORSDOF 3
ENDMDL
