MODEL 1
REMARK minimizedAffinity -5.01279783
REMARK minimizedRMSD -1
REMARK  3 active torsions:
REMARK  status: ('A' for Active; 'I' for Inactive)
REMARK    1  A    between atoms: C3'_2  and  C2'_3 
REMARK    2  A    between atoms: C2'_3  and  C1'_4 
REMARK    3  A    between atoms: C1'_4  and  C1_5 
ROOT
ATOM      1  C1  N4B d   1      -0.210   0.459   0.407  0.00  0.00    -0.075 A 
ATOM      2  C2  N4B d   1      -0.241   1.101   1.665  0.00  0.00     0.002 A 
ATOM      3  C3  N4B d   1       0.633   2.126   1.934  0.00  0.00     0.002 A 
ATOM      4  C4  N4B d   1       1.554   2.512   0.973  0.00  0.00    -0.004 A 
ATOM      5  C5  N4B d   1       1.561   1.904  -0.248  0.00  0.00     0.002 A 
ATOM      6  C6  N4B d   1       0.686   0.876  -0.535  0.00  0.00     0.002 A 
ENDROOT
BRANCH   1   7
ATOM      7  C1' N4B d   1      -1.087  -0.723   0.097  0.00  0.00     0.057 C 
BRANCH   7   8
ATOM      8  C2' N4B d   1      -0.990  -1.041  -1.392  0.00  0.00     0.009 C 
BRANCH   8   9
ATOM      9  C3' N4B d   1      -2.221  -1.774  -1.898  0.00  0.00     0.004 C 
ATOM     10  C4' N4B d   1      -2.620  -1.354  -3.281  0.00  0.00     0.003 C 
ENDBRANCH   8   9
ENDBRANCH   7   8
ENDBRANCH   1   7
TORSDOF 3
ENDMDL
