MODEL 1
REMARK minimizedAffinity -3.11523366
REMARK minimizedRMSD -1
REMARK  3 active torsions:
REMARK  status: ('A' for Active; 'I' for Inactive)
REMARK    1  A    between atoms: C3'_2  and  C2'_3 
REMARK    2  A    between atoms: C2'_3  and  C1'_4 
REMARK    3  A    between atoms: C1'_4  and  C1_5 
ROOT
ATOM      1  C1  N4B d   1      -0.656  -1.339  -1.623  0.00  0.00    -0.075 A 
ATOM      2  C2  N4B d   1      -1.849  -1.899  -1.116  0.00  0.00     0.002 A 
ATOM      3  C3  N4B d   1      -2.973  -1.949  -1.904  0.00  0.00     0.002 A 
ATOM      4  C4  N4B d   1      -2.933  -1.430  -3.189  0.00  0.00    -0.004 A 
ATOM      5  C5  N4B d   1      -1.770  -0.914  -3.680  0.00  0.00     0.002 A 
ATOM      6  C6  N4B d   1      -0.631  -0.861  -2.901  0.00  0.00     0.002 A 
ENDROOT
BRANCH   1   7
ATOM      7  C1' N4B d   1       0.574  -1.185  -0.770  0.00  0.00     0.057 C 
BRANCH   7   8
ATOM      8  C2' N4B d   1       0.433   0.068   0.089  0.00  0.00     0.009 C 
BRANCH   8   9
ATOM      9  C3' N4B d   1       1.430   1.144  -0.307  0.00  0.00     0.004 C 
ATOM     10  C4' N4B d   1       2.691   0.580  -0.893  0.00  0.00     0.003 C 
ENDBRANCH   8   9
ENDBRANCH   7   8
ENDBRANCH   1   7
TORSDOF 3
ENDMDL
