MODEL 1
REMARK minimizedAffinity -4.21502686
REMARK minimizedRMSD -1
REMARK  3 active torsions:
REMARK  status: ('A' for Active; 'I' for Inactive)
REMARK    1  A    between atoms: C3'_2  and  C2'_3 
REMARK    2  A    between atoms: C2'_3  and  C1'_4 
REMARK    3  A    between atoms: C1'_4  and  C1_5 
ROOT
ATOM      1  C1  N4B d   1       0.230  -0.044   0.425  0.00  0.00    -0.075 A 
ATOM      2  C2  N4B d   1       1.271   0.555  -0.317  0.00  0.00     0.002 A 
ATOM      3  C3  N4B d   1       1.743   1.795   0.039  0.00  0.00     0.002 A 
ATOM      4  C4  N4B d   1       1.179   2.459   1.118  0.00  0.00    -0.004 A 
ATOM      5  C5  N4B d   1       0.192   1.862   1.845  0.00  0.00     0.002 A 
ATOM      6  C6  N4B d   1      -0.290   0.615   1.501  0.00  0.00     0.002 A 
ENDROOT
BRANCH   1   7
ATOM      7  C1' N4B d   1      -0.377  -1.360   0.022  0.00  0.00     0.057 C 
BRANCH   7   8
ATOM      8  C2' N4B d   1      -1.233  -1.155  -1.225  0.00  0.00     0.009 C 
BRANCH   8   9
ATOM      9  C3' N4B d   1      -2.505  -1.984  -1.183  0.00  0.00     0.004 C 
ATOM     10  C4' N4B d   1      -3.525  -1.534  -2.186  0.00  0.00     0.003 C 
ENDBRANCH   8   9
ENDBRANCH   7   8
ENDBRANCH   1   7
TORSDOF 3
ENDMDL
