MODEL 1
REMARK minimizedAffinity -4.32706165
REMARK minimizedRMSD -1
REMARK  0 active torsions:
REMARK  status: ('A' for Active; 'I' for Inactive)
ROOT
ATOM      1  C   UNL d   1      -0.174   1.279  -0.901  0.00  0.00     0.023 A 
ATOM      2  C1  UNL d   1      -0.667   0.972   0.368  0.00  0.00     0.003 A 
ATOM      3  C2  UNL d   1      -0.765  -0.360   0.777  0.00  0.00     0.048 A 
ATOM      4  C3  UNL d   1      -0.367  -1.379  -0.087  0.00  0.00     0.023 A 
ATOM      5  C4  UNL d   1       0.129  -1.077  -1.356  0.00  0.00     0.048 A 
ATOM      6  C5  UNL d   1       0.224   0.255  -1.761  0.00  0.00     0.003 A 
ATOM      7  I   UNL d   1      -0.512  -3.362   0.520  0.00  0.00    -0.146 I 
ENDROOT
TORSDOF 0
ENDMDL
