MODEL 1
REMARK minimizedAffinity -1.07772207
REMARK minimizedRMSD -1
REMARK  0 active torsions:
REMARK  status: ('A' for Active; 'I' for Inactive)
ROOT
ATOM      1  C   UNL d   1       2.015   3.977   0.405  0.00  0.00     0.023 A 
ATOM      2  C1  UNL d   1       3.019   3.009   0.392  0.00  0.00     0.003 A 
ATOM      3  C2  UNL d   1       2.705   1.679   0.105  0.00  0.00     0.048 A 
ATOM      4  C3  UNL d   1       1.385   1.324  -0.169  0.00  0.00     0.023 A 
ATOM      5  C4  UNL d   1       0.376   2.290  -0.158  0.00  0.00     0.048 A 
ATOM      6  C5  UNL d   1       0.695   3.618   0.130  0.00  0.00     0.003 A 
ATOM      7  I   UNL d   1       0.915  -0.654  -0.598  0.00  0.00    -0.146 I 
ENDROOT
TORSDOF 0
ENDMDL
