MODEL 1
REMARK minimizedAffinity -2.24479222
REMARK minimizedRMSD -1
REMARK  0 active torsions:
REMARK  status: ('A' for Active; 'I' for Inactive)
ROOT
ATOM      1  C   UNL d   1      -0.156  -0.571  -0.530  0.00  0.00     0.023 A 
ATOM      2  C1  UNL d   1       0.717   0.101  -1.386  0.00  0.00     0.003 A 
ATOM      3  C2  UNL d   1       1.389   1.242  -0.944  0.00  0.00     0.048 A 
ATOM      4  C3  UNL d   1       1.185   1.706   0.355  0.00  0.00     0.023 A 
ATOM      5  C4  UNL d   1       0.313   1.036   1.215  0.00  0.00     0.048 A 
ATOM      6  C5  UNL d   1      -0.358  -0.104   0.769  0.00  0.00     0.003 A 
ATOM      7  I   UNL d   1       2.184   3.405   1.015  0.00  0.00    -0.146 I 
ENDROOT
TORSDOF 0
ENDMDL
