MODEL 1
REMARK minimizedAffinity -3.52892828
REMARK minimizedRMSD -1
REMARK  0 active torsions:
REMARK  status: ('A' for Active; 'I' for Inactive)
ROOT
ATOM      1  C   UNL d   1      -0.346  -3.198   0.181  0.00  0.00     0.023 A 
ATOM      2  C1  UNL d   1      -0.732  -2.280   1.158  0.00  0.00     0.003 A 
ATOM      3  C2  UNL d   1      -0.497  -0.916   0.968  0.00  0.00     0.048 A 
ATOM      4  C3  UNL d   1       0.124  -0.478  -0.200  0.00  0.00     0.023 A 
ATOM      5  C4  UNL d   1       0.512  -1.393  -1.181  0.00  0.00     0.048 A 
ATOM      6  C5  UNL d   1       0.275  -2.755  -0.987  0.00  0.00     0.003 A 
ATOM      7  I   UNL d   1       0.476   1.551  -0.485  0.00  0.00    -0.146 I 
ENDROOT
TORSDOF 0
ENDMDL
