MODEL 1
REMARK minimizedAffinity -4.89192629
REMARK minimizedRMSD -1
REMARK  0 active torsions:
REMARK  status: ('A' for Active; 'I' for Inactive)
ROOT
ATOM      1  C   UNL d   1      -0.014  -2.883   1.257  0.00  0.00     0.023 A 
ATOM      2  C1  UNL d   1       0.862  -2.878   0.171  0.00  0.00     0.003 A 
ATOM      3  C2  UNL d   1       0.934  -1.762  -0.665  0.00  0.00     0.048 A 
ATOM      4  C3  UNL d   1       0.129  -0.653  -0.408  0.00  0.00     0.023 A 
ATOM      5  C4  UNL d   1      -0.748  -0.652   0.678  0.00  0.00     0.048 A 
ATOM      6  C5  UNL d   1      -0.817  -1.771   1.510  0.00  0.00     0.003 A 
ATOM      7  I   UNL d   1       0.234   1.010  -1.650  0.00  0.00    -0.146 I 
ENDROOT
TORSDOF 0
ENDMDL
