MODEL 1
REMARK minimizedAffinity -3.01531243
REMARK minimizedRMSD -1
REMARK  0 active torsions:
REMARK  status: ('A' for Active; 'I' for Inactive)
ROOT
ATOM      1  C   UNL d   1       0.184  -3.399   0.819  0.00  0.00     0.023 A 
ATOM      2  C1  UNL d   1       1.175  -2.868  -0.007  0.00  0.00     0.003 A 
ATOM      3  C2  UNL d   1       1.097  -1.540  -0.429  0.00  0.00     0.048 A 
ATOM      4  C3  UNL d   1       0.026  -0.746  -0.019  0.00  0.00     0.023 A 
ATOM      5  C4  UNL d   1      -0.968  -1.272   0.809  0.00  0.00     0.048 A 
ATOM      6  C5  UNL d   1      -0.886  -2.602   1.227  0.00  0.00     0.003 A 
ATOM      7  I   UNL d   1      -0.093   1.232  -0.645  0.00  0.00    -0.146 I 
ENDROOT
TORSDOF 0
ENDMDL
