MODEL 1
REMARK minimizedAffinity -1.94805133
REMARK minimizedRMSD -1
REMARK  0 active torsions:
REMARK  status: ('A' for Active; 'I' for Inactive)
ROOT
ATOM      1  C   UNL d   1      -0.205  -3.221   0.522  0.00  0.00     0.023 A 
ATOM      2  C1  UNL d   1      -0.930  -2.314   1.294  0.00  0.00     0.003 A 
ATOM      3  C2  UNL d   1      -0.711  -0.942   1.151  0.00  0.00     0.048 A 
ATOM      4  C3  UNL d   1       0.234  -0.485   0.234  0.00  0.00     0.023 A 
ATOM      5  C4  UNL d   1       0.962  -1.389  -0.541  0.00  0.00     0.048 A 
ATOM      6  C5  UNL d   1       0.740  -2.760  -0.395  0.00  0.00     0.003 A 
ATOM      7  I   UNL d   1       0.562   1.556   0.020  0.00  0.00    -0.146 I 
ENDROOT
TORSDOF 0
ENDMDL
