MODEL 1
REMARK minimizedAffinity -2.75576878
REMARK minimizedRMSD -1
REMARK  0 active torsions:
REMARK  status: ('A' for Active; 'I' for Inactive)
ROOT
ATOM      1  C   UNL d   1      -0.538  -2.775   0.702  0.00  0.00     0.023 A 
ATOM      2  C1  UNL d   1      -0.932  -1.830   1.650  0.00  0.00     0.003 A 
ATOM      3  C2  UNL d   1      -0.733  -0.470   1.405  0.00  0.00     0.048 A 
ATOM      4  C3  UNL d   1      -0.140  -0.061   0.211  0.00  0.00     0.023 A 
ATOM      5  C4  UNL d   1       0.254  -1.003  -0.741  0.00  0.00     0.048 A 
ATOM      6  C5  UNL d   1       0.054  -2.362  -0.491  0.00  0.00     0.003 A 
ATOM      7  I   UNL d   1       0.156   1.963  -0.155  0.00  0.00    -0.146 I 
ENDROOT
TORSDOF 0
ENDMDL
