MODEL 1
REMARK minimizedAffinity -2.52758288
REMARK minimizedRMSD -1
REMARK  0 active torsions:
REMARK  status: ('A' for Active; 'I' for Inactive)
ROOT
ATOM      1  C   UNL d   1      -0.762  -1.711   0.602  0.00  0.00     0.023 A 
ATOM      2  C1  UNL d   1       0.358  -1.439  -0.184  0.00  0.00     0.003 A 
ATOM      3  C2  UNL d   1       0.760  -0.119  -0.396  0.00  0.00     0.048 A 
ATOM      4  C3  UNL d   1       0.038   0.925   0.181  0.00  0.00     0.023 A 
ATOM      5  C4  UNL d   1      -1.082   0.658   0.969  0.00  0.00     0.048 A 
ATOM      6  C5  UNL d   1      -1.481  -0.664   1.178  0.00  0.00     0.003 A 
ATOM      7  I   UNL d   1       0.635   2.891  -0.133  0.00  0.00    -0.146 I 
ENDROOT
TORSDOF 0
ENDMDL
