MODEL 1
REMARK minimizedAffinity -3.47354722
REMARK minimizedRMSD -1
REMARK  0 active torsions:
REMARK  status: ('A' for Active; 'I' for Inactive)
ROOT
ATOM      1  C   UNL d   1      -0.303  -2.570   0.486  0.00  0.00     0.023 A 
ATOM      2  C1  UNL d   1       0.662  -2.128  -0.419  0.00  0.00     0.003 A 
ATOM      3  C2  UNL d   1       0.911  -0.761  -0.563  0.00  0.00     0.048 A 
ATOM      4  C3  UNL d   1       0.193   0.157   0.202  0.00  0.00     0.023 A 
ATOM      5  C4  UNL d   1      -0.773  -0.281   1.110  0.00  0.00     0.048 A 
ATOM      6  C5  UNL d   1      -1.020  -1.649   1.249  0.00  0.00     0.003 A 
ATOM      7  I   UNL d   1       0.563   2.191  -0.009  0.00  0.00    -0.146 I 
ENDROOT
TORSDOF 0
ENDMDL
