MODEL 1
REMARK minimizedAffinity -1.31148517
REMARK minimizedRMSD -1
REMARK  0 active torsions:
REMARK  status: ('A' for Active; 'I' for Inactive)
ROOT
ATOM      1  C   UNL d   1      -0.917  -2.225   1.140  0.00  0.00     0.023 A 
ATOM      2  C1  UNL d   1       0.028  -2.070   0.126  0.00  0.00     0.003 A 
ATOM      3  C2  UNL d   1       0.475  -0.794  -0.225  0.00  0.00     0.048 A 
ATOM      4  C3  UNL d   1      -0.027   0.322   0.443  0.00  0.00     0.023 A 
ATOM      5  C4  UNL d   1      -0.972   0.172   1.459  0.00  0.00     0.048 A 
ATOM      6  C5  UNL d   1      -1.416  -1.105   1.806  0.00  0.00     0.003 A 
ATOM      7  I   UNL d   1       0.637   2.222  -0.078  0.00  0.00    -0.146 I 
ENDROOT
TORSDOF 0
ENDMDL
