MODEL 1
REMARK minimizedAffinity -1.2868371
REMARK minimizedRMSD -1
REMARK  0 active torsions:
REMARK  status: ('A' for Active; 'I' for Inactive)
ROOT
ATOM      1  C   UNL d   1      -0.724  -2.444   0.881  0.00  0.00     0.023 A 
ATOM      2  C1  UNL d   1       0.214  -2.177  -0.116  0.00  0.00     0.003 A 
ATOM      3  C2  UNL d   1       0.690  -0.876  -0.298  0.00  0.00     0.048 A 
ATOM      4  C3  UNL d   1       0.224   0.151   0.522  0.00  0.00     0.023 A 
ATOM      5  C4  UNL d   1      -0.714  -0.112   1.522  0.00  0.00     0.048 A 
ATOM      6  C5  UNL d   1      -1.187  -1.414   1.699  0.00  0.00     0.003 A 
ATOM      7  I   UNL d   1       0.931   2.087   0.254  0.00  0.00    -0.146 I 
ENDROOT
TORSDOF 0
ENDMDL
