MODEL 1
REMARK minimizedAffinity -0.495248675
REMARK minimizedRMSD -1
REMARK  0 active torsions:
REMARK  status: ('A' for Active; 'I' for Inactive)
ROOT
ATOM      1  C1  BNZ d   1       5.074  -3.399   3.617  0.00  0.00     0.000 A 
ATOM      2  C2  BNZ d   1       5.311  -2.868   4.857  0.00  0.00     0.000 A 
ATOM      3  C3  BNZ d   1       5.308  -3.661   5.970  0.00  0.00     0.000 A 
ATOM      4  C4  BNZ d   1       5.030  -4.975   5.848  0.00  0.00     0.000 A 
ATOM      5  C5  BNZ d   1       4.780  -5.524   4.606  0.00  0.00     0.000 A 
ATOM      6  C6  BNZ d   1       4.822  -4.729   3.483  0.00  0.00     0.000 A 
ENDROOT
TORSDOF 0
ENDMDL
