MODEL 1
REMARK minimizedAffinity -1.58848476
REMARK minimizedRMSD -1
REMARK  0 active torsions:
REMARK  status: ('A' for Active; 'I' for Inactive)
ROOT
ATOM      1  C1  BNZ d   1      -5.665   0.181  -4.714  0.00  0.00     0.000 A 
ATOM      2  C2  BNZ d   1      -5.315  -0.652  -3.685  0.00  0.00     0.000 A 
ATOM      3  C3  BNZ d   1      -4.007  -0.982  -3.465  0.00  0.00     0.000 A 
ATOM      4  C4  BNZ d   1      -3.056  -0.511  -4.298  0.00  0.00     0.000 A 
ATOM      5  C5  BNZ d   1      -3.394   0.322  -5.345  0.00  0.00     0.000 A 
ATOM      6  C6  BNZ d   1      -4.707   0.684  -5.540  0.00  0.00     0.000 A 
ENDROOT
TORSDOF 0
ENDMDL
