MODEL 1
REMARK minimizedAffinity -2.2667439
REMARK minimizedRMSD -1
REMARK  0 active torsions:
REMARK  status: ('A' for Active; 'I' for Inactive)
ROOT
ATOM      1  C1  BNZ d   1      -3.151  -0.026  -4.886  0.00  0.00     0.000 A 
ATOM      2  C2  BNZ d   1      -2.779  -0.795  -3.815  0.00  0.00     0.000 A 
ATOM      3  C3  BNZ d   1      -3.710  -1.494  -3.099  0.00  0.00     0.000 A 
ATOM      4  C4  BNZ d   1      -5.014  -1.393  -3.429  0.00  0.00     0.000 A 
ATOM      5  C5  BNZ d   1      -5.405  -0.614  -4.500  0.00  0.00     0.000 A 
ATOM      6  C6  BNZ d   1      -4.461   0.058  -5.243  0.00  0.00     0.000 A 
ENDROOT
TORSDOF 0
ENDMDL
