MODEL 1
REMARK minimizedAffinity 0.37542668
REMARK minimizedRMSD -1
REMARK  0 active torsions:
REMARK  status: ('A' for Active; 'I' for Inactive)
ROOT
ATOM      1  C1  BNZ d   1       4.540  -5.175   3.593  0.00  0.00     0.000 A 
ATOM      2  C2  BNZ d   1       4.713  -3.821   3.702  0.00  0.00     0.000 A 
ATOM      3  C3  BNZ d   1       5.029  -3.249   4.903  0.00  0.00     0.000 A 
ATOM      4  C4  BNZ d   1       5.133  -4.027   6.000  0.00  0.00     0.000 A 
ATOM      5  C5  BNZ d   1       4.953  -5.392   5.909  0.00  0.00     0.000 A 
ATOM      6  C6  BNZ d   1       4.673  -5.969   4.691  0.00  0.00     0.000 A 
ENDROOT
TORSDOF 0
ENDMDL
