MODEL 1
REMARK minimizedAffinity -3.56802154
REMARK minimizedRMSD -1
REMARK  0 active torsions:
REMARK  status: ('A' for Active; 'I' for Inactive)
ROOT
ATOM      1  C1  BNZ d   1      -2.726  -0.820  -4.245  0.00  0.00     0.000 A 
ATOM      2  C2  BNZ d   1      -2.669   0.028  -5.318  0.00  0.00     0.000 A 
ATOM      3  C3  BNZ d   1      -3.725   0.840  -5.625  0.00  0.00     0.000 A 
ATOM      4  C4  BNZ d   1      -4.849   0.774  -4.884  0.00  0.00     0.000 A 
ATOM      5  C5  BNZ d   1      -4.926  -0.083  -3.804  0.00  0.00     0.000 A 
ATOM      6  C6  BNZ d   1      -3.847  -0.870  -3.475  0.00  0.00     0.000 A 
ENDROOT
TORSDOF 0
ENDMDL
