MODEL 1
REMARK minimizedAffinity -0.0149863139
REMARK minimizedRMSD -1
REMARK  0 active torsions:
REMARK  status: ('A' for Active; 'I' for Inactive)
ROOT
ATOM      1  C1  BNZ d   1      -3.187  -0.916  -3.066  0.00  0.00     0.000 A 
ATOM      2  C2  BNZ d   1      -3.996   0.108  -3.481  0.00  0.00     0.000 A 
ATOM      3  C3  BNZ d   1      -3.923   0.583  -4.760  0.00  0.00     0.000 A 
ATOM      4  C4  BNZ d   1      -3.016   0.062  -5.611  0.00  0.00     0.000 A 
ATOM      5  C5  BNZ d   1      -2.186  -0.964  -5.205  0.00  0.00     0.000 A 
ATOM      6  C6  BNZ d   1      -2.289  -1.467  -3.928  0.00  0.00     0.000 A 
ENDROOT
TORSDOF 0
ENDMDL
