MODEL 1
REMARK minimizedAffinity 13.4290857
REMARK minimizedRMSD -1
REMARK  0 active torsions:
REMARK  status: ('A' for Active; 'I' for Inactive)
ROOT
ATOM      1  C   UNL d   1      -3.882   0.101  -1.352  0.00  0.00     0.020 A 
ATOM      2  C1  UNL d   1      -3.402  -1.150  -1.737  0.00  0.00     0.020 A 
ATOM      3  C2  UNL d   1      -2.026  -1.379  -1.808  0.00  0.00     0.034 A 
ATOM      4  C3  UNL d   1      -1.126  -0.354  -1.493  0.00  0.00     0.017 A 
ATOM      5  C4  UNL d   1      -1.609   0.901  -1.107  0.00  0.00     0.017 A 
ATOM      6  C5  UNL d   1      -2.987   1.124  -1.037  0.00  0.00     0.034 A 
ATOM      7 Cl   UNL d   1      -0.559   2.214  -0.703  0.00  0.00    -0.070 Cl
ATOM      8 Cl1  UNL d   1       0.562  -0.707  -1.602  0.00  0.00    -0.070 Cl
ENDROOT
TORSDOF 0
ENDMDL
