MODEL 1
REMARK minimizedAffinity 5.36917496
REMARK minimizedRMSD -1
REMARK  0 active torsions:
REMARK  status: ('A' for Active; 'I' for Inactive)
ROOT
ATOM      1  C   UNL d   1       0.300   4.019  -0.038  0.00  0.00     0.020 A 
ATOM      2  C1  UNL d   1      -0.782   3.143   0.036  0.00  0.00     0.020 A 
ATOM      3  C2  UNL d   1      -0.932   2.311   1.148  0.00  0.00     0.034 A 
ATOM      4  C3  UNL d   1       0.002   2.353   2.189  0.00  0.00     0.017 A 
ATOM      5  C4  UNL d   1       1.088   3.233   2.114  0.00  0.00     0.017 A 
ATOM      6  C5  UNL d   1       1.233   4.064   0.999  0.00  0.00     0.034 A 
ATOM      7 Cl   UNL d   1       2.281   3.342   3.360  0.00  0.00    -0.070 Cl
ATOM      8 Cl1  UNL d   1      -0.245   1.296   3.534  0.00  0.00    -0.070 Cl
ENDROOT
TORSDOF 0
ENDMDL
