MODEL 1
REMARK minimizedAffinity 7.45522785
REMARK minimizedRMSD -1
REMARK  0 active torsions:
REMARK  status: ('A' for Active; 'I' for Inactive)
ROOT
ATOM      1  C   UNL d   1       5.822  -3.687  -0.349  0.00  0.00     0.020 A 
ATOM      2  C1  UNL d   1       5.892  -2.483  -1.049  0.00  0.00     0.020 A 
ATOM      3  C2  UNL d   1       4.723  -1.778  -1.344  0.00  0.00     0.034 A 
ATOM      4  C3  UNL d   1       3.480  -2.275  -0.938  0.00  0.00     0.017 A 
ATOM      5  C4  UNL d   1       3.411  -3.483  -0.235  0.00  0.00     0.017 A 
ATOM      6  C5  UNL d   1       4.584  -4.186   0.057  0.00  0.00     0.034 A 
ATOM      7 Cl   UNL d   1       1.913  -4.161   0.299  0.00  0.00    -0.070 Cl
ATOM      8 Cl1  UNL d   1       2.076  -1.350  -1.336  0.00  0.00    -0.070 Cl
ENDROOT
TORSDOF 0
ENDMDL
