MODEL 1
REMARK minimizedAffinity 5.97398663
REMARK minimizedRMSD -1
REMARK  0 active torsions:
REMARK  status: ('A' for Active; 'I' for Inactive)
ROOT
ATOM      1  C   UNL d   1      -0.928   5.290  -0.524  0.00  0.00     0.020 A 
ATOM      2  C1  UNL d   1      -0.721   4.643  -1.742  0.00  0.00     0.020 A 
ATOM      3  C2  UNL d   1      -0.588   3.253  -1.780  0.00  0.00     0.034 A 
ATOM      4  C3  UNL d   1      -0.661   2.506  -0.598  0.00  0.00     0.017 A 
ATOM      5  C4  UNL d   1      -0.868   3.157   0.623  0.00  0.00     0.017 A 
ATOM      6  C5  UNL d   1      -1.001   4.549   0.656  0.00  0.00     0.034 A 
ATOM      7 Cl   UNL d   1      -0.969   2.304   2.123  0.00  0.00    -0.070 Cl
ATOM      8 Cl1  UNL d   1      -0.487   0.792  -0.720  0.00  0.00    -0.070 Cl
ENDROOT
TORSDOF 0
ENDMDL
