MODEL 1
REMARK minimizedAffinity 10.5261202
REMARK minimizedRMSD -1
REMARK  0 active torsions:
REMARK  status: ('A' for Active; 'I' for Inactive)
ROOT
ATOM      1  C   UNL d   1       2.040   2.617   2.910  0.00  0.00     0.020 A 
ATOM      2  C1  UNL d   1       1.002   3.320   2.298  0.00  0.00     0.020 A 
ATOM      3  C2  UNL d   1      -0.249   2.721   2.142  0.00  0.00     0.034 A 
ATOM      4  C3  UNL d   1      -0.467   1.415   2.598  0.00  0.00     0.017 A 
ATOM      5  C4  UNL d   1       0.576   0.711   3.211  0.00  0.00     0.017 A 
ATOM      6  C5  UNL d   1       1.827   1.316   3.365  0.00  0.00     0.034 A 
ATOM      7 Cl   UNL d   1       0.384  -0.903   3.799  0.00  0.00    -0.070 Cl
ATOM      8 Cl1  UNL d   1      -2.040   0.737   2.372  0.00  0.00    -0.070 Cl
ENDROOT
TORSDOF 0
ENDMDL
