MODEL 1
REMARK minimizedAffinity 1.19739401
REMARK minimizedRMSD -1
REMARK  0 active torsions:
REMARK  status: ('A' for Active; 'I' for Inactive)
ROOT
ATOM      1  C   UNL d   1      -0.839   2.925  -0.247  0.00  0.00     0.020 A 
ATOM      2  C1  UNL d   1       0.213   3.773  -0.588  0.00  0.00     0.020 A 
ATOM      3  C2  UNL d   1       1.253   3.994   0.318  0.00  0.00     0.034 A 
ATOM      4  C3  UNL d   1       1.242   3.366   1.569  0.00  0.00     0.017 A 
ATOM      5  C4  UNL d   1       0.185   2.515   1.910  0.00  0.00     0.017 A 
ATOM      6  C5  UNL d   1      -0.854   2.297   0.999  0.00  0.00     0.034 A 
ATOM      7 Cl   UNL d   1       0.102   1.705   3.434  0.00  0.00    -0.070 Cl
ATOM      8 Cl1  UNL d   1       2.561   3.685   2.639  0.00  0.00    -0.070 Cl
ENDROOT
TORSDOF 0
ENDMDL
