MODEL 1
REMARK minimizedAffinity 5.5611701
REMARK minimizedRMSD -1
REMARK  0 active torsions:
REMARK  status: ('A' for Active; 'I' for Inactive)
ROOT
ATOM      1  C   UNL d   1      -0.967   5.039  -1.928  0.00  0.00     0.020 A 
ATOM      2  C1  UNL d   1      -0.791   5.652  -0.688  0.00  0.00     0.020 A 
ATOM      3  C2  UNL d   1      -0.596   4.872   0.454  0.00  0.00     0.034 A 
ATOM      4  C3  UNL d   1      -0.575   3.476   0.359  0.00  0.00     0.017 A 
ATOM      5  C4  UNL d   1      -0.752   2.862  -0.886  0.00  0.00     0.017 A 
ATOM      6  C5  UNL d   1      -0.948   3.647  -2.027  0.00  0.00     0.034 A 
ATOM      7 Cl   UNL d   1      -0.739   1.145  -1.083  0.00  0.00    -0.070 Cl
ATOM      8 Cl1  UNL d   1      -0.328   2.575   1.812  0.00  0.00    -0.070 Cl
ENDROOT
TORSDOF 0
ENDMDL
