MODEL 1
REMARK minimizedAffinity 5.60197067
REMARK minimizedRMSD -1
REMARK  0 active torsions:
REMARK  status: ('A' for Active; 'I' for Inactive)
ROOT
ATOM      1  C   UNL d   1      -0.788   5.056  -1.481  0.00  0.00     0.020 A 
ATOM      2  C1  UNL d   1      -1.215   5.545  -0.247  0.00  0.00     0.020 A 
ATOM      3  C2  UNL d   1      -1.377   4.673   0.831  0.00  0.00     0.034 A 
ATOM      4  C3  UNL d   1      -1.113   3.308   0.678  0.00  0.00     0.017 A 
ATOM      5  C4  UNL d   1      -0.684   2.817  -0.561  0.00  0.00     0.017 A 
ATOM      6  C5  UNL d   1      -0.523   3.695  -1.637  0.00  0.00     0.034 A 
ATOM      7 Cl   UNL d   1      -0.339   1.145  -0.827  0.00  0.00    -0.070 Cl
ATOM      8 Cl1  UNL d   1      -1.335   2.287   2.054  0.00  0.00    -0.070 Cl
ENDROOT
TORSDOF 0
ENDMDL
