MODEL 1
REMARK minimizedAffinity 11.9421129
REMARK minimizedRMSD -1
REMARK  0 active torsions:
REMARK  status: ('A' for Active; 'I' for Inactive)
ROOT
ATOM      1  C   UNL d   1      -0.752   2.899  -0.308  0.00  0.00     0.020 A 
ATOM      2  C1  UNL d   1       0.324   3.785  -0.274  0.00  0.00     0.020 A 
ATOM      3  C2  UNL d   1       1.054   3.953   0.905  0.00  0.00     0.034 A 
ATOM      4  C3  UNL d   1       0.708   3.233   2.055  0.00  0.00     0.017 A 
ATOM      5  C4  UNL d   1      -0.372   2.344   2.020  0.00  0.00     0.017 A 
ATOM      6  C5  UNL d   1      -1.099   2.180   0.836  0.00  0.00     0.034 A 
ATOM      7 Cl   UNL d   1      -0.858   1.421   3.398  0.00  0.00    -0.070 Cl
ATOM      8 Cl1  UNL d   1       1.654   3.490   3.478  0.00  0.00    -0.070 Cl
ENDROOT
TORSDOF 0
ENDMDL
