MODEL 1
REMARK minimizedAffinity 0.108392246
REMARK minimizedRMSD -1
REMARK  0 active torsions:
REMARK  status: ('A' for Active; 'I' for Inactive)
ROOT
ATOM      1  C   UNL d   1      -0.720   4.823  -1.576  0.00  0.00     0.020 A 
ATOM      2  C1  UNL d   1      -0.739   5.361  -0.290  0.00  0.00     0.020 A 
ATOM      3  C2  UNL d   1      -0.768   4.515   0.820  0.00  0.00     0.034 A 
ATOM      4  C3  UNL d   1      -0.779   3.126   0.647  0.00  0.00     0.017 A 
ATOM      5  C4  UNL d   1      -0.760   2.587  -0.645  0.00  0.00     0.017 A 
ATOM      6  C5  UNL d   1      -0.731   3.439  -1.753  0.00  0.00     0.034 A 
ATOM      7 Cl   UNL d   1      -0.771   0.884  -0.938  0.00  0.00    -0.070 Cl
ATOM      8 Cl1  UNL d   1      -0.815   2.140   2.065  0.00  0.00    -0.070 Cl
ENDROOT
TORSDOF 0
ENDMDL
