MODEL 1
REMARK minimizedAffinity 4.90390587
REMARK minimizedRMSD -1
REMARK  0 active torsions:
REMARK  status: ('A' for Active; 'I' for Inactive)
ROOT
ATOM      1  C   UNL d   1      -4.821  -5.178   5.524  0.00  0.00     0.020 A 
ATOM      2  C1  UNL d   1      -5.935  -4.486   5.997  0.00  0.00     0.020 A 
ATOM      3  C2  UNL d   1      -5.994  -3.095   5.880  0.00  0.00     0.034 A 
ATOM      4  C3  UNL d   1      -4.939  -2.393   5.289  0.00  0.00     0.017 A 
ATOM      5  C4  UNL d   1      -3.821  -3.088   4.813  0.00  0.00     0.017 A 
ATOM      6  C5  UNL d   1      -3.766  -4.480   4.933  0.00  0.00     0.034 A 
ATOM      7 Cl   UNL d   1      -2.479  -2.290   4.071  0.00  0.00    -0.070 Cl
ATOM      8 Cl1  UNL d   1      -5.080  -0.674   5.177  0.00  0.00    -0.070 Cl
ENDROOT
TORSDOF 0
ENDMDL
