MODEL 1
REMARK minimizedAffinity 7.27366209
REMARK minimizedRMSD -1
REMARK  0 active torsions:
REMARK  status: ('A' for Active; 'I' for Inactive)
ROOT
ATOM      1  C   UNL d   1       0.286   3.120  -0.607  0.00  0.00     0.020 A 
ATOM      2  C1  UNL d   1       1.387   2.434  -0.097  0.00  0.00     0.020 A 
ATOM      3  C2  UNL d   1       1.255   1.662   1.059  0.00  0.00     0.034 A 
ATOM      4  C3  UNL d   1       0.018   1.574   1.709  0.00  0.00     0.017 A 
ATOM      5  C4  UNL d   1      -1.087   2.263   1.196  0.00  0.00     0.017 A 
ATOM      6  C5  UNL d   1      -0.948   3.035   0.038  0.00  0.00     0.034 A 
ATOM      7 Cl   UNL d   1      -2.645   2.203   1.942  0.00  0.00    -0.070 Cl
ATOM      8 Cl1  UNL d   1      -0.073   0.601   3.133  0.00  0.00    -0.070 Cl
ENDROOT
TORSDOF 0
ENDMDL
