MODEL 1
REMARK minimizedAffinity 1.20524251
REMARK minimizedRMSD -1
REMARK  0 active torsions:
REMARK  status: ('A' for Active; 'I' for Inactive)
ROOT
ATOM      1  C2' OXE d   1      -5.780   5.123  -3.412  0.00  0.00     0.078 C 
ATOM      2  C1' OXE d   1      -5.766   2.316  -3.358  0.00  0.00     0.078 C 
ATOM      3  C1  OXE d   1      -5.865   3.045  -2.041  0.00  0.00    -0.078 A 
ATOM      4  C2  OXE d   1      -5.824   4.418  -2.074  0.00  0.00    -0.078 A 
ATOM      5  C3  OXE d   1      -5.967   5.140  -0.892  0.00  0.00     0.003 A 
ATOM      6  C4  OXE d   1      -5.997   4.480   0.342  0.00  0.00    -0.002 A 
ATOM      7  C5  OXE d   1      -6.000   3.082   0.400  0.00  0.00    -0.002 A 
ATOM      8  C6  OXE d   1      -5.977   2.351  -0.782  0.00  0.00     0.003 A 
ENDROOT
TORSDOF 0
ENDMDL
