MODEL 1
REMARK minimizedAffinity 0.897054076
REMARK minimizedRMSD -1
REMARK  0 active torsions:
REMARK  status: ('A' for Active; 'I' for Inactive)
ROOT
ATOM      1  C2' OXE d   1      -0.564   2.723  -0.229  0.00  0.00     0.078 C 
ATOM      2  C1' OXE d   1       0.576   1.744   2.143  0.00  0.00     0.078 C 
ATOM      3  C1  OXE d   1       0.237   0.748   1.062  0.00  0.00    -0.078 A 
ATOM      4  C2  OXE d   1      -0.363   1.230  -0.076  0.00  0.00    -0.078 A 
ATOM      5  C3  OXE d   1      -0.647   0.362  -1.127  0.00  0.00     0.003 A 
ATOM      6  C4  OXE d   1      -0.467  -1.018  -0.974  0.00  0.00    -0.002 A 
ATOM      7  C5  OXE d   1       0.106  -1.534   0.193  0.00  0.00    -0.002 A 
ATOM      8  C6  OXE d   1       0.503  -0.662   1.201  0.00  0.00     0.003 A 
ENDROOT
TORSDOF 0
ENDMDL
