MODEL 1
REMARK minimizedAffinity 5.15485096
REMARK minimizedRMSD -1
REMARK  0 active torsions:
REMARK  status: ('A' for Active; 'I' for Inactive)
ROOT
ATOM      1  C2' OXE d   1      -1.397  -0.913   0.725  0.00  0.00     0.078 C 
ATOM      2  C1' OXE d   1      -0.665  -3.319   1.972  0.00  0.00     0.078 C 
ATOM      3  C1  OXE d   1      -1.550  -3.399   0.754  0.00  0.00    -0.078 A 
ATOM      4  C2  OXE d   1      -1.941  -2.214   0.178  0.00  0.00    -0.078 A 
ATOM      5  C3  OXE d   1      -2.713  -2.233  -0.981  0.00  0.00     0.003 A 
ATOM      6  C4  OXE d   1      -3.221  -3.440  -1.475  0.00  0.00    -0.002 A 
ATOM      7  C5  OXE d   1      -2.867  -4.656  -0.880  0.00  0.00    -0.002 A 
ATOM      8  C6  OXE d   1      -2.000  -4.655   0.207  0.00  0.00     0.003 A 
ENDROOT
TORSDOF 0
ENDMDL
