MODEL 1
REMARK minimizedAffinity 0.224701703
REMARK minimizedRMSD -1
REMARK  0 active torsions:
REMARK  status: ('A' for Active; 'I' for Inactive)
ROOT
ATOM      1  C2' OXE d   1      -5.949   2.725  -0.268  0.00  0.00     0.078 C 
ATOM      2  C1' OXE d   1      -5.995   5.483   0.252  0.00  0.00     0.078 C 
ATOM      3  C1  OXE d   1      -5.970   5.039  -1.190  0.00  0.00    -0.078 A 
ATOM      4  C2  OXE d   1      -5.900   3.689  -1.434  0.00  0.00    -0.078 A 
ATOM      5  C3  OXE d   1      -5.931   3.223  -2.745  0.00  0.00     0.003 A 
ATOM      6  C4  OXE d   1      -5.876   4.121  -3.818  0.00  0.00    -0.002 A 
ATOM      7  C5  OXE d   1      -5.906   5.501  -3.590  0.00  0.00    -0.002 A 
ATOM      8  C6  OXE d   1      -5.996   5.975  -2.286  0.00  0.00     0.003 A 
ENDROOT
TORSDOF 0
ENDMDL
