MODEL 1
REMARK minimizedAffinity 13.5874424
REMARK minimizedRMSD -1
REMARK  0 active torsions:
REMARK  status: ('A' for Active; 'I' for Inactive)
ROOT
ATOM      1  C2' OXE d   1      -1.050  -4.120  -0.867  0.00  0.00     0.078 C 
ATOM      2  C1' OXE d   1      -2.268  -3.254   1.508  0.00  0.00     0.078 C 
ATOM      3  C1  OXE d   1      -3.165  -3.689   0.376  0.00  0.00    -0.078 A 
ATOM      4  C2  OXE d   1      -2.561  -4.067  -0.799  0.00  0.00    -0.078 A 
ATOM      5  C3  OXE d   1      -3.339  -4.530  -1.856  0.00  0.00     0.003 A 
ATOM      6  C4  OXE d   1      -4.736  -4.468  -1.788  0.00  0.00    -0.002 A 
ATOM      7  C5  OXE d   1      -5.372  -4.048  -0.615  0.00  0.00    -0.002 A 
ATOM      8  C6  OXE d   1      -4.603  -3.697   0.489  0.00  0.00     0.003 A 
ENDROOT
TORSDOF 0
ENDMDL
