MODEL 1
REMARK minimizedAffinity 9.90992737
REMARK minimizedRMSD -1
REMARK  0 active torsions:
REMARK  status: ('A' for Active; 'I' for Inactive)
ROOT
ATOM      1  C2' OXE d   1       5.999   3.032   3.731  0.00  0.00     0.078 C 
ATOM      2  C1' OXE d   1       5.280   5.682   3.150  0.00  0.00     0.078 C 
ATOM      3  C1  OXE d   1       4.721   4.593   2.270  0.00  0.00    -0.078 A 
ATOM      4  C2  OXE d   1       5.116   3.303   2.532  0.00  0.00    -0.078 A 
ATOM      5  C3  OXE d   1       4.587   2.255   1.785  0.00  0.00     0.003 A 
ATOM      6  C4  OXE d   1       3.778   2.515   0.672  0.00  0.00    -0.002 A 
ATOM      7  C5  OXE d   1       3.397   3.825   0.362  0.00  0.00    -0.002 A 
ATOM      8  C6  OXE d   1       3.824   4.869   1.175  0.00  0.00     0.003 A 
ENDROOT
TORSDOF 0
ENDMDL
