MODEL 1
REMARK minimizedAffinity 11.5470667
REMARK minimizedRMSD -1
REMARK  0 active torsions:
REMARK  status: ('A' for Active; 'I' for Inactive)
ROOT
ATOM      1  C2' OXE d   1      -2.756  -0.450   1.496  0.00  0.00     0.078 C 
ATOM      2  C1' OXE d   1      -1.544  -2.415   3.093  0.00  0.00     0.078 C 
ATOM      3  C1  OXE d   1      -1.939  -2.796   1.688  0.00  0.00    -0.078 A 
ATOM      4  C2  OXE d   1      -2.574  -1.842   0.929  0.00  0.00    -0.078 A 
ATOM      5  C3  OXE d   1      -2.910  -2.123  -0.392  0.00  0.00     0.003 A 
ATOM      6  C4  OXE d   1      -2.746  -3.416  -0.905  0.00  0.00    -0.002 A 
ATOM      7  C5  OXE d   1      -2.138  -4.413  -0.136  0.00  0.00    -0.002 A 
ATOM      8  C6  OXE d   1      -1.691  -4.108   1.145  0.00  0.00     0.003 A 
ENDROOT
TORSDOF 0
ENDMDL
