MODEL 1
REMARK minimizedAffinity 4.75338554
REMARK minimizedRMSD -1
REMARK  0 active torsions:
REMARK  status: ('A' for Active; 'I' for Inactive)
ROOT
ATOM      1  C2' OXE d   1       3.188   1.755  -5.946  0.00  0.00     0.078 C 
ATOM      2  C1' OXE d   1       5.992   1.883  -5.980  0.00  0.00     0.078 C 
ATOM      3  C1  OXE d   1       5.229   3.183  -5.967  0.00  0.00    -0.078 A 
ATOM      4  C2  OXE d   1       3.857   3.111  -5.998  0.00  0.00    -0.078 A 
ATOM      5  C3  OXE d   1       3.104   4.280  -5.932  0.00  0.00     0.003 A 
ATOM      6  C4  OXE d   1       3.730   5.531  -5.990  0.00  0.00    -0.002 A 
ATOM      7  C5  OXE d   1       5.125   5.627  -6.000  0.00  0.00    -0.002 A 
ATOM      8  C6  OXE d   1       5.888   4.466  -5.946  0.00  0.00     0.003 A 
ENDROOT
TORSDOF 0
ENDMDL
