MODEL 1
REMARK minimizedAffinity 6.88854027
REMARK minimizedRMSD -1
REMARK  0 active torsions:
REMARK  status: ('A' for Active; 'I' for Inactive)
ROOT
ATOM      1  C2' OXE d   1       1.527   3.986   2.598  0.00  0.00     0.078 C 
ATOM      2  C1' OXE d   1      -1.069   2.926   2.719  0.00  0.00     0.078 C 
ATOM      3  C1  OXE d   1      -0.042   2.180   1.906  0.00  0.00    -0.078 A 
ATOM      4  C2  OXE d   1       1.214   2.730   1.814  0.00  0.00    -0.078 A 
ATOM      5  C3  OXE d   1       2.214   2.054   1.121  0.00  0.00     0.003 A 
ATOM      6  C4  OXE d   1       1.912   0.898   0.390  0.00  0.00    -0.002 A 
ATOM      7  C5  OXE d   1       0.630   0.342   0.437  0.00  0.00    -0.002 A 
ATOM      8  C6  OXE d   1      -0.346   0.946   1.223  0.00  0.00     0.003 A 
ENDROOT
TORSDOF 0
ENDMDL
