MODEL 1
REMARK minimizedAffinity 4.29111576
REMARK minimizedRMSD -1
REMARK  0 active torsions:
REMARK  status: ('A' for Active; 'I' for Inactive)
ROOT
ATOM      1  C2' OXE d   1      -1.041   2.643   3.053  0.00  0.00     0.078 C 
ATOM      2  C1' OXE d   1      -1.485   0.545   1.241  0.00  0.00     0.078 C 
ATOM      3  C1  OXE d   1      -0.093   1.119   1.326  0.00  0.00    -0.078 A 
ATOM      4  C2  OXE d   1       0.104   2.176   2.181  0.00  0.00    -0.078 A 
ATOM      5  C3  OXE d   1       1.382   2.706   2.339  0.00  0.00     0.003 A 
ATOM      6  C4  OXE d   1       2.434   2.275   1.522  0.00  0.00    -0.002 A 
ATOM      7  C5  OXE d   1       2.245   1.227   0.615  0.00  0.00    -0.002 A 
ATOM      8  C6  OXE d   1       1.001   0.610   0.536  0.00  0.00     0.003 A 
ENDROOT
TORSDOF 0
ENDMDL
