MODEL 1
REMARK minimizedAffinity 10.5957851
REMARK minimizedRMSD -1
REMARK  0 active torsions:
REMARK  status: ('A' for Active; 'I' for Inactive)
ROOT
ATOM      1  C2' OXE d   1      -4.528   4.975  -5.688  0.00  0.00     0.078 C 
ATOM      2  C1' OXE d   1      -3.316   2.536  -5.006  0.00  0.00     0.078 C 
ATOM      3  C1  OXE d   1      -2.416   3.702  -5.333  0.00  0.00    -0.078 A 
ATOM      4  C2  OXE d   1      -3.018   4.878  -5.711  0.00  0.00    -0.078 A 
ATOM      5  C3  OXE d   1      -2.236   6.000  -5.971  0.00  0.00     0.003 A 
ATOM      6  C4  OXE d   1      -0.839   5.899  -6.000  0.00  0.00    -0.002 A 
ATOM      7  C5  OXE d   1      -0.207   4.700  -5.657  0.00  0.00    -0.002 A 
ATOM      8  C6  OXE d   1      -0.978   3.606  -5.281  0.00  0.00     0.003 A 
ENDROOT
TORSDOF 0
ENDMDL
