MODEL 1
REMARK minimizedAffinity 4.27443409
REMARK minimizedRMSD -1
REMARK  0 active torsions:
REMARK  status: ('A' for Active; 'I' for Inactive)
ROOT
ATOM      1  C2' OXE d   1      -1.699   0.982   0.470  0.00  0.00     0.078 C 
ATOM      2  C1' OXE d   1       1.039   1.057   1.085  0.00  0.00     0.078 C 
ATOM      3  C1  OXE d   1       0.082   1.708   2.052  0.00  0.00    -0.078 A 
ATOM      4  C2  OXE d   1      -1.251   1.708   1.720  0.00  0.00    -0.078 A 
ATOM      5  C3  OXE d   1      -2.182   2.247   2.604  0.00  0.00     0.003 A 
ATOM      6  C4  OXE d   1      -1.758   2.925   3.753  0.00  0.00    -0.002 A 
ATOM      7  C5  OXE d   1      -0.401   2.972   4.090  0.00  0.00    -0.002 A 
ATOM      8  C6  OXE d   1       0.526   2.333   3.274  0.00  0.00     0.003 A 
ENDROOT
TORSDOF 0
ENDMDL
