MODEL 1
REMARK minimizedAffinity 3.90103126
REMARK minimizedRMSD -1
REMARK  0 active torsions:
REMARK  status: ('A' for Active; 'I' for Inactive)
ROOT
ATOM      1  C2' OXE d   1      -1.222  -5.047   1.299  0.00  0.00     0.078 C 
ATOM      2  C1' OXE d   1      -2.772  -3.995  -0.793  0.00  0.00     0.078 C 
ATOM      3  C1  OXE d   1      -2.590  -3.149   0.443  0.00  0.00    -0.078 A 
ATOM      4  C2  OXE d   1      -1.870  -3.691   1.480  0.00  0.00    -0.078 A 
ATOM      5  C3  OXE d   1      -1.626  -2.932   2.621  0.00  0.00     0.003 A 
ATOM      6  C4  OXE d   1      -2.237  -1.683   2.785  0.00  0.00    -0.002 A 
ATOM      7  C5  OXE d   1      -3.007  -1.129   1.757  0.00  0.00    -0.002 A 
ATOM      8  C6  OXE d   1      -3.158  -1.829   0.565  0.00  0.00     0.003 A 
ENDROOT
TORSDOF 0
ENDMDL
