MODEL 1
REMARK minimizedAffinity 10.1159658
REMARK minimizedRMSD -1
REMARK  0 active torsions:
REMARK  status: ('A' for Active; 'I' for Inactive)
ROOT
ATOM      1  C2' OXE d   1       5.311   3.719  -1.511  0.00  0.00     0.078 C 
ATOM      2  C1' OXE d   1       4.112   5.967  -0.332  0.00  0.00     0.078 C 
ATOM      3  C1  OXE d   1       4.780   4.967   0.578  0.00  0.00    -0.078 A 
ATOM      4  C2  OXE d   1       5.324   3.847  -0.003  0.00  0.00    -0.078 A 
ATOM      5  C3  OXE d   1       6.000   2.920   0.785  0.00  0.00     0.003 A 
ATOM      6  C4  OXE d   1       5.998   3.041   2.180  0.00  0.00    -0.002 A 
ATOM      7  C5  OXE d   1       5.416   4.154   2.796  0.00  0.00    -0.002 A 
ATOM      8  C6  OXE d   1       4.842   5.146   2.008  0.00  0.00     0.003 A 
ENDROOT
TORSDOF 0
ENDMDL
