MODEL 1
REMARK minimizedAffinity 9.45175934
REMARK minimizedRMSD -1
REMARK  0 active torsions:
REMARK  status: ('A' for Active; 'I' for Inactive)
ROOT
ATOM      1  C2' OXE d   1      -3.479  -0.299   1.429  0.00  0.00     0.078 C 
ATOM      2  C1' OXE d   1      -4.015  -1.068   4.075  0.00  0.00     0.078 C 
ATOM      3  C1  OXE d   1      -3.064  -1.921   3.273  0.00  0.00    -0.078 A 
ATOM      4  C2  OXE d   1      -2.844  -1.564   1.965  0.00  0.00    -0.078 A 
ATOM      5  C3  OXE d   1      -1.934  -2.285   1.197  0.00  0.00     0.003 A 
ATOM      6  C4  OXE d   1      -1.359  -3.459   1.697  0.00  0.00    -0.002 A 
ATOM      7  C5  OXE d   1      -1.600  -3.864   3.014  0.00  0.00    -0.002 A 
ATOM      8  C6  OXE d   1      -2.416  -3.084   3.827  0.00  0.00     0.003 A 
ENDROOT
TORSDOF 0
ENDMDL
