MODEL 1
REMARK minimizedAffinity 6.87344646
REMARK minimizedRMSD -1
REMARK  0 active torsions:
REMARK  status: ('A' for Active; 'I' for Inactive)
ROOT
ATOM      1  C2' OXE d   1      -0.447   4.260  -5.639  0.00  0.00     0.078 C 
ATOM      2  C1' OXE d   1      -0.672   1.850  -4.216  0.00  0.00     0.078 C 
ATOM      3  C1  OXE d   1       0.682   2.214  -4.774  0.00  0.00    -0.078 A 
ATOM      4  C2  OXE d   1       0.772   3.372  -5.508  0.00  0.00    -0.078 A 
ATOM      5  C3  OXE d   1       2.009   3.782  -5.999  0.00  0.00     0.003 A 
ATOM      6  C4  OXE d   1       3.129   2.951  -5.882  0.00  0.00    -0.002 A 
ATOM      7  C5  OXE d   1       3.050   1.748  -5.172  0.00  0.00    -0.002 A 
ATOM      8  C6  OXE d   1       1.846   1.387  -4.576  0.00  0.00     0.003 A 
ENDROOT
TORSDOF 0
ENDMDL
