MODEL 1
REMARK minimizedAffinity -0.525089622
REMARK minimizedRMSD -1
REMARK  0 active torsions:
REMARK  status: ('A' for Active; 'I' for Inactive)
ROOT
ATOM      1  C2' OXE d   1      -3.024  -5.422  -2.279  0.00  0.00     0.078 C 
ATOM      2  C1' OXE d   1      -2.797  -2.762  -3.146  0.00  0.00     0.078 C 
ATOM      3  C1  OXE d   1      -2.656  -3.035  -1.669  0.00  0.00    -0.078 A 
ATOM      4  C2  OXE d   1      -2.815  -4.333  -1.248  0.00  0.00    -0.078 A 
ATOM      5  C3  OXE d   1      -2.642  -4.648   0.096  0.00  0.00     0.003 A 
ATOM      6  C4  OXE d   1      -2.459  -3.634   1.044  0.00  0.00    -0.002 A 
ATOM      7  C5  OXE d   1      -2.333  -2.300   0.641  0.00  0.00    -0.002 A 
ATOM      8  C6  OXE d   1      -2.387  -1.989  -0.713  0.00  0.00     0.003 A 
ENDROOT
TORSDOF 0
ENDMDL
