MODEL 1
REMARK minimizedAffinity 15.5763474
REMARK minimizedRMSD -1
REMARK  0 active torsions:
REMARK  status: ('A' for Active; 'I' for Inactive)
ROOT
ATOM      1  C2' OXE d   1      -2.177   2.336  -5.742  0.00  0.00     0.078 C 
ATOM      2  C1' OXE d   1      -3.380   4.863  -5.517  0.00  0.00     0.078 C 
ATOM      3  C1  OXE d   1      -1.884   4.809  -5.697  0.00  0.00    -0.078 A 
ATOM      4  C2  OXE d   1      -1.298   3.568  -5.760  0.00  0.00    -0.078 A 
ATOM      5  C3  OXE d   1       0.072   3.462  -5.980  0.00  0.00     0.003 A 
ATOM      6  C4  OXE d   1       0.880   4.606  -5.985  0.00  0.00    -0.002 A 
ATOM      7  C5  OXE d   1       0.308   5.879  -5.884  0.00  0.00    -0.002 A 
ATOM      8  C6  OXE d   1      -1.074   6.000  -5.782  0.00  0.00     0.003 A 
ENDROOT
TORSDOF 0
ENDMDL
