MODEL 1
REMARK minimizedAffinity 5.16061926
REMARK minimizedRMSD -1
REMARK  0 active torsions:
REMARK  status: ('A' for Active; 'I' for Inactive)
ROOT
ATOM      1  C   UNL d   1      -0.375   3.753  -1.588  0.00  0.00    -0.002 A 
ATOM      2  C1  UNL d   1      -0.292   2.611  -0.804  0.00  0.00     0.010 A 
ATOM      3  C2  UNL d   1      -0.842   2.588   0.478  0.00  0.00     0.041 A 
ATOM      4  C3  UNL d   1      -1.486   3.743   0.964  0.00  0.00    -0.075 A 
ATOM      5  S   UNL d   1      -2.235   3.945   2.504  0.00  0.00     0.015 SA
ATOM      6  C4  UNL d   1      -2.684   5.553   2.158  0.00  0.00     0.022 A 
ATOM      7  C5  UNL d   1      -2.280   5.942   0.903  0.00  0.00     0.026 A 
ATOM      8  C6  UNL d   1      -1.584   4.905   0.194  0.00  0.00    -0.082 A 
ATOM      9  C7  UNL d   1      -1.014   4.897  -1.102  0.00  0.00     0.045 A 
ENDROOT
TORSDOF 0
ENDMDL
