MODEL 1
REMARK minimizedAffinity 15.3928728
REMARK minimizedRMSD -1
REMARK  0 active torsions:
REMARK  status: ('A' for Active; 'I' for Inactive)
ROOT
ATOM      1  C   UNL d   1       5.256  -5.207  -0.739  0.00  0.00    -0.002 A 
ATOM      2  C1  UNL d   1       5.145  -3.828  -0.632  0.00  0.00     0.010 A 
ATOM      3  C2  UNL d   1       3.891  -3.213  -0.654  0.00  0.00     0.041 A 
ATOM      4  C3  UNL d   1       2.740  -4.015  -0.784  0.00  0.00    -0.075 A 
ATOM      5  S   UNL d   1       1.102  -3.481  -0.834  0.00  0.00     0.015 SA
ATOM      6  C4  UNL d   1       0.511  -5.071  -0.997  0.00  0.00     0.022 A 
ATOM      7  C5  UNL d   1       1.525  -5.999  -1.015  0.00  0.00     0.026 A 
ATOM      8  C6  UNL d   1       2.827  -5.406  -0.893  0.00  0.00    -0.082 A 
ATOM      9  C7  UNL d   1       4.112  -6.000  -0.868  0.00  0.00     0.045 A 
ENDROOT
TORSDOF 0
ENDMDL
