MODEL 1
REMARK minimizedAffinity 8.04003334
REMARK minimizedRMSD -1
REMARK  0 active torsions:
REMARK  status: ('A' for Active; 'I' for Inactive)
ROOT
ATOM      1  C   UNL d   1      -0.090   3.382   0.766  0.00  0.00    -0.002 A 
ATOM      2  C1  UNL d   1       1.203   3.770   0.448  0.00  0.00     0.010 A 
ATOM      3  C2  UNL d   1       1.454   4.543  -0.687  0.00  0.00     0.041 A 
ATOM      4  C3  UNL d   1       0.371   4.926  -1.504  0.00  0.00    -0.075 A 
ATOM      5  S   UNL d   1       0.439   5.873  -2.943  0.00  0.00     0.015 SA
ATOM      6  C4  UNL d   1      -1.249   5.785  -3.168  0.00  0.00     0.022 A 
ATOM      7  C5  UNL d   1      -1.864   5.055  -2.180  0.00  0.00     0.026 A 
ATOM      8  C6  UNL d   1      -0.940   4.548  -1.204  0.00  0.00    -0.082 A 
ATOM      9  C7  UNL d   1      -1.162   3.763  -0.046  0.00  0.00     0.045 A 
ENDROOT
TORSDOF 0
ENDMDL
