MODEL 1
REMARK minimizedAffinity 7.48495579
REMARK minimizedRMSD -1
REMARK  0 active torsions:
REMARK  status: ('A' for Active; 'I' for Inactive)
ROOT
ATOM      1  C   UNL d   1       1.306   1.859   1.832  0.00  0.00    -0.002 A 
ATOM      2  C1  UNL d   1       0.024   2.096   2.306  0.00  0.00     0.010 A 
ATOM      3  C2  UNL d   1      -0.541   1.263   3.274  0.00  0.00     0.041 A 
ATOM      4  C3  UNL d   1       0.213   0.179   3.764  0.00  0.00    -0.075 A 
ATOM      5  S   UNL d   1      -0.272  -0.974   4.951  0.00  0.00     0.015 SA
ATOM      6  C4  UNL d   1       1.212  -1.807   4.857  0.00  0.00     0.022 A 
ATOM      7  C5  UNL d   1       2.068  -1.234   3.947  0.00  0.00     0.026 A 
ATOM      8  C6  UNL d   1       1.507  -0.080   3.302  0.00  0.00    -0.082 A 
ATOM      9  C7  UNL d   1       2.051   0.783   2.320  0.00  0.00     0.045 A 
ENDROOT
TORSDOF 0
ENDMDL
