MODEL 1
REMARK minimizedAffinity 16.5339108
REMARK minimizedRMSD -1
REMARK  0 active torsions:
REMARK  status: ('A' for Active; 'I' for Inactive)
ROOT
ATOM      1  C   UNL d   1      -5.882  -0.302  -5.092  0.00  0.00    -0.002 A 
ATOM      2  C1  UNL d   1      -5.670   0.877  -5.793  0.00  0.00     0.010 A 
ATOM      3  C2  UNL d   1      -5.572   2.096  -5.119  0.00  0.00     0.041 A 
ATOM      4  C3  UNL d   1      -5.692   2.110  -3.715  0.00  0.00    -0.075 A 
ATOM      5  S   UNL d   1      -5.605   3.485  -2.679  0.00  0.00     0.015 SA
ATOM      6  C4  UNL d   1      -5.847   2.539  -1.281  0.00  0.00     0.022 A 
ATOM      7  C5  UNL d   1      -5.993   1.205  -1.580  0.00  0.00     0.026 A 
ATOM      8  C6  UNL d   1      -5.905   0.936  -2.988  0.00  0.00    -0.082 A 
ATOM      9  C7  UNL d   1      -6.000  -0.284  -3.700  0.00  0.00     0.045 A 
ENDROOT
TORSDOF 0
ENDMDL
