MODEL 1
REMARK minimizedAffinity -3.05660939
REMARK minimizedRMSD -1
REMARK  0 active torsions:
REMARK  status: ('A' for Active; 'I' for Inactive)
ROOT
ATOM      1  O1  BZF d   1       0.871  -2.180   0.417  0.00  0.00    -0.204 OA
ATOM      2  C2  BZF d   1       0.065  -1.588   1.370  0.00  0.00     0.174 A 
ATOM      3  C3  BZF d   1       0.114  -0.244   1.270  0.00  0.00    -0.012 A 
ATOM      4  C3A BZF d   1       0.935   0.019   0.127  0.00  0.00    -0.107 A 
ATOM      5  C4  BZF d   1       1.343   1.165  -0.492  0.00  0.00     0.055 A 
ATOM      6  C5  BZF d   1       2.201   1.079  -1.542  0.00  0.00    -0.016 A 
ATOM      7  C6  BZF d   1       2.674  -0.135  -1.996  0.00  0.00     0.022 A 
ATOM      8  C7  BZF d   1       2.293  -1.300  -1.417  0.00  0.00     0.029 A 
ATOM      9  C7A BZF d   1       1.400  -1.218  -0.376  0.00  0.00     0.058 A 
ENDROOT
TORSDOF 0
ENDMDL
