MODEL 1
REMARK minimizedAffinity -3.67153287
REMARK minimizedRMSD -1
REMARK  0 active torsions:
REMARK  status: ('A' for Active; 'I' for Inactive)
ROOT
ATOM      1  O1  BZF d   1      -0.497   1.385  -0.845  0.00  0.00    -0.204 OA
ATOM      2  C2  BZF d   1       0.700   1.139  -0.202  0.00  0.00     0.174 A 
ATOM      3  C3  BZF d   1       0.487   0.720   1.062  0.00  0.00    -0.012 A 
ATOM      4  C3A BZF d   1      -0.935   0.614   1.188  0.00  0.00    -0.107 A 
ATOM      5  C4  BZF d   1      -1.761   0.231   2.206  0.00  0.00     0.055 A 
ATOM      6  C5  BZF d   1      -3.106   0.310   2.030  0.00  0.00    -0.016 A 
ATOM      7  C6  BZF d   1      -3.658   0.773   0.853  0.00  0.00     0.022 A 
ATOM      8  C7  BZF d   1      -2.879   1.159  -0.186  0.00  0.00     0.029 A 
ATOM      9  C7A BZF d   1      -1.520   1.049  -0.023  0.00  0.00     0.058 A 
ENDROOT
TORSDOF 0
ENDMDL
