MODEL 1
REMARK minimizedAffinity 2.33175254
REMARK minimizedRMSD -1
REMARK  0 active torsions:
REMARK  status: ('A' for Active; 'I' for Inactive)
ROOT
ATOM      1  O1  BZF d   1      -1.575  -1.175   0.632  0.00  0.00    -0.204 OA
ATOM      2  C2  BZF d   1      -0.321  -0.663   0.905  0.00  0.00     0.174 A 
ATOM      3  C3  BZF d   1      -0.415   0.464   1.641  0.00  0.00    -0.012 A 
ATOM      4  C3A BZF d   1      -1.810   0.617   1.919  0.00  0.00    -0.107 A 
ATOM      5  C4  BZF d   1      -2.531   1.539   2.621  0.00  0.00     0.055 A 
ATOM      6  C5  BZF d   1      -3.887   1.444   2.639  0.00  0.00    -0.016 A 
ATOM      7  C6  BZF d   1      -4.553   0.443   1.961  0.00  0.00     0.022 A 
ATOM      8  C7  BZF d   1      -3.880  -0.497   1.255  0.00  0.00     0.029 A 
ATOM      9  C7A BZF d   1      -2.508  -0.422   1.262  0.00  0.00     0.058 A 
ENDROOT
TORSDOF 0
ENDMDL
