MODEL 1
REMARK minimizedAffinity -2.00884151
REMARK minimizedRMSD -1
REMARK  0 active torsions:
REMARK  status: ('A' for Active; 'I' for Inactive)
ROOT
ATOM      1  O1  BZF d   1      -1.058  -0.726   0.005  0.00  0.00    -0.204 OA
ATOM      2  C2  BZF d   1       0.127  -0.086   0.310  0.00  0.00     0.174 A 
ATOM      3  C3  BZF d   1      -0.053   0.806   1.306  0.00  0.00    -0.012 A 
ATOM      4  C3A BZF d   1      -1.418   0.652   1.707  0.00  0.00    -0.107 A 
ATOM      5  C4  BZF d   1      -2.189   1.249   2.663  0.00  0.00     0.055 A 
ATOM      6  C5  BZF d   1      -3.506   0.923   2.748  0.00  0.00    -0.016 A 
ATOM      7  C6  BZF d   1      -4.085   0.010   1.891  0.00  0.00     0.022 A 
ATOM      8  C7  BZF d   1      -3.359  -0.612   0.930  0.00  0.00     0.029 A 
ATOM      9  C7A BZF d   1      -2.021  -0.310   0.863  0.00  0.00     0.058 A 
ENDROOT
TORSDOF 0
ENDMDL
