MODEL 1
REMARK minimizedAffinity -1.53518891
REMARK minimizedRMSD -1
REMARK  0 active torsions:
REMARK  status: ('A' for Active; 'I' for Inactive)
ROOT
ATOM      1  O1  BZF d   1      -1.038  -1.178   0.226  0.00  0.00    -0.204 OA
ATOM      2  C2  BZF d   1      -1.699  -0.136   0.848  0.00  0.00     0.174 A 
ATOM      3  C3  BZF d   1      -1.032   1.024   0.676  0.00  0.00    -0.012 A 
ATOM      4  C3A BZF d   1       0.069   0.702  -0.179  0.00  0.00    -0.107 A 
ATOM      5  C4  BZF d   1       1.083   1.438  -0.722  0.00  0.00     0.055 A 
ATOM      6  C5  BZF d   1       2.038   0.808  -1.455  0.00  0.00    -0.016 A 
ATOM      7  C6  BZF d   1       2.013  -0.556  -1.661  0.00  0.00     0.022 A 
ATOM      8  C7  BZF d   1       1.024  -1.328  -1.147  0.00  0.00     0.029 A 
ATOM      9  C7A BZF d   1       0.040  -0.689  -0.433  0.00  0.00     0.058 A 
ENDROOT
TORSDOF 0
ENDMDL
