MODEL 1
REMARK minimizedAffinity -1.91390085
REMARK minimizedRMSD -1
REMARK  0 active torsions:
REMARK  status: ('A' for Active; 'I' for Inactive)
ROOT
ATOM      1  O1  BZF d   1      -1.001   0.280  -0.793  0.00  0.00    -0.204 OA
ATOM      2  C2  BZF d   1       0.332   0.455  -0.476  0.00  0.00     0.174 A 
ATOM      3  C3  BZF d   1       0.482   0.711   0.840  0.00  0.00    -0.012 A 
ATOM      4  C3A BZF d   1      -0.832   0.602   1.396  0.00  0.00    -0.107 A 
ATOM      5  C4  BZF d   1      -1.330   0.732   2.661  0.00  0.00     0.055 A 
ATOM      6  C5  BZF d   1      -2.672   0.637   2.856  0.00  0.00    -0.016 A 
ATOM      7  C6  BZF d   1      -3.544   0.420   1.809  0.00  0.00     0.022 A 
ATOM      8  C7  BZF d   1      -3.096   0.279   0.538  0.00  0.00     0.029 A 
ATOM      9  C7A BZF d   1      -1.738   0.341   0.342  0.00  0.00     0.058 A 
ENDROOT
TORSDOF 0
ENDMDL
