MODEL 1
REMARK minimizedAffinity -6.02341461
REMARK minimizedRMSD -1
REMARK  0 active torsions:
REMARK  status: ('A' for Active; 'I' for Inactive)
ROOT
ATOM      1  O1  BZF d   1       0.223  -0.992   0.474  0.00  0.00    -0.204 OA
ATOM      2  C2  BZF d   1       0.194   0.247   1.083  0.00  0.00     0.174 A 
ATOM      3  C3  BZF d   1       0.854   1.160   0.342  0.00  0.00    -0.012 A 
ATOM      4  C3A BZF d   1       1.246   0.467  -0.847  0.00  0.00    -0.107 A 
ATOM      5  C4  BZF d   1       1.919   0.843  -1.974  0.00  0.00     0.055 A 
ATOM      6  C5  BZF d   1       2.203  -0.093  -2.917  0.00  0.00    -0.016 A 
ATOM      7  C6  BZF d   1       1.833  -1.413  -2.764  0.00  0.00     0.022 A 
ATOM      8  C7  BZF d   1       1.159  -1.833  -1.665  0.00  0.00     0.029 A 
ATOM      9  C7A BZF d   1       0.842  -0.883  -0.726  0.00  0.00     0.058 A 
ENDROOT
TORSDOF 0
ENDMDL
