MODEL 1
REMARK minimizedAffinity -2.392694
REMARK minimizedRMSD -1
REMARK  0 active torsions:
REMARK  status: ('A' for Active; 'I' for Inactive)
ROOT
ATOM      1  O1  BZF d   1      -1.146   1.425   1.380  0.00  0.00    -0.204 OA
ATOM      2  C2  BZF d   1      -1.449   0.172   1.877  0.00  0.00     0.174 A 
ATOM      3  C3  BZF d   1      -0.783  -0.785   1.201  0.00  0.00    -0.012 A 
ATOM      4  C3A BZF d   1       0.056  -0.081   0.280  0.00  0.00    -0.107 A 
ATOM      5  C4  BZF d   1       0.966  -0.482  -0.655  0.00  0.00     0.055 A 
ATOM      6  C5  BZF d   1       1.561   0.454  -1.441  0.00  0.00    -0.016 A 
ATOM      7  C6  BZF d   1       1.266   1.796  -1.322  0.00  0.00     0.022 A 
ATOM      8  C7  BZF d   1       0.373   2.242  -0.405  0.00  0.00     0.029 A 
ATOM      9  C7A BZF d   1      -0.205   1.302   0.413  0.00  0.00     0.058 A 
ENDROOT
TORSDOF 0
ENDMDL
