MODEL 1
REMARK minimizedAffinity -3.63728356
REMARK minimizedRMSD -1
REMARK  0 active torsions:
REMARK  status: ('A' for Active; 'I' for Inactive)
ROOT
ATOM      1  O1  BZF d   1      -3.718   1.777  -5.958  0.00  0.00    -0.204 OA
ATOM      2  C2  BZF d   1      -4.890   1.046  -5.951  0.00  0.00     0.174 A 
ATOM      3  C3  BZF d   1      -5.963   1.863  -5.909  0.00  0.00    -0.012 A 
ATOM      4  C3A BZF d   1      -5.429   3.189  -5.981  0.00  0.00    -0.107 A 
ATOM      5  C4  BZF d   1      -5.998   4.430  -5.996  0.00  0.00     0.055 A 
ATOM      6  C5  BZF d   1      -5.194   5.525  -5.999  0.00  0.00    -0.016 A 
ATOM      7  C6  BZF d   1      -3.819   5.416  -5.980  0.00  0.00     0.022 A 
ATOM      8  C7  BZF d   1      -3.209   4.206  -5.969  0.00  0.00     0.029 A 
ATOM      9  C7A BZF d   1      -4.018   3.097  -6.000  0.00  0.00     0.058 A 
ENDROOT
TORSDOF 0
ENDMDL
