MODEL 1
REMARK minimizedAffinity -4.36072874
REMARK minimizedRMSD -1
REMARK  0 active torsions:
REMARK  status: ('A' for Active; 'I' for Inactive)
ROOT
ATOM      1  O1  BZF d   1      -1.016  -0.929  -0.308  0.00  0.00    -0.204 OA
ATOM      2  C2  BZF d   1      -1.200  -0.617   1.025  0.00  0.00     0.174 A 
ATOM      3  C3  BZF d   1      -0.267   0.261   1.444  0.00  0.00    -0.012 A 
ATOM      4  C3A BZF d   1       0.496   0.586   0.278  0.00  0.00    -0.107 A 
ATOM      5  C4  BZF d   1       1.554   1.418   0.050  0.00  0.00     0.055 A 
ATOM      6  C5  BZF d   1       2.113   1.451  -1.189  0.00  0.00    -0.016 A 
ATOM      7  C6  BZF d   1       1.644   0.663  -2.218  0.00  0.00     0.022 A 
ATOM      8  C7  BZF d   1       0.593  -0.175  -2.041  0.00  0.00     0.029 A 
ATOM      9  C7A BZF d   1       0.005  -0.186  -0.800  0.00  0.00     0.058 A 
ENDROOT
TORSDOF 0
ENDMDL
