MODEL 1
REMARK minimizedAffinity 0.730441153
REMARK minimizedRMSD -1
REMARK  0 active torsions:
REMARK  status: ('A' for Active; 'I' for Inactive)
ROOT
ATOM      1  O1  BZF d   1      -3.667   2.256  -5.349  0.00  0.00    -0.204 OA
ATOM      2  C2  BZF d   1      -4.826   1.515  -5.217  0.00  0.00     0.174 A 
ATOM      3  C3  BZF d   1      -5.913   2.308  -5.304  0.00  0.00    -0.012 A 
ATOM      4  C3A BZF d   1      -5.405   3.613  -5.596  0.00  0.00    -0.107 A 
ATOM      5  C4  BZF d   1      -5.997   4.825  -5.813  0.00  0.00     0.055 A 
ATOM      6  C5  BZF d   1      -5.213   5.919  -5.999  0.00  0.00    -0.016 A 
ATOM      7  C6  BZF d   1      -3.837   5.840  -5.970  0.00  0.00     0.022 A 
ATOM      8  C7  BZF d   1      -3.204   4.659  -5.763  0.00  0.00     0.029 A 
ATOM      9  C7A BZF d   1      -3.993   3.546  -5.607  0.00  0.00     0.058 A 
ENDROOT
TORSDOF 0
ENDMDL
