MODEL 1
REMARK minimizedAffinity -2.45771241
REMARK minimizedRMSD -1
REMARK  0 active torsions:
REMARK  status: ('A' for Active; 'I' for Inactive)
ROOT
ATOM      1  O1  BZF d   1       1.623  -2.087  -1.092  0.00  0.00    -0.204 OA
ATOM      2  C2  BZF d   1       0.782  -2.765  -0.232  0.00  0.00     0.174 A 
ATOM      3  C3  BZF d   1       0.229  -1.920   0.662  0.00  0.00    -0.012 A 
ATOM      4  C3A BZF d   1       0.687  -0.618   0.283  0.00  0.00    -0.107 A 
ATOM      5  C4  BZF d   1       0.469   0.635   0.778  0.00  0.00     0.055 A 
ATOM      6  C5  BZF d   1       1.124   1.688   0.222  0.00  0.00    -0.016 A 
ATOM      7  C6  BZF d   1       2.008   1.524  -0.824  0.00  0.00     0.022 A 
ATOM      8  C7  BZF d   1       2.253   0.300  -1.352  0.00  0.00     0.029 A 
ATOM      9  C7A BZF d   1       1.568  -0.762  -0.815  0.00  0.00     0.058 A 
ENDROOT
TORSDOF 0
ENDMDL
