MODEL 1
REMARK minimizedAffinity -2.47702765
REMARK minimizedRMSD -1
REMARK  0 active torsions:
REMARK  status: ('A' for Active; 'I' for Inactive)
ROOT
ATOM      1  O1  BZF d   1       1.356  -2.421  -0.361  0.00  0.00    -0.204 OA
ATOM      2  C2  BZF d   1       0.441  -2.850   0.581  0.00  0.00     0.174 A 
ATOM      3  C3  BZF d   1      -0.143  -1.800   1.193  0.00  0.00    -0.012 A 
ATOM      4  C3A BZF d   1       0.376  -0.642   0.532  0.00  0.00    -0.107 A 
ATOM      5  C4  BZF d   1       0.163   0.699   0.680  0.00  0.00     0.055 A 
ATOM      6  C5  BZF d   1       0.883   1.570  -0.074  0.00  0.00    -0.016 A 
ATOM      7  C6  BZF d   1       1.827   1.136  -0.981  0.00  0.00     0.022 A 
ATOM      8  C7  BZF d   1       2.071  -0.185  -1.167  0.00  0.00     0.029 A 
ATOM      9  C7A BZF d   1       1.321  -1.068  -0.430  0.00  0.00     0.058 A 
ENDROOT
TORSDOF 0
ENDMDL
