MODEL 1
REMARK minimizedAffinity -1.49105072
REMARK minimizedRMSD -1
REMARK  0 active torsions:
REMARK  status: ('A' for Active; 'I' for Inactive)
ROOT
ATOM      1  C2' OXE d   1      -5.155  -3.179  -0.871  0.00  0.00     0.078 C 
ATOM      2  C1' OXE d   1      -4.531  -1.710  -3.180  0.00  0.00     0.078 C 
ATOM      3  C1  OXE d   1      -4.519  -3.215  -3.279  0.00  0.00    -0.078 A 
ATOM      4  C2  OXE d   1      -4.779  -3.926  -2.132  0.00  0.00    -0.078 A 
ATOM      5  C3  OXE d   1      -4.834  -5.316  -2.181  0.00  0.00     0.003 A 
ATOM      6  C4  OXE d   1      -4.476  -6.000  -3.349  0.00  0.00    -0.002 A 
ATOM      7  C5  OXE d   1      -4.169  -5.295  -4.518  0.00  0.00    -0.002 A 
ATOM      8  C6  OXE d   1      -4.227  -3.906  -4.511  0.00  0.00     0.003 A 
ENDROOT
TORSDOF 0
ENDMDL
