MODEL 1
REMARK minimizedAffinity 0.0889030918
REMARK minimizedRMSD -1
REMARK  0 active torsions:
REMARK  status: ('A' for Active; 'I' for Inactive)
ROOT
ATOM      1  C2' OXE d   1      -3.918  -5.869  -5.939  0.00  0.00     0.078 C 
ATOM      2  C1' OXE d   1      -5.676  -3.681  -5.969  0.00  0.00     0.078 C 
ATOM      3  C1  OXE d   1      -5.362  -4.313  -4.636  0.00  0.00    -0.078 A 
ATOM      4  C2  OXE d   1      -4.538  -5.412  -4.636  0.00  0.00    -0.078 A 
ATOM      5  C3  OXE d   1      -4.172  -5.999  -3.428  0.00  0.00     0.003 A 
ATOM      6  C4  OXE d   1      -4.758  -5.577  -2.229  0.00  0.00    -0.002 A 
ATOM      7  C5  OXE d   1      -5.631  -4.484  -2.211  0.00  0.00    -0.002 A 
ATOM      8  C6  OXE d   1      -5.910  -3.816  -3.398  0.00  0.00     0.003 A 
ENDROOT
TORSDOF 0
ENDMDL
