MODEL 1
REMARK minimizedAffinity -2.87269592
REMARK minimizedRMSD -1
REMARK  0 active torsions:
REMARK  status: ('A' for Active; 'I' for Inactive)
ROOT
ATOM      1  C2' OXE d   1      -4.094  -6.000  -5.684  0.00  0.00     0.078 C 
ATOM      2  C1' OXE d   1      -5.703  -3.706  -5.859  0.00  0.00     0.078 C 
ATOM      3  C1  OXE d   1      -5.460  -4.292  -4.491  0.00  0.00    -0.078 A 
ATOM      4  C2  OXE d   1      -4.710  -5.441  -4.419  0.00  0.00    -0.078 A 
ATOM      5  C3  OXE d   1      -4.410  -5.992  -3.177  0.00  0.00     0.003 A 
ATOM      6  C4  OXE d   1      -4.992  -5.475  -2.013  0.00  0.00    -0.002 A 
ATOM      7  C5  OXE d   1      -5.791  -4.328  -2.068  0.00  0.00    -0.002 A 
ATOM      8  C6  OXE d   1      -5.999  -3.701  -3.291  0.00  0.00     0.003 A 
ENDROOT
TORSDOF 0
ENDMDL
