MODEL 1
REMARK minimizedAffinity 6.9760313
REMARK minimizedRMSD -1
REMARK  0 active torsions:
REMARK  status: ('A' for Active; 'I' for Inactive)
ROOT
ATOM      1  C2' OXE d   1      -2.966  -5.220  -2.458  0.00  0.00     0.078 C 
ATOM      2  C1' OXE d   1      -5.548  -4.120  -2.402  0.00  0.00     0.078 C 
ATOM      3  C1  OXE d   1      -5.096  -4.788  -3.676  0.00  0.00    -0.078 A 
ATOM      4  C2  OXE d   1      -3.814  -5.282  -3.710  0.00  0.00    -0.078 A 
ATOM      5  C3  OXE d   1      -3.365  -5.956  -4.842  0.00  0.00     0.003 A 
ATOM      6  C4  OXE d   1      -4.152  -6.000  -6.000  0.00  0.00    -0.002 A 
ATOM      7  C5  OXE d   1      -5.446  -5.468  -5.999  0.00  0.00    -0.002 A 
ATOM      8  C6  OXE d   1      -5.947  -4.897  -4.835  0.00  0.00     0.003 A 
ENDROOT
TORSDOF 0
ENDMDL
