MODEL 1
REMARK minimizedAffinity 2.13877773
REMARK minimizedRMSD -1
REMARK  0 active torsions:
REMARK  status: ('A' for Active; 'I' for Inactive)
ROOT
ATOM      1  C2' OXE d   1       2.105  -4.500   2.522  0.00  0.00     0.078 C 
ATOM      2  C1' OXE d   1       1.430  -3.074   4.843  0.00  0.00     0.078 C 
ATOM      3  C1  OXE d   1       1.507  -2.309   3.546  0.00  0.00    -0.078 A 
ATOM      4  C2  OXE d   1       1.884  -3.006   2.423  0.00  0.00    -0.078 A 
ATOM      5  C3  OXE d   1       1.917  -2.360   1.190  0.00  0.00     0.003 A 
ATOM      6  C4  OXE d   1       1.721  -0.977   1.109  0.00  0.00    -0.002 A 
ATOM      7  C5  OXE d   1       1.375  -0.241   2.248  0.00  0.00    -0.002 A 
ATOM      8  C6  OXE d   1       1.223  -0.898   3.463  0.00  0.00     0.003 A 
ENDROOT
TORSDOF 0
ENDMDL
