MODEL 1
REMARK minimizedAffinity -0.599395692
REMARK minimizedRMSD -1
REMARK  0 active torsions:
REMARK  status: ('A' for Active; 'I' for Inactive)
ROOT
ATOM      1  C2' OXE d   1      -5.693  -3.601  -6.000  0.00  0.00     0.078 C 
ATOM      2  C1' OXE d   1      -3.637  -5.513  -6.000  0.00  0.00     0.078 C 
ATOM      3  C1  OXE d   1      -4.305  -5.198  -4.685  0.00  0.00    -0.078 A 
ATOM      4  C2  OXE d   1      -5.278  -4.228  -4.686  0.00  0.00    -0.078 A 
ATOM      5  C3  OXE d   1      -5.964  -3.938  -3.510  0.00  0.00     0.003 A 
ATOM      6  C4  OXE d   1      -5.567  -4.514  -2.297  0.00  0.00    -0.002 A 
ATOM      7  C5  OXE d   1      -4.552  -5.476  -2.267  0.00  0.00    -0.002 A 
ATOM      8  C6  OXE d   1      -3.941  -5.859  -3.456  0.00  0.00     0.003 A 
ENDROOT
TORSDOF 0
ENDMDL
