MODEL 1
REMARK minimizedAffinity -2.5911777
REMARK minimizedRMSD -1
REMARK  0 active torsions:
REMARK  status: ('A' for Active; 'I' for Inactive)
ROOT
ATOM      1  C2' OXE d   1      -5.958  -4.026  -1.818  0.00  0.00     0.078 C 
ATOM      2  C1' OXE d   1      -3.962  -5.999  -1.865  0.00  0.00     0.078 C 
ATOM      3  C1  OXE d   1      -4.498  -5.509  -3.187  0.00  0.00    -0.078 A 
ATOM      4  C2  OXE d   1      -5.507  -4.578  -3.153  0.00  0.00    -0.078 A 
ATOM      5  C3  OXE d   1      -5.999  -4.052  -4.345  0.00  0.00     0.003 A 
ATOM      6  C4  OXE d   1      -5.584  -4.575  -5.575  0.00  0.00    -0.002 A 
ATOM      7  C5  OXE d   1      -4.585  -5.553  -5.631  0.00  0.00    -0.002 A 
ATOM      8  C6  OXE d   1      -4.003  -5.999  -4.450  0.00  0.00     0.003 A 
ENDROOT
TORSDOF 0
ENDMDL
