MODEL 1
REMARK minimizedAffinity 9.97560596
REMARK minimizedRMSD -1
REMARK  0 active torsions:
REMARK  status: ('A' for Active; 'I' for Inactive)
ROOT
ATOM      1  C2' OXE d   1       3.373   3.484  -5.052  0.00  0.00     0.078 C 
ATOM      2  C1' OXE d   1       5.347   5.243  -5.992  0.00  0.00     0.078 C 
ATOM      3  C1  OXE d   1       5.097   5.197  -4.506  0.00  0.00    -0.078 A 
ATOM      4  C2  OXE d   1       4.097   4.367  -4.059  0.00  0.00    -0.078 A 
ATOM      5  C3  OXE d   1       3.861   4.245  -2.692  0.00  0.00     0.003 A 
ATOM      6  C4  OXE d   1       4.528   5.073  -1.781  0.00  0.00    -0.002 A 
ATOM      7  C5  OXE d   1       5.523   5.954  -2.219  0.00  0.00    -0.002 A 
ATOM      8  C6  OXE d   1       5.848   5.997  -3.570  0.00  0.00     0.003 A 
ENDROOT
TORSDOF 0
ENDMDL
