MODEL 1
REMARK minimizedAffinity 14.2263746
REMARK minimizedRMSD -1
REMARK  0 active torsions:
REMARK  status: ('A' for Active; 'I' for Inactive)
ROOT
ATOM      1  C2' OXE d   1      -2.051   1.280   0.907  0.00  0.00     0.078 C 
ATOM      2  C1' OXE d   1      -2.945   2.085  -1.629  0.00  0.00     0.078 C 
ATOM      3  C1  OXE d   1      -3.778   2.474  -0.434  0.00  0.00    -0.078 A 
ATOM      4  C2  OXE d   1      -3.358   2.037   0.799  0.00  0.00    -0.078 A 
ATOM      5  C3  OXE d   1      -4.059   2.414   1.941  0.00  0.00     0.003 A 
ATOM      6  C4  OXE d   1      -5.272   3.105   1.831  0.00  0.00    -0.002 A 
ATOM      7  C5  OXE d   1      -5.739   3.526   0.582  0.00  0.00    -0.002 A 
ATOM      8  C6  OXE d   1      -4.984   3.256  -0.554  0.00  0.00     0.003 A 
ENDROOT
TORSDOF 0
ENDMDL
