MODEL 1
REMARK minimizedAffinity 10.0797253
REMARK minimizedRMSD -1
REMARK  0 active torsions:
REMARK  status: ('A' for Active; 'I' for Inactive)
ROOT
ATOM      1  C2' OXE d   1      -5.999   3.748  -0.336  0.00  0.00     0.078 C 
ATOM      2  C1' OXE d   1      -3.442   2.625  -0.054  0.00  0.00     0.078 C 
ATOM      3  C1  OXE d   1      -4.097   2.551  -1.411  0.00  0.00    -0.078 A 
ATOM      4  C2  OXE d   1      -5.367   3.062  -1.528  0.00  0.00    -0.078 A 
ATOM      5  C3  OXE d   1      -5.996   3.069  -2.770  0.00  0.00     0.003 A 
ATOM      6  C4  OXE d   1      -5.409   2.423  -3.865  0.00  0.00    -0.002 A 
ATOM      7  C5  OXE d   1      -4.132   1.861  -3.757  0.00  0.00    -0.002 A 
ATOM      8  C6  OXE d   1      -3.446   1.954  -2.551  0.00  0.00     0.003 A 
ENDROOT
TORSDOF 0
ENDMDL
