MODEL 1
REMARK minimizedAffinity 15.2248354
REMARK minimizedRMSD -1
REMARK  0 active torsions:
REMARK  status: ('A' for Active; 'I' for Inactive)
ROOT
ATOM      1  C2' OXE d   1       4.917   1.568   1.086  0.00  0.00     0.078 C 
ATOM      2  C1' OXE d   1       5.224   1.737  -1.700  0.00  0.00     0.078 C 
ATOM      3  C1  OXE d   1       4.432   0.578  -1.148  0.00  0.00    -0.078 A 
ATOM      4  C2  OXE d   1       4.326   0.477   0.218  0.00  0.00    -0.078 A 
ATOM      5  C3  OXE d   1       3.560  -0.542   0.777  0.00  0.00     0.003 A 
ATOM      6  C4  OXE d   1       3.026  -1.552  -0.032  0.00  0.00    -0.002 A 
ATOM      7  C5  OXE d   1       3.155  -1.490  -1.424  0.00  0.00    -0.002 A 
ATOM      8  C6  OXE d   1       3.818  -0.411  -1.999  0.00  0.00     0.003 A 
ENDROOT
TORSDOF 0
ENDMDL
