MODEL 1
REMARK minimizedAffinity 1.4144305
REMARK minimizedRMSD -1
REMARK  0 active torsions:
REMARK  status: ('A' for Active; 'I' for Inactive)
ROOT
ATOM      1  C2' OXE d   1       1.682   0.371  -0.387  0.00  0.00     0.078 C 
ATOM      2  C1' OXE d   1       3.024  -2.095  -0.375  0.00  0.00     0.078 C 
ATOM      3  C1  OXE d   1       3.856  -0.841  -0.478  0.00  0.00    -0.078 A 
ATOM      4  C2  OXE d   1       3.188   0.359  -0.531  0.00  0.00    -0.078 A 
ATOM      5  C3  OXE d   1       3.910   1.548  -0.571  0.00  0.00     0.003 A 
ATOM      6  C4  OXE d   1       5.303   1.528  -0.713  0.00  0.00    -0.002 A 
ATOM      7  C5  OXE d   1       6.000   0.315  -0.702  0.00  0.00    -0.002 A 
ATOM      8  C6  OXE d   1       5.296  -0.874  -0.543  0.00  0.00     0.003 A 
ENDROOT
TORSDOF 0
ENDMDL
