MODEL 1
REMARK minimizedAffinity 6.04004335
REMARK minimizedRMSD -1
REMARK  0 active torsions:
REMARK  status: ('A' for Active; 'I' for Inactive)
ROOT
ATOM      1  C2' OXE d   1       4.263   1.356  -1.059  0.00  0.00     0.078 C 
ATOM      2  C1' OXE d   1       5.488   2.062   1.366  0.00  0.00     0.078 C 
ATOM      3  C1  OXE d   1       5.452   3.096   0.269  0.00  0.00    -0.078 A 
ATOM      4  C2  OXE d   1       4.892   2.726  -0.931  0.00  0.00    -0.078 A 
ATOM      5  C3  OXE d   1       4.784   3.659  -1.958  0.00  0.00     0.003 A 
ATOM      6  C4  OXE d   1       5.377   4.922  -1.834  0.00  0.00    -0.002 A 
ATOM      7  C5  OXE d   1       5.987   5.305  -0.635  0.00  0.00    -0.002 A 
ATOM      8  C6  OXE d   1       5.995   4.421   0.438  0.00  0.00     0.003 A 
ENDROOT
TORSDOF 0
ENDMDL
