MODEL 1
REMARK minimizedAffinity 8.87768555
REMARK minimizedRMSD -1
REMARK  0 active torsions:
REMARK  status: ('A' for Active; 'I' for Inactive)
ROOT
ATOM      1  C2' OXE d   1       2.968  -1.237  -0.407  0.00  0.00     0.078 C 
ATOM      2  C1' OXE d   1       3.812  -1.215  -3.085  0.00  0.00     0.078 C 
ATOM      3  C1  OXE d   1       4.427  -0.208  -2.145  0.00  0.00    -0.078 A 
ATOM      4  C2  OXE d   1       3.974  -0.195  -0.848  0.00  0.00    -0.078 A 
ATOM      5  C3  OXE d   1       4.546   0.677   0.074  0.00  0.00     0.003 A 
ATOM      6  C4  OXE d   1       5.469   1.644  -0.343  0.00  0.00    -0.002 A 
ATOM      7  C5  OXE d   1       5.915   1.674  -1.669  0.00  0.00    -0.002 A 
ATOM      8  C6  OXE d   1       5.436   0.730  -2.571  0.00  0.00     0.003 A 
ENDROOT
TORSDOF 0
ENDMDL
