MODEL 1
REMARK minimizedAffinity 6.55558109
REMARK minimizedRMSD -1
REMARK  0 active torsions:
REMARK  status: ('A' for Active; 'I' for Inactive)
ROOT
ATOM      1  C2' OXE d   1       1.688   0.004  -0.382  0.00  0.00     0.078 C 
ATOM      2  C1' OXE d   1       3.284  -2.089   0.594  0.00  0.00     0.078 C 
ATOM      3  C1  OXE d   1       3.981  -0.866   0.052  0.00  0.00    -0.078 A 
ATOM      4  C2  OXE d   1       3.193   0.133  -0.466  0.00  0.00    -0.078 A 
ATOM      5  C3  OXE d   1       3.783   1.306  -0.929  0.00  0.00     0.003 A 
ATOM      6  C4  OXE d   1       5.176   1.413  -1.013  0.00  0.00    -0.002 A 
ATOM      7  C5  OXE d   1       5.998   0.391  -0.528  0.00  0.00    -0.002 A 
ATOM      8  C6  OXE d   1       5.417  -0.735   0.046  0.00  0.00     0.003 A 
ENDROOT
TORSDOF 0
ENDMDL
