MODEL 1
REMARK minimizedAffinity 8.84537983
REMARK minimizedRMSD -1
REMARK  0 active torsions:
REMARK  status: ('A' for Active; 'I' for Inactive)
ROOT
ATOM      1  C2' OXE d   1       3.372  -1.639  -1.145  0.00  0.00     0.078 C 
ATOM      2  C1' OXE d   1       1.743   0.603  -0.701  0.00  0.00     0.078 C 
ATOM      3  C1  OXE d   1       3.232   0.823  -0.793  0.00  0.00    -0.078 A 
ATOM      4  C2  OXE d   1       4.026  -0.286  -0.964  0.00  0.00    -0.078 A 
ATOM      5  C3  OXE d   1       5.401  -0.133  -1.109  0.00  0.00     0.003 A 
ATOM      6  C4  OXE d   1       5.998   1.121  -0.930  0.00  0.00    -0.002 A 
ATOM      7  C5  OXE d   1       5.212   2.258  -0.716  0.00  0.00    -0.002 A 
ATOM      8  C6  OXE d   1       3.827   2.133  -0.687  0.00  0.00     0.003 A 
ENDROOT
TORSDOF 0
ENDMDL
