MODEL 1
REMARK minimizedAffinity 15.8933945
REMARK minimizedRMSD -1
REMARK  0 active torsions:
REMARK  status: ('A' for Active; 'I' for Inactive)
ROOT
ATOM      1  C2' OXE d   1       1.898  -5.687   6.000  0.00  0.00     0.078 C 
ATOM      2  C1' OXE d   1      -0.784  -4.922   5.681  0.00  0.00     0.078 C 
ATOM      3  C1  OXE d   1       0.238  -4.301   4.762  0.00  0.00    -0.078 A 
ATOM      4  C2  OXE d   1       1.554  -4.646   4.956  0.00  0.00    -0.078 A 
ATOM      5  C3  OXE d   1       2.531  -4.145   4.100  0.00  0.00     0.003 A 
ATOM      6  C4  OXE d   1       2.206  -3.175   3.144  0.00  0.00    -0.002 A 
ATOM      7  C5  OXE d   1       0.877  -2.780   2.956  0.00  0.00    -0.002 A 
ATOM      8  C6  OXE d   1      -0.122  -3.364   3.727  0.00  0.00     0.003 A 
ENDROOT
TORSDOF 0
ENDMDL
