MODEL 1
REMARK minimizedAffinity 1.01060987
REMARK minimizedRMSD -1
REMARK  0 active torsions:
REMARK  status: ('A' for Active; 'I' for Inactive)
ROOT
ATOM      1  C4' PXY d   1       2.233  -5.237   3.919  0.00  0.00     0.077 C 
ATOM      2  C1' PXY d   1       1.220   0.090   1.918  0.00  0.00     0.077 C 
ATOM      3  C1  PXY d   1       1.492  -1.302   2.453  0.00  0.00    -0.082 A 
ATOM      4  C2  PXY d   1       1.427  -2.340   1.636  0.00  0.00     0.003 A 
ATOM      5  C3  PXY d   1       1.640  -3.610   2.109  0.00  0.00     0.003 A 
ATOM      6  C4  PXY d   1       1.974  -3.813   3.421  0.00  0.00    -0.082 A 
ATOM      7  C5  PXY d   1       2.053  -2.757   4.259  0.00  0.00     0.003 A 
ATOM      8  C6  PXY d   1       1.794  -1.481   3.767  0.00  0.00     0.003 A 
ENDROOT
TORSDOF 0
ENDMDL
