MODEL 1
REMARK minimizedAffinity 12.8959541
REMARK minimizedRMSD -1
REMARK  0 active torsions:
REMARK  status: ('A' for Active; 'I' for Inactive)
ROOT
ATOM      1  C4' PXY d   1       0.874  -4.425   0.140  0.00  0.00     0.077 C 
ATOM      2  C1' PXY d   1       1.381   0.101   3.700  0.00  0.00     0.077 C 
ATOM      3  C1  PXY d   1       1.244  -1.093   2.776  0.00  0.00    -0.082 A 
ATOM      4  C2  PXY d   1       1.972  -1.154   1.674  0.00  0.00     0.003 A 
ATOM      5  C3  PXY d   1       1.838  -2.211   0.811  0.00  0.00     0.003 A 
ATOM      6  C4  PXY d   1       0.987  -3.243   1.107  0.00  0.00    -0.082 A 
ATOM      7  C5  PXY d   1       0.248  -3.193   2.235  0.00  0.00     0.003 A 
ATOM      8  C6  PXY d   1       0.369  -2.091   3.077  0.00  0.00     0.003 A 
ENDROOT
TORSDOF 0
ENDMDL
