MODEL 1
REMARK minimizedAffinity 14.9084568
REMARK minimizedRMSD -1
REMARK  0 active torsions:
REMARK  status: ('A' for Active; 'I' for Inactive)
ROOT
ATOM      1  C4' PXY d   1      -2.772   0.945   0.854  0.00  0.00     0.077 C 
ATOM      2  C1' PXY d   1       1.224   4.786  -0.785  0.00  0.00     0.077 C 
ATOM      3  C1  PXY d   1       0.169   3.781  -0.366  0.00  0.00    -0.082 A 
ATOM      4  C2  PXY d   1       0.060   3.441   0.908  0.00  0.00     0.003 A 
ATOM      5  C3  PXY d   1      -0.868   2.510   1.300  0.00  0.00     0.003 A 
ATOM      6  C4  PXY d   1      -1.728   1.962   0.387  0.00  0.00    -0.082 A 
ATOM      7  C5  PXY d   1      -1.630   2.312  -0.913  0.00  0.00     0.003 A 
ATOM      8  C6  PXY d   1      -0.654   3.228  -1.297  0.00  0.00     0.003 A 
ENDROOT
TORSDOF 0
ENDMDL
