MODEL 1
REMARK minimizedAffinity -4.0876503
REMARK minimizedRMSD -1
REMARK  0 active torsions:
REMARK  status: ('A' for Active; 'I' for Inactive)
ROOT
ATOM      1  C4' PXY d   1       4.129  -3.422   6.000  0.00  0.00     0.077 C 
ATOM      2  C1' PXY d   1       0.537  -1.458   1.919  0.00  0.00     0.077 C 
ATOM      3  C1  PXY d   1       1.472  -1.968   2.998  0.00  0.00    -0.082 A 
ATOM      4  C2  PXY d   1       2.732  -2.237   2.699  0.00  0.00     0.003 A 
ATOM      5  C3  PXY d   1       3.582  -2.729   3.655  0.00  0.00     0.003 A 
ATOM      6  C4  PXY d   1       3.153  -2.897   4.944  0.00  0.00    -0.082 A 
ATOM      7  C5  PXY d   1       1.871  -2.614   5.261  0.00  0.00     0.003 A 
ATOM      8  C6  PXY d   1       1.013  -2.154   4.266  0.00  0.00     0.003 A 
ENDROOT
TORSDOF 0
ENDMDL
