MODEL 1
REMARK minimizedAffinity 6.31378317
REMARK minimizedRMSD -1
REMARK  0 active torsions:
REMARK  status: ('A' for Active; 'I' for Inactive)
ROOT
ATOM      1  C4' PXY d   1       1.337  -3.941   1.263  0.00  0.00     0.077 C 
ATOM      2  C1' PXY d   1       1.932   1.383   3.433  0.00  0.00     0.077 C 
ATOM      3  C1  PXY d   1       1.774  -0.018   2.876  0.00  0.00    -0.082 A 
ATOM      4  C2  PXY d   1       2.306  -0.319   1.702  0.00  0.00     0.003 A 
ATOM      5  C3  PXY d   1       2.146  -1.572   1.169  0.00  0.00     0.003 A 
ATOM      6  C4  PXY d   1       1.479  -2.542   1.868  0.00  0.00    -0.082 A 
ATOM      7  C5  PXY d   1       0.943  -2.246   3.071  0.00  0.00     0.003 A 
ATOM      8  C6  PXY d   1       1.081  -0.956   3.576  0.00  0.00     0.003 A 
ENDROOT
TORSDOF 0
ENDMDL
