MODEL 1
REMARK minimizedAffinity 11.4365749
REMARK minimizedRMSD -1
REMARK  0 active torsions:
REMARK  status: ('A' for Active; 'I' for Inactive)
ROOT
ATOM      1  C4' PXY d   1       1.158  -1.881   2.803  0.00  0.00     0.077 C 
ATOM      2  C1' PXY d   1       2.973   2.788  -0.082  0.00  0.00     0.077 C 
ATOM      3  C1  PXY d   1       2.499   1.570   0.686  0.00  0.00    -0.082 A 
ATOM      4  C2  PXY d   1       2.499   0.385   0.097  0.00  0.00     0.003 A 
ATOM      5  C3  PXY d   1       2.044  -0.722   0.766  0.00  0.00     0.003 A 
ATOM      6  C4  PXY d   1       1.636  -0.625   2.069  0.00  0.00    -0.082 A 
ATOM      7  C5  PXY d   1       1.644   0.578   2.681  0.00  0.00     0.003 A 
ATOM      8  C6  PXY d   1       2.070   1.697   1.971  0.00  0.00     0.003 A 
ENDROOT
TORSDOF 0
ENDMDL
