MODEL 1
REMARK minimizedAffinity 10.2958107
REMARK minimizedRMSD -1
REMARK  0 active torsions:
REMARK  status: ('A' for Active; 'I' for Inactive)
ROOT
ATOM      1  C4' PXY d   1       6.000  -4.366   2.247  0.00  0.00     0.077 C 
ATOM      2  C1' PXY d   1       0.717  -2.022   2.371  0.00  0.00     0.077 C 
ATOM      3  C1  PXY d   1       2.099  -2.645   2.347  0.00  0.00    -0.082 A 
ATOM      4  C2  PXY d   1       3.136  -1.923   1.955  0.00  0.00     0.003 A 
ATOM      5  C3  PXY d   1       4.387  -2.480   1.898  0.00  0.00     0.003 A 
ATOM      6  C4  PXY d   1       4.588  -3.775   2.296  0.00  0.00    -0.082 A 
ATOM      7  C5  PXY d   1       3.537  -4.515   2.707  0.00  0.00     0.003 A 
ATOM      8  C6  PXY d   1       2.268  -3.943   2.719  0.00  0.00     0.003 A 
ENDROOT
TORSDOF 0
ENDMDL
