MODEL 1
REMARK minimizedAffinity 15.7879972
REMARK minimizedRMSD -1
REMARK  0 active torsions:
REMARK  status: ('A' for Active; 'I' for Inactive)
ROOT
ATOM      1  C4' PXY d   1       0.392  -3.326   4.564  0.00  0.00     0.077 C 
ATOM      2  C1' PXY d   1       6.000  -3.076   3.184  0.00  0.00     0.077 C 
ATOM      3  C1  PXY d   1       4.527  -3.132   3.538  0.00  0.00    -0.082 A 
ATOM      4  C2  PXY d   1       4.151  -3.659   4.692  0.00  0.00     0.003 A 
ATOM      5  C3  PXY d   1       2.821  -3.746   5.013  0.00  0.00     0.003 A 
ATOM      6  C4  PXY d   1       1.869  -3.240   4.169  0.00  0.00    -0.082 A 
ATOM      7  C5  PXY d   1       2.245  -2.691   2.995  0.00  0.00     0.003 A 
ATOM      8  C6  PXY d   1       3.598  -2.650   2.668  0.00  0.00     0.003 A 
ENDROOT
TORSDOF 0
ENDMDL
