MODEL 1
REMARK minimizedAffinity 8.9113636
REMARK minimizedRMSD -1
REMARK  0 active torsions:
REMARK  status: ('A' for Active; 'I' for Inactive)
ROOT
ATOM      1  C4' PXY d   1      -5.038  -0.473  -3.926  0.00  0.00     0.077 C 
ATOM      2  C1' PXY d   1      -4.993  -5.871  -5.992  0.00  0.00     0.077 C 
ATOM      3  C1  PXY d   1      -5.010  -4.451  -5.461  0.00  0.00    -0.082 A 
ATOM      4  C2  PXY d   1      -4.146  -4.092  -4.526  0.00  0.00     0.003 A 
ATOM      5  C3  PXY d   1      -4.169  -2.821  -4.012  0.00  0.00     0.003 A 
ATOM      6  C4  PXY d   1      -5.050  -1.893  -4.498  0.00  0.00    -0.082 A 
ATOM      7  C5  PXY d   1      -5.928  -2.249  -5.460  0.00  0.00     0.003 A 
ATOM      8  C6  PXY d   1      -5.916  -3.556  -5.939  0.00  0.00     0.003 A 
ENDROOT
TORSDOF 0
ENDMDL
