MODEL 1
REMARK minimizedAffinity -3.13748717
REMARK minimizedRMSD -1
REMARK  0 active torsions:
REMARK  status: ('A' for Active; 'I' for Inactive)
ROOT
ATOM      1  C   UNL d   1       1.480   0.808  -1.797  0.00  0.00     0.077 C 
ATOM      2  C1  UNL d   1       0.622   0.436  -0.625  0.00  0.00    -0.074 A 
ATOM      3  C2  UNL d   1       0.796  -0.784   0.036  0.00  0.00    -0.005 A 
ATOM      4  C3  UNL d   1      -0.004  -1.112   1.131  0.00  0.00     0.006 A 
ATOM      5  C4  UNL d   1      -0.985  -0.224   1.575  0.00  0.00    -0.005 A 
ATOM      6  C5  UNL d   1      -1.173   1.001   0.927  0.00  0.00    -0.074 A 
ATOM      7  C6  UNL d   1      -2.216   1.970   1.398  0.00  0.00     0.077 C 
ATOM      8  C7  UNL d   1      -0.360   1.326  -0.167  0.00  0.00    -0.001 A 
ENDROOT
TORSDOF 0
ENDMDL
