MODEL 1
REMARK minimizedAffinity -4.27369452
REMARK minimizedRMSD -1
REMARK  0 active torsions:
REMARK  status: ('A' for Active; 'I' for Inactive)
ROOT
ATOM      1  C   UNL d   1       1.118  -0.151  -1.473  0.00  0.00     0.077 C 
ATOM      2  C1  UNL d   1       0.310  -0.010  -0.217  0.00  0.00    -0.074 A 
ATOM      3  C2  UNL d   1       0.468  -0.908   0.844  0.00  0.00    -0.005 A 
ATOM      4  C3  UNL d   1      -0.284  -0.759   2.009  0.00  0.00     0.006 A 
ATOM      5  C4  UNL d   1      -1.198   0.288   2.126  0.00  0.00    -0.005 A 
ATOM      6  C5  UNL d   1      -1.369   1.196   1.077  0.00  0.00    -0.074 A 
ATOM      7  C6  UNL d   1      -2.341   2.333   1.190  0.00  0.00     0.077 C 
ATOM      8  C7  UNL d   1      -0.605   1.044  -0.089  0.00  0.00    -0.001 A 
ENDROOT
TORSDOF 0
ENDMDL
