MODEL 1
REMARK minimizedAffinity -3.36975408
REMARK minimizedRMSD -1
REMARK  0 active torsions:
REMARK  status: ('A' for Active; 'I' for Inactive)
ROOT
ATOM      1  C   UNL d   1       1.640  -2.130  -1.134  0.00  0.00     0.077 C 
ATOM      2  C1  UNL d   1       1.093  -0.734  -1.146  0.00  0.00    -0.074 A 
ATOM      3  C2  UNL d   1       1.648   0.249  -1.972  0.00  0.00    -0.005 A 
ATOM      4  C3  UNL d   1       1.122   1.541  -1.979  0.00  0.00     0.006 A 
ATOM      5  C4  UNL d   1       0.037   1.863  -1.163  0.00  0.00    -0.005 A 
ATOM      6  C5  UNL d   1      -0.532   0.893  -0.331  0.00  0.00    -0.074 A 
ATOM      7  C6  UNL d   1      -1.704   1.219   0.545  0.00  0.00     0.077 C 
ATOM      8  C7  UNL d   1      -0.002  -0.405  -0.334  0.00  0.00    -0.001 A 
ENDROOT
TORSDOF 0
ENDMDL
