MODEL 1
REMARK minimizedAffinity -5.42763281
REMARK minimizedRMSD -1
REMARK  0 active torsions:
REMARK  status: ('A' for Active; 'I' for Inactive)
ROOT
ATOM      1  C   UNL d   1       1.230   0.082  -1.937  0.00  0.00     0.077 C 
ATOM      2  C1  UNL d   1       0.466   0.094  -0.646  0.00  0.00    -0.074 A 
ATOM      3  C2  UNL d   1       0.796  -0.782   0.393  0.00  0.00    -0.005 A 
ATOM      4  C3  UNL d   1       0.083  -0.752   1.591  0.00  0.00     0.006 A 
ATOM      5  C4  UNL d   1      -0.967   0.152   1.762  0.00  0.00    -0.005 A 
ATOM      6  C5  UNL d   1      -1.311   1.035   0.734  0.00  0.00    -0.074 A 
ATOM      7  C6  UNL d   1      -2.430   2.020   0.905  0.00  0.00     0.077 C 
ATOM      8  C7  UNL d   1      -0.585   1.005  -0.464  0.00  0.00    -0.001 A 
ENDROOT
TORSDOF 0
ENDMDL
