MODEL 1
REMARK minimizedAffinity -2.79695749
REMARK minimizedRMSD -1
REMARK  0 active torsions:
REMARK  status: ('A' for Active; 'I' for Inactive)
ROOT
ATOM      1  C   UNL d   1      -2.071   1.125   2.114  0.00  0.00     0.077 C 
ATOM      2  C1  UNL d   1      -1.236   1.032   0.872  0.00  0.00    -0.074 A 
ATOM      3  C2  UNL d   1      -1.010   2.157   0.072  0.00  0.00    -0.005 A 
ATOM      4  C3  UNL d   1      -0.223   2.058  -1.075  0.00  0.00     0.006 A 
ATOM      5  C4  UNL d   1       0.345   0.835  -1.435  0.00  0.00    -0.005 A 
ATOM      6  C5  UNL d   1       0.130  -0.301  -0.647  0.00  0.00    -0.074 A 
ATOM      7  C6  UNL d   1       0.741  -1.621  -1.013  0.00  0.00     0.077 C 
ATOM      8  C7  UNL d   1      -0.656  -0.191   0.508  0.00  0.00    -0.001 A 
ENDROOT
TORSDOF 0
ENDMDL
