MODEL 1
REMARK minimizedAffinity -3.67026067
REMARK minimizedRMSD -1
REMARK  0 active torsions:
REMARK  status: ('A' for Active; 'I' for Inactive)
ROOT
ATOM      1  C   UNL d   1      -2.424   2.325   1.041  0.00  0.00     0.077 C 
ATOM      2  C1  UNL d   1      -1.361   1.317   0.720  0.00  0.00    -0.074 A 
ATOM      3  C2  UNL d   1      -0.672   1.363  -0.497  0.00  0.00    -0.005 A 
ATOM      4  C3  UNL d   1       0.321   0.424  -0.778  0.00  0.00     0.006 A 
ATOM      5  C4  UNL d   1       0.634  -0.567   0.152  0.00  0.00    -0.005 A 
ATOM      6  C5  UNL d   1      -0.043  -0.628   1.374  0.00  0.00    -0.074 A 
ATOM      7  C6  UNL d   1       0.288  -1.681   2.389  0.00  0.00     0.077 C 
ATOM      8  C7  UNL d   1      -1.035   0.323   1.652  0.00  0.00    -0.001 A 
ENDROOT
TORSDOF 0
ENDMDL
