MODEL 1
REMARK minimizedAffinity -2.29084682
REMARK minimizedRMSD -1
REMARK  0 active torsions:
REMARK  status: ('A' for Active; 'I' for Inactive)
ROOT
ATOM      1  C   UNL d   1      -3.069   1.635   0.703  0.00  0.00     0.077 C 
ATOM      2  C1  UNL d   1      -1.722   0.976   0.749  0.00  0.00    -0.074 A 
ATOM      3  C2  UNL d   1      -0.859   1.181   1.831  0.00  0.00    -0.005 A 
ATOM      4  C3  UNL d   1       0.387   0.554   1.865  0.00  0.00     0.006 A 
ATOM      5  C4  UNL d   1       0.781  -0.282   0.820  0.00  0.00    -0.005 A 
ATOM      6  C5  UNL d   1      -0.069  -0.499  -0.269  0.00  0.00    -0.074 A 
ATOM      7  C6  UNL d   1       0.335  -1.403  -1.396  0.00  0.00     0.077 C 
ATOM      8  C7  UNL d   1      -1.322   0.128  -0.293  0.00  0.00    -0.001 A 
ENDROOT
TORSDOF 0
ENDMDL
