MODEL 1
REMARK minimizedAffinity -4.11047173
REMARK minimizedRMSD -1
REMARK  0 active torsions:
REMARK  status: ('A' for Active; 'I' for Inactive)
ROOT
ATOM      1  C   UNL d   1       1.330   1.789  -1.839  0.00  0.00     0.077 C 
ATOM      2  C1  UNL d   1       0.591   1.245  -0.652  0.00  0.00    -0.074 A 
ATOM      3  C2  UNL d   1       1.226   0.403   0.267  0.00  0.00    -0.005 A 
ATOM      4  C3  UNL d   1       0.528  -0.087   1.370  0.00  0.00     0.006 A 
ATOM      5  C4  UNL d   1      -0.810   0.259   1.566  0.00  0.00    -0.005 A 
ATOM      6  C5  UNL d   1      -1.461   1.101   0.658  0.00  0.00    -0.074 A 
ATOM      7  C6  UNL d   1      -2.895   1.490   0.859  0.00  0.00     0.077 C 
ATOM      8  C7  UNL d   1      -0.751   1.595  -0.444  0.00  0.00    -0.001 A 
ENDROOT
TORSDOF 0
ENDMDL
