MODEL 1
REMARK minimizedAffinity -4.20868778
REMARK minimizedRMSD -1
REMARK  0 active torsions:
REMARK  status: ('A' for Active; 'I' for Inactive)
ROOT
ATOM      1  C   UNL d   1       1.357   0.635  -1.668  0.00  0.00     0.077 C 
ATOM      2  C1  UNL d   1       0.494   0.512  -0.447  0.00  0.00    -0.074 A 
ATOM      3  C2  UNL d   1       0.614  -0.588   0.409  0.00  0.00    -0.005 A 
ATOM      4  C3  UNL d   1      -0.189  -0.684   1.545  0.00  0.00     0.006 A 
ATOM      5  C4  UNL d   1      -1.119   0.315   1.836  0.00  0.00    -0.005 A 
ATOM      6  C5  UNL d   1      -1.252   1.422   0.992  0.00  0.00    -0.074 A 
ATOM      7  C6  UNL d   1      -2.239   2.510   1.295  0.00  0.00     0.077 C 
ATOM      8  C7  UNL d   1      -0.436   1.515  -0.144  0.00  0.00    -0.001 A 
ENDROOT
TORSDOF 0
ENDMDL
