MODEL 1
REMARK minimizedAffinity -1.7129575
REMARK minimizedRMSD -1
REMARK  0 active torsions:
REMARK  status: ('A' for Active; 'I' for Inactive)
ROOT
ATOM      1  C   UNL d   1       0.979   1.840  -1.720  0.00  0.00     0.077 C 
ATOM      2  C1  UNL d   1       0.250   1.188  -0.583  0.00  0.00    -0.074 A 
ATOM      3  C2  UNL d   1       0.542  -0.125  -0.199  0.00  0.00    -0.005 A 
ATOM      4  C3  UNL d   1      -0.137  -0.714   0.867  0.00  0.00     0.006 A 
ATOM      5  C4  UNL d   1      -1.115   0.002   1.559  0.00  0.00    -0.005 A 
ATOM      6  C5  UNL d   1      -1.420   1.316   1.191  0.00  0.00    -0.074 A 
ATOM      7  C6  UNL d   1      -2.461   2.103   1.930  0.00  0.00     0.077 C 
ATOM      8  C7  UNL d   1      -0.728   1.904   0.123  0.00  0.00    -0.001 A 
ENDROOT
TORSDOF 0
ENDMDL
