MODEL 1
REMARK minimizedAffinity -4.05383253
REMARK minimizedRMSD -1
REMARK  0 active torsions:
REMARK  status: ('A' for Active; 'I' for Inactive)
ROOT
ATOM      1  C   UNL d   1      -2.051   1.939   1.348  0.00  0.00     0.077 C 
ATOM      2  C1  UNL d   1      -1.189   0.725   1.170  0.00  0.00    -0.074 A 
ATOM      3  C2  UNL d   1      -0.867  -0.094   2.257  0.00  0.00    -0.005 A 
ATOM      4  C3  UNL d   1      -0.071  -1.225   2.074  0.00  0.00     0.006 A 
ATOM      5  C4  UNL d   1       0.410  -1.548   0.804  0.00  0.00    -0.005 A 
ATOM      6  C5  UNL d   1       0.097  -0.741  -0.295  0.00  0.00    -0.074 A 
ATOM      7  C6  UNL d   1       0.597  -1.079  -1.668  0.00  0.00     0.077 C 
ATOM      8  C7  UNL d   1      -0.709   0.390  -0.104  0.00  0.00    -0.001 A 
ENDROOT
TORSDOF 0
ENDMDL
