MODEL 1
REMARK minimizedAffinity -4.18580627
REMARK minimizedRMSD -1
REMARK  0 active torsions:
REMARK  status: ('A' for Active; 'I' for Inactive)
ROOT
ATOM      1  C   UNL d   1       0.745  -1.924  -0.771  0.00  0.00     0.077 C 
ATOM      2  C1  UNL d   1       0.046  -0.705  -0.249  0.00  0.00    -0.074 A 
ATOM      3  C2  UNL d   1      -0.638  -0.735   0.971  0.00  0.00    -0.005 A 
ATOM      4  C3  UNL d   1      -1.275   0.410   1.448  0.00  0.00     0.006 A 
ATOM      5  C4  UNL d   1      -1.236   1.595   0.712  0.00  0.00    -0.005 A 
ATOM      6  C5  UNL d   1      -0.556   1.644  -0.509  0.00  0.00    -0.074 A 
ATOM      7  C6  UNL d   1      -0.496   2.912  -1.308  0.00  0.00     0.077 C 
ATOM      8  C7  UNL d   1       0.088   0.492  -0.978  0.00  0.00    -0.001 A 
ENDROOT
TORSDOF 0
ENDMDL
