MODEL 1
REMARK minimizedAffinity -5.49443483
REMARK minimizedRMSD -1
REMARK  0 active torsions:
REMARK  status: ('A' for Active; 'I' for Inactive)
ROOT
ATOM      1  C   UNL d   1      -2.446   2.500   0.982  0.00  0.00     0.077 C 
ATOM      2  C1  UNL d   1      -1.485   1.354   1.082  0.00  0.00    -0.074 A 
ATOM      3  C2  UNL d   1      -1.127   0.822   2.326  0.00  0.00    -0.005 A 
ATOM      4  C3  UNL d   1      -0.239  -0.251   2.403  0.00  0.00     0.006 A 
ATOM      5  C4  UNL d   1       0.300  -0.802   1.240  0.00  0.00    -0.005 A 
ATOM      6  C5  UNL d   1      -0.047  -0.285  -0.013  0.00  0.00    -0.074 A 
ATOM      7  C6  UNL d   1       0.515  -0.872  -1.273  0.00  0.00     0.077 C 
ATOM      8  C7  UNL d   1      -0.946   0.789  -0.082  0.00  0.00    -0.001 A 
ENDROOT
TORSDOF 0
ENDMDL
