MODEL 1
REMARK minimizedAffinity -2.6035161
REMARK minimizedRMSD -1
REMARK  0 active torsions:
REMARK  status: ('A' for Active; 'I' for Inactive)
ROOT
ATOM      1  C   UNL d   1      -2.515   2.034   0.945  0.00  0.00     0.077 C 
ATOM      2  C1  UNL d   1      -1.356   1.085   0.889  0.00  0.00    -0.074 A 
ATOM      3  C2  UNL d   1      -0.652   0.740   2.048  0.00  0.00    -0.005 A 
ATOM      4  C3  UNL d   1       0.418  -0.152   1.982  0.00  0.00     0.006 A 
ATOM      5  C4  UNL d   1       0.795  -0.708   0.759  0.00  0.00    -0.005 A 
ATOM      6  C5  UNL d   1       0.103  -0.376  -0.410  0.00  0.00    -0.074 A 
ATOM      7  C6  UNL d   1       0.489  -0.972  -1.731  0.00  0.00     0.077 C 
ATOM      8  C7  UNL d   1      -0.975   0.516  -0.334  0.00  0.00    -0.001 A 
ENDROOT
TORSDOF 0
ENDMDL
