MODEL 1
REMARK minimizedAffinity -2.24055696
REMARK minimizedRMSD -1
REMARK  0 active torsions:
REMARK  status: ('A' for Active; 'I' for Inactive)
ROOT
ATOM      1  C   UNL d   1      -1.457   1.045   3.116  0.00  0.00     0.077 C 
ATOM      2  C1  UNL d   1      -1.092   0.991   1.662  0.00  0.00    -0.074 A 
ATOM      3  C2  UNL d   1      -1.559   1.958   0.767  0.00  0.00    -0.005 A 
ATOM      4  C3  UNL d   1      -1.204   1.900  -0.580  0.00  0.00     0.006 A 
ATOM      5  C4  UNL d   1      -0.379   0.875  -1.046  0.00  0.00    -0.005 A 
ATOM      6  C5  UNL d   1       0.098  -0.101  -0.166  0.00  0.00    -0.074 A 
ATOM      7  C6  UNL d   1       0.993  -1.204  -0.648  0.00  0.00     0.077 C 
ATOM      8  C7  UNL d   1      -0.258  -0.032   1.188  0.00  0.00    -0.001 A 
ENDROOT
TORSDOF 0
ENDMDL
