MODEL 1
REMARK minimizedAffinity -4.11892319
REMARK minimizedRMSD -1
REMARK  0 active torsions:
REMARK  status: ('A' for Active; 'I' for Inactive)
ROOT
ATOM      1  C   UNL d   1       0.357  -1.786   2.169  0.00  0.00     0.077 C 
ATOM      2  C1  UNL d   1      -0.078  -0.674   1.261  0.00  0.00    -0.074 A 
ATOM      3  C2  UNL d   1       0.459  -0.543  -0.024  0.00  0.00    -0.005 A 
ATOM      4  C3  UNL d   1       0.038   0.490  -0.860  0.00  0.00     0.006 A 
ATOM      5  C4  UNL d   1      -0.922   1.403  -0.420  0.00  0.00    -0.005 A 
ATOM      6  C5  UNL d   1      -1.471   1.287   0.861  0.00  0.00    -0.074 A 
ATOM      7  C6  UNL d   1      -2.511   2.253   1.345  0.00  0.00     0.077 C 
ATOM      8  C7  UNL d   1      -1.048   0.241   1.692  0.00  0.00    -0.001 A 
ENDROOT
TORSDOF 0
ENDMDL
