MODEL 1
REMARK minimizedAffinity -3.99033785
REMARK minimizedRMSD -1
REMARK  0 active torsions:
REMARK  status: ('A' for Active; 'I' for Inactive)
ROOT
ATOM      1  C   UNL d   1      -2.132   1.590   1.078  0.00  0.00     0.077 C 
ATOM      2  C1  UNL d   1      -1.018   1.224   0.142  0.00  0.00    -0.074 A 
ATOM      3  C2  UNL d   1      -0.486   2.166  -0.744  0.00  0.00    -0.005 A 
ATOM      4  C3  UNL d   1       0.557   1.814  -1.602  0.00  0.00     0.006 A 
ATOM      5  C4  UNL d   1       1.076   0.519  -1.582  0.00  0.00    -0.005 A 
ATOM      6  C5  UNL d   1       0.556  -0.436  -0.702  0.00  0.00    -0.074 A 
ATOM      7  C6  UNL d   1       1.110  -1.829  -0.661  0.00  0.00     0.077 C 
ATOM      8  C7  UNL d   1      -0.486  -0.072   0.161  0.00  0.00    -0.001 A 
ENDROOT
TORSDOF 0
ENDMDL
