MODEL 1
REMARK minimizedAffinity 4.9603219
REMARK minimizedRMSD -1
REMARK  1 active torsions:
REMARK  status: ('A' for Active; 'I' for Inactive)
REMARK    1  A    between atoms: C1_2  and  C2_3 
ROOT
ATOM      1  C2  UNL d   1      -5.220  -0.679   0.649  0.00  0.00    -0.081 A 
ATOM      2  C3  UNL d   1      -3.839  -0.496   0.788  0.00  0.00     0.006 A 
ATOM      3  C4  UNL d   1      -3.108  -1.273   1.691  0.00  0.00     0.002 A 
ATOM      4  C5  UNL d   1      -3.745  -2.250   2.463  0.00  0.00    -0.080 A 
ATOM      5  C6  UNL d   1      -2.968  -3.111   3.414  0.00  0.00     0.076 C 
ATOM      6  C7  UNL d   1      -5.128  -2.422   2.337  0.00  0.00     0.002 A 
ATOM      7  C8  UNL d   1      -5.858  -1.645   1.435  0.00  0.00     0.006 A 
ENDROOT
BRANCH   1   8
ATOM      8  C1  UNL d   1      -5.999   0.112  -0.370  0.00  0.00     0.054 C 
ATOM      9  C   UNL d   1      -5.084   1.008  -1.193  0.00  0.00     0.018 C 
ENDBRANCH   1   8
TORSDOF 1
ENDMDL
