MODEL 1
REMARK minimizedAffinity 10.1941452
REMARK minimizedRMSD -1
REMARK  1 active torsions:
REMARK  status: ('A' for Active; 'I' for Inactive)
REMARK    1  A    between atoms: C1_2  and  C2_3 
ROOT
ATOM      1  C2  UNL d   1       4.934  -4.544  -2.066  0.00  0.00    -0.081 A 
ATOM      2  C3  UNL d   1       5.670  -4.960  -3.182  0.00  0.00     0.006 A 
ATOM      3  C4  UNL d   1       6.000  -4.052  -4.191  0.00  0.00     0.002 A 
ATOM      4  C5  UNL d   1       5.607  -2.712  -4.097  0.00  0.00    -0.080 A 
ATOM      5  C6  UNL d   1       5.980  -1.721  -5.158  0.00  0.00     0.076 C 
ATOM      6  C7  UNL d   1       4.857  -2.301  -2.990  0.00  0.00     0.002 A 
ATOM      7  C8  UNL d   1       4.526  -3.208  -1.981  0.00  0.00     0.006 A 
ENDROOT
BRANCH   1   8
ATOM      8  C1  UNL d   1       4.633  -5.506  -0.945  0.00  0.00     0.054 C 
ATOM      9  C   UNL d   1       3.465  -5.021  -0.098  0.00  0.00     0.018 C 
ENDBRANCH   1   8
TORSDOF 1
ENDMDL
