MODEL 1
REMARK minimizedAffinity 8.07135868
REMARK minimizedRMSD -1
REMARK  1 active torsions:
REMARK  status: ('A' for Active; 'I' for Inactive)
REMARK    1  A    between atoms: C1_2  and  C2_3 
ROOT
ATOM      1  C2  UNL d   1       1.568   2.646  -0.161  0.00  0.00    -0.081 A 
ATOM      2  C3  UNL d   1       1.948   3.647  -1.064  0.00  0.00     0.006 A 
ATOM      3  C4  UNL d   1       1.004   4.229  -1.913  0.00  0.00     0.002 A 
ATOM      4  C5  UNL d   1      -0.335   3.827  -1.869  0.00  0.00    -0.080 A 
ATOM      5  C6  UNL d   1      -1.364   4.466  -2.754  0.00  0.00     0.076 C 
ATOM      6  C7  UNL d   1      -0.711   2.815  -0.979  0.00  0.00     0.002 A 
ATOM      7  C8  UNL d   1       0.232   2.231  -0.130  0.00  0.00     0.006 A 
ENDROOT
BRANCH   1   8
ATOM      8  C1  UNL d   1       2.570   2.061   0.801  0.00  0.00     0.054 C 
ATOM      9  C   UNL d   1       2.007   1.992   2.213  0.00  0.00     0.018 C 
ENDBRANCH   1   8
TORSDOF 1
ENDMDL
