MODEL 1
REMARK minimizedAffinity 0.720489264
REMARK minimizedRMSD -1
REMARK  1 active torsions:
REMARK  status: ('A' for Active; 'I' for Inactive)
REMARK    1  A    between atoms: C1_2  and  C2_3 
ROOT
ATOM      1  C2  UNL d   1       0.749   4.709  -0.780  0.00  0.00    -0.081 A 
ATOM      2  C3  UNL d   1      -0.002   3.712  -1.414  0.00  0.00     0.006 A 
ATOM      3  C4  UNL d   1      -0.345   2.541  -0.733  0.00  0.00     0.002 A 
ATOM      4  C5  UNL d   1       0.051   2.351   0.595  0.00  0.00    -0.080 A 
ATOM      5  C6  UNL d   1      -0.335   1.113   1.347  0.00  0.00     0.076 C 
ATOM      6  C7  UNL d   1       0.817   3.339   1.223  0.00  0.00     0.002 A 
ATOM      7  C8  UNL d   1       1.160   4.510   0.543  0.00  0.00     0.006 A 
ENDROOT
BRANCH   1   8
ATOM      8  C1  UNL d   1       1.065   6.000  -1.490  0.00  0.00     0.054 C 
ATOM      9  C   UNL d   1       0.513   6.000  -2.909  0.00  0.00     0.018 C 
ENDBRANCH   1   8
TORSDOF 1
ENDMDL
