MODEL 1
REMARK minimizedAffinity 1.23019493
REMARK minimizedRMSD -1
REMARK  1 active torsions:
REMARK  status: ('A' for Active; 'I' for Inactive)
REMARK    1  A    between atoms: C1_2  and  C2_3 
ROOT
ATOM      1  C2  UNL d   1       0.140  -4.794  -2.441  0.00  0.00    -0.081 A 
ATOM      2  C3  UNL d   1      -0.320  -6.000  -2.986  0.00  0.00     0.006 A 
ATOM      3  C4  UNL d   1      -1.132  -6.000  -4.122  0.00  0.00     0.002 A 
ATOM      4  C5  UNL d   1      -1.491  -4.796  -4.737  0.00  0.00    -0.080 A 
ATOM      5  C6  UNL d   1      -2.338  -4.783  -5.976  0.00  0.00     0.076 C 
ATOM      6  C7  UNL d   1      -1.047  -3.590  -4.184  0.00  0.00     0.002 A 
ATOM      7  C8  UNL d   1      -0.235  -3.590  -3.047  0.00  0.00     0.006 A 
ENDROOT
BRANCH   1   8
ATOM      8  C1  UNL d   1       1.069  -4.794  -1.254  0.00  0.00     0.054 C 
ATOM      9  C   UNL d   1       0.387  -4.226  -0.018  0.00  0.00     0.018 C 
ENDBRANCH   1   8
TORSDOF 1
ENDMDL
