MODEL 1
REMARK minimizedAffinity 8.39964771
REMARK minimizedRMSD -1
REMARK  1 active torsions:
REMARK  status: ('A' for Active; 'I' for Inactive)
REMARK    1  A    between atoms: C1_2  and  C2_3 
ROOT
ATOM      1  C2  UNL d   1       1.686  -2.204   4.768  0.00  0.00    -0.081 A 
ATOM      2  C3  UNL d   1       2.045  -2.898   5.930  0.00  0.00     0.006 A 
ATOM      3  C4  UNL d   1       3.262  -3.582   5.999  0.00  0.00     0.002 A 
ATOM      4  C5  UNL d   1       4.141  -3.577   4.912  0.00  0.00    -0.080 A 
ATOM      5  C6  UNL d   1       5.464  -4.281   4.984  0.00  0.00     0.076 C 
ATOM      6  C7  UNL d   1       3.775  -2.898   3.745  0.00  0.00     0.002 A 
ATOM      7  C8  UNL d   1       2.559  -2.215   3.675  0.00  0.00     0.006 A 
ENDROOT
BRANCH   1   8
ATOM      8  C1  UNL d   1       0.404  -1.413   4.714  0.00  0.00     0.054 C 
ATOM      9  C   UNL d   1      -0.396  -1.566   6.000  0.00  0.00     0.018 C 
ENDBRANCH   1   8
TORSDOF 1
ENDMDL
