MODEL 1
REMARK minimizedAffinity 8.21367645
REMARK minimizedRMSD -1
REMARK  1 active torsions:
REMARK  status: ('A' for Active; 'I' for Inactive)
REMARK    1  A    between atoms: C1_2  and  C2_3 
ROOT
ATOM      1  C2  UNL d   1       3.666  -3.504  -1.312  0.00  0.00    -0.081 A 
ATOM      2  C3  UNL d   1       3.628  -3.010  -2.622  0.00  0.00     0.006 A 
ATOM      3  C4  UNL d   1       4.138  -3.768  -3.680  0.00  0.00     0.002 A 
ATOM      4  C5  UNL d   1       4.686  -5.034  -3.446  0.00  0.00    -0.080 A 
ATOM      5  C6  UNL d   1       5.209  -5.870  -4.576  0.00  0.00     0.076 C 
ATOM      6  C7  UNL d   1       4.740  -5.520  -2.135  0.00  0.00     0.002 A 
ATOM      7  C8  UNL d   1       4.231  -4.762  -1.078  0.00  0.00     0.006 A 
ENDROOT
BRANCH   1   8
ATOM      8  C1  UNL d   1       3.059  -2.717  -0.179  0.00  0.00     0.054 C 
ATOM      9  C   UNL d   1       1.865  -3.444   0.422  0.00  0.00     0.018 C 
ENDBRANCH   1   8
TORSDOF 1
ENDMDL
