MODEL 1
REMARK minimizedAffinity -0.31392476
REMARK minimizedRMSD -1
REMARK  1 active torsions:
REMARK  status: ('A' for Active; 'I' for Inactive)
REMARK    1  A    between atoms: C1_2  and  C2_3 
ROOT
ATOM      1  C2  UNL d   1       4.417  -2.509  -0.909  0.00  0.00    -0.081 A 
ATOM      2  C3  UNL d   1       4.002  -2.147  -2.196  0.00  0.00     0.006 A 
ATOM      3  C4  UNL d   1       3.766  -3.125  -3.165  0.00  0.00     0.002 A 
ATOM      4  C5  UNL d   1       3.934  -4.480  -2.861  0.00  0.00    -0.080 A 
ATOM      5  C6  UNL d   1       3.655  -5.541  -3.884  0.00  0.00     0.076 C 
ATOM      6  C7  UNL d   1       4.365  -4.841  -1.580  0.00  0.00     0.002 A 
ATOM      7  C8  UNL d   1       4.602  -3.863  -0.611  0.00  0.00     0.006 A 
ENDROOT
BRANCH   1   8
ATOM      8  C1  UNL d   1       4.610  -1.461   0.158  0.00  0.00     0.054 C 
ATOM      9  C   UNL d   1       3.275  -0.953   0.682  0.00  0.00     0.018 C 
ENDBRANCH   1   8
TORSDOF 1
ENDMDL
