MODEL 1
REMARK minimizedAffinity -2.23611522
REMARK minimizedRMSD -1
REMARK  0 active torsions:
REMARK  status: ('A' for Active; 'I' for Inactive)
ROOT
ATOM      1  C1  BNZ d   1      -0.144   1.009  -0.071  0.00  0.00     0.000 A 
ATOM      2  C2  BNZ d   1       0.122   2.241  -0.608  0.00  0.00     0.000 A 
ATOM      3  C3  BNZ d   1      -0.183   3.384   0.077  0.00  0.00     0.000 A 
ATOM      4  C4  BNZ d   1      -0.789   3.295   1.279  0.00  0.00     0.000 A 
ATOM      5  C5  BNZ d   1      -1.073   2.061   1.829  0.00  0.00     0.000 A 
ATOM      6  C6  BNZ d   1      -0.729   0.912   1.154  0.00  0.00     0.000 A 
ENDROOT
TORSDOF 0
ENDMDL
