MODEL 1
REMARK minimizedAffinity -1.8068614
REMARK minimizedRMSD -1
REMARK  0 active torsions:
REMARK  status: ('A' for Active; 'I' for Inactive)
ROOT
ATOM      1  C1  BNZ d   1      -0.933   0.774   2.217  0.00  0.00     0.000 A 
ATOM      2  C2  BNZ d   1      -0.512  -0.420   1.696  0.00  0.00     0.000 A 
ATOM      3  C3  BNZ d   1       0.137  -0.469   0.494  0.00  0.00     0.000 A 
ATOM      4  C4  BNZ d   1       0.328   0.670  -0.203  0.00  0.00     0.000 A 
ATOM      5  C5  BNZ d   1      -0.099   1.881   0.305  0.00  0.00     0.000 A 
ATOM      6  C6  BNZ d   1      -0.717   1.930   1.534  0.00  0.00     0.000 A 
ENDROOT
TORSDOF 0
ENDMDL
