MODEL 1
REMARK minimizedAffinity -2.80195808
REMARK minimizedRMSD -1
REMARK  0 active torsions:
REMARK  status: ('A' for Active; 'I' for Inactive)
ROOT
ATOM      1  C1  BNZ d   1      -1.035   2.725   1.228  0.00  0.00     0.000 A 
ATOM      2  C2  BNZ d   1      -1.212   1.568   1.939  0.00  0.00     0.000 A 
ATOM      3  C3  BNZ d   1      -0.743   0.375   1.462  0.00  0.00     0.000 A 
ATOM      4  C4  BNZ d   1      -0.135   0.335   0.259  0.00  0.00     0.000 A 
ATOM      5  C5  BNZ d   1       0.042   1.492  -0.474  0.00  0.00     0.000 A 
ATOM      6  C6  BNZ d   1      -0.396   2.696   0.027  0.00  0.00     0.000 A 
ENDROOT
TORSDOF 0
ENDMDL
