MODEL 1
REMARK minimizedAffinity -2.63223529
REMARK minimizedRMSD -1
REMARK  0 active torsions:
REMARK  status: ('A' for Active; 'I' for Inactive)
ROOT
ATOM      1  C1  BNZ d   1      -0.392  -0.517   0.513  0.00  0.00     0.000 A 
ATOM      2  C2  BNZ d   1      -1.079  -0.893   1.637  0.00  0.00     0.000 A 
ATOM      3  C3  BNZ d   1      -1.555   0.043   2.511  0.00  0.00     0.000 A 
ATOM      4  C4  BNZ d   1      -1.310   1.350   2.283  0.00  0.00     0.000 A 
ATOM      5  C5  BNZ d   1      -0.611   1.744   1.160  0.00  0.00     0.000 A 
ATOM      6  C6  BNZ d   1      -0.166   0.802   0.262  0.00  0.00     0.000 A 
ENDROOT
TORSDOF 0
ENDMDL
