MODEL 1
REMARK minimizedAffinity -2.92691326
REMARK minimizedRMSD -1
REMARK  0 active torsions:
REMARK  status: ('A' for Active; 'I' for Inactive)
ROOT
ATOM      1  C1  BNZ d   1      -0.727   3.005   1.574  0.00  0.00     0.000 A 
ATOM      2  C2  BNZ d   1      -1.057   1.757   2.030  0.00  0.00     0.000 A 
ATOM      3  C3  BNZ d   1      -0.703   0.639   1.327  0.00  0.00     0.000 A 
ATOM      4  C4  BNZ d   1      -0.056   0.772   0.151  0.00  0.00     0.000 A 
ATOM      5  C5  BNZ d   1       0.275   2.025  -0.327  0.00  0.00     0.000 A 
ATOM      6  C6  BNZ d   1      -0.048   3.146   0.403  0.00  0.00     0.000 A 
ENDROOT
TORSDOF 0
ENDMDL
