MODEL 1
REMARK minimizedAffinity -2.8819406
REMARK minimizedRMSD -1
REMARK  0 active torsions:
REMARK  status: ('A' for Active; 'I' for Inactive)
ROOT
ATOM      1  C1  BNZ d   1       1.134   0.863  -0.791  0.00  0.00     0.000 A 
ATOM      2  C2  BNZ d   1       0.924  -0.283  -0.072  0.00  0.00     0.000 A 
ATOM      3  C3  BNZ d   1       0.183  -0.263   1.077  0.00  0.00     0.000 A 
ATOM      4  C4  BNZ d   1      -0.312   0.909   1.526  0.00  0.00     0.000 A 
ATOM      5  C5  BNZ d   1      -0.100   2.075   0.816  0.00  0.00     0.000 A 
ATOM      6  C6  BNZ d   1       0.613   2.043  -0.360  0.00  0.00     0.000 A 
ENDROOT
TORSDOF 0
ENDMDL
