MODEL 1
REMARK minimizedAffinity -4.71334505
REMARK minimizedRMSD -1
REMARK  0 active torsions:
REMARK  status: ('A' for Active; 'I' for Inactive)
ROOT
ATOM      1  C1  BNZ d   1       0.306   0.649  -0.010  0.00  0.00     0.000 A 
ATOM      2  C2  BNZ d   1      -0.305   0.512   1.208  0.00  0.00     0.000 A 
ATOM      3  C3  BNZ d   1      -0.833   1.595   1.853  0.00  0.00     0.000 A 
ATOM      4  C4  BNZ d   1      -0.714   2.819   1.299  0.00  0.00     0.000 A 
ATOM      5  C5  BNZ d   1      -0.093   2.975   0.076  0.00  0.00     0.000 A 
ATOM      6  C6  BNZ d   1       0.403   1.877  -0.589  0.00  0.00     0.000 A 
ENDROOT
TORSDOF 0
ENDMDL
