MODEL 1
REMARK minimizedAffinity -2.32473755
REMARK minimizedRMSD -1
REMARK  0 active torsions:
REMARK  status: ('A' for Active; 'I' for Inactive)
ROOT
ATOM      1  C1  BNZ d   1      -0.057   2.426   0.126  0.00  0.00     0.000 A 
ATOM      2  C2  BNZ d   1      -0.663   2.485   1.352  0.00  0.00     0.000 A 
ATOM      3  C3  BNZ d   1      -0.941   1.345   2.052  0.00  0.00     0.000 A 
ATOM      4  C4  BNZ d   1      -0.649   0.146   1.509  0.00  0.00     0.000 A 
ATOM      5  C5  BNZ d   1      -0.046   0.068   0.269  0.00  0.00     0.000 A 
ATOM      6  C6  BNZ d   1       0.268   1.220  -0.416  0.00  0.00     0.000 A 
ENDROOT
TORSDOF 0
ENDMDL
