MODEL 1
REMARK minimizedAffinity -2.1751256
REMARK minimizedRMSD -1
REMARK  0 active torsions:
REMARK  status: ('A' for Active; 'I' for Inactive)
ROOT
ATOM      1  C1  BNZ d   1      -1.556   0.930   2.216  0.00  0.00     0.000 A 
ATOM      2  C2  BNZ d   1      -1.175  -0.312   1.781  0.00  0.00     0.000 A 
ATOM      3  C3  BNZ d   1      -0.347  -0.452   0.702  0.00  0.00     0.000 A 
ATOM      4  C4  BNZ d   1       0.065   0.646   0.036  0.00  0.00     0.000 A 
ATOM      5  C5  BNZ d   1      -0.318   1.904   0.456  0.00  0.00     0.000 A 
ATOM      6  C6  BNZ d   1      -1.119   2.043   1.566  0.00  0.00     0.000 A 
ENDROOT
TORSDOF 0
ENDMDL
