MODEL 1
REMARK minimizedAffinity -3.57005286
REMARK minimizedRMSD -1
REMARK  0 active torsions:
REMARK  status: ('A' for Active; 'I' for Inactive)
ROOT
ATOM      1  C1  BNZ d   1      -1.178   0.303   1.914  0.00  0.00     0.000 A 
ATOM      2  C2  BNZ d   1      -0.639  -0.825   1.354  0.00  0.00     0.000 A 
ATOM      3  C3  BNZ d   1       0.214  -0.739   0.290  0.00  0.00     0.000 A 
ATOM      4  C4  BNZ d   1       0.496   0.470  -0.238  0.00  0.00     0.000 A 
ATOM      5  C5  BNZ d   1      -0.046   1.615   0.309  0.00  0.00     0.000 A 
ATOM      6  C6  BNZ d   1      -0.874   1.528   1.405  0.00  0.00     0.000 A 
ENDROOT
TORSDOF 0
ENDMDL
