MODEL 1
REMARK minimizedAffinity -2.96905398
REMARK minimizedRMSD -1
REMARK  0 active torsions:
REMARK  status: ('A' for Active; 'I' for Inactive)
ROOT
ATOM      1  C1  BNZ d   1       1.208   0.081  -0.349  0.00  0.00     0.000 A 
ATOM      2  C2  BNZ d   1       0.495   1.212  -0.053  0.00  0.00     0.000 A 
ATOM      3  C3  BNZ d   1      -0.339   1.250   1.029  0.00  0.00     0.000 A 
ATOM      4  C4  BNZ d   1      -0.491   0.146   1.788  0.00  0.00     0.000 A 
ATOM      5  C5  BNZ d   1       0.214  -1.005   1.497  0.00  0.00     0.000 A 
ATOM      6  C6  BNZ d   1       1.083  -1.027   0.430  0.00  0.00     0.000 A 
ENDROOT
TORSDOF 0
ENDMDL
