MODEL 1
REMARK minimizedAffinity -2.74328804
REMARK minimizedRMSD -1
REMARK  0 active torsions:
REMARK  status: ('A' for Active; 'I' for Inactive)
ROOT
ATOM      1  C1  BNZ d   1       0.519   1.294  -0.213  0.00  0.00     0.000 A 
ATOM      2  C2  BNZ d   1      -0.008   2.327   0.516  0.00  0.00     0.000 A 
ATOM      3  C3  BNZ d   1      -0.676   2.089   1.685  0.00  0.00     0.000 A 
ATOM      4  C4  BNZ d   1      -0.851   0.818   2.101  0.00  0.00     0.000 A 
ATOM      5  C5  BNZ d   1      -0.334  -0.234   1.372  0.00  0.00     0.000 A 
ATOM      6  C6  BNZ d   1       0.372   0.012   0.217  0.00  0.00     0.000 A 
ENDROOT
TORSDOF 0
ENDMDL
