MODEL 1
REMARK minimizedAffinity -4.25637197
REMARK minimizedRMSD -1
REMARK  0 active torsions:
REMARK  status: ('A' for Active; 'I' for Inactive)
ROOT
ATOM      1  C1  BNZ d   1      -0.655  -2.519  -2.065  0.00  0.00     0.000 A 
ATOM      2  C2  BNZ d   1      -0.942  -1.583  -1.108  0.00  0.00     0.000 A 
ATOM      3  C3  BNZ d   1       0.026  -1.135  -0.254  0.00  0.00     0.000 A 
ATOM      4  C4  BNZ d   1       1.270  -1.651  -0.332  0.00  0.00     0.000 A 
ATOM      5  C5  BNZ d   1       1.573  -2.602  -1.286  0.00  0.00     0.000 A 
ATOM      6  C6  BNZ d   1       0.605  -3.022  -2.169  0.00  0.00     0.000 A 
ENDROOT
TORSDOF 0
ENDMDL
