MODEL 1
REMARK minimizedAffinity -3.1448884
REMARK minimizedRMSD -1
REMARK  0 active torsions:
REMARK  status: ('A' for Active; 'I' for Inactive)
ROOT
ATOM      1  C1  BNZ d   1       0.368  -4.012  -1.102  0.00  0.00     0.000 A 
ATOM      2  C2  BNZ d   1      -0.419  -3.878  -2.215  0.00  0.00     0.000 A 
ATOM      3  C3  BNZ d   1      -0.337  -2.762  -3.000  0.00  0.00     0.000 A 
ATOM      4  C4  BNZ d   1       0.502  -1.765  -2.650  0.00  0.00     0.000 A 
ATOM      5  C5  BNZ d   1       1.295  -1.882  -1.526  0.00  0.00     0.000 A 
ATOM      6  C6  BNZ d   1       1.238  -3.023  -0.760  0.00  0.00     0.000 A 
ENDROOT
TORSDOF 0
ENDMDL
