MODEL 1
REMARK minimizedAffinity -2.83012176
REMARK minimizedRMSD -1
REMARK  0 active torsions:
REMARK  status: ('A' for Active; 'I' for Inactive)
ROOT
ATOM      1  C1  BNZ d   1       0.705  -3.984  -1.702  0.00  0.00     0.000 A 
ATOM      2  C2  BNZ d   1      -0.482  -3.541  -2.223  0.00  0.00     0.000 A 
ATOM      3  C3  BNZ d   1      -0.767  -2.206  -2.276  0.00  0.00     0.000 A 
ATOM      4  C4  BNZ d   1       0.114  -1.319  -1.771  0.00  0.00     0.000 A 
ATOM      5  C5  BNZ d   1       1.310  -1.750  -1.234  0.00  0.00     0.000 A 
ATOM      6  C6  BNZ d   1       1.612  -3.093  -1.218  0.00  0.00     0.000 A 
ENDROOT
TORSDOF 0
ENDMDL
