MODEL 1
REMARK minimizedAffinity -1.41506076
REMARK minimizedRMSD -1
REMARK  0 active torsions:
REMARK  status: ('A' for Active; 'I' for Inactive)
ROOT
ATOM      1  C1  BNZ d   1      -0.756   3.195   1.194  0.00  0.00     0.000 A 
ATOM      2  C2  BNZ d   1      -1.083   2.076   1.912  0.00  0.00     0.000 A 
ATOM      3  C3  BNZ d   1      -0.761   0.830   1.451  0.00  0.00     0.000 A 
ATOM      4  C4  BNZ d   1      -0.149   0.703   0.256  0.00  0.00     0.000 A 
ATOM      5  C5  BNZ d   1       0.180   1.821  -0.484  0.00  0.00     0.000 A 
ATOM      6  C6  BNZ d   1      -0.111   3.076   0.002  0.00  0.00     0.000 A 
ENDROOT
TORSDOF 0
ENDMDL
