MODEL 1
REMARK minimizedAffinity 3.09267902
REMARK minimizedRMSD -1
REMARK  0 active torsions:
REMARK  status: ('A' for Active; 'I' for Inactive)
ROOT
ATOM      1  C1  BNZ d   1       1.381  -2.453   1.584  0.00  0.00     0.000 A 
ATOM      2  C2  BNZ d   1       1.038  -3.434   0.692  0.00  0.00     0.000 A 
ATOM      3  C3  BNZ d   1       1.941  -4.392   0.323  0.00  0.00     0.000 A 
ATOM      4  C4  BNZ d   1       3.196  -4.344   0.815  0.00  0.00     0.000 A 
ATOM      5  C5  BNZ d   1       3.560  -3.356   1.707  0.00  0.00     0.000 A 
ATOM      6  C6  BNZ d   1       2.637  -2.417   2.107  0.00  0.00     0.000 A 
ENDROOT
TORSDOF 0
ENDMDL
