MODEL 1
REMARK minimizedAffinity 4.54314947
REMARK minimizedRMSD -1
REMARK  0 active torsions:
REMARK  status: ('A' for Active; 'I' for Inactive)
ROOT
ATOM      1  C1  BNZ d   1       4.776  -5.216  -0.323  0.00  0.00     0.000 A 
ATOM      2  C2  BNZ d   1       3.638  -4.573  -0.732  0.00  0.00     0.000 A 
ATOM      3  C3  BNZ d   1       2.833  -3.932   0.168  0.00  0.00     0.000 A 
ATOM      4  C4  BNZ d   1       3.146  -3.968   1.479  0.00  0.00     0.000 A 
ATOM      5  C5  BNZ d   1       4.284  -4.619   1.909  0.00  0.00     0.000 A 
ATOM      6  C6  BNZ d   1       5.112  -5.231   0.996  0.00  0.00     0.000 A 
ENDROOT
TORSDOF 0
ENDMDL
