MODEL 1
REMARK minimizedAffinity 4.76312876
REMARK minimizedRMSD -1
REMARK  0 active torsions:
REMARK  status: ('A' for Active; 'I' for Inactive)
ROOT
ATOM      1  C1  BNZ d   1       3.350   3.918   5.123  0.00  0.00     0.000 A 
ATOM      2  C2  BNZ d   1       3.261   4.966   5.999  0.00  0.00     0.000 A 
ATOM      3  C3  BNZ d   1       2.393   5.998   5.772  0.00  0.00     0.000 A 
ATOM      4  C4  BNZ d   1       1.646   6.000   4.649  0.00  0.00     0.000 A 
ATOM      5  C5  BNZ d   1       1.731   4.955   3.751  0.00  0.00     0.000 A 
ATOM      6  C6  BNZ d   1       2.577   3.899   4.003  0.00  0.00     0.000 A 
ENDROOT
TORSDOF 0
ENDMDL
