MODEL 1
REMARK minimizedAffinity 1.42253351
REMARK minimizedRMSD -1
REMARK  0 active torsions:
REMARK  status: ('A' for Active; 'I' for Inactive)
ROOT
ATOM      1  C1  BNZ d   1       0.483  -3.611   2.127  0.00  0.00     0.000 A 
ATOM      2  C2  BNZ d   1       1.386  -4.542   1.689  0.00  0.00     0.000 A 
ATOM      3  C3  BNZ d   1       2.440  -4.178   0.900  0.00  0.00     0.000 A 
ATOM      4  C4  BNZ d   1       2.568  -2.891   0.517  0.00  0.00     0.000 A 
ATOM      5  C5  BNZ d   1       1.660  -1.941   0.942  0.00  0.00     0.000 A 
ATOM      6  C6  BNZ d   1       0.622  -2.305   1.769  0.00  0.00     0.000 A 
ENDROOT
TORSDOF 0
ENDMDL
