MODEL 1
REMARK minimizedAffinity 0.504048228
REMARK minimizedRMSD -1
REMARK  0 active torsions:
REMARK  status: ('A' for Active; 'I' for Inactive)
ROOT
ATOM      1  C1  BNZ d   1       0.518  -1.080   0.405  0.00  0.00     0.000 A 
ATOM      2  C2  BNZ d   1       1.477  -1.986   0.040  0.00  0.00     0.000 A 
ATOM      3  C3  BNZ d   1       2.107  -2.757   0.977  0.00  0.00     0.000 A 
ATOM      4  C4  BNZ d   1       1.805  -2.592   2.281  0.00  0.00     0.000 A 
ATOM      5  C5  BNZ d   1       0.847  -1.676   2.667  0.00  0.00     0.000 A 
ATOM      6  C6  BNZ d   1       0.188  -0.930   1.717  0.00  0.00     0.000 A 
ENDROOT
TORSDOF 0
ENDMDL
