MODEL 1
REMARK minimizedAffinity -0.83578676
REMARK minimizedRMSD -1
REMARK  0 active torsions:
REMARK  status: ('A' for Active; 'I' for Inactive)
ROOT
ATOM      1  C1  BNZ d   1      -3.783   2.190   5.125  0.00  0.00     0.000 A 
ATOM      2  C2  BNZ d   1      -3.794   2.158   3.756  0.00  0.00     0.000 A 
ATOM      3  C3  BNZ d   1      -4.910   1.761   3.074  0.00  0.00     0.000 A 
ATOM      4  C4  BNZ d   1      -5.998   1.358   3.761  0.00  0.00     0.000 A 
ATOM      5  C5  BNZ d   1      -5.999   1.375   5.141  0.00  0.00     0.000 A 
ATOM      6  C6  BNZ d   1      -4.888   1.812   5.824  0.00  0.00     0.000 A 
ENDROOT
TORSDOF 0
ENDMDL
