MODEL 1
REMARK minimizedAffinity 2.61774135
REMARK minimizedRMSD -1
REMARK  0 active torsions:
REMARK  status: ('A' for Active; 'I' for Inactive)
ROOT
ATOM      1  C1  BNZ d   1       1.389  -2.013   1.668  0.00  0.00     0.000 A 
ATOM      2  C2  BNZ d   1       2.370  -2.874   1.250  0.00  0.00     0.000 A 
ATOM      3  C3  BNZ d   1       2.082  -4.182   0.975  0.00  0.00     0.000 A 
ATOM      4  C4  BNZ d   1       0.825  -4.636   1.155  0.00  0.00     0.000 A 
ATOM      5  C5  BNZ d   1      -0.172  -3.783   1.584  0.00  0.00     0.000 A 
ATOM      6  C6  BNZ d   1       0.113  -2.458   1.823  0.00  0.00     0.000 A 
ENDROOT
TORSDOF 0
ENDMDL
