MODEL 1
REMARK minimizedAffinity -2.58987164
REMARK minimizedRMSD -1
REMARK  0 active torsions:
REMARK  status: ('A' for Active; 'I' for Inactive)
ROOT
ATOM      1  C1  BNZ d   1       2.450  -3.814   0.247  0.00  0.00     0.000 A 
ATOM      2  C2  BNZ d   1       1.289  -3.253   0.709  0.00  0.00     0.000 A 
ATOM      3  C3  BNZ d   1       1.314  -2.298   1.687  0.00  0.00     0.000 A 
ATOM      4  C4  BNZ d   1       2.494  -1.935   2.230  0.00  0.00     0.000 A 
ATOM      5  C5  BNZ d   1       3.672  -2.498   1.781  0.00  0.00     0.000 A 
ATOM      6  C6  BNZ d   1       3.647  -3.430   0.769  0.00  0.00     0.000 A 
ENDROOT
TORSDOF 0
ENDMDL
