MODEL 1
REMARK minimizedAffinity 3.76767635
REMARK minimizedRMSD -1
REMARK  0 active torsions:
REMARK  status: ('A' for Active; 'I' for Inactive)
ROOT
ATOM      1  C1  BNZ d   1       2.674  -2.653   1.833  0.00  0.00     0.000 A 
ATOM      2  C2  BNZ d   1       2.468  -2.672   0.479  0.00  0.00     0.000 A 
ATOM      3  C3  BNZ d   1       1.484  -1.913  -0.090  0.00  0.00     0.000 A 
ATOM      4  C4  BNZ d   1       0.683  -1.167   0.697  0.00  0.00     0.000 A 
ATOM      5  C5  BNZ d   1       0.871  -1.144   2.065  0.00  0.00     0.000 A 
ATOM      6  C6  BNZ d   1       1.888  -1.880   2.631  0.00  0.00     0.000 A 
ENDROOT
TORSDOF 0
ENDMDL
