MODEL 1
REMARK minimizedAffinity 4.03518295
REMARK minimizedRMSD -1
REMARK  0 active torsions:
REMARK  status: ('A' for Active; 'I' for Inactive)
ROOT
ATOM      1  C1  BNZ d   1       2.702  -3.421  -0.474  0.00  0.00     0.000 A 
ATOM      2  C2  BNZ d   1       1.443  -3.362   0.061  0.00  0.00     0.000 A 
ATOM      3  C3  BNZ d   1       1.102  -2.374   0.942  0.00  0.00     0.000 A 
ATOM      4  C4  BNZ d   1       2.031  -1.471   1.317  0.00  0.00     0.000 A 
ATOM      5  C5  BNZ d   1       3.308  -1.523   0.794  0.00  0.00     0.000 A 
ATOM      6  C6  BNZ d   1       3.636  -2.496  -0.122  0.00  0.00     0.000 A 
ENDROOT
TORSDOF 0
ENDMDL
