MODEL 1
REMARK minimizedAffinity -2.01135349
REMARK minimizedRMSD -1
REMARK  2 active torsions:
REMARK  status: ('A' for Active; 'I' for Inactive)
REMARK    1  A    between atoms: C1_2  and  C2_3 
REMARK    2  A    between atoms: C2_3  and  C3_4 
ROOT
ATOM      1  C3  UNL d   1       0.373   1.018   0.944  0.00  0.00    -0.075 A 
ATOM      2  C4  UNL d   1       0.008  -0.242   1.439  0.00  0.00     0.002 A 
ATOM      3  C5  UNL d   1      -1.277  -0.465   1.934  0.00  0.00     0.002 A 
ATOM      4  C6  UNL d   1      -2.209   0.571   1.951  0.00  0.00    -0.004 A 
ATOM      5  C7  UNL d   1      -1.853   1.832   1.477  0.00  0.00     0.002 A 
ATOM      6  C8  UNL d   1      -0.569   2.056   0.977  0.00  0.00     0.002 A 
ENDROOT
BRANCH   1   7
ATOM      7  C2  UNL d   1       1.753   1.258   0.379  0.00  0.00     0.056 C 
BRANCH   7   8
ATOM      8  C1  UNL d   1       2.323   0.067  -0.400  0.00  0.00     0.007 C 
ATOM      9  C   UNL d   1       2.955   0.466  -1.726  0.00  0.00     0.009 C 
ENDBRANCH   7   8
ENDBRANCH   1   7
TORSDOF 2
ENDMDL
