MODEL 1
REMARK minimizedAffinity 5.0429554
REMARK minimizedRMSD -1
REMARK  2 active torsions:
REMARK  status: ('A' for Active; 'I' for Inactive)
REMARK    1  A    between atoms: C1_2  and  C2_3 
REMARK    2  A    between atoms: C2_3  and  C3_4 
ROOT
ATOM      1  C3  UNL d   1      -0.050   0.180   1.439  0.00  0.00    -0.075 A 
ATOM      2  C4  UNL d   1      -1.194   0.898   1.816  0.00  0.00     0.002 A 
ATOM      3  C5  UNL d   1      -1.354   2.229   1.429  0.00  0.00     0.002 A 
ATOM      4  C6  UNL d   1      -0.370   2.860   0.671  0.00  0.00    -0.004 A 
ATOM      5  C7  UNL d   1       0.778   2.161   0.305  0.00  0.00     0.002 A 
ATOM      6  C8  UNL d   1       0.939   0.828   0.687  0.00  0.00     0.002 A 
ENDROOT
BRANCH   1   7
ATOM      7  C2  UNL d   1       0.116  -1.270   1.829  0.00  0.00     0.056 C 
BRANCH   7   8
ATOM      8  C1  UNL d   1       0.086  -1.516   3.341  0.00  0.00     0.007 C 
ATOM      9  C   UNL d   1       0.962  -0.547   4.125  0.00  0.00     0.009 C 
ENDBRANCH   7   8
ENDBRANCH   1   7
TORSDOF 2
ENDMDL
