MODEL 1
REMARK minimizedAffinity -0.84701097
REMARK minimizedRMSD -1
REMARK  2 active torsions:
REMARK  status: ('A' for Active; 'I' for Inactive)
REMARK    1  A    between atoms: C1_2  and  C2_3 
REMARK    2  A    between atoms: C2_3  and  C3_4 
ROOT
ATOM      1  C3  UNL d   1       0.454   0.810   0.861  0.00  0.00    -0.075 A 
ATOM      2  C4  UNL d   1      -0.404   1.851   1.242  0.00  0.00     0.002 A 
ATOM      3  C5  UNL d   1      -1.681   1.574   1.731  0.00  0.00     0.002 A 
ATOM      4  C6  UNL d   1      -2.119   0.255   1.836  0.00  0.00    -0.004 A 
ATOM      5  C7  UNL d   1      -1.281  -0.786   1.444  0.00  0.00     0.002 A 
ATOM      6  C8  UNL d   1      -0.001  -0.512   0.959  0.00  0.00     0.002 A 
ENDROOT
BRANCH   1   7
ATOM      7  C2  UNL d   1       1.848   1.102   0.359  0.00  0.00     0.056 C 
BRANCH   7   8
ATOM      8  C1  UNL d   1       2.345   0.121  -0.708  0.00  0.00     0.007 C 
ATOM      9  C   UNL d   1       2.981   0.810  -1.908  0.00  0.00     0.009 C 
ENDBRANCH   7   8
ENDBRANCH   1   7
TORSDOF 2
ENDMDL
