MODEL 1
REMARK minimizedAffinity 0.720829844
REMARK minimizedRMSD -1
REMARK  2 active torsions:
REMARK  status: ('A' for Active; 'I' for Inactive)
REMARK    1  A    between atoms: C1_2  and  C2_3 
REMARK    2  A    between atoms: C2_3  and  C3_4 
ROOT
ATOM      1  C3  UNL d   1      -0.442   0.303   1.131  0.00  0.00    -0.075 A 
ATOM      2  C4  UNL d   1      -1.842   0.339   1.211  0.00  0.00     0.002 A 
ATOM      3  C5  UNL d   1      -2.545  -0.709   1.806  0.00  0.00     0.002 A 
ATOM      4  C6  UNL d   1      -1.860  -1.809   2.319  0.00  0.00    -0.004 A 
ATOM      5  C7  UNL d   1      -0.470  -1.863   2.230  0.00  0.00     0.002 A 
ATOM      6  C8  UNL d   1       0.236  -0.813   1.639  0.00  0.00     0.002 A 
ENDROOT
BRANCH   1   7
ATOM      7  C2  UNL d   1       0.326   1.447   0.515  0.00  0.00     0.056 C 
BRANCH   7   8
ATOM      8  C1  UNL d   1       0.645   2.583   1.493  0.00  0.00     0.007 C 
ATOM      9  C   UNL d   1      -0.599   3.274   2.036  0.00  0.00     0.009 C 
ENDBRANCH   7   8
ENDBRANCH   1   7
TORSDOF 2
ENDMDL
