MODEL 1
REMARK minimizedAffinity 0.252239615
REMARK minimizedRMSD -1
REMARK  2 active torsions:
REMARK  status: ('A' for Active; 'I' for Inactive)
REMARK    1  A    between atoms: C1_2  and  C2_3 
REMARK    2  A    between atoms: C2_3  and  C3_4 
ROOT
ATOM      1  C3  UNL d   1      -1.765   1.668   2.311  0.00  0.00    -0.075 A 
ATOM      2  C4  UNL d   1      -1.790   0.266   2.346  0.00  0.00     0.002 A 
ATOM      3  C5  UNL d   1      -0.740  -0.475   1.804  0.00  0.00     0.002 A 
ATOM      4  C6  UNL d   1       0.342   0.174   1.214  0.00  0.00    -0.004 A 
ATOM      5  C7  UNL d   1       0.370   1.566   1.159  0.00  0.00     0.002 A 
ATOM      6  C8  UNL d   1      -0.678   2.310   1.704  0.00  0.00     0.002 A 
ENDROOT
BRANCH   1   7
ATOM      7  C2  UNL d   1      -2.885   2.476   2.922  0.00  0.00     0.056 C 
BRANCH   7   8
ATOM      8  C1  UNL d   1      -3.915   1.637   3.686  0.00  0.00     0.007 C 
ATOM      9  C   UNL d   1      -4.777   2.461   4.633  0.00  0.00     0.009 C 
ENDBRANCH   7   8
ENDBRANCH   1   7
TORSDOF 2
ENDMDL
