MODEL 1
REMARK minimizedAffinity 1.87432802
REMARK minimizedRMSD -1
REMARK  2 active torsions:
REMARK  status: ('A' for Active; 'I' for Inactive)
REMARK    1  A    between atoms: C1_2  and  C2_3 
REMARK    2  A    between atoms: C2_3  and  C3_4 
ROOT
ATOM      1  C3  UNL d   1      -0.732   1.456   1.799  0.00  0.00    -0.075 A 
ATOM      2  C4  UNL d   1      -1.233   0.186   2.117  0.00  0.00     0.002 A 
ATOM      3  C5  UNL d   1      -0.638  -0.962   1.595  0.00  0.00     0.002 A 
ATOM      4  C6  UNL d   1       0.458  -0.855   0.741  0.00  0.00    -0.004 A 
ATOM      5  C7  UNL d   1       0.954   0.402   0.404  0.00  0.00     0.002 A 
ATOM      6  C8  UNL d   1       0.363   1.553   0.929  0.00  0.00     0.002 A 
ENDROOT
BRANCH   1   7
ATOM      7  C2  UNL d   1      -1.354   2.701   2.385  0.00  0.00     0.056 C 
BRANCH   7   8
ATOM      8  C1  UNL d   1      -2.883   2.735   2.298  0.00  0.00     0.007 C 
ATOM      9  C   UNL d   1      -3.567   2.322   3.595  0.00  0.00     0.009 C 
ENDBRANCH   7   8
ENDBRANCH   1   7
TORSDOF 2
ENDMDL
