MODEL 1
REMARK minimizedAffinity 5.75746632
REMARK minimizedRMSD -1
REMARK  2 active torsions:
REMARK  status: ('A' for Active; 'I' for Inactive)
REMARK    1  A    between atoms: C1_2  and  C2_3 
REMARK    2  A    between atoms: C2_3  and  C3_4 
ROOT
ATOM      1  C3  UNL d   1      -4.488   2.269   4.067  0.00  0.00    -0.075 A 
ATOM      2  C4  UNL d   1      -4.549   3.670   4.068  0.00  0.00     0.002 A 
ATOM      3  C5  UNL d   1      -5.296   4.346   5.032  0.00  0.00     0.002 A 
ATOM      4  C6  UNL d   1      -6.000   3.632   6.000  0.00  0.00    -0.004 A 
ATOM      5  C7  UNL d   1      -5.960   2.239   5.999  0.00  0.00     0.002 A 
ATOM      6  C8  UNL d   1      -5.209   1.560   5.037  0.00  0.00     0.002 A 
ENDROOT
BRANCH   1   7
ATOM      7  C2  UNL d   1      -3.657   1.532   3.044  0.00  0.00     0.056 C 
BRANCH   7   8
ATOM      8  C1  UNL d   1      -2.396   2.285   2.605  0.00  0.00     0.007 C 
ATOM      9  C   UNL d   1      -1.372   1.392   1.919  0.00  0.00     0.009 C 
ENDBRANCH   7   8
ENDBRANCH   1   7
TORSDOF 2
ENDMDL
