MODEL 1
REMARK minimizedAffinity -0.877416372
REMARK minimizedRMSD -1
REMARK  2 active torsions:
REMARK  status: ('A' for Active; 'I' for Inactive)
REMARK    1  A    between atoms: C1_2  and  C2_3 
REMARK    2  A    between atoms: C2_3  and  C3_4 
ROOT
ATOM      1  C3  UNL d   1      -1.081   2.019   1.838  0.00  0.00    -0.075 A 
ATOM      2  C4  UNL d   1      -0.509   0.741   1.757  0.00  0.00     0.002 A 
ATOM      3  C5  UNL d   1      -1.239  -0.387   2.132  0.00  0.00     0.002 A 
ATOM      4  C6  UNL d   1      -2.544  -0.252   2.601  0.00  0.00    -0.004 A 
ATOM      5  C7  UNL d   1      -3.116   1.014   2.701  0.00  0.00     0.002 A 
ATOM      6  C8  UNL d   1      -2.390   2.144   2.323  0.00  0.00     0.002 A 
ENDROOT
BRANCH   1   7
ATOM      7  C2  UNL d   1      -0.306   3.241   1.406  0.00  0.00     0.056 C 
BRANCH   7   8
ATOM      8  C1  UNL d   1       0.795   2.951   0.381  0.00  0.00     0.007 C 
ATOM      9  C   UNL d   1       1.916   3.982   0.396  0.00  0.00     0.009 C 
ENDBRANCH   7   8
ENDBRANCH   1   7
TORSDOF 2
ENDMDL
