MODEL 1
REMARK minimizedAffinity 3.16291451
REMARK minimizedRMSD -1
REMARK  2 active torsions:
REMARK  status: ('A' for Active; 'I' for Inactive)
REMARK    1  A    between atoms: C1_2  and  C2_3 
REMARK    2  A    between atoms: C2_3  and  C3_4 
ROOT
ATOM      1  C3  UNL d   1       3.307   3.714  -4.786  0.00  0.00    -0.075 A 
ATOM      2  C4  UNL d   1       4.694   3.920  -4.808  0.00  0.00     0.002 A 
ATOM      3  C5  UNL d   1       5.232   5.059  -5.407  0.00  0.00     0.002 A 
ATOM      4  C6  UNL d   1       4.393   6.000  -6.000  0.00  0.00    -0.004 A 
ATOM      5  C7  UNL d   1       3.015   5.798  -5.999  0.00  0.00     0.002 A 
ATOM      6  C8  UNL d   1       2.474   4.661  -5.396  0.00  0.00     0.002 A 
ENDROOT
BRANCH   1   7
ATOM      7  C2  UNL d   1       2.717   2.498  -4.113  0.00  0.00     0.056 C 
BRANCH   7   8
ATOM      8  C1  UNL d   1       3.743   1.410  -3.780  0.00  0.00     0.007 C 
ATOM      9  C   UNL d   1       3.145   0.010  -3.750  0.00  0.00     0.009 C 
ENDBRANCH   7   8
ENDBRANCH   1   7
TORSDOF 2
ENDMDL
