MODEL 1
REMARK minimizedAffinity 4.4823699
REMARK minimizedRMSD -1
REMARK  2 active torsions:
REMARK  status: ('A' for Active; 'I' for Inactive)
REMARK    1  A    between atoms: C1_2  and  C2_3 
REMARK    2  A    between atoms: C2_3  and  C3_4 
ROOT
ATOM      1  C3  UNL d   1      -2.402   1.995   2.660  0.00  0.00    -0.075 A 
ATOM      2  C4  UNL d   1      -2.484   3.232   2.003  0.00  0.00     0.002 A 
ATOM      3  C5  UNL d   1      -1.537   3.586   1.041  0.00  0.00     0.002 A 
ATOM      4  C6  UNL d   1      -0.494   2.716   0.732  0.00  0.00    -0.004 A 
ATOM      5  C7  UNL d   1      -0.394   1.492   1.391  0.00  0.00     0.002 A 
ATOM      6  C8  UNL d   1      -1.342   1.133   2.350  0.00  0.00     0.002 A 
ENDROOT
BRANCH   1   7
ATOM      7  C2  UNL d   1      -3.440   1.593   3.680  0.00  0.00     0.056 C 
BRANCH   7   8
ATOM      8  C1  UNL d   1      -4.193   2.774   4.303  0.00  0.00     0.007 C 
ATOM      9  C   UNL d   1      -4.776   2.458   5.674  0.00  0.00     0.009 C 
ENDBRANCH   7   8
ENDBRANCH   1   7
TORSDOF 2
ENDMDL
