MODEL 1
REMARK minimizedAffinity 1.41809475
REMARK minimizedRMSD -1
REMARK  2 active torsions:
REMARK  status: ('A' for Active; 'I' for Inactive)
REMARK    1  A    between atoms: C1_2  and  C2_3 
REMARK    2  A    between atoms: C2_3  and  C3_4 
ROOT
ATOM      1  C3  UNL d   1      -1.418   1.528   1.807  0.00  0.00    -0.075 A 
ATOM      2  C4  UNL d   1      -1.408   2.776   1.168  0.00  0.00     0.002 A 
ATOM      3  C5  UNL d   1      -0.204   3.360   0.775  0.00  0.00     0.002 A 
ATOM      4  C6  UNL d   1       1.003   2.711   1.024  0.00  0.00    -0.004 A 
ATOM      5  C7  UNL d   1       1.006   1.479   1.674  0.00  0.00     0.002 A 
ATOM      6  C8  UNL d   1      -0.198   0.889   2.064  0.00  0.00     0.002 A 
ENDROOT
BRANCH   1   7
ATOM      7  C2  UNL d   1      -2.720   0.876   2.209  0.00  0.00     0.056 C 
BRANCH   7   8
ATOM      8  C1  UNL d   1      -3.641   1.780   3.035  0.00  0.00     0.007 C 
ATOM      9  C   UNL d   1      -4.540   1.007   3.991  0.00  0.00     0.009 C 
ENDBRANCH   7   8
ENDBRANCH   1   7
TORSDOF 2
ENDMDL
