MODEL 1
REMARK minimizedAffinity 19.5755997
REMARK minimizedRMSD -1
REMARK  0 active torsions:
REMARK  status: ('A' for Active; 'I' for Inactive)
ROOT
ATOM      1  C1  DEN d   1      -0.430  -2.663  -5.928  0.00  0.00     0.130 A 
ATOM      2  C2  DEN d   1      -1.143  -1.389  -5.963  0.00  0.00    -0.031 A 
ATOM      3  C3  DEN d   1      -2.591  -1.677  -5.999  0.00  0.00     0.027 A 
ATOM      4  C4  DEN d   1      -3.792  -3.959  -5.999  0.00  0.00     0.027 A 
ATOM      5  C5  DEN d   1      -3.608  -5.324  -5.988  0.00  0.00    -0.003 A 
ATOM      6  C6  DEN d   1      -2.363  -5.893  -5.991  0.00  0.00     0.001 A 
ATOM      7  C7  DEN d   1      -1.251  -5.094  -5.959  0.00  0.00     0.017 A 
ATOM      8  C8  DEN d   1      -1.428  -3.717  -5.977  0.00  0.00    -0.094 A 
ATOM      9  C9  DEN d   1      -2.696  -3.160  -5.962  0.00  0.00    -0.072 A 
ENDROOT
TORSDOF 0
ENDMDL
