MODEL 1
REMARK minimizedAffinity 3.93503451
REMARK minimizedRMSD -1
REMARK  0 active torsions:
REMARK  status: ('A' for Active; 'I' for Inactive)
ROOT
ATOM      1  C1  DEN d   1       3.120  -1.298  -3.274  0.00  0.00     0.130 A 
ATOM      2  C2  DEN d   1       2.611  -1.777  -1.992  0.00  0.00    -0.031 A 
ATOM      3  C3  DEN d   1       3.354  -3.003  -1.635  0.00  0.00     0.027 A 
ATOM      4  C4  DEN d   1       5.236  -4.196  -2.934  0.00  0.00     0.027 A 
ATOM      5  C5  DEN d   1       6.000  -4.169  -4.080  0.00  0.00    -0.003 A 
ATOM      6  C6  DEN d   1       5.836  -3.212  -5.045  0.00  0.00     0.001 A 
ATOM      7  C7  DEN d   1       4.916  -2.213  -4.861  0.00  0.00     0.017 A 
ATOM      8  C8  DEN d   1       4.136  -2.238  -3.712  0.00  0.00    -0.094 A 
ATOM      9  C9  DEN d   1       4.326  -3.207  -2.742  0.00  0.00    -0.072 A 
ENDROOT
TORSDOF 0
ENDMDL
