MODEL 1
REMARK minimizedAffinity -2.94110417
REMARK minimizedRMSD -1
REMARK  0 active torsions:
REMARK  status: ('A' for Active; 'I' for Inactive)
ROOT
ATOM      1  C1  DEN d   1       0.524   3.374  -1.348  0.00  0.00     0.130 A 
ATOM      2  C2  DEN d   1       0.160   4.675  -0.795  0.00  0.00    -0.031 A 
ATOM      3  C3  DEN d   1      -0.292   4.470   0.596  0.00  0.00     0.027 A 
ATOM      4  C4  DEN d   1      -0.459   2.275   1.940  0.00  0.00     0.027 A 
ATOM      5  C5  DEN d   1      -0.272   0.911   1.890  0.00  0.00    -0.003 A 
ATOM      6  C6  DEN d   1       0.158   0.274   0.756  0.00  0.00     0.001 A 
ATOM      7  C7  DEN d   1       0.458   1.006  -0.362  0.00  0.00     0.017 A 
ATOM      8  C8  DEN d   1       0.265   2.381  -0.322  0.00  0.00    -0.094 A 
ATOM      9  C9  DEN d   1      -0.158   3.008   0.838  0.00  0.00    -0.072 A 
ENDROOT
TORSDOF 0
ENDMDL
