MODEL 1
REMARK minimizedAffinity 1.18288541
REMARK minimizedRMSD -1
REMARK  0 active torsions:
REMARK  status: ('A' for Active; 'I' for Inactive)
ROOT
ATOM      1  C1  DEN d   1      -2.627   4.603   1.945  0.00  0.00     0.130 A 
ATOM      2  C2  DEN d   1      -3.258   5.789   1.371  0.00  0.00    -0.031 A 
ATOM      3  C3  DEN d   1      -2.693   6.000   0.023  0.00  0.00     0.027 A 
ATOM      4  C4  DEN d   1      -0.917   4.609  -1.227  0.00  0.00     0.027 A 
ATOM      5  C5  DEN d   1      -0.082   3.517  -1.142  0.00  0.00    -0.003 A 
ATOM      6  C6  DEN d   1      -0.012   2.737  -0.018  0.00  0.00     0.001 A 
ATOM      7  C7  DEN d   1      -0.825   3.012   1.050  0.00  0.00     0.017 A 
ATOM      8  C8  DEN d   1      -1.665   4.115   0.974  0.00  0.00    -0.094 A 
ATOM      9  C9  DEN d   1      -1.729   4.884  -0.176  0.00  0.00    -0.072 A 
ENDROOT
TORSDOF 0
ENDMDL
