MODEL 1
REMARK minimizedAffinity 13.9516954
REMARK minimizedRMSD -1
REMARK  0 active torsions:
REMARK  status: ('A' for Active; 'I' for Inactive)
ROOT
ATOM      1  C2' OXE d   1      -3.942  -2.937   4.690  0.00  0.00     0.078 C 
ATOM      2  C1' OXE d   1      -5.149  -1.853   2.399  0.00  0.00     0.078 C 
ATOM      3  C1  OXE d   1      -4.404  -0.913   3.313  0.00  0.00    -0.078 A 
ATOM      4  C2  OXE d   1      -3.857  -1.444   4.456  0.00  0.00    -0.078 A 
ATOM      5  C3  OXE d   1      -3.113  -0.631   5.307  0.00  0.00     0.003 A 
ATOM      6  C4  OXE d   1      -3.047   0.751   5.089  0.00  0.00    -0.002 A 
ATOM      7  C5  OXE d   1      -3.632   1.319   3.951  0.00  0.00    -0.002 A 
ATOM      8  C6  OXE d   1      -4.276   0.496   3.034  0.00  0.00     0.003 A 
ENDROOT
TORSDOF 0
ENDMDL
