MODEL 1
REMARK minimizedAffinity 9.75503922
REMARK minimizedRMSD -1
REMARK  0 active torsions:
REMARK  status: ('A' for Active; 'I' for Inactive)
ROOT
ATOM      1  C2' OXE d   1      -4.571  -2.204   2.258  0.00  0.00     0.078 C 
ATOM      2  C1' OXE d   1      -3.925  -3.003   4.871  0.00  0.00     0.078 C 
ATOM      3  C1  OXE d   1      -3.894  -1.527   4.558  0.00  0.00    -0.078 A 
ATOM      4  C2  OXE d   1      -4.166  -1.149   3.265  0.00  0.00    -0.078 A 
ATOM      5  C3  OXE d   1      -4.204   0.203   2.936  0.00  0.00     0.003 A 
ATOM      6  C4  OXE d   1      -3.818   1.171   3.871  0.00  0.00    -0.002 A 
ATOM      7  C5  OXE d   1      -3.499   0.804   5.183  0.00  0.00    -0.002 A 
ATOM      8  C6  OXE d   1      -3.573  -0.534   5.553  0.00  0.00     0.003 A 
ENDROOT
TORSDOF 0
ENDMDL
