MODEL 1
REMARK minimizedAffinity 17.3759804
REMARK minimizedRMSD -1
REMARK  0 active torsions:
REMARK  status: ('A' for Active; 'I' for Inactive)
ROOT
ATOM      1  C2' OXE d   1      -5.580   3.377   3.248  0.00  0.00     0.078 C 
ATOM      2  C1' OXE d   1      -4.911   3.523   5.970  0.00  0.00     0.078 C 
ATOM      3  C1  OXE d   1      -4.352   2.374   5.169  0.00  0.00    -0.078 A 
ATOM      4  C2  OXE d   1      -4.722   2.285   3.849  0.00  0.00    -0.078 A 
ATOM      5  C3  OXE d   1      -4.191   1.275   3.051  0.00  0.00     0.003 A 
ATOM      6  C4  OXE d   1      -3.406   0.263   3.617  0.00  0.00    -0.002 A 
ATOM      7  C5  OXE d   1      -3.050   0.314   4.968  0.00  0.00    -0.002 A 
ATOM      8  C6  OXE d   1      -3.478   1.383   5.747  0.00  0.00     0.003 A 
ENDROOT
TORSDOF 0
ENDMDL
