MODEL 1
REMARK minimizedAffinity 20.3367329
REMARK minimizedRMSD -1
REMARK  0 active torsions:
REMARK  status: ('A' for Active; 'I' for Inactive)
ROOT
ATOM      1  C2' OXE d   1      -4.873   3.640   5.999  0.00  0.00     0.078 C 
ATOM      2  C1' OXE d   1      -5.801   3.254   3.378  0.00  0.00     0.078 C 
ATOM      3  C1  OXE d   1      -4.689   2.361   3.869  0.00  0.00    -0.078 A 
ATOM      4  C2  OXE d   1      -4.209   2.588   5.137  0.00  0.00    -0.078 A 
ATOM      5  C3  OXE d   1      -3.220   1.758   5.658  0.00  0.00     0.003 A 
ATOM      6  C4  OXE d   1      -2.605   0.795   4.850  0.00  0.00    -0.002 A 
ATOM      7  C5  OXE d   1      -3.051   0.574   3.543  0.00  0.00    -0.002 A 
ATOM      8  C6  OXE d   1      -4.119   1.318   3.053  0.00  0.00     0.003 A 
ENDROOT
TORSDOF 0
ENDMDL
