MODEL 1
REMARK minimizedAffinity 13.0017338
REMARK minimizedRMSD -1
REMARK  0 active torsions:
REMARK  status: ('A' for Active; 'I' for Inactive)
ROOT
ATOM      1  C2' OXE d   1       0.663  -2.999  -2.714  0.00  0.00     0.078 C 
ATOM      2  C1' OXE d   1       2.027  -3.359  -0.287  0.00  0.00     0.078 C 
ATOM      3  C1  OXE d   1       2.072  -1.992  -0.923  0.00  0.00    -0.078 A 
ATOM      4  C2  OXE d   1       1.441  -1.838  -2.134  0.00  0.00    -0.078 A 
ATOM      5  C3  OXE d   1       1.405  -0.584  -2.737  0.00  0.00     0.003 A 
ATOM      6  C4  OXE d   1       2.135   0.483  -2.199  0.00  0.00    -0.002 A 
ATOM      7  C5  OXE d   1       2.818   0.336  -0.987  0.00  0.00    -0.002 A 
ATOM      8  C6  OXE d   1       2.761  -0.880  -0.316  0.00  0.00     0.003 A 
ENDROOT
TORSDOF 0
ENDMDL
