MODEL 1
REMARK minimizedAffinity 11.1275063
REMARK minimizedRMSD -1
REMARK  0 active torsions:
REMARK  status: ('A' for Active; 'I' for Inactive)
ROOT
ATOM      1  C2' OXE d   1      -6.000   2.828   3.349  0.00  0.00     0.078 C 
ATOM      2  C1' OXE d   1      -5.266   3.386   6.000  0.00  0.00     0.078 C 
ATOM      3  C1  OXE d   1      -4.615   2.205   5.323  0.00  0.00    -0.078 A 
ATOM      4  C2  OXE d   1      -5.015   1.911   4.042  0.00  0.00    -0.078 A 
ATOM      5  C3  OXE d   1      -4.407   0.866   3.352  0.00  0.00     0.003 A 
ATOM      6  C4  OXE d   1      -3.504   0.017   4.004  0.00  0.00    -0.002 A 
ATOM      7  C5  OXE d   1      -3.113   0.275   5.322  0.00  0.00    -0.002 A 
ATOM      8  C6  OXE d   1      -3.626   1.387   5.981  0.00  0.00     0.003 A 
ENDROOT
TORSDOF 0
ENDMDL
