MODEL 1
REMARK minimizedAffinity 7.05945873
REMARK minimizedRMSD -1
REMARK  0 active torsions:
REMARK  status: ('A' for Active; 'I' for Inactive)
ROOT
ATOM      1  C2' OXE d   1       1.857  -5.125  -0.981  0.00  0.00     0.078 C 
ATOM      2  C1' OXE d   1       0.468  -3.815  -3.038  0.00  0.00     0.078 C 
ATOM      3  C1  OXE d   1       1.305  -2.973  -2.107  0.00  0.00    -0.078 A 
ATOM      4  C2  OXE d   1       1.944  -3.617  -1.075  0.00  0.00    -0.078 A 
ATOM      5  C3  OXE d   1       2.772  -2.896  -0.220  0.00  0.00     0.003 A 
ATOM      6  C4  OXE d   1       2.839  -1.500  -0.307  0.00  0.00    -0.002 A 
ATOM      7  C5  OXE d   1       2.164  -0.820  -1.327  0.00  0.00    -0.002 A 
ATOM      8  C6  OXE d   1       1.429  -1.544  -2.259  0.00  0.00     0.003 A 
ENDROOT
TORSDOF 0
ENDMDL
