MODEL 1
REMARK minimizedAffinity 5.61291981
REMARK minimizedRMSD -1
REMARK  0 active torsions:
REMARK  status: ('A' for Active; 'I' for Inactive)
ROOT
ATOM      1  C2' OXE d   1       2.198  -0.621  -2.899  0.00  0.00     0.078 C 
ATOM      2  C1' OXE d   1       3.000  -1.045  -0.243  0.00  0.00     0.078 C 
ATOM      3  C1  OXE d   1       2.420  -2.215  -0.997  0.00  0.00    -0.078 A 
ATOM      4  C2  OXE d   1       1.987  -1.987  -2.281  0.00  0.00    -0.078 A 
ATOM      5  C3  OXE d   1       1.494  -3.044  -3.041  0.00  0.00     0.003 A 
ATOM      6  C4  OXE d   1       1.293  -4.301  -2.459  0.00  0.00    -0.002 A 
ATOM      7  C5  OXE d   1       1.690  -4.545  -1.140  0.00  0.00    -0.002 A 
ATOM      8  C6  OXE d   1       2.293  -3.526  -0.410  0.00  0.00     0.003 A 
ENDROOT
TORSDOF 0
ENDMDL
