MODEL 1
REMARK minimizedAffinity 18.1428566
REMARK minimizedRMSD -1
REMARK  0 active torsions:
REMARK  status: ('A' for Active; 'I' for Inactive)
ROOT
ATOM      1  C2' OXE d   1      -0.585  -3.402  -3.434  0.00  0.00     0.078 C 
ATOM      2  C1' OXE d   1      -2.714  -4.897  -2.377  0.00  0.00     0.078 C 
ATOM      3  C1  OXE d   1      -2.954  -4.138  -3.659  0.00  0.00    -0.078 A 
ATOM      4  C2  OXE d   1      -1.922  -3.372  -4.143  0.00  0.00    -0.078 A 
ATOM      5  C3  OXE d   1      -2.073  -2.696  -5.351  0.00  0.00     0.003 A 
ATOM      6  C4  OXE d   1      -3.315  -2.665  -5.995  0.00  0.00    -0.002 A 
ATOM      7  C5  OXE d   1      -4.392  -3.407  -5.497  0.00  0.00    -0.002 A 
ATOM      8  C6  OXE d   1      -4.216  -4.181  -4.356  0.00  0.00     0.003 A 
ENDROOT
TORSDOF 0
ENDMDL
