MODEL 1
REMARK minimizedAffinity 11.874589
REMARK minimizedRMSD -1
REMARK  0 active torsions:
REMARK  status: ('A' for Active; 'I' for Inactive)
ROOT
ATOM      1  C2' OXE d   1       2.705  -4.118   0.019  0.00  0.00     0.078 C 
ATOM      2  C1' OXE d   1       1.233  -4.125  -2.372  0.00  0.00     0.078 C 
ATOM      3  C1  OXE d   1       1.620  -2.789  -1.788  0.00  0.00    -0.078 A 
ATOM      4  C2  OXE d   1       2.300  -2.794  -0.594  0.00  0.00    -0.078 A 
ATOM      5  C3  OXE d   1       2.729  -1.592  -0.039  0.00  0.00     0.003 A 
ATOM      6  C4  OXE d   1       2.341  -0.372  -0.606  0.00  0.00    -0.002 A 
ATOM      7  C5  OXE d   1       1.615  -0.343  -1.801  0.00  0.00    -0.002 A 
ATOM      8  C6  OXE d   1       1.284  -1.541  -2.426  0.00  0.00     0.003 A 
ENDROOT
TORSDOF 0
ENDMDL
