MODEL 1
REMARK minimizedAffinity 18.0993366
REMARK minimizedRMSD -1
REMARK  0 active torsions:
REMARK  status: ('A' for Active; 'I' for Inactive)
ROOT
ATOM      1  C2' OXE d   1      -3.038   1.136   5.995  0.00  0.00     0.078 C 
ATOM      2  C1' OXE d   1      -3.268   1.388   3.208  0.00  0.00     0.078 C 
ATOM      3  C1  OXE d   1      -3.609   0.054   3.825  0.00  0.00    -0.078 A 
ATOM      4  C2  OXE d   1      -3.449  -0.074   5.183  0.00  0.00    -0.078 A 
ATOM      5  C3  OXE d   1      -3.801  -1.266   5.810  0.00  0.00     0.003 A 
ATOM      6  C4  OXE d   1      -4.171  -2.383   5.051  0.00  0.00    -0.002 A 
ATOM      7  C5  OXE d   1      -4.302  -2.286   3.662  0.00  0.00    -0.002 A 
ATOM      8  C6  OXE d   1      -4.066  -1.065   3.039  0.00  0.00     0.003 A 
ENDROOT
TORSDOF 0
ENDMDL
