MODEL 1
REMARK minimizedAffinity 15.9364605
REMARK minimizedRMSD -1
REMARK  0 active torsions:
REMARK  status: ('A' for Active; 'I' for Inactive)
ROOT
ATOM      1  C2' OXE d   1      -3.883   5.358  -6.000  0.00  0.00     0.078 C 
ATOM      2  C1' OXE d   1      -2.086   5.995  -3.939  0.00  0.00     0.078 C 
ATOM      3  C1  OXE d   1      -2.082   4.581  -4.465  0.00  0.00    -0.078 A 
ATOM      4  C2  OXE d   1      -2.996   4.266  -5.441  0.00  0.00    -0.078 A 
ATOM      5  C3  OXE d   1      -2.998   2.991  -5.999  0.00  0.00     0.003 A 
ATOM      6  C4  OXE d   1      -2.181   1.985  -5.470  0.00  0.00    -0.002 A 
ATOM      7  C5  OXE d   1      -1.270   2.274  -4.448  0.00  0.00    -0.002 A 
ATOM      8  C6  OXE d   1      -1.178   3.574  -3.965  0.00  0.00     0.003 A 
ENDROOT
TORSDOF 0
ENDMDL
