MODEL 1
REMARK minimizedAffinity 11.401535
REMARK minimizedRMSD -1
REMARK  0 active torsions:
REMARK  status: ('A' for Active; 'I' for Inactive)
ROOT
ATOM      1  C2' OXE d   1      -1.189   2.499  -4.497  0.00  0.00     0.078 C 
ATOM      2  C1' OXE d   1      -0.813   4.781  -2.906  0.00  0.00     0.078 C 
ATOM      3  C1  OXE d   1      -1.880   4.834  -3.971  0.00  0.00    -0.078 A 
ATOM      4  C2  OXE d   1      -2.025   3.729  -4.775  0.00  0.00    -0.078 A 
ATOM      5  C3  OXE d   1      -3.031   3.705  -5.737  0.00  0.00     0.003 A 
ATOM      6  C4  OXE d   1      -3.793   4.851  -5.995  0.00  0.00    -0.002 A 
ATOM      7  C5  OXE d   1      -3.634   6.000  -5.214  0.00  0.00    -0.002 A 
ATOM      8  C6  OXE d   1      -2.713   5.993  -4.172  0.00  0.00     0.003 A 
ENDROOT
TORSDOF 0
ENDMDL
