MODEL 1
REMARK minimizedAffinity 10.8598032
REMARK minimizedRMSD -1
REMARK  0 active torsions:
REMARK  status: ('A' for Active; 'I' for Inactive)
ROOT
ATOM      1  C2' OXE d   1       2.969  -2.647  -0.016  0.00  0.00     0.078 C 
ATOM      2  C1' OXE d   1       1.470  -1.295  -1.967  0.00  0.00     0.078 C 
ATOM      3  C1  OXE d   1       2.470  -0.496  -1.169  0.00  0.00    -0.078 A 
ATOM      4  C2  OXE d   1       3.166  -1.156  -0.185  0.00  0.00    -0.078 A 
ATOM      5  C3  OXE d   1       4.140  -0.479   0.543  0.00  0.00     0.003 A 
ATOM      6  C4  OXE d   1       4.309   0.903   0.387  0.00  0.00    -0.002 A 
ATOM      7  C5  OXE d   1       3.583   1.602  -0.583  0.00  0.00    -0.002 A 
ATOM      8  C6  OXE d   1       2.692   0.911  -1.396  0.00  0.00     0.003 A 
ENDROOT
TORSDOF 0
ENDMDL
