MODEL 1
REMARK minimizedAffinity 20.1325455
REMARK minimizedRMSD -1
REMARK  0 active torsions:
REMARK  status: ('A' for Active; 'I' for Inactive)
ROOT
ATOM      1  C2' OXE d   1      -5.216  -2.075   1.966  0.00  0.00     0.078 C 
ATOM      2  C1' OXE d   1      -4.123  -1.806   4.537  0.00  0.00     0.078 C 
ATOM      3  C1  OXE d   1      -3.619  -0.880   3.458  0.00  0.00    -0.078 A 
ATOM      4  C2  OXE d   1      -4.125  -1.051   2.192  0.00  0.00    -0.078 A 
ATOM      5  C3  OXE d   1      -3.735  -0.188   1.172  0.00  0.00     0.003 A 
ATOM      6  C4  OXE d   1      -2.718   0.750   1.387  0.00  0.00    -0.002 A 
ATOM      7  C5  OXE d   1      -2.160   0.913   2.660  0.00  0.00    -0.002 A 
ATOM      8  C6  OXE d   1      -2.629   0.137   3.714  0.00  0.00     0.003 A 
ENDROOT
TORSDOF 0
ENDMDL
