MODEL 1
REMARK minimizedAffinity 19.6434822
REMARK minimizedRMSD -1
REMARK  0 active torsions:
REMARK  status: ('A' for Active; 'I' for Inactive)
ROOT
ATOM      1  C2' OXE d   1      -4.605  -2.910   4.613  0.00  0.00     0.078 C 
ATOM      2  C1' OXE d   1      -6.000  -2.358   2.240  0.00  0.00     0.078 C 
ATOM      3  C1  OXE d   1      -4.909  -1.402   2.653  0.00  0.00    -0.078 A 
ATOM      4  C2  OXE d   1      -4.263  -1.655   3.840  0.00  0.00    -0.078 A 
ATOM      5  C3  OXE d   1      -3.212  -0.836   4.240  0.00  0.00     0.003 A 
ATOM      6  C4  OXE d   1      -2.908   0.329   3.525  0.00  0.00    -0.002 A 
ATOM      7  C5  OXE d   1      -3.580   0.626   2.335  0.00  0.00    -0.002 A 
ATOM      8  C6  OXE d   1      -4.552  -0.250   1.864  0.00  0.00     0.003 A 
ENDROOT
TORSDOF 0
ENDMDL
