MODEL 1
REMARK minimizedAffinity 17.5933952
REMARK minimizedRMSD -1
REMARK  0 active torsions:
REMARK  status: ('A' for Active; 'I' for Inactive)
ROOT
ATOM      1  C2' OXE d   1      -5.984  -1.356   1.593  0.00  0.00     0.078 C 
ATOM      2  C1' OXE d   1      -3.938   0.048   2.905  0.00  0.00     0.078 C 
ATOM      3  C1  OXE d   1      -4.472  -1.198   3.566  0.00  0.00    -0.078 A 
ATOM      4  C2  OXE d   1      -5.506  -1.852   2.940  0.00  0.00    -0.078 A 
ATOM      5  C3  OXE d   1      -5.999  -3.037   3.480  0.00  0.00     0.003 A 
ATOM      6  C4  OXE d   1      -5.558  -3.483   4.732  0.00  0.00    -0.002 A 
ATOM      7  C5  OXE d   1      -4.533  -2.809   5.405  0.00  0.00    -0.002 A 
ATOM      8  C6  OXE d   1      -3.952  -1.691   4.817  0.00  0.00     0.003 A 
ENDROOT
TORSDOF 0
ENDMDL
