MODEL 1
REMARK minimizedAffinity 18.1814137
REMARK minimizedRMSD -1
REMARK  0 active torsions:
REMARK  status: ('A' for Active; 'I' for Inactive)
ROOT
ATOM      1  C2' OXE d   1       1.912  -0.461  -0.752  0.00  0.00     0.078 C 
ATOM      2  C1' OXE d   1       3.871   1.105   0.507  0.00  0.00     0.078 C 
ATOM      3  C1  OXE d   1       2.494   1.074   1.121  0.00  0.00    -0.078 A 
ATOM      4  C2  OXE d   1       1.529   0.342   0.473  0.00  0.00    -0.078 A 
ATOM      5  C3  OXE d   1       0.256   0.235   1.026  0.00  0.00     0.003 A 
ATOM      6  C4  OXE d   1      -0.092   0.989   2.153  0.00  0.00    -0.002 A 
ATOM      7  C5  OXE d   1       0.865   1.773   2.807  0.00  0.00    -0.002 A 
ATOM      8  C6  OXE d   1       2.171   1.792   2.329  0.00  0.00     0.003 A 
ENDROOT
TORSDOF 0
ENDMDL
