MODEL 1
REMARK minimizedAffinity 10.0726414
REMARK minimizedRMSD -1
REMARK  0 active torsions:
REMARK  status: ('A' for Active; 'I' for Inactive)
ROOT
ATOM      1  O1  BZF d   1       1.102  -2.826   0.695  0.00  0.00    -0.204 OA
ATOM      2  C2  BZF d   1       2.168  -2.879   1.572  0.00  0.00     0.174 A 
ATOM      3  C3  BZF d   1       3.048  -1.890   1.316  0.00  0.00    -0.012 A 
ATOM      4  C3A BZF d   1       2.452  -1.118   0.269  0.00  0.00    -0.107 A 
ATOM      5  C4  BZF d   1       2.838   0.006  -0.405  0.00  0.00     0.055 A 
ATOM      6  C5  BZF d   1       2.063   0.464  -1.422  0.00  0.00    -0.016 A 
ATOM      7  C6  BZF d   1       0.900  -0.177  -1.795  0.00  0.00     0.022 A 
ATOM      8  C7  BZF d   1       0.474  -1.292  -1.153  0.00  0.00     0.029 A 
ATOM      9  C7A BZF d   1       1.238  -1.739  -0.103  0.00  0.00     0.058 A 
ENDROOT
TORSDOF 0
ENDMDL
