MODEL 1
REMARK minimizedAffinity 9.87591934
REMARK minimizedRMSD -1
REMARK  0 active torsions:
REMARK  status: ('A' for Active; 'I' for Inactive)
ROOT
ATOM      1  O1  BZF d   1       2.564   0.158  -0.758  0.00  0.00    -0.204 OA
ATOM      2  C2  BZF d   1       2.135  -1.122  -1.049  0.00  0.00     0.174 A 
ATOM      3  C3  BZF d   1       3.033  -2.035  -0.625  0.00  0.00    -0.012 A 
ATOM      4  C3A BZF d   1       4.045  -1.283   0.050  0.00  0.00    -0.107 A 
ATOM      5  C4  BZF d   1       5.194  -1.628   0.701  0.00  0.00     0.055 A 
ATOM      6  C5  BZF d   1       5.999  -0.646   1.188  0.00  0.00    -0.016 A 
ATOM      7  C6  BZF d   1       5.687   0.689   1.036  0.00  0.00     0.022 A 
ATOM      8  C7  BZF d   1       4.555   1.080   0.402  0.00  0.00     0.029 A 
ATOM      9  C7A BZF d   1       3.724   0.090  -0.061  0.00  0.00     0.058 A 
ENDROOT
TORSDOF 0
ENDMDL
