MODEL 1
REMARK minimizedAffinity 7.60460377
REMARK minimizedRMSD -1
REMARK  0 active torsions:
REMARK  status: ('A' for Active; 'I' for Inactive)
ROOT
ATOM      1  O1  BZF d   1      -2.784  -0.300   1.669  0.00  0.00    -0.204 OA
ATOM      2  C2  BZF d   1      -3.251   0.617   2.591  0.00  0.00     0.174 A 
ATOM      3  C3  BZF d   1      -2.348   0.810   3.574  0.00  0.00    -0.012 A 
ATOM      4  C3A BZF d   1      -1.209   0.029   3.196  0.00  0.00    -0.107 A 
ATOM      5  C4  BZF d   1       0.017  -0.177   3.762  0.00  0.00     0.055 A 
ATOM      6  C5  BZF d   1       0.874  -1.055   3.178  0.00  0.00    -0.016 A 
ATOM      7  C6  BZF d   1       0.536  -1.747   2.034  0.00  0.00     0.022 A 
ATOM      8  C7  BZF d   1      -0.666  -1.572   1.434  0.00  0.00     0.029 A 
ATOM      9  C7A BZF d   1      -1.522  -0.661   2.002  0.00  0.00     0.058 A 
ENDROOT
TORSDOF 0
ENDMDL
