MODEL 1
REMARK minimizedAffinity 14.6829414
REMARK minimizedRMSD -1
REMARK  0 active torsions:
REMARK  status: ('A' for Active; 'I' for Inactive)
ROOT
ATOM      1  O1  BZF d   1      -3.660   3.750  -3.377  0.00  0.00    -0.204 OA
ATOM      2  C2  BZF d   1      -2.789   2.986  -2.625  0.00  0.00     0.174 A 
ATOM      3  C3  BZF d   1      -2.992   1.671  -2.847  0.00  0.00    -0.012 A 
ATOM      4  C3A BZF d   1      -3.994   1.612  -3.867  0.00  0.00    -0.107 A 
ATOM      5  C4  BZF d   1      -4.606   0.583  -4.523  0.00  0.00     0.055 A 
ATOM      6  C5  BZF d   1      -5.595   0.862  -5.412  0.00  0.00    -0.016 A 
ATOM      7  C6  BZF d   1      -6.000   2.156  -5.665  0.00  0.00     0.022 A 
ATOM      8  C7  BZF d   1      -5.419   3.210  -5.043  0.00  0.00     0.029 A 
ATOM      9  C7A BZF d   1      -4.397   2.934  -4.168  0.00  0.00     0.058 A 
ENDROOT
TORSDOF 0
ENDMDL
