MODEL 1
REMARK minimizedAffinity 3.77724338
REMARK minimizedRMSD -1
REMARK  0 active torsions:
REMARK  status: ('A' for Active; 'I' for Inactive)
ROOT
ATOM      1  O1  BZF d   1       2.774   3.123  -1.236  0.00  0.00    -0.204 OA
ATOM      2  C2  BZF d   1       3.430   2.213  -0.429  0.00  0.00     0.174 A 
ATOM      3  C3  BZF d   1       2.764   1.041  -0.392  0.00  0.00    -0.012 A 
ATOM      4  C3A BZF d   1       1.670   1.200  -1.300  0.00  0.00    -0.107 A 
ATOM      5  C4  BZF d   1       0.660   0.376  -1.707  0.00  0.00     0.055 A 
ATOM      6  C5  BZF d   1      -0.289   0.861  -2.550  0.00  0.00    -0.016 A 
ATOM      7  C6  BZF d   1      -0.262   2.164  -3.002  0.00  0.00     0.022 A 
ATOM      8  C7  BZF d   1       0.723   3.018  -2.630  0.00  0.00     0.029 A 
ATOM      9  C7A BZF d   1       1.702   2.521  -1.804  0.00  0.00     0.058 A 
ENDROOT
TORSDOF 0
ENDMDL
