MODEL 1
REMARK minimizedAffinity -3.74032235
REMARK minimizedRMSD -1
REMARK  0 active torsions:
REMARK  status: ('A' for Active; 'I' for Inactive)
ROOT
ATOM      1  O1  BZF d   1       1.916  -1.673  -1.513  0.00  0.00    -0.204 OA
ATOM      2  C2  BZF d   1       1.658  -2.076  -0.217  0.00  0.00     0.174 A 
ATOM      3  C3  BZF d   1       1.854  -1.060   0.648  0.00  0.00    -0.012 A 
ATOM      4  C3A BZF d   1       2.170   0.073  -0.168  0.00  0.00    -0.107 A 
ATOM      5  C4  BZF d   1       2.453   1.379   0.110  0.00  0.00     0.055 A 
ATOM      6  C5  BZF d   1       2.791   2.213  -0.909  0.00  0.00    -0.016 A 
ATOM      7  C6  BZF d   1       2.861   1.772  -2.215  0.00  0.00     0.022 A 
ATOM      8  C7  BZF d   1       2.584   0.486  -2.540  0.00  0.00     0.029 A 
ATOM      9  C7A BZF d   1       2.210  -0.351  -1.516  0.00  0.00     0.058 A 
ENDROOT
TORSDOF 0
ENDMDL
