MODEL 1
REMARK minimizedAffinity 0.970176935
REMARK minimizedRMSD -1
REMARK  1 active torsions:
REMARK  status: ('A' for Active; 'I' for Inactive)
REMARK    1  A    between atoms: C1_2  and  C2_3 
ROOT
ATOM      1  C2  UNL d   1      -2.926   5.212  -5.219  0.00  0.00    -0.077 A 
ATOM      2  C3  UNL d   1      -3.012   5.644  -3.889  0.00  0.00     0.002 A 
ATOM      3  C4  UNL d   1      -1.859   5.993  -3.183  0.00  0.00     0.002 A 
ATOM      4  C5  UNL d   1      -0.612   5.917  -3.801  0.00  0.00    -0.004 A 
ATOM      5  C6  UNL d   1      -0.516   5.486  -5.123  0.00  0.00     0.002 A 
ATOM      6  C7  UNL d   1      -1.667   5.136  -5.830  0.00  0.00     0.002 A 
ENDROOT
BRANCH   1   7
ATOM      7  C1  UNL d   1      -4.173   4.882  -5.997  0.00  0.00     0.055 C 
ATOM      8  C   UNL d   1      -5.206   5.995  -5.885  0.00  0.00     0.019 C 
ENDBRANCH   1   7
TORSDOF 1
ENDMDL
