MODEL 1
REMARK minimizedAffinity 2.00269437
REMARK minimizedRMSD -1
REMARK  1 active torsions:
REMARK  status: ('A' for Active; 'I' for Inactive)
REMARK    1  A    between atoms: C1_2  and  C2_3 
ROOT
ATOM      1  C2  UNL d   1       4.265   4.496  -2.355  0.00  0.00    -0.077 A 
ATOM      2  C3  UNL d   1       3.002   4.840  -1.854  0.00  0.00     0.002 A 
ATOM      3  C4  UNL d   1       1.884   4.060  -2.159  0.00  0.00     0.002 A 
ATOM      4  C5  UNL d   1       2.020   2.930  -2.962  0.00  0.00    -0.004 A 
ATOM      5  C6  UNL d   1       3.271   2.581  -3.468  0.00  0.00     0.002 A 
ATOM      6  C7  UNL d   1       4.389   3.359  -3.165  0.00  0.00     0.002 A 
ENDROOT
BRANCH   1   7
ATOM      7  C1  UNL d   1       5.479   5.307  -1.987  0.00  0.00     0.055 C 
ATOM      8  C   UNL d   1       5.999   4.931  -0.607  0.00  0.00     0.019 C 
ENDBRANCH   1   7
TORSDOF 1
ENDMDL
