MODEL 1
REMARK minimizedAffinity 2.68385959
REMARK minimizedRMSD -1
REMARK  1 active torsions:
REMARK  status: ('A' for Active; 'I' for Inactive)
REMARK    1  A    between atoms: C1_2  and  C2_3 
ROOT
ATOM      1  C2  UNL d   1      -3.486   0.456   4.164  0.00  0.00    -0.077 A 
ATOM      2  C3  UNL d   1      -4.845   0.112   4.147  0.00  0.00     0.002 A 
ATOM      3  C4  UNL d   1      -5.368  -0.650   3.100  0.00  0.00     0.002 A 
ATOM      4  C5  UNL d   1      -4.539  -1.078   2.065  0.00  0.00    -0.004 A 
ATOM      5  C6  UNL d   1      -3.186  -0.739   2.072  0.00  0.00     0.002 A 
ATOM      6  C7  UNL d   1      -2.662   0.024   3.117  0.00  0.00     0.002 A 
ENDROOT
BRANCH   1   7
ATOM      7  C1  UNL d   1      -2.911   1.236   5.317  0.00  0.00     0.055 C 
ATOM      8  C   UNL d   1      -1.786   0.469   5.997  0.00  0.00     0.019 C 
ENDBRANCH   1   7
TORSDOF 1
ENDMDL
