MODEL 1
REMARK minimizedAffinity 13.7456875
REMARK minimizedRMSD -1
REMARK  1 active torsions:
REMARK  status: ('A' for Active; 'I' for Inactive)
REMARK    1  A    between atoms: C1_2  and  C2_3 
ROOT
ATOM      1  C2  UNL d   1      -2.307  -2.251   1.025  0.00  0.00    -0.077 A 
ATOM      2  C3  UNL d   1      -1.096  -1.912   1.643  0.00  0.00     0.002 A 
ATOM      3  C4  UNL d   1      -0.819  -0.584   1.973  0.00  0.00     0.002 A 
ATOM      4  C5  UNL d   1      -1.750   0.414   1.692  0.00  0.00    -0.004 A 
ATOM      5  C6  UNL d   1      -2.957   0.087   1.075  0.00  0.00     0.002 A 
ATOM      6  C7  UNL d   1      -3.235  -1.240   0.744  0.00  0.00     0.002 A 
ENDROOT
BRANCH   1   7
ATOM      7  C1  UNL d   1      -2.629  -3.690   0.713  0.00  0.00     0.055 C 
ATOM      8  C   UNL d   1      -3.913  -4.131   1.400  0.00  0.00     0.019 C 
ENDBRANCH   1   7
TORSDOF 1
ENDMDL
