MODEL 1
REMARK minimizedAffinity 12.7199678
REMARK minimizedRMSD -1
REMARK  1 active torsions:
REMARK  status: ('A' for Active; 'I' for Inactive)
REMARK    1  A    between atoms: C1_2  and  C2_3 
ROOT
ATOM      1  C2  UNL d   1      -5.092  -0.122  -0.227  0.00  0.00    -0.077 A 
ATOM      2  C3  UNL d   1      -5.542  -0.069  -1.554  0.00  0.00     0.002 A 
ATOM      3  C4  UNL d   1      -5.994   1.135  -2.099  0.00  0.00     0.002 A 
ATOM      4  C5  UNL d   1      -5.997   2.294  -1.326  0.00  0.00    -0.004 A 
ATOM      5  C6  UNL d   1      -5.553   2.251  -0.004  0.00  0.00     0.002 A 
ATOM      6  C7  UNL d   1      -5.102   1.049   0.542  0.00  0.00     0.002 A 
ENDROOT
BRANCH   1   7
ATOM      7  C1  UNL d   1      -4.558  -1.408   0.347  0.00  0.00     0.055 C 
ATOM      8  C   UNL d   1      -3.209  -1.767  -0.260  0.00  0.00     0.019 C 
ENDBRANCH   1   7
TORSDOF 1
ENDMDL
