MODEL 1
REMARK minimizedAffinity 12.3543062
REMARK minimizedRMSD -1
REMARK  1 active torsions:
REMARK  status: ('A' for Active; 'I' for Inactive)
REMARK    1  A    between atoms: C1_2  and  C2_3 
ROOT
ATOM      1  C2  UNL d   1      -2.321  -5.419  -4.062  0.00  0.00    -0.077 A 
ATOM      2  C3  UNL d   1      -2.233  -4.305  -3.215  0.00  0.00     0.002 A 
ATOM      3  C4  UNL d   1      -0.987  -3.784  -2.862  0.00  0.00     0.002 A 
ATOM      4  C5  UNL d   1       0.179  -4.366  -3.354  0.00  0.00    -0.004 A 
ATOM      5  C6  UNL d   1       0.102  -5.475  -4.196  0.00  0.00     0.002 A 
ATOM      6  C7  UNL d   1      -1.143  -5.999  -4.549  0.00  0.00     0.002 A 
ENDROOT
BRANCH   1   7
ATOM      7  C1  UNL d   1      -3.665  -5.953  -4.484  0.00  0.00     0.055 C 
ATOM      8  C   UNL d   1      -3.792  -5.998  -6.000  0.00  0.00     0.019 C 
ENDBRANCH   1   7
TORSDOF 1
ENDMDL
