MODEL 1
REMARK minimizedAffinity 16.8767128
REMARK minimizedRMSD -1
REMARK  1 active torsions:
REMARK  status: ('A' for Active; 'I' for Inactive)
REMARK    1  A    between atoms: C1_2  and  C2_3 
ROOT
ATOM      1  C2  UNL d   1       2.219  -3.529   1.207  0.00  0.00    -0.077 A 
ATOM      2  C3  UNL d   1       3.340  -2.829   0.741  0.00  0.00     0.002 A 
ATOM      3  C4  UNL d   1       4.134  -3.363  -0.276  0.00  0.00     0.002 A 
ATOM      4  C5  UNL d   1       3.813  -4.596  -0.838  0.00  0.00    -0.004 A 
ATOM      5  C6  UNL d   1       2.701  -5.302  -0.380  0.00  0.00     0.002 A 
ATOM      6  C7  UNL d   1       1.907  -4.770   0.637  0.00  0.00     0.002 A 
ENDROOT
BRANCH   1   7
ATOM      7  C1  UNL d   1       1.334  -2.933   2.270  0.00  0.00     0.055 C 
ATOM      8  C   UNL d   1       1.912  -1.631   2.805  0.00  0.00     0.019 C 
ENDBRANCH   1   7
TORSDOF 1
ENDMDL
