MODEL 1
REMARK minimizedAffinity 12.7651958
REMARK minimizedRMSD -1
REMARK  1 active torsions:
REMARK  status: ('A' for Active; 'I' for Inactive)
REMARK    1  A    between atoms: C1_2  and  C2_3 
ROOT
ATOM      1  C2  UNL d   1      -0.610  -1.813   2.013  0.00  0.00    -0.077 A 
ATOM      2  C3  UNL d   1       0.466  -2.698   2.167  0.00  0.00     0.002 A 
ATOM      3  C4  UNL d   1       1.371  -2.534   3.218  0.00  0.00     0.002 A 
ATOM      4  C5  UNL d   1       1.206  -1.489   4.124  0.00  0.00    -0.004 A 
ATOM      5  C6  UNL d   1       0.140  -0.603   3.979  0.00  0.00     0.002 A 
ATOM      6  C7  UNL d   1      -0.765  -0.764   2.928  0.00  0.00     0.002 A 
ENDROOT
BRANCH   1   7
ATOM      7  C1  UNL d   1      -1.615  -2.018   0.909  0.00  0.00     0.055 C 
ATOM      8  C   UNL d   1      -2.585  -3.141   1.245  0.00  0.00     0.019 C 
ENDBRANCH   1   7
TORSDOF 1
ENDMDL
