MODEL 1
REMARK minimizedAffinity 13.110693
REMARK minimizedRMSD -1
REMARK  1 active torsions:
REMARK  status: ('A' for Active; 'I' for Inactive)
REMARK    1  A    between atoms: C1_2  and  C2_3 
ROOT
ATOM      1  C2  UNL d   1      -4.226   0.136   0.089  0.00  0.00    -0.077 A 
ATOM      2  C3  UNL d   1      -3.092  -0.605   0.448  0.00  0.00     0.002 A 
ATOM      3  C4  UNL d   1      -2.631  -1.635  -0.373  0.00  0.00     0.002 A 
ATOM      4  C5  UNL d   1      -3.296  -1.931  -1.561  0.00  0.00    -0.004 A 
ATOM      5  C6  UNL d   1      -4.427  -1.201  -1.927  0.00  0.00     0.002 A 
ATOM      6  C7  UNL d   1      -4.889  -0.172  -1.106  0.00  0.00     0.002 A 
ENDROOT
BRANCH   1   7
ATOM      7  C1  UNL d   1      -4.695   1.280   0.949  0.00  0.00     0.055 C 
ATOM      8  C   UNL d   1      -5.786   2.084   0.256  0.00  0.00     0.019 C 
ENDBRANCH   1   7
TORSDOF 1
ENDMDL
