MODEL 1
REMARK minimizedAffinity 9.12743282
REMARK minimizedRMSD -1
REMARK  1 active torsions:
REMARK  status: ('A' for Active; 'I' for Inactive)
REMARK    1  A    between atoms: C1_2  and  C2_3 
ROOT
ATOM      1  C2  UNL d   1       3.341   1.846  -1.397  0.00  0.00    -0.077 A 
ATOM      2  C3  UNL d   1       2.486   1.738  -2.503  0.00  0.00     0.002 A 
ATOM      3  C4  UNL d   1       2.767   2.429  -3.683  0.00  0.00     0.002 A 
ATOM      4  C5  UNL d   1       3.905   3.229  -3.769  0.00  0.00    -0.004 A 
ATOM      5  C6  UNL d   1       4.760   3.344  -2.674  0.00  0.00     0.002 A 
ATOM      6  C7  UNL d   1       4.480   2.655  -1.494  0.00  0.00     0.002 A 
ENDROOT
BRANCH   1   7
ATOM      7  C1  UNL d   1       3.066   1.062  -0.140  0.00  0.00     0.055 C 
ATOM      8  C   UNL d   1       3.833   1.630   1.045  0.00  0.00     0.019 C 
ENDBRANCH   1   7
TORSDOF 1
ENDMDL
