MODEL 1
REMARK minimizedAffinity 11.358923
REMARK minimizedRMSD -1
REMARK  1 active torsions:
REMARK  status: ('A' for Active; 'I' for Inactive)
REMARK    1  A    between atoms: C1_2  and  C2_3 
ROOT
ATOM      1  C2  UNL d   1      -1.696   0.362   2.887  0.00  0.00    -0.077 A 
ATOM      2  C3  UNL d   1      -2.835  -0.261   2.358  0.00  0.00     0.002 A 
ATOM      3  C4  UNL d   1      -2.707  -1.283   1.415  0.00  0.00     0.002 A 
ATOM      4  C5  UNL d   1      -1.443  -1.692   0.996  0.00  0.00    -0.004 A 
ATOM      5  C6  UNL d   1      -0.304  -1.077   1.514  0.00  0.00     0.002 A 
ATOM      6  C7  UNL d   1      -0.430  -0.055   2.456  0.00  0.00     0.002 A 
ENDROOT
BRANCH   1   7
ATOM      7  C1  UNL d   1      -1.830   1.430   3.941  0.00  0.00     0.055 C 
ATOM      8  C   UNL d   1      -1.482   0.893   5.321  0.00  0.00     0.019 C 
ENDBRANCH   1   7
TORSDOF 1
ENDMDL
