MODEL 1
REMARK minimizedAffinity 8.60974598
REMARK minimizedRMSD -1
REMARK  1 active torsions:
REMARK  status: ('A' for Active; 'I' for Inactive)
REMARK    1  A    between atoms: C1_2  and  C2_3 
ROOT
ATOM      1  C2  UNL d   1      -1.461  -0.416   2.803  0.00  0.00    -0.077 A 
ATOM      2  C3  UNL d   1      -2.310  -1.038   1.878  0.00  0.00     0.002 A 
ATOM      3  C4  UNL d   1      -1.935  -2.238   1.270  0.00  0.00     0.002 A 
ATOM      4  C5  UNL d   1      -0.712  -2.827   1.585  0.00  0.00    -0.004 A 
ATOM      5  C6  UNL d   1       0.140  -2.215   2.503  0.00  0.00     0.002 A 
ATOM      6  C7  UNL d   1      -0.233  -1.015   3.110  0.00  0.00     0.002 A 
ENDROOT
BRANCH   1   7
ATOM      7  C1  UNL d   1      -1.886   0.853   3.496  0.00  0.00     0.055 C 
ATOM      8  C   UNL d   1      -1.740   0.734   5.006  0.00  0.00     0.019 C 
ENDBRANCH   1   7
TORSDOF 1
ENDMDL
