MODEL 1
REMARK minimizedAffinity 17.7960415
REMARK minimizedRMSD -1
REMARK  1 active torsions:
REMARK  status: ('A' for Active; 'I' for Inactive)
REMARK    1  A    between atoms: C1_2  and  C2_3 
ROOT
ATOM      1  C2  UNL d   1       3.561   3.420  -3.447  0.00  0.00    -0.077 A 
ATOM      2  C3  UNL d   1       4.093   3.297  -4.738  0.00  0.00     0.002 A 
ATOM      3  C4  UNL d   1       5.303   3.913  -5.064  0.00  0.00     0.002 A 
ATOM      4  C5  UNL d   1       5.993   4.651  -4.105  0.00  0.00    -0.004 A 
ATOM      5  C6  UNL d   1       5.470   4.781  -2.819  0.00  0.00     0.002 A 
ATOM      6  C7  UNL d   1       4.260   4.167  -2.491  0.00  0.00     0.002 A 
ENDROOT
BRANCH   1   7
ATOM      7  C1  UNL d   1       2.281   2.716  -3.079  0.00  0.00     0.055 C 
ATOM      8  C   UNL d   1       2.540   1.556  -2.130  0.00  0.00     0.019 C 
ENDBRANCH   1   7
TORSDOF 1
ENDMDL
