MODEL 1
REMARK minimizedAffinity 12.5112705
REMARK minimizedRMSD -1
REMARK  1 active torsions:
REMARK  status: ('A' for Active; 'I' for Inactive)
REMARK    1  A    between atoms: C1_2  and  C2_3 
ROOT
ATOM      1  C2  UNL d   1      -1.606  -0.021   3.545  0.00  0.00    -0.077 A 
ATOM      2  C3  UNL d   1      -1.879  -0.339   2.207  0.00  0.00     0.002 A 
ATOM      3  C4  UNL d   1      -1.044  -1.210   1.504  0.00  0.00     0.002 A 
ATOM      4  C5  UNL d   1       0.066  -1.772   2.131  0.00  0.00    -0.004 A 
ATOM      5  C6  UNL d   1       0.347  -1.459   3.460  0.00  0.00     0.002 A 
ATOM      6  C7  UNL d   1      -0.485  -0.588   4.164  0.00  0.00     0.002 A 
ENDROOT
BRANCH   1   7
ATOM      7  C1  UNL d   1      -2.533   0.879   4.319  0.00  0.00     0.055 C 
ATOM      8  C   UNL d   1      -3.223   0.125   5.447  0.00  0.00     0.019 C 
ENDBRANCH   1   7
TORSDOF 1
ENDMDL
