MODEL 1
REMARK minimizedAffinity 7.65158415
REMARK minimizedRMSD -1
REMARK  1 active torsions:
REMARK  status: ('A' for Active; 'I' for Inactive)
REMARK    1  A    between atoms: C1_2  and  C2_3 
ROOT
ATOM      1  C2  UNL d   1      -2.306  -0.120   1.840  0.00  0.00    -0.077 A 
ATOM      2  C3  UNL d   1      -0.922   0.071   1.958  0.00  0.00     0.002 A 
ATOM      3  C4  UNL d   1      -0.037  -0.955   1.622  0.00  0.00     0.002 A 
ATOM      4  C5  UNL d   1      -0.525  -2.176   1.161  0.00  0.00    -0.004 A 
ATOM      5  C6  UNL d   1      -1.900  -2.376   1.042  0.00  0.00     0.002 A 
ATOM      6  C7  UNL d   1      -2.786  -1.352   1.379  0.00  0.00     0.002 A 
ENDROOT
BRANCH   1   7
ATOM      7  C1  UNL d   1      -3.261   1.002   2.155  0.00  0.00     0.055 C 
ATOM      8  C   UNL d   1      -4.527   0.904   1.316  0.00  0.00     0.019 C 
ENDBRANCH   1   7
TORSDOF 1
ENDMDL
