MODEL 1
REMARK minimizedAffinity 9.40702915
REMARK minimizedRMSD -1
REMARK  1 active torsions:
REMARK  status: ('A' for Active; 'I' for Inactive)
REMARK    1  A    between atoms: C1_2  and  C2_3 
ROOT
ATOM      1  C2  UNL d   1       3.723   4.528  -2.747  0.00  0.00    -0.077 A 
ATOM      2  C3  UNL d   1       3.263   3.367  -3.383  0.00  0.00     0.002 A 
ATOM      3  C4  UNL d   1       1.901   3.197  -3.644  0.00  0.00     0.002 A 
ATOM      4  C5  UNL d   1       0.991   4.186  -3.275  0.00  0.00    -0.004 A 
ATOM      5  C6  UNL d   1       1.439   5.343  -2.640  0.00  0.00     0.002 A 
ATOM      6  C7  UNL d   1       2.799   5.514  -2.378  0.00  0.00     0.002 A 
ENDROOT
BRANCH   1   7
ATOM      7  C1  UNL d   1       5.196   4.736  -2.509  0.00  0.00     0.055 C 
ATOM      8  C   UNL d   1       5.996   4.545  -3.790  0.00  0.00     0.019 C 
ENDBRANCH   1   7
TORSDOF 1
ENDMDL
