MODEL 1
REMARK minimizedAffinity -2.92501783
REMARK minimizedRMSD -1
REMARK  0 active torsions:
REMARK  status: ('A' for Active; 'I' for Inactive)
ROOT
ATOM      1  C   UNL d   1      -6.000  -1.759  -4.343  0.00  0.00    -0.002 A 
ATOM      2  C1  UNL d   1      -5.394  -1.107  -5.408  0.00  0.00     0.010 A 
ATOM      3  C2  UNL d   1      -4.225  -1.614  -5.979  0.00  0.00     0.041 A 
ATOM      4  C3  UNL d   1      -3.671  -2.800  -5.458  0.00  0.00    -0.075 A 
ATOM      5  S   UNL d   1      -2.246  -3.607  -5.999  0.00  0.00     0.015 SA
ATOM      6  C4  UNL d   1      -2.409  -4.836  -4.830  0.00  0.00     0.022 A 
ATOM      7  C5  UNL d   1      -3.517  -4.652  -4.038  0.00  0.00     0.026 A 
ATOM      8  C6  UNL d   1      -4.264  -3.476  -4.388  0.00  0.00    -0.082 A 
ATOM      9  C7  UNL d   1      -5.447  -2.936  -3.829  0.00  0.00     0.045 A 
ENDROOT
TORSDOF 0
ENDMDL
