MODEL 1
REMARK minimizedAffinity 0.60628885
REMARK minimizedRMSD -1
REMARK  0 active torsions:
REMARK  status: ('A' for Active; 'I' for Inactive)
ROOT
ATOM      1  C   UNL d   1      -1.762  -5.647  -4.876  0.00  0.00    -0.002 A 
ATOM      2  C1  UNL d   1      -2.574  -5.999  -5.945  0.00  0.00     0.010 A 
ATOM      3  C2  UNL d   1      -3.902  -5.572  -5.999  0.00  0.00     0.041 A 
ATOM      4  C3  UNL d   1      -4.405  -4.775  -4.951  0.00  0.00    -0.075 A 
ATOM      5  S   UNL d   1      -6.000  -4.136  -4.805  0.00  0.00     0.015 SA
ATOM      6  C4  UNL d   1      -5.640  -3.380  -3.320  0.00  0.00     0.022 A 
ATOM      7  C5  UNL d   1      -4.340  -3.600  -2.931  0.00  0.00     0.026 A 
ATOM      8  C6  UNL d   1      -3.607  -4.407  -3.864  0.00  0.00    -0.082 A 
ATOM      9  C7  UNL d   1      -2.265  -4.857  -3.838  0.00  0.00     0.045 A 
ENDROOT
TORSDOF 0
ENDMDL
