MODEL 1
REMARK minimizedAffinity 0.0593475178
REMARK minimizedRMSD -1
REMARK  0 active torsions:
REMARK  status: ('A' for Active; 'I' for Inactive)
ROOT
ATOM      1  C   UNL d   1      -2.994  -5.957  -5.287  0.00  0.00    -0.002 A 
ATOM      2  C1  UNL d   1      -2.595  -5.486  -4.044  0.00  0.00     0.010 A 
ATOM      3  C2  UNL d   1      -3.190  -4.350  -3.490  0.00  0.00     0.041 A 
ATOM      4  C3  UNL d   1      -4.204  -3.691  -4.212  0.00  0.00    -0.075 A 
ATOM      5  S   UNL d   1      -5.076  -2.283  -3.732  0.00  0.00     0.015 SA
ATOM      6  C4  UNL d   1      -5.999  -2.275  -5.164  0.00  0.00     0.022 A 
ATOM      7  C5  UNL d   1      -5.664  -3.314  -6.000  0.00  0.00     0.026 A 
ATOM      8  C6  UNL d   1      -4.624  -4.148  -5.465  0.00  0.00    -0.082 A 
ATOM      9  C7  UNL d   1      -4.001  -5.301  -6.000  0.00  0.00     0.045 A 
ENDROOT
TORSDOF 0
ENDMDL
