MODEL 1
REMARK minimizedAffinity 4.1694479
REMARK minimizedRMSD -1
REMARK  0 active torsions:
REMARK  status: ('A' for Active; 'I' for Inactive)
ROOT
ATOM      1  C   UNL d   1      -3.441  -0.985  -0.459  0.00  0.00    -0.002 A 
ATOM      2  C1  UNL d   1      -3.418  -2.254   0.102  0.00  0.00     0.010 A 
ATOM      3  C2  UNL d   1      -2.266  -2.730   0.732  0.00  0.00     0.041 A 
ATOM      4  C3  UNL d   1      -1.129  -1.901   0.792  0.00  0.00    -0.075 A 
ATOM      5  S   UNL d   1       0.392  -2.273   1.514  0.00  0.00     0.015 SA
ATOM      6  C4  UNL d   1       1.046  -0.755   1.095  0.00  0.00     0.022 A 
ATOM      7  C5  UNL d   1       0.140   0.028   0.420  0.00  0.00     0.026 A 
ATOM      8  C6  UNL d   1      -1.129  -0.619   0.235  0.00  0.00    -0.082 A 
ATOM      9  C7  UNL d   1      -2.311  -0.165  -0.398  0.00  0.00     0.045 A 
ENDROOT
TORSDOF 0
ENDMDL
