MODEL 1
REMARK minimizedAffinity 6.84786797
REMARK minimizedRMSD -1
REMARK  0 active torsions:
REMARK  status: ('A' for Active; 'I' for Inactive)
ROOT
ATOM      1  C   UNL d   1      -5.999  -3.406  -5.024  0.00  0.00    -0.002 A 
ATOM      2  C1  UNL d   1      -5.319  -4.120  -6.000  0.00  0.00     0.010 A 
ATOM      3  C2  UNL d   1      -3.988  -4.495  -5.807  0.00  0.00     0.041 A 
ATOM      4  C3  UNL d   1      -3.346  -4.138  -4.605  0.00  0.00    -0.075 A 
ATOM      5  S   UNL d   1      -1.721  -4.490  -4.149  0.00  0.00     0.015 SA
ATOM      6  C4  UNL d   1      -1.892  -3.701  -2.648  0.00  0.00     0.022 A 
ATOM      7  C5  UNL d   1      -3.152  -3.175  -2.482  0.00  0.00     0.026 A 
ATOM      8  C6  UNL d   1      -4.011  -3.419  -3.607  0.00  0.00    -0.082 A 
ATOM      9  C7  UNL d   1      -5.359  -3.053  -3.833  0.00  0.00     0.045 A 
ENDROOT
TORSDOF 0
ENDMDL
