MODEL 1
REMARK minimizedAffinity 0.623063505
REMARK minimizedRMSD -1
REMARK  0 active torsions:
REMARK  status: ('A' for Active; 'I' for Inactive)
ROOT
ATOM      1  C   UNL d   1      -1.361  -4.238  -4.261  0.00  0.00    -0.002 A 
ATOM      2  C1  UNL d   1      -1.237  -5.392  -5.023  0.00  0.00     0.010 A 
ATOM      3  C2  UNL d   1      -2.363  -6.000  -5.579  0.00  0.00     0.041 A 
ATOM      4  C3  UNL d   1      -3.629  -5.423  -5.357  0.00  0.00    -0.075 A 
ATOM      5  S   UNL d   1      -5.148  -5.992  -5.941  0.00  0.00     0.015 SA
ATOM      6  C4  UNL d   1      -5.998  -4.718  -5.194  0.00  0.00     0.022 A 
ATOM      7  C5  UNL d   1      -5.159  -3.869  -4.512  0.00  0.00     0.026 A 
ATOM      8  C6  UNL d   1      -3.780  -4.261  -4.595  0.00  0.00    -0.082 A 
ATOM      9  C7  UNL d   1      -2.618  -3.669  -4.043  0.00  0.00     0.045 A 
ENDROOT
TORSDOF 0
ENDMDL
