MODEL 1
REMARK minimizedAffinity -0.646228075
REMARK minimizedRMSD -1
REMARK  0 active torsions:
REMARK  status: ('A' for Active; 'I' for Inactive)
ROOT
ATOM      1  C   UNL d   1      -1.546  -5.194  -5.399  0.00  0.00    -0.002 A 
ATOM      2  C1  UNL d   1      -2.121  -5.913  -4.361  0.00  0.00     0.010 A 
ATOM      3  C2  UNL d   1      -3.399  -5.593  -3.898  0.00  0.00     0.041 A 
ATOM      4  C3  UNL d   1      -4.097  -4.529  -4.504  0.00  0.00    -0.075 A 
ATOM      5  S   UNL d   1      -5.674  -3.959  -4.104  0.00  0.00     0.015 SA
ATOM      6  C4  UNL d   1      -5.621  -2.749  -5.302  0.00  0.00     0.022 A 
ATOM      7  C5  UNL d   1      -4.437  -2.764  -6.000  0.00  0.00     0.026 A 
ATOM      8  C6  UNL d   1      -3.539  -3.791  -5.552  0.00  0.00    -0.082 A 
ATOM      9  C7  UNL d   1      -2.241  -4.139  -5.997  0.00  0.00     0.045 A 
ENDROOT
TORSDOF 0
ENDMDL
