MODEL 1
REMARK minimizedAffinity 2.18570447
REMARK minimizedRMSD -1
REMARK  0 active torsions:
REMARK  status: ('A' for Active; 'I' for Inactive)
ROOT
ATOM      1  C   UNL d   1      -1.680  -5.227  -4.362  0.00  0.00    -0.002 A 
ATOM      2  C1  UNL d   1      -2.083  -6.000  -5.441  0.00  0.00     0.010 A 
ATOM      3  C2  UNL d   1      -3.352  -5.833  -6.000  0.00  0.00     0.041 A 
ATOM      4  C3  UNL d   1      -4.216  -4.865  -5.451  0.00  0.00    -0.075 A 
ATOM      5  S   UNL d   1      -5.815  -4.485  -5.972  0.00  0.00     0.015 SA
ATOM      6  C4  UNL d   1      -6.000  -3.286  -4.774  0.00  0.00     0.022 A 
ATOM      7  C5  UNL d   1      -4.879  -3.166  -3.987  0.00  0.00     0.026 A 
ATOM      8  C6  UNL d   1      -3.832  -4.074  -4.365  0.00  0.00    -0.082 A 
ATOM      9  C7  UNL d   1      -2.540  -4.268  -3.820  0.00  0.00     0.045 A 
ENDROOT
TORSDOF 0
ENDMDL
