MODEL 1
REMARK minimizedAffinity 4.3816433
REMARK minimizedRMSD -1
REMARK  0 active torsions:
REMARK  status: ('A' for Active; 'I' for Inactive)
ROOT
ATOM      1  C   UNL d   1      -4.620  -2.713  -4.775  0.00  0.00    -0.002 A 
ATOM      2  C1  UNL d   1      -4.661  -3.150  -3.458  0.00  0.00     0.010 A 
ATOM      3  C2  UNL d   1      -3.810  -4.167  -3.020  0.00  0.00     0.041 A 
ATOM      4  C3  UNL d   1      -2.907  -4.741  -3.936  0.00  0.00    -0.075 A 
ATOM      5  S   UNL d   1      -1.769  -5.999  -3.624  0.00  0.00     0.015 SA
ATOM      6  C4  UNL d   1      -1.201  -5.985  -5.230  0.00  0.00     0.022 A 
ATOM      7  C5  UNL d   1      -1.852  -5.050  -6.000  0.00  0.00     0.026 A 
ATOM      8  C6  UNL d   1      -2.846  -4.318  -5.266  0.00  0.00    -0.082 A 
ATOM      9  C7  UNL d   1      -3.722  -3.286  -5.680  0.00  0.00     0.045 A 
ENDROOT
TORSDOF 0
ENDMDL
