MODEL 1
REMARK minimizedAffinity -0.902598619
REMARK minimizedRMSD -1
REMARK  0 active torsions:
REMARK  status: ('A' for Active; 'I' for Inactive)
ROOT
ATOM      1  C   UNL d   1      -1.877  -5.449  -4.363  0.00  0.00    -0.002 A 
ATOM      2  C1  UNL d   1      -2.389  -5.998  -5.531  0.00  0.00     0.010 A 
ATOM      3  C2  UNL d   1      -3.653  -5.628  -5.995  0.00  0.00     0.041 A 
ATOM      4  C3  UNL d   1      -4.401  -4.687  -5.260  0.00  0.00    -0.075 A 
ATOM      5  S   UNL d   1      -5.971  -4.084  -5.637  0.00  0.00     0.015 SA
ATOM      6  C4  UNL d   1      -6.000  -3.084  -4.258  0.00  0.00     0.022 A 
ATOM      7  C5  UNL d   1      -4.848  -3.195  -3.516  0.00  0.00     0.026 A 
ATOM      8  C6  UNL d   1      -3.907  -4.120  -4.082  0.00  0.00    -0.082 A 
ATOM      9  C7  UNL d   1      -2.622  -4.516  -3.637  0.00  0.00     0.045 A 
ENDROOT
TORSDOF 0
ENDMDL
