MODEL 1
REMARK minimizedAffinity 11.6076889
REMARK minimizedRMSD -1
REMARK  0 active torsions:
REMARK  status: ('A' for Active; 'I' for Inactive)
ROOT
ATOM      1  C   UNL d   1      -1.504  -3.652  -3.937  0.00  0.00    -0.002 A 
ATOM      2  C1  UNL d   1      -2.089  -3.785  -2.686  0.00  0.00     0.010 A 
ATOM      3  C2  UNL d   1      -3.478  -3.815  -2.551  0.00  0.00     0.041 A 
ATOM      4  C3  UNL d   1      -4.277  -3.709  -3.706  0.00  0.00    -0.075 A 
ATOM      5  S   UNL d   1      -6.000  -3.721  -3.783  0.00  0.00     0.015 SA
ATOM      6  C4  UNL d   1      -5.999  -3.551  -5.479  0.00  0.00     0.022 A 
ATOM      7  C5  UNL d   1      -4.725  -3.484  -5.990  0.00  0.00     0.026 A 
ATOM      8  C6  UNL d   1      -3.711  -3.574  -4.977  0.00  0.00    -0.082 A 
ATOM      9  C7  UNL d   1      -2.300  -3.547  -5.080  0.00  0.00     0.045 A 
ENDROOT
TORSDOF 0
ENDMDL
