MODEL 1
REMARK minimizedAffinity 9.52390194
REMARK minimizedRMSD -1
REMARK  0 active torsions:
REMARK  status: ('A' for Active; 'I' for Inactive)
ROOT
ATOM      1  C   UNL d   1      -1.760  -5.994  -5.196  0.00  0.00    -0.002 A 
ATOM      2  C1  UNL d   1      -1.770  -5.825  -3.819  0.00  0.00     0.010 A 
ATOM      3  C2  UNL d   1      -2.746  -5.034  -3.208  0.00  0.00     0.041 A 
ATOM      4  C3  UNL d   1      -3.721  -4.412  -4.012  0.00  0.00    -0.075 A 
ATOM      5  S   UNL d   1      -5.012  -3.399  -3.483  0.00  0.00     0.015 SA
ATOM      6  C4  UNL d   1      -5.581  -3.168  -5.073  0.00  0.00     0.022 A 
ATOM      7  C5  UNL d   1      -4.815  -3.839  -5.997  0.00  0.00     0.026 A 
ATOM      8  C6  UNL d   1      -3.731  -4.567  -5.401  0.00  0.00    -0.082 A 
ATOM      9  C7  UNL d   1      -2.728  -5.374  -5.991  0.00  0.00     0.045 A 
ENDROOT
TORSDOF 0
ENDMDL
