MODEL 1
REMARK minimizedAffinity -1.14433658
REMARK minimizedRMSD -1
REMARK  0 active torsions:
REMARK  status: ('A' for Active; 'I' for Inactive)
ROOT
ATOM      1  C   UNL d   1      -5.571  -2.969  -4.322  0.00  0.00    -0.002 A 
ATOM      2  C1  UNL d   1      -5.995  -3.707  -5.417  0.00  0.00     0.010 A 
ATOM      3  C2  UNL d   1      -5.157  -4.662  -5.997  0.00  0.00     0.041 A 
ATOM      4  C3  UNL d   1      -3.875  -4.866  -5.450  0.00  0.00    -0.075 A 
ATOM      5  S   UNL d   1      -2.679  -5.982  -5.994  0.00  0.00     0.015 SA
ATOM      6  C4  UNL d   1      -1.578  -5.506  -4.783  0.00  0.00     0.022 A 
ATOM      7  C5  UNL d   1      -2.093  -4.520  -3.976  0.00  0.00     0.026 A 
ATOM      8  C6  UNL d   1      -3.426  -4.136  -4.346  0.00  0.00    -0.082 A 
ATOM      9  C7  UNL d   1      -4.299  -3.174  -3.782  0.00  0.00     0.045 A 
ENDROOT
TORSDOF 0
ENDMDL
