MODEL 1
REMARK minimizedAffinity 0.149187714
REMARK minimizedRMSD -1
REMARK  0 active torsions:
REMARK  status: ('A' for Active; 'I' for Inactive)
ROOT
ATOM      1  C   UNL d   1      -1.975  -5.536  -4.031  0.00  0.00    -0.002 A 
ATOM      2  C1  UNL d   1      -2.252  -6.000  -5.309  0.00  0.00     0.010 A 
ATOM      3  C2  UNL d   1      -3.392  -5.569  -5.990  0.00  0.00     0.041 A 
ATOM      4  C3  UNL d   1      -4.257  -4.654  -5.359  0.00  0.00    -0.075 A 
ATOM      5  S   UNL d   1      -5.712  -3.987  -6.000  0.00  0.00     0.015 SA
ATOM      6  C4  UNL d   1      -6.000  -3.069  -4.593  0.00  0.00     0.022 A 
ATOM      7  C5  UNL d   1      -5.020  -3.256  -3.646  0.00  0.00     0.026 A 
ATOM      8  C6  UNL d   1      -3.999  -4.171  -4.073  0.00  0.00    -0.082 A 
ATOM      9  C7  UNL d   1      -2.835  -4.628  -3.409  0.00  0.00     0.045 A 
ENDROOT
TORSDOF 0
ENDMDL
