MODEL 1
REMARK minimizedAffinity -1.71163535
REMARK minimizedRMSD -1
REMARK  0 active torsions:
REMARK  status: ('A' for Active; 'I' for Inactive)
ROOT
ATOM      1  C   UNL d   1      -1.602  -5.439  -4.021  0.00  0.00    -0.002 A 
ATOM      2  C1  UNL d   1      -1.803  -5.988  -5.279  0.00  0.00     0.010 A 
ATOM      3  C2  UNL d   1      -3.004  -5.781  -5.962  0.00  0.00     0.041 A 
ATOM      4  C3  UNL d   1      -4.008  -5.003  -5.352  0.00  0.00    -0.075 A 
ATOM      5  S   UNL d   1      -5.558  -4.615  -6.000  0.00  0.00     0.015 SA
ATOM      6  C4  UNL d   1      -5.990  -3.710  -4.622  0.00  0.00     0.022 A 
ATOM      7  C5  UNL d   1      -4.988  -3.695  -3.680  0.00  0.00     0.026 A 
ATOM      8  C6  UNL d   1      -3.829  -4.439  -4.086  0.00  0.00    -0.082 A 
ATOM      9  C7  UNL d   1      -2.601  -4.668  -3.420  0.00  0.00     0.045 A 
ENDROOT
TORSDOF 0
ENDMDL
