MODEL 1
REMARK minimizedAffinity -0.846693933
REMARK minimizedRMSD -1
REMARK  0 active torsions:
REMARK  status: ('A' for Active; 'I' for Inactive)
ROOT
ATOM      1  C   UNL d   1      -5.788  -3.794  -4.525  0.00  0.00    -0.002 A 
ATOM      2  C1  UNL d   1      -5.992  -4.771  -5.490  0.00  0.00     0.010 A 
ATOM      3  C2  UNL d   1      -4.917  -5.501  -6.000  0.00  0.00     0.041 A 
ATOM      4  C3  UNL d   1      -3.621  -5.231  -5.518  0.00  0.00    -0.075 A 
ATOM      5  S   UNL d   1      -2.153  -6.000  -5.996  0.00  0.00     0.015 SA
ATOM      6  C4  UNL d   1      -1.221  -5.050  -4.931  0.00  0.00     0.022 A 
ATOM      7  C5  UNL d   1      -1.994  -4.163  -4.221  0.00  0.00     0.026 A 
ATOM      8  C6  UNL d   1      -3.390  -4.253  -4.547  0.00  0.00    -0.082 A 
ATOM      9  C7  UNL d   1      -4.501  -3.529  -4.050  0.00  0.00     0.045 A 
ENDROOT
TORSDOF 0
ENDMDL
