MODEL 1
REMARK minimizedAffinity 2.22963142
REMARK minimizedRMSD -1
REMARK  0 active torsions:
REMARK  status: ('A' for Active; 'I' for Inactive)
ROOT
ATOM      1  O1  BZF d   1       4.172  -1.920   6.000  0.00  0.00    -0.204 OA
ATOM      2  C2  BZF d   1       5.504  -2.250   5.838  0.00  0.00     0.174 A 
ATOM      3  C3  BZF d   1       5.953  -1.854   4.630  0.00  0.00    -0.012 A 
ATOM      4  C3A BZF d   1       4.856  -1.156   4.032  0.00  0.00    -0.107 A 
ATOM      5  C4  BZF d   1       4.691  -0.515   2.838  0.00  0.00     0.055 A 
ATOM      6  C5  BZF d   1       3.473   0.002   2.529  0.00  0.00    -0.016 A 
ATOM      7  C6  BZF d   1       2.398  -0.108   3.387  0.00  0.00     0.022 A 
ATOM      8  C7  BZF d   1       2.515  -0.730   4.585  0.00  0.00     0.029 A 
ATOM      9  C7A BZF d   1       3.754  -1.225   4.915  0.00  0.00     0.058 A 
ENDROOT
TORSDOF 0
ENDMDL
