MODEL 1
REMARK minimizedAffinity 7.31739616
REMARK minimizedRMSD -1
REMARK  0 active torsions:
REMARK  status: ('A' for Active; 'I' for Inactive)
ROOT
ATOM      1  O1  BZF d   1       1.440  -0.278   1.809  0.00  0.00    -0.204 OA
ATOM      2  C2  BZF d   1       2.412   0.656   1.506  0.00  0.00     0.174 A 
ATOM      3  C3  BZF d   1       3.576   0.350   2.113  0.00  0.00    -0.012 A 
ATOM      4  C3A BZF d   1       3.342  -0.900   2.768  0.00  0.00    -0.107 A 
ATOM      5  C4  BZF d   1       4.124  -1.725   3.525  0.00  0.00     0.055 A 
ATOM      6  C5  BZF d   1       3.571  -2.837   4.077  0.00  0.00    -0.016 A 
ATOM      7  C6  BZF d   1       2.240  -3.151   3.898  0.00  0.00     0.022 A 
ATOM      8  C7  BZF d   1       1.425  -2.366   3.151  0.00  0.00     0.029 A 
ATOM      9  C7A BZF d   1       1.989  -1.260   2.564  0.00  0.00     0.058 A 
ENDROOT
TORSDOF 0
ENDMDL
