MODEL 1
REMARK minimizedAffinity 1.60416186
REMARK minimizedRMSD -1
REMARK  0 active torsions:
REMARK  status: ('A' for Active; 'I' for Inactive)
ROOT
ATOM      1  O1  BZF d   1       2.582  -0.504   4.152  0.00  0.00    -0.204 OA
ATOM      2  C2  BZF d   1       2.722  -0.070   2.848  0.00  0.00     0.174 A 
ATOM      3  C3  BZF d   1       2.753  -1.115   1.997  0.00  0.00    -0.012 A 
ATOM      4  C3A BZF d   1       2.532  -2.271   2.811  0.00  0.00    -0.107 A 
ATOM      5  C4  BZF d   1       2.438  -3.606   2.540  0.00  0.00     0.055 A 
ATOM      6  C5  BZF d   1       2.290  -4.480   3.570  0.00  0.00    -0.016 A 
ATOM      7  C6  BZF d   1       2.239  -4.055   4.882  0.00  0.00     0.022 A 
ATOM      8  C7  BZF d   1       2.323  -2.740   5.199  0.00  0.00     0.029 A 
ATOM      9  C7A BZF d   1       2.439  -1.851   4.158  0.00  0.00     0.058 A 
ENDROOT
TORSDOF 0
ENDMDL
