MODEL 1
REMARK minimizedAffinity 6.7396059
REMARK minimizedRMSD -1
REMARK  0 active torsions:
REMARK  status: ('A' for Active; 'I' for Inactive)
ROOT
ATOM      1  O1  BZF d   1       1.562  -0.872   3.605  0.00  0.00    -0.204 OA
ATOM      2  C2  BZF d   1       2.640  -0.357   2.911  0.00  0.00     0.174 A 
ATOM      3  C3  BZF d   1       3.671  -1.227   2.916  0.00  0.00    -0.012 A 
ATOM      4  C3A BZF d   1       3.176  -2.393   3.580  0.00  0.00    -0.107 A 
ATOM      5  C4  BZF d   1       3.726  -3.606   3.881  0.00  0.00     0.055 A 
ATOM      6  C5  BZF d   1       3.000  -4.500   4.603  0.00  0.00    -0.016 A 
ATOM      7  C6  BZF d   1       1.725  -4.212   5.043  0.00  0.00     0.022 A 
ATOM      8  C7  BZF d   1       1.135  -3.024   4.765  0.00  0.00     0.029 A 
ATOM      9  C7A BZF d   1       1.854  -2.132   4.008  0.00  0.00     0.058 A 
ENDROOT
TORSDOF 0
ENDMDL
