MODEL 1
REMARK minimizedAffinity 10.4190197
REMARK minimizedRMSD -1
REMARK  0 active torsions:
REMARK  status: ('A' for Active; 'I' for Inactive)
ROOT
ATOM      1  O1  BZF d   1       1.994  -0.512   4.745  0.00  0.00    -0.204 OA
ATOM      2  C2  BZF d   1       2.001  -1.804   4.257  0.00  0.00     0.174 A 
ATOM      3  C3  BZF d   1       2.306  -1.817   2.943  0.00  0.00    -0.012 A 
ATOM      4  C3A BZF d   1       2.592  -0.456   2.609  0.00  0.00    -0.107 A 
ATOM      5  C4  BZF d   1       2.972   0.168   1.455  0.00  0.00     0.055 A 
ATOM      6  C5  BZF d   1       3.099   1.521   1.447  0.00  0.00    -0.016 A 
ATOM      7  C6  BZF d   1       2.848   2.281   2.571  0.00  0.00     0.022 A 
ATOM      8  C7  BZF d   1       2.474   1.707   3.740  0.00  0.00     0.029 A 
ATOM      9  C7A BZF d   1       2.377   0.337   3.761  0.00  0.00     0.058 A 
ENDROOT
TORSDOF 0
ENDMDL
