MODEL 1
REMARK minimizedAffinity 1.75550294
REMARK minimizedRMSD -1
REMARK  0 active torsions:
REMARK  status: ('A' for Active; 'I' for Inactive)
ROOT
ATOM      1  O1  BZF d   1       3.420   1.409   0.282  0.00  0.00    -0.204 OA
ATOM      2  C2  BZF d   1       3.047   0.655   1.377  0.00  0.00     0.174 A 
ATOM      3  C3  BZF d   1       1.915   1.138   1.928  0.00  0.00    -0.012 A 
ATOM      4  C3A BZF d   1       1.507   2.210   1.071  0.00  0.00    -0.107 A 
ATOM      5  C4  BZF d   1       0.446   3.069   1.082  0.00  0.00     0.055 A 
ATOM      6  C5  BZF d   1       0.380   4.048   0.143  0.00  0.00    -0.016 A 
ATOM      7  C6  BZF d   1       1.357   4.200  -0.819  0.00  0.00     0.022 A 
ATOM      8  C7  BZF d   1       2.426   3.368  -0.873  0.00  0.00     0.029 A 
ATOM      9  C7A BZF d   1       2.480   2.357   0.055  0.00  0.00     0.058 A 
ENDROOT
TORSDOF 0
ENDMDL
