MODEL 1
REMARK minimizedAffinity 15.5439796
REMARK minimizedRMSD -1
REMARK  0 active torsions:
REMARK  status: ('A' for Active; 'I' for Inactive)
ROOT
ATOM      1  O1  BZF d   1      -5.895   4.234   3.934  0.00  0.00    -0.204 OA
ATOM      2  C2  BZF d   1      -5.902   3.225   4.878  0.00  0.00     0.174 A 
ATOM      3  C3  BZF d   1      -5.992   2.017   4.285  0.00  0.00    -0.012 A 
ATOM      4  C3A BZF d   1      -5.950   2.283   2.880  0.00  0.00    -0.107 A 
ATOM      5  C4  BZF d   1      -5.984   1.485   1.772  0.00  0.00     0.055 A 
ATOM      6  C5  BZF d   1      -6.000   2.064   0.542  0.00  0.00    -0.016 A 
ATOM      7  C6  BZF d   1      -5.988   3.434   0.384  0.00  0.00     0.022 A 
ATOM      8  C7  BZF d   1      -5.949   4.266   1.453  0.00  0.00     0.029 A 
ATOM      9  C7A BZF d   1      -5.900   3.684   2.696  0.00  0.00     0.058 A 
ENDROOT
TORSDOF 0
ENDMDL
