MODEL 1
REMARK minimizedAffinity 11.307313
REMARK minimizedRMSD -1
REMARK  0 active torsions:
REMARK  status: ('A' for Active; 'I' for Inactive)
ROOT
ATOM      1  O1  BZF d   1      -3.757   3.756   2.826  0.00  0.00    -0.204 OA
ATOM      2  C2  BZF d   1      -4.939   4.101   3.453  0.00  0.00     0.174 A 
ATOM      3  C3  BZF d   1      -5.997   3.831   2.662  0.00  0.00    -0.012 A 
ATOM      4  C3A BZF d   1      -5.448   3.196   1.503  0.00  0.00    -0.107 A 
ATOM      5  C4  BZF d   1      -5.999   2.680   0.365  0.00  0.00     0.055 A 
ATOM      6  C5  BZF d   1      -5.179   2.196  -0.605  0.00  0.00    -0.016 A 
ATOM      7  C6  BZF d   1      -3.806   2.218  -0.474  0.00  0.00     0.022 A 
ATOM      8  C7  BZF d   1      -3.214   2.716   0.639  0.00  0.00     0.029 A 
ATOM      9  C7A BZF d   1      -4.040   3.175   1.635  0.00  0.00     0.058 A 
ENDROOT
TORSDOF 0
ENDMDL
