MODEL 1
REMARK minimizedAffinity 9.74036026
REMARK minimizedRMSD -1
REMARK  3 active torsions:
REMARK  status: ('A' for Active; 'I' for Inactive)
REMARK    1  A    between atoms: C3'_2  and  C2'_3 
REMARK    2  A    between atoms: C2'_3  and  C1'_4 
REMARK    3  A    between atoms: C1'_4  and  C1_5 
ROOT
ATOM      1  C1  N4B d   1       0.846  -1.030   3.561  0.00  0.00    -0.075 A 
ATOM      2  C2  N4B d   1       1.930  -0.473   4.276  0.00  0.00     0.002 A 
ATOM      3  C3  N4B d   1       2.647  -1.251   5.151  0.00  0.00     0.002 A 
ATOM      4  C4  N4B d   1       2.289  -2.578   5.341  0.00  0.00    -0.004 A 
ATOM      5  C5  N4B d   1       1.257  -3.114   4.628  0.00  0.00     0.002 A 
ATOM      6  C6  N4B d   1       0.530  -2.345   3.742  0.00  0.00     0.002 A 
ENDROOT
BRANCH   1   7
ATOM      7  C1' N4B d   1      -0.021  -0.196   2.657  0.00  0.00     0.057 C 
BRANCH   7   8
ATOM      8  C2' N4B d   1      -1.025  -1.102   1.952  0.00  0.00     0.009 C 
BRANCH   8   9
ATOM      9  C3' N4B d   1      -2.420  -0.968   2.537  0.00  0.00     0.004 C 
ATOM     10  C4' N4B d   1      -3.294  -2.149   2.234  0.00  0.00     0.003 C 
ENDBRANCH   8   9
ENDBRANCH   7   8
ENDBRANCH   1   7
TORSDOF 3
ENDMDL
