MODEL 1
REMARK minimizedAffinity 11.4736385
REMARK minimizedRMSD -1
REMARK  3 active torsions:
REMARK  status: ('A' for Active; 'I' for Inactive)
REMARK    1  A    between atoms: C3'_2  and  C2'_3 
REMARK    2  A    between atoms: C2'_3  and  C1'_4 
REMARK    3  A    between atoms: C1'_4  and  C1_5 
ROOT
ATOM      1  C1  N4B d   1      -0.291   1.406   3.700  0.00  0.00    -0.075 A 
ATOM      2  C2  N4B d   1      -1.084   2.574   3.722  0.00  0.00     0.002 A 
ATOM      3  C3  N4B d   1      -1.160   3.331   4.865  0.00  0.00     0.002 A 
ATOM      4  C4  N4B d   1      -0.469   2.932   5.999  0.00  0.00    -0.004 A 
ATOM      5  C5  N4B d   1       0.315   1.816   5.962  0.00  0.00     0.002 A 
ATOM      6  C6  N4B d   1       0.404   1.048   4.819  0.00  0.00     0.002 A 
ENDROOT
BRANCH   1   7
ATOM      7  C1' N4B d   1      -0.245   0.499   2.500  0.00  0.00     0.057 C 
BRANCH   7   8
ATOM      8  C2' N4B d   1      -0.335  -0.951   2.965  0.00  0.00     0.009 C 
BRANCH   8   9
ATOM      9  C3' N4B d   1       1.033  -1.608   3.045  0.00  0.00     0.004 C 
ATOM     10  C4' N4B d   1       1.137  -2.599   4.166  0.00  0.00     0.003 C 
ENDBRANCH   8   9
ENDBRANCH   7   8
ENDBRANCH   1   7
TORSDOF 3
ENDMDL
