MODEL 1
REMARK minimizedAffinity 6.36397696
REMARK minimizedRMSD -1
REMARK  3 active torsions:
REMARK  status: ('A' for Active; 'I' for Inactive)
REMARK    1  A    between atoms: C3'_2  and  C2'_3 
REMARK    2  A    between atoms: C2'_3  and  C1'_4 
REMARK    3  A    between atoms: C1'_4  and  C1_5 
ROOT
ATOM      1  C1  N4B d   1       0.741  -0.379  -3.696  0.00  0.00    -0.075 A 
ATOM      2  C2  N4B d   1       0.199  -0.562  -2.405  0.00  0.00     0.002 A 
ATOM      3  C3  N4B d   1      -0.721  -1.557  -2.181  0.00  0.00     0.002 A 
ATOM      4  C4  N4B d   1      -1.127  -2.364  -3.233  0.00  0.00    -0.004 A 
ATOM      5  C5  N4B d   1      -0.580  -2.197  -4.472  0.00  0.00     0.002 A 
ATOM      6  C6  N4B d   1       0.348  -1.204  -4.710  0.00  0.00     0.002 A 
ENDROOT
BRANCH   1   7
ATOM      7  C1' N4B d   1       1.685   0.750  -4.008  0.00  0.00     0.057 C 
BRANCH   7   8
ATOM      8  C2' N4B d   1       3.054   0.175  -4.358  0.00  0.00     0.009 C 
BRANCH   8   9
ATOM      9  C3' N4B d   1       3.992   1.236  -4.908  0.00  0.00     0.004 C 
ATOM     10  C4' N4B d   1       5.426   0.796  -4.915  0.00  0.00     0.003 C 
ENDBRANCH   8   9
ENDBRANCH   7   8
ENDBRANCH   1   7
TORSDOF 3
ENDMDL
