MODEL 1
REMARK minimizedAffinity 10.7429047
REMARK minimizedRMSD -1
REMARK  3 active torsions:
REMARK  status: ('A' for Active; 'I' for Inactive)
REMARK    1  A    between atoms: C3'_2  and  C2'_3 
REMARK    2  A    between atoms: C2'_3  and  C1'_4 
REMARK    3  A    between atoms: C1'_4  and  C1_5 
ROOT
ATOM      1  C1  N4B d   1      -0.989  -1.016   1.166  0.00  0.00    -0.075 A 
ATOM      2  C2  N4B d   1       0.296  -1.411   1.598  0.00  0.00     0.002 A 
ATOM      3  C3  N4B d   1       0.998  -0.623   2.477  0.00  0.00     0.002 A 
ATOM      4  C4  N4B d   1       0.445   0.568   2.922  0.00  0.00    -0.004 A 
ATOM      5  C5  N4B d   1      -0.808   0.930   2.521  0.00  0.00     0.002 A 
ATOM      6  C6  N4B d   1      -1.526   0.146   1.640  0.00  0.00     0.002 A 
ENDROOT
BRANCH   1   7
ATOM      7  C1' N4B d   1      -1.759  -1.801   0.139  0.00  0.00     0.057 C 
BRANCH   7   8
ATOM      8  C2' N4B d   1      -0.813  -2.219  -0.982  0.00  0.00     0.009 C 
BRANCH   8   9
ATOM      9  C3' N4B d   1      -1.438  -2.026  -2.354  0.00  0.00     0.004 C 
ATOM     10  C4' N4B d   1      -0.466  -1.495  -3.365  0.00  0.00     0.003 C 
ENDBRANCH   8   9
ENDBRANCH   7   8
ENDBRANCH   1   7
TORSDOF 3
ENDMDL
