MODEL 1
REMARK minimizedAffinity 3.13036466
REMARK minimizedRMSD -1
REMARK  3 active torsions:
REMARK  status: ('A' for Active; 'I' for Inactive)
REMARK    1  A    between atoms: C3'_2  and  C2'_3 
REMARK    2  A    between atoms: C2'_3  and  C1'_4 
REMARK    3  A    between atoms: C1'_4  and  C1_5 
ROOT
ATOM      1  C1  N4B d   1      -0.412   1.500   2.688  0.00  0.00    -0.075 A 
ATOM      2  C2  N4B d   1      -1.104   0.436   2.069  0.00  0.00     0.002 A 
ATOM      3  C3  N4B d   1      -0.729  -0.862   2.314  0.00  0.00     0.002 A 
ATOM      4  C4  N4B d   1       0.342  -1.118   3.156  0.00  0.00    -0.004 A 
ATOM      5  C5  N4B d   1       0.989  -0.086   3.771  0.00  0.00     0.002 A 
ATOM      6  C6  N4B d   1       0.620   1.223   3.537  0.00  0.00     0.002 A 
ENDROOT
BRANCH   1   7
ATOM      7  C1' N4B d   1      -0.731   2.939   2.384  0.00  0.00     0.057 C 
BRANCH   7   8
ATOM      8  C2' N4B d   1      -0.244   3.273   0.977  0.00  0.00     0.009 C 
BRANCH   8   9
ATOM      9  C3' N4B d   1      -0.357   4.757   0.675  0.00  0.00     0.004 C 
ATOM     10  C4' N4B d   1      -1.063   5.033  -0.620  0.00  0.00     0.003 C 
ENDBRANCH   8   9
ENDBRANCH   7   8
ENDBRANCH   1   7
TORSDOF 3
ENDMDL
