MODEL 1
REMARK minimizedAffinity -3.58380079
REMARK minimizedRMSD -1
REMARK  1 active torsions:
REMARK  status: ('A' for Active; 'I' for Inactive)
REMARK    1  A    between atoms: C1_2  and  C2_3 
ROOT
ATOM      1  C2  UNL d   1      -0.179   0.182  -0.150  0.00  0.00    -0.076 A 
ATOM      2  C3  UNL d   1      -0.667   1.451   0.208  0.00  0.00     0.004 A 
ATOM      3  C4  UNL d   1       0.158   2.388   0.828  0.00  0.00    -0.003 A 
ATOM      4  C5  UNL d   1       1.484   2.071   1.101  0.00  0.00     0.000 A 
ATOM      5  C6  UNL d   1       1.990   0.823   0.738  0.00  0.00     0.000 A 
ATOM      6  C7  UNL d   1       1.176  -0.126   0.096  0.00  0.00    -0.073 A 
ATOM      7  C8  UNL d   1       1.772  -1.459  -0.268  0.00  0.00     0.078 C 
ENDROOT
BRANCH   1   8
ATOM      8  C1  UNL d   1      -1.127  -0.802  -0.796  0.00  0.00     0.053 C 
ATOM      9  C   UNL d   1      -1.881  -0.199  -1.972  0.00  0.00     0.018 C 
ENDBRANCH   1   8
TORSDOF 1
ENDMDL
