MODEL 1
REMARK minimizedAffinity -3.63237214
REMARK minimizedRMSD -1
REMARK  1 active torsions:
REMARK  status: ('A' for Active; 'I' for Inactive)
REMARK    1  A    between atoms: C1_2  and  C2_3 
ROOT
ATOM      1  C2  UNL d   1      -0.391  -0.439  -1.280  0.00  0.00    -0.076 A 
ATOM      2  C3  UNL d   1      -0.015  -0.727  -2.604  0.00  0.00     0.004 A 
ATOM      3  C4  UNL d   1      -0.969  -0.822  -3.615  0.00  0.00    -0.003 A 
ATOM      4  C5  UNL d   1      -2.314  -0.628  -3.320  0.00  0.00     0.000 A 
ATOM      5  C6  UNL d   1      -2.703  -0.323  -2.016  0.00  0.00     0.000 A 
ATOM      6  C7  UNL d   1      -1.752  -0.208  -0.987  0.00  0.00    -0.073 A 
ATOM      7  C8  UNL d   1      -2.227   0.116   0.402  0.00  0.00     0.078 C 
ENDROOT
BRANCH   1   8
ATOM      8  C1  UNL d   1       0.685  -0.376  -0.220  0.00  0.00     0.053 C 
ATOM      9  C   UNL d   1       1.832   0.545  -0.606  0.00  0.00     0.018 C 
ENDBRANCH   1   8
TORSDOF 1
ENDMDL
