MODEL 1
REMARK minimizedAffinity -5.69629478
REMARK minimizedRMSD -1
REMARK  1 active torsions:
REMARK  status: ('A' for Active; 'I' for Inactive)
REMARK    1  A    between atoms: C1_2  and  C2_3 
ROOT
ATOM      1  C2  UNL d   1       0.842  -0.847   0.521  0.00  0.00    -0.076 A 
ATOM      2  C3  UNL d   1       1.590   0.198  -0.049  0.00  0.00     0.004 A 
ATOM      3  C4  UNL d   1       2.972   0.266   0.121  0.00  0.00    -0.003 A 
ATOM      4  C5  UNL d   1       3.629  -0.710   0.862  0.00  0.00     0.000 A 
ATOM      5  C6  UNL d   1       2.905  -1.764   1.419  0.00  0.00     0.000 A 
ATOM      6  C7  UNL d   1       1.513  -1.856   1.244  0.00  0.00    -0.073 A 
ATOM      7  C8  UNL d   1       0.782  -3.011   1.872  0.00  0.00     0.078 C 
ENDROOT
BRANCH   1   8
ATOM      8  C1  UNL d   1      -0.657  -0.854   0.326  0.00  0.00     0.053 C 
ATOM      9  C   UNL d   1      -1.239   0.548   0.227  0.00  0.00     0.018 C 
ENDBRANCH   1   8
TORSDOF 1
ENDMDL
