MODEL 1
REMARK minimizedAffinity -6.73466158
REMARK minimizedRMSD -1
REMARK  1 active torsions:
REMARK  status: ('A' for Active; 'I' for Inactive)
REMARK    1  A    between atoms: C1_2  and  C2_3 
ROOT
ATOM      1  C2  UNL d   1       1.492   0.725   0.406  0.00  0.00    -0.076 A 
ATOM      2  C3  UNL d   1       2.721   0.554   1.068  0.00  0.00     0.004 A 
ATOM      3  C4  UNL d   1       3.032  -0.648   1.702  0.00  0.00    -0.003 A 
ATOM      4  C5  UNL d   1       2.121  -1.698   1.684  0.00  0.00     0.000 A 
ATOM      5  C6  UNL d   1       0.905  -1.551   1.017  0.00  0.00     0.000 A 
ATOM      6  C7  UNL d   1       0.582  -0.352   0.359  0.00  0.00    -0.073 A 
ATOM      7  C8  UNL d   1      -0.746  -0.247  -0.339  0.00  0.00     0.078 C 
ENDROOT
BRANCH   1   8
ATOM      8  C1  UNL d   1       1.198   2.060  -0.240  0.00  0.00     0.053 C 
ATOM      9  C   UNL d   1       0.220   2.897   0.570  0.00  0.00     0.018 C 
ENDBRANCH   1   8
TORSDOF 1
ENDMDL
