MODEL 1
REMARK minimizedAffinity -3.51850343
REMARK minimizedRMSD -1
REMARK  1 active torsions:
REMARK  status: ('A' for Active; 'I' for Inactive)
REMARK    1  A    between atoms: C1_2  and  C2_3 
ROOT
ATOM      1  C2  UNL d   1       0.285   0.291   0.004  0.00  0.00    -0.076 A 
ATOM      2  C3  UNL d   1       1.414   1.044  -0.363  0.00  0.00     0.004 A 
ATOM      3  C4  UNL d   1       2.697   0.506  -0.270  0.00  0.00    -0.003 A 
ATOM      4  C5  UNL d   1       2.871  -0.795   0.189  0.00  0.00     0.000 A 
ATOM      5  C6  UNL d   1       1.761  -1.563   0.541  0.00  0.00     0.000 A 
ATOM      6  C7  UNL d   1       0.460  -1.040   0.438  0.00  0.00    -0.073 A 
ATOM      7  C8  UNL d   1      -0.701  -1.910   0.837  0.00  0.00     0.078 C 
ENDROOT
BRANCH   1   8
ATOM      8  C1  UNL d   1      -1.078   0.938  -0.091  0.00  0.00     0.053 C 
ATOM      9  C   UNL d   1      -1.388   1.440  -1.493  0.00  0.00     0.018 C 
ENDBRANCH   1   8
TORSDOF 1
ENDMDL
