MODEL 1
REMARK minimizedAffinity -2.33838296
REMARK minimizedRMSD -1
REMARK  1 active torsions:
REMARK  status: ('A' for Active; 'I' for Inactive)
REMARK    1  A    between atoms: C1_2  and  C2_3 
ROOT
ATOM      1  C2  UNL d   1      -0.876  -0.607  -0.401  0.00  0.00    -0.076 A 
ATOM      2  C3  UNL d   1      -1.433  -1.502  -1.331  0.00  0.00     0.004 A 
ATOM      3  C4  UNL d   1      -2.405  -1.082  -2.238  0.00  0.00    -0.003 A 
ATOM      4  C5  UNL d   1      -2.836   0.241  -2.229  0.00  0.00     0.000 A 
ATOM      5  C6  UNL d   1      -2.281   1.146  -1.324  0.00  0.00     0.000 A 
ATOM      6  C7  UNL d   1      -1.289   0.742  -0.415  0.00  0.00    -0.073 A 
ATOM      7  C8  UNL d   1      -0.730   1.759   0.542  0.00  0.00     0.078 C 
ENDROOT
BRANCH   1   8
ATOM      8  C1  UNL d   1       0.155  -1.127   0.575  0.00  0.00     0.053 C 
ATOM      9  C   UNL d   1       1.574  -0.756   0.176  0.00  0.00     0.018 C 
ENDBRANCH   1   8
TORSDOF 1
ENDMDL
