MODEL 1
REMARK minimizedAffinity -3.93500137
REMARK minimizedRMSD -1
REMARK  3 active torsions:
REMARK  status: ('A' for Active; 'I' for Inactive)
REMARK    1  A    between atoms: C3'_2  and  C2'_3 
REMARK    2  A    between atoms: C2'_3  and  C1'_4 
REMARK    3  A    between atoms: C1'_4  and  C1_5 
ROOT
ATOM      1  C1  N4B d   1      -4.790  -3.444  -5.160  0.00  0.00    -0.075 A 
ATOM      2  C2  N4B d   1      -6.000  -2.723  -5.048  0.00  0.00     0.002 A 
ATOM      3  C3  N4B d   1      -5.976  -1.389  -4.723  0.00  0.00     0.002 A 
ATOM      4  C4  N4B d   1      -4.762  -0.762  -4.487  0.00  0.00    -0.004 A 
ATOM      5  C5  N4B d   1      -3.597  -1.459  -4.622  0.00  0.00     0.002 A 
ATOM      6  C6  N4B d   1      -3.605  -2.799  -4.953  0.00  0.00     0.002 A 
ENDROOT
BRANCH   1   7
ATOM      7  C1' N4B d   1      -4.769  -4.924  -5.430  0.00  0.00     0.057 C 
BRANCH   7   8
ATOM      8  C2' N4B d   1      -3.407  -5.310  -5.999  0.00  0.00     0.009 C 
BRANCH   8   9
ATOM      9  C3' N4B d   1      -2.500  -5.915  -4.941  0.00  0.00     0.004 C 
ATOM     10  C4' N4B d   1      -1.134  -5.296  -4.925  0.00  0.00     0.003 C 
ENDBRANCH   8   9
ENDBRANCH   7   8
ENDBRANCH   1   7
TORSDOF 3
ENDMDL
