MODEL 1
REMARK minimizedAffinity -3.52246952
REMARK minimizedRMSD -1
REMARK  3 active torsions:
REMARK  status: ('A' for Active; 'I' for Inactive)
REMARK    1  A    between atoms: C3'_2  and  C2'_3 
REMARK    2  A    between atoms: C2'_3  and  C1'_4 
REMARK    3  A    between atoms: C1'_4  and  C1_5 
ROOT
ATOM      1  C1  N4B d   1      -3.758  -3.966  -5.182  0.00  0.00    -0.075 A 
ATOM      2  C2  N4B d   1      -2.632  -3.426  -5.841  0.00  0.00     0.002 A 
ATOM      3  C3  N4B d   1      -1.500  -4.186  -6.000  0.00  0.00     0.002 A 
ATOM      4  C4  N4B d   1      -1.463  -5.476  -5.493  0.00  0.00    -0.004 A 
ATOM      5  C5  N4B d   1      -2.564  -5.999  -4.880  0.00  0.00     0.002 A 
ATOM      6  C6  N4B d   1      -3.710  -5.248  -4.717  0.00  0.00     0.002 A 
ENDROOT
BRANCH   1   7
ATOM      7  C1' N4B d   1      -4.989  -3.144  -4.909  0.00  0.00     0.057 C 
BRANCH   7   8
ATOM      8  C2' N4B d   1      -4.956  -1.890  -5.777  0.00  0.00     0.009 C 
BRANCH   8   9
ATOM      9  C3' N4B d   1      -5.930  -0.833  -5.286  0.00  0.00     0.004 C 
ATOM     10  C4' N4B d   1      -5.996  -0.755  -3.790  0.00  0.00     0.003 C 
ENDBRANCH   8   9
ENDBRANCH   7   8
ENDBRANCH   1   7
TORSDOF 3
ENDMDL
