MODEL 1
REMARK minimizedAffinity -0.797768831
REMARK minimizedRMSD -1
REMARK  3 active torsions:
REMARK  status: ('A' for Active; 'I' for Inactive)
REMARK    1  A    between atoms: C3'_2  and  C2'_3 
REMARK    2  A    between atoms: C2'_3  and  C1'_4 
REMARK    3  A    between atoms: C1'_4  and  C1_5 
ROOT
ATOM      1  C1  N4B d   1      -5.966  -3.463  -4.786  0.00  0.00    -0.075 A 
ATOM      2  C2  N4B d   1      -5.949  -2.738  -3.574  0.00  0.00     0.002 A 
ATOM      3  C3  N4B d   1      -5.942  -1.364  -3.597  0.00  0.00     0.002 A 
ATOM      4  C4  N4B d   1      -5.932  -0.698  -4.813  0.00  0.00    -0.004 A 
ATOM      5  C5  N4B d   1      -5.974  -1.407  -5.978  0.00  0.00     0.002 A 
ATOM      6  C6  N4B d   1      -5.985  -2.787  -5.971  0.00  0.00     0.002 A 
ENDROOT
BRANCH   1   7
ATOM      7  C1' N4B d   1      -5.887  -4.965  -4.813  0.00  0.00     0.057 C 
BRANCH   7   8
ATOM      8  C2' N4B d   1      -4.422  -5.390  -4.859  0.00  0.00     0.009 C 
BRANCH   8   9
ATOM      9  C3' N4B d   1      -3.615  -4.767  -3.733  0.00  0.00     0.004 C 
ATOM     10  C4' N4B d   1      -2.629  -5.722  -3.129  0.00  0.00     0.003 C 
ENDBRANCH   8   9
ENDBRANCH   7   8
ENDBRANCH   1   7
TORSDOF 3
ENDMDL
