MODEL 1
REMARK minimizedAffinity -2.9378469
REMARK minimizedRMSD -1
REMARK  3 active torsions:
REMARK  status: ('A' for Active; 'I' for Inactive)
REMARK    1  A    between atoms: C3'_2  and  C2'_3 
REMARK    2  A    between atoms: C2'_3  and  C1'_4 
REMARK    3  A    between atoms: C1'_4  and  C1_5 
ROOT
ATOM      1  C1  N4B d   1      -5.254  -3.752  -4.460  0.00  0.00    -0.075 A 
ATOM      2  C2  N4B d   1      -5.627  -2.896  -3.401  0.00  0.00     0.002 A 
ATOM      3  C3  N4B d   1      -6.000  -1.601  -3.663  0.00  0.00     0.002 A 
ATOM      4  C4  N4B d   1      -5.991  -1.135  -4.969  0.00  0.00    -0.004 A 
ATOM      5  C5  N4B d   1      -5.654  -1.976  -5.990  0.00  0.00     0.002 A 
ATOM      6  C6  N4B d   1      -5.281  -3.281  -5.741  0.00  0.00     0.002 A 
ENDROOT
BRANCH   1   7
ATOM      7  C1' N4B d   1      -4.756  -5.150  -4.215  0.00  0.00     0.057 C 
BRANCH   7   8
ATOM      8  C2' N4B d   1      -3.974  -5.624  -5.436  0.00  0.00     0.009 C 
BRANCH   8   9
ATOM      9  C3' N4B d   1      -2.695  -4.830  -5.635  0.00  0.00     0.004 C 
ATOM     10  C4' N4B d   1      -1.499  -5.704  -5.869  0.00  0.00     0.003 C 
ENDBRANCH   8   9
ENDBRANCH   7   8
ENDBRANCH   1   7
TORSDOF 3
ENDMDL
