MODEL 1
REMARK minimizedAffinity 0.471199393
REMARK minimizedRMSD -1
REMARK  3 active torsions:
REMARK  status: ('A' for Active; 'I' for Inactive)
REMARK    1  A    between atoms: C3'_2  and  C2'_3 
REMARK    2  A    between atoms: C2'_3  and  C1'_4 
REMARK    3  A    between atoms: C1'_4  and  C1_5 
ROOT
ATOM      1  C1  N4B d   1      -2.922  -4.264  -5.733  0.00  0.00    -0.075 A 
ATOM      2  C2  N4B d   1      -4.130  -4.971  -5.918  0.00  0.00     0.002 A 
ATOM      3  C3  N4B d   1      -5.327  -4.383  -5.588  0.00  0.00     0.002 A 
ATOM      4  C4  N4B d   1      -5.338  -3.103  -5.055  0.00  0.00    -0.004 A 
ATOM      5  C5  N4B d   1      -4.168  -2.417  -4.904  0.00  0.00     0.002 A 
ATOM      6  C6  N4B d   1      -2.959  -2.994  -5.235  0.00  0.00     0.002 A 
ENDROOT
BRANCH   1   7
ATOM      7  C1' N4B d   1      -1.583  -4.897  -5.999  0.00  0.00     0.057 C 
BRANCH   7   8
ATOM      8  C2' N4B d   1      -0.927  -5.258  -4.670  0.00  0.00     0.009 C 
BRANCH   8   9
ATOM      9  C3' N4B d   1      -1.882  -5.995  -3.746  0.00  0.00     0.004 C 
ATOM     10  C4' N4B d   1      -2.412  -5.126  -2.646  0.00  0.00     0.003 C 
ENDBRANCH   8   9
ENDBRANCH   7   8
ENDBRANCH   1   7
TORSDOF 3
ENDMDL
