MODEL 1
REMARK minimizedAffinity -0.619588017
REMARK minimizedRMSD -1
REMARK  3 active torsions:
REMARK  status: ('A' for Active; 'I' for Inactive)
REMARK    1  A    between atoms: C3'_2  and  C2'_3 
REMARK    2  A    between atoms: C2'_3  and  C1'_4 
REMARK    3  A    between atoms: C1'_4  and  C1_5 
ROOT
ATOM      1  C1  N4B d   1      -3.857  -4.453  -5.859  0.00  0.00    -0.075 A 
ATOM      2  C2  N4B d   1      -5.266  -4.489  -5.772  0.00  0.00     0.002 A 
ATOM      3  C3  N4B d   1      -5.985  -3.320  -5.795  0.00  0.00     0.002 A 
ATOM      4  C4  N4B d   1      -5.320  -2.106  -5.886  0.00  0.00    -0.004 A 
ATOM      5  C5  N4B d   1      -3.960  -2.081  -5.995  0.00  0.00     0.002 A 
ATOM      6  C6  N4B d   1      -3.224  -3.249  -5.977  0.00  0.00     0.002 A 
ENDROOT
BRANCH   1   7
ATOM      7  C1' N4B d   1      -3.022  -5.700  -5.751  0.00  0.00     0.057 C 
BRANCH   7   8
ATOM      8  C2' N4B d   1      -2.758  -6.000  -4.279  0.00  0.00     0.009 C 
BRANCH   8   9
ATOM      9  C3' N4B d   1      -3.515  -5.055  -3.362  0.00  0.00     0.004 C 
ATOM     10  C4' N4B d   1      -2.626  -4.031  -2.721  0.00  0.00     0.003 C 
ENDBRANCH   8   9
ENDBRANCH   7   8
ENDBRANCH   1   7
TORSDOF 3
ENDMDL
