MODEL 1
REMARK minimizedAffinity 0.874851644
REMARK minimizedRMSD -1
REMARK  3 active torsions:
REMARK  status: ('A' for Active; 'I' for Inactive)
REMARK    1  A    between atoms: C3'_2  and  C2'_3 
REMARK    2  A    between atoms: C2'_3  and  C1'_4 
REMARK    3  A    between atoms: C1'_4  and  C1_5 
ROOT
ATOM      1  C1  N4B d   1      -3.357  -3.869  -4.569  0.00  0.00    -0.075 A 
ATOM      2  C2  N4B d   1      -2.007  -3.864  -4.981  0.00  0.00     0.002 A 
ATOM      3  C3  N4B d   1      -1.504  -4.922  -5.698  0.00  0.00     0.002 A 
ATOM      4  C4  N4B d   1      -2.325  -5.999  -5.998  0.00  0.00    -0.004 A 
ATOM      5  C5  N4B d   1      -3.635  -5.984  -5.618  0.00  0.00     0.002 A 
ATOM      6  C6  N4B d   1      -4.155  -4.926  -4.900  0.00  0.00     0.002 A 
ENDROOT
BRANCH   1   7
ATOM      7  C1' N4B d   1      -3.929  -2.774  -3.709  0.00  0.00     0.057 C 
BRANCH   7   8
ATOM      8  C2' N4B d   1      -5.451  -2.805  -3.805  0.00  0.00     0.009 C 
BRANCH   8   9
ATOM      9  C3' N4B d   1      -5.928  -2.870  -5.246  0.00  0.00     0.004 C 
ATOM     10  C4' N4B d   1      -5.987  -1.522  -5.900  0.00  0.00     0.003 C 
ENDBRANCH   8   9
ENDBRANCH   7   8
ENDBRANCH   1   7
TORSDOF 3
ENDMDL
