MODEL 1
REMARK minimizedAffinity 0.0288419984
REMARK minimizedRMSD -1
REMARK  3 active torsions:
REMARK  status: ('A' for Active; 'I' for Inactive)
REMARK    1  A    between atoms: C3'_2  and  C2'_3 
REMARK    2  A    between atoms: C2'_3  and  C1'_4 
REMARK    3  A    between atoms: C1'_4  and  C1_5 
ROOT
ATOM      1  C1  N4B d   1      -3.730  -4.522  -5.341  0.00  0.00    -0.075 A 
ATOM      2  C2  N4B d   1      -2.495  -4.335  -6.000  0.00  0.00     0.002 A 
ATOM      3  C3  N4B d   1      -1.371  -4.981  -5.547  0.00  0.00     0.002 A 
ATOM      4  C4  N4B d   1      -1.453  -5.801  -4.432  0.00  0.00    -0.004 A 
ATOM      5  C5  N4B d   1      -2.654  -5.996  -3.816  0.00  0.00     0.002 A 
ATOM      6  C6  N4B d   1      -3.793  -5.357  -4.262  0.00  0.00     0.002 A 
ENDROOT
BRANCH   1   7
ATOM      7  C1' N4B d   1      -4.968  -3.770  -5.746  0.00  0.00     0.057 C 
BRANCH   7   8
ATOM      8  C2' N4B d   1      -5.940  -3.735  -4.570  0.00  0.00     0.009 C 
BRANCH   8   9
ATOM      9  C3' N4B d   1      -5.974  -2.371  -3.901  0.00  0.00     0.004 C 
ATOM     10  C4' N4B d   1      -6.000  -1.242  -4.887  0.00  0.00     0.003 C 
ENDBRANCH   8   9
ENDBRANCH   7   8
ENDBRANCH   1   7
TORSDOF 3
ENDMDL
