MODEL 1
REMARK minimizedAffinity -2.86613393
REMARK minimizedRMSD -1
REMARK  3 active torsions:
REMARK  status: ('A' for Active; 'I' for Inactive)
REMARK    1  A    between atoms: C3'_2  and  C2'_3 
REMARK    2  A    between atoms: C2'_3  and  C1'_4 
REMARK    3  A    between atoms: C1'_4  and  C1_5 
ROOT
ATOM      1  C1  N4B d   1      -3.987  -4.097  -4.523  0.00  0.00    -0.075 A 
ATOM      2  C2  N4B d   1      -2.580  -3.992  -4.594  0.00  0.00     0.002 A 
ATOM      3  C3  N4B d   1      -1.861  -4.897  -5.337  0.00  0.00     0.002 A 
ATOM      4  C4  N4B d   1      -2.522  -5.921  -5.998  0.00  0.00    -0.004 A 
ATOM      5  C5  N4B d   1      -3.883  -6.000  -5.945  0.00  0.00     0.002 A 
ATOM      6  C6  N4B d   1      -4.619  -5.095  -5.206  0.00  0.00     0.002 A 
ENDROOT
BRANCH   1   7
ATOM      7  C1' N4B d   1      -4.808  -3.183  -3.655  0.00  0.00     0.057 C 
BRANCH   7   8
ATOM      8  C2' N4B d   1      -5.998  -2.666  -4.458  0.00  0.00     0.009 C 
BRANCH   8   9
ATOM      9  C3' N4B d   1      -5.561  -1.954  -5.727  0.00  0.00     0.004 C 
ATOM     10  C4' N4B d   1      -4.382  -1.053  -5.510  0.00  0.00     0.003 C 
ENDBRANCH   8   9
ENDBRANCH   7   8
ENDBRANCH   1   7
TORSDOF 3
ENDMDL
