MODEL 1
REMARK minimizedAffinity 8.30960083
REMARK minimizedRMSD -1
REMARK  3 active torsions:
REMARK  status: ('A' for Active; 'I' for Inactive)
REMARK    1  A    between atoms: C3'_2  and  C2'_3 
REMARK    2  A    between atoms: C2'_3  and  C1'_4 
REMARK    3  A    between atoms: C1'_4  and  C1_5 
ROOT
ATOM      1  C1  N4B d   1      -0.184  -2.472   1.654  0.00  0.00    -0.075 A 
ATOM      2  C2  N4B d   1      -1.082  -3.416   1.110  0.00  0.00     0.002 A 
ATOM      3  C3  N4B d   1      -2.289  -3.002   0.602  0.00  0.00     0.002 A 
ATOM      4  C4  N4B d   1      -2.626  -1.657   0.644  0.00  0.00    -0.004 A 
ATOM      5  C5  N4B d   1      -1.742  -0.748   1.148  0.00  0.00     0.002 A 
ATOM      6  C6  N4B d   1      -0.524  -1.150   1.659  0.00  0.00     0.002 A 
ENDROOT
BRANCH   1   7
ATOM      7  C1' N4B d   1       1.110  -2.887   2.299  0.00  0.00     0.057 C 
BRANCH   7   8
ATOM      8  C2' N4B d   1       1.149  -2.358   3.730  0.00  0.00     0.009 C 
BRANCH   8   9
ATOM      9  C3' N4B d   1       1.532  -3.439   4.725  0.00  0.00     0.004 C 
ATOM     10  C4' N4B d   1       0.746  -3.360   6.000  0.00  0.00     0.003 C 
ENDBRANCH   8   9
ENDBRANCH   7   8
ENDBRANCH   1   7
TORSDOF 3
ENDMDL
