MODEL 1
REMARK minimizedAffinity -3.2943325
REMARK minimizedRMSD -1
REMARK  3 active torsions:
REMARK  status: ('A' for Active; 'I' for Inactive)
REMARK    1  A    between atoms: C3'_2  and  C2'_3 
REMARK    2  A    between atoms: C2'_3  and  C1'_4 
REMARK    3  A    between atoms: C1'_4  and  C1_5 
ROOT
ATOM      1  C1  N4B d   1      -3.230  -4.656  -5.105  0.00  0.00    -0.075 A 
ATOM      2  C2  N4B d   1      -4.013  -3.588  -4.615  0.00  0.00     0.002 A 
ATOM      3  C3  N4B d   1      -5.380  -3.630  -4.729  0.00  0.00     0.002 A 
ATOM      4  C4  N4B d   1      -5.984  -4.716  -5.344  0.00  0.00    -0.004 A 
ATOM      5  C5  N4B d   1      -5.223  -5.756  -5.793  0.00  0.00     0.002 A 
ATOM      6  C6  N4B d   1      -3.847  -5.729  -5.681  0.00  0.00     0.002 A 
ENDROOT
BRANCH   1   7
ATOM      7  C1' N4B d   1      -1.726  -4.616  -5.080  0.00  0.00     0.057 C 
BRANCH   7   8
ATOM      8  C2' N4B d   1      -1.199  -5.936  -4.527  0.00  0.00     0.009 C 
BRANCH   8   9
ATOM      9  C3' N4B d   1      -0.945  -5.864  -3.031  0.00  0.00     0.004 C 
ATOM     10  C4' N4B d   1      -2.200  -5.998  -2.221  0.00  0.00     0.003 C 
ENDBRANCH   8   9
ENDBRANCH   7   8
ENDBRANCH   1   7
TORSDOF 3
ENDMDL
