MODEL 1
REMARK minimizedAffinity 5.107512
REMARK minimizedRMSD -1
REMARK  0 active torsions:
REMARK  status: ('A' for Active; 'I' for Inactive)
ROOT
ATOM      1  O1  BZF d   1       0.891  -2.183   2.660  0.00  0.00    -0.204 OA
ATOM      2  C2  BZF d   1       1.389  -0.923   2.389  0.00  0.00     0.174 A 
ATOM      3  C3  BZF d   1       2.589  -0.745   2.979  0.00  0.00    -0.012 A 
ATOM      4  C3A BZF d   1       2.900  -2.004   3.584  0.00  0.00    -0.107 A 
ATOM      5  C4  BZF d   1       3.967  -2.461   4.303  0.00  0.00     0.055 A 
ATOM      6  C5  BZF d   1       3.929  -3.720   4.814  0.00  0.00    -0.016 A 
ATOM      7  C6  BZF d   1       2.839  -4.546   4.628  0.00  0.00     0.022 A 
ATOM      8  C7  BZF d   1       1.760  -4.138   3.917  0.00  0.00     0.029 A 
ATOM      9  C7A BZF d   1       1.810  -2.879   3.373  0.00  0.00     0.058 A 
ENDROOT
TORSDOF 0
ENDMDL
