MODEL 1
REMARK minimizedAffinity -1.14151096
REMARK minimizedRMSD -1
REMARK  0 active torsions:
REMARK  status: ('A' for Active; 'I' for Inactive)
ROOT
ATOM      1  O1  BZF d   1       1.858  -4.001   1.280  0.00  0.00    -0.204 OA
ATOM      2  C2  BZF d   1       2.286  -5.068   2.045  0.00  0.00     0.174 A 
ATOM      3  C3  BZF d   1       2.625  -4.662   3.286  0.00  0.00    -0.012 A 
ATOM      4  C3A BZF d   1       2.307  -3.268   3.325  0.00  0.00    -0.107 A 
ATOM      5  C4  BZF d   1       2.404  -2.309   4.293  0.00  0.00     0.055 A 
ATOM      6  C5  BZF d   1       2.078  -1.026   3.987  0.00  0.00    -0.016 A 
ATOM      7  C6  BZF d   1       1.657  -0.665   2.724  0.00  0.00     0.022 A 
ATOM      8  C7  BZF d   1       1.541  -1.581   1.732  0.00  0.00     0.029 A 
ATOM      9  C7A BZF d   1       1.838  -2.885   2.047  0.00  0.00     0.058 A 
ENDROOT
TORSDOF 0
ENDMDL
