MODEL 1
REMARK minimizedAffinity 3.38326335
REMARK minimizedRMSD -1
REMARK  0 active torsions:
REMARK  status: ('A' for Active; 'I' for Inactive)
ROOT
ATOM      1  O1  BZF d   1       1.192  -0.765   4.482  0.00  0.00    -0.204 OA
ATOM      2  C2  BZF d   1       1.323  -1.957   3.798  0.00  0.00     0.174 A 
ATOM      3  C3  BZF d   1       1.893  -1.757   2.592  0.00  0.00    -0.012 A 
ATOM      4  C3A BZF d   1       2.219  -0.364   2.557  0.00  0.00    -0.107 A 
ATOM      5  C4  BZF d   1       2.819   0.436   1.627  0.00  0.00     0.055 A 
ATOM      6  C5  BZF d   1       2.921   1.769   1.871  0.00  0.00    -0.016 A 
ATOM      7  C6  BZF d   1       2.430   2.335   3.029  0.00  0.00     0.022 A 
ATOM      8  C7  BZF d   1       1.830   1.581   3.982  0.00  0.00     0.029 A 
ATOM      9  C7A BZF d   1       1.756   0.229   3.754  0.00  0.00     0.058 A 
ENDROOT
TORSDOF 0
ENDMDL
