MODEL 1
REMARK minimizedAffinity 8.22220993
REMARK minimizedRMSD -1
REMARK  0 active torsions:
REMARK  status: ('A' for Active; 'I' for Inactive)
ROOT
ATOM      1  O1  BZF d   1       3.540  -1.022   2.992  0.00  0.00    -0.204 OA
ATOM      2  C2  BZF d   1       2.441  -0.627   2.255  0.00  0.00     0.174 A 
ATOM      3  C3  BZF d   1       1.489  -1.583   2.266  0.00  0.00    -0.012 A 
ATOM      4  C3A BZF d   1       1.990  -2.603   3.136  0.00  0.00    -0.107 A 
ATOM      5  C4  BZF d   1       1.492  -3.801   3.562  0.00  0.00     0.055 A 
ATOM      6  C5  BZF d   1       2.263  -4.593   4.351  0.00  0.00    -0.016 A 
ATOM      7  C6  BZF d   1       3.537  -4.222   4.729  0.00  0.00     0.022 A 
ATOM      8  C7  BZF d   1       4.072  -3.041   4.336  0.00  0.00     0.029 A 
ATOM      9  C7A BZF d   1       3.282  -2.223   3.565  0.00  0.00     0.058 A 
ENDROOT
TORSDOF 0
ENDMDL
