MODEL 1
REMARK minimizedAffinity 7.37005711
REMARK minimizedRMSD -1
REMARK  0 active torsions:
REMARK  status: ('A' for Active; 'I' for Inactive)
ROOT
ATOM      1  O1  BZF d   1       4.609  -3.478   5.185  0.00  0.00    -0.204 OA
ATOM      2  C2  BZF d   1       5.738  -3.078   4.497  0.00  0.00     0.174 A 
ATOM      3  C3  BZF d   1       5.409  -2.572   3.291  0.00  0.00    -0.012 A 
ATOM      4  C3A BZF d   1       3.979  -2.577   3.258  0.00  0.00    -0.107 A 
ATOM      5  C4  BZF d   1       3.060  -2.181   2.329  0.00  0.00     0.055 A 
ATOM      6  C5  BZF d   1       1.740  -2.389   2.576  0.00  0.00    -0.016 A 
ATOM      7  C6  BZF d   1       1.304  -2.995   3.736  0.00  0.00     0.022 A 
ATOM      8  C7  BZF d   1       2.178  -3.401   4.689  0.00  0.00     0.029 A 
ATOM      9  C7A BZF d   1       3.511  -3.162   4.458  0.00  0.00     0.058 A 
ENDROOT
TORSDOF 0
ENDMDL
