MODEL 1
REMARK minimizedAffinity 5.70812559
REMARK minimizedRMSD -1
REMARK  0 active torsions:
REMARK  status: ('A' for Active; 'I' for Inactive)
ROOT
ATOM      1  O1  BZF d   1       1.860  -5.999  -1.309  0.00  0.00    -0.204 OA
ATOM      2  C2  BZF d   1       2.700  -5.978  -0.212  0.00  0.00     0.174 A 
ATOM      3  C3  BZF d   1       3.992  -5.995  -0.599  0.00  0.00    -0.012 A 
ATOM      4  C3A BZF d   1       3.958  -5.935  -2.028  0.00  0.00    -0.107 A 
ATOM      5  C4  BZF d   1       4.927  -5.905  -2.989  0.00  0.00     0.055 A 
ATOM      6  C5  BZF d   1       4.560  -5.921  -4.298  0.00  0.00    -0.016 A 
ATOM      7  C6  BZF d   1       3.235  -5.972  -4.680  0.00  0.00     0.022 A 
ATOM      8  C7  BZF d   1       2.238  -5.998  -3.762  0.00  0.00     0.029 A 
ATOM      9  C7A BZF d   1       2.605  -5.949  -2.439  0.00  0.00     0.058 A 
ENDROOT
TORSDOF 0
ENDMDL
