MODEL 1
REMARK minimizedAffinity 8.37729263
REMARK minimizedRMSD -1
REMARK  0 active torsions:
REMARK  status: ('A' for Active; 'I' for Inactive)
ROOT
ATOM      1  O1  BZF d   1      -3.405   0.671  -3.814  0.00  0.00    -0.204 OA
ATOM      2  C2  BZF d   1      -3.276  -0.703  -3.762  0.00  0.00     0.174 A 
ATOM      3  C3  BZF d   1      -2.726  -1.089  -2.593  0.00  0.00    -0.012 A 
ATOM      4  C3A BZF d   1      -2.582   0.114  -1.831  0.00  0.00    -0.107 A 
ATOM      5  C4  BZF d   1      -2.109   0.380  -0.577  0.00  0.00     0.055 A 
ATOM      6  C5  BZF d   1      -2.036   1.670  -0.159  0.00  0.00    -0.016 A 
ATOM      7  C6  BZF d   1      -2.422   2.719  -0.968  0.00  0.00     0.022 A 
ATOM      8  C7  BZF d   1      -2.903   2.504  -2.217  0.00  0.00     0.029 A 
ATOM      9  C7A BZF d   1      -3.008   1.199  -2.631  0.00  0.00     0.058 A 
ENDROOT
TORSDOF 0
ENDMDL
