MODEL 1
REMARK minimizedAffinity 2.20293856
REMARK minimizedRMSD -1
REMARK  0 active torsions:
REMARK  status: ('A' for Active; 'I' for Inactive)
ROOT
ATOM      1  O1  BZF d   1       4.786  -5.721  -2.871  0.00  0.00    -0.204 OA
ATOM      2  C2  BZF d   1       4.361  -5.871  -1.565  0.00  0.00     0.174 A 
ATOM      3  C3  BZF d   1       3.016  -5.948  -1.505  0.00  0.00    -0.012 A 
ATOM      4  C3A BZF d   1       2.577  -5.932  -2.867  0.00  0.00    -0.107 A 
ATOM      5  C4  BZF d   1       1.348  -5.999  -3.458  0.00  0.00     0.055 A 
ATOM      6  C5  BZF d   1       1.258  -5.884  -4.809  0.00  0.00    -0.016 A 
ATOM      7  C6  BZF d   1       2.374  -5.697  -5.598  0.00  0.00     0.022 A 
ATOM      8  C7  BZF d   1       3.615  -5.630  -5.057  0.00  0.00     0.029 A 
ATOM      9  C7A BZF d   1       3.713  -5.779  -3.695  0.00  0.00     0.058 A 
ENDROOT
TORSDOF 0
ENDMDL
