MODEL 1
REMARK minimizedAffinity -3.38274932
REMARK minimizedRMSD -1
REMARK  0 active torsions:
REMARK  status: ('A' for Active; 'I' for Inactive)
ROOT
ATOM      1  O1  BZF d   1       3.109   0.879   1.536  0.00  0.00    -0.204 OA
ATOM      2  C2  BZF d   1       3.030   1.188   0.192  0.00  0.00     0.174 A 
ATOM      3  C3  BZF d   1       2.195   0.342  -0.445  0.00  0.00    -0.012 A 
ATOM      4  C3A BZF d   1       1.652  -0.495   0.581  0.00  0.00    -0.107 A 
ATOM      5  C4  BZF d   1       0.752  -1.521   0.576  0.00  0.00     0.055 A 
ATOM      6  C5  BZF d   1       0.492  -2.178   1.738  0.00  0.00    -0.016 A 
ATOM      7  C6  BZF d   1       1.118  -1.838   2.919  0.00  0.00     0.022 A 
ATOM      8  C7  BZF d   1       2.015  -0.823   2.974  0.00  0.00     0.029 A 
ATOM      9  C7A BZF d   1       2.255  -0.137   1.809  0.00  0.00     0.058 A 
ENDROOT
TORSDOF 0
ENDMDL
