MODEL 1
REMARK minimizedAffinity 13.161643
REMARK minimizedRMSD -1
REMARK  0 active torsions:
REMARK  status: ('A' for Active; 'I' for Inactive)
ROOT
ATOM      1  C   UNL d   1       5.523   1.270  -4.895  0.00  0.00     0.124 A 
ATOM      2  C1  UNL d   1       5.295   0.517  -3.751  0.00  0.00     0.062 A 
ATOM      3  C2  UNL d   1       4.801   1.124  -2.600  0.00  0.00     0.162 A 
ATOM      4  C3  UNL d   1       4.529   2.492  -2.588  0.00  0.00    -0.034 A 
ATOM      5  C4  UNL d   1       4.761   3.243  -3.742  0.00  0.00     0.162 A 
ATOM      6  C5  UNL d   1       5.255   2.631  -4.889  0.00  0.00     0.062 A 
ATOM      7  F   UNL d   1       5.475   3.360  -5.993  0.00  0.00    -0.097 F 
ATOM      8  F1  UNL d   1       4.510   4.560  -3.764  0.00  0.00    -0.096 F 
ATOM      9  I   UNL d   1       3.789   3.404  -0.869  0.00  0.00    -0.060 I 
ATOM     10  F2  UNL d   1       4.590   0.372  -1.509  0.00  0.00    -0.096 F 
ATOM     11  F3  UNL d   1       5.554  -0.799  -3.753  0.00  0.00    -0.097 F 
ATOM     12  F4  UNL d   1       6.000   0.683  -6.000  0.00  0.00    -0.092 F 
ENDROOT
TORSDOF 0
ENDMDL
