MODEL 1
REMARK minimizedAffinity 3.31348848
REMARK minimizedRMSD -1
REMARK  0 active torsions:
REMARK  status: ('A' for Active; 'I' for Inactive)
ROOT
ATOM      1  C   UNL d   1       3.948   2.859   2.003  0.00  0.00     0.124 A 
ATOM      2  C1  UNL d   1       3.885   3.887   1.073  0.00  0.00     0.062 A 
ATOM      3  C2  UNL d   1       2.810   3.971   0.194  0.00  0.00     0.162 A 
ATOM      4  C3  UNL d   1       1.787   3.024   0.241  0.00  0.00    -0.034 A 
ATOM      5  C4  UNL d   1       1.857   1.993   1.178  0.00  0.00     0.162 A 
ATOM      6  C5  UNL d   1       2.934   1.913   2.055  0.00  0.00     0.062 A 
ATOM      7  F   UNL d   1       2.992   0.919   2.953  0.00  0.00    -0.097 F 
ATOM      8  F1  UNL d   1       0.890   1.066   1.251  0.00  0.00    -0.096 F 
ATOM      9  I   UNL d   1       0.177   3.147  -1.073  0.00  0.00    -0.060 I 
ATOM     10  F2  UNL d   1       2.776   4.975  -0.695  0.00  0.00    -0.096 F 
ATOM     11  F3  UNL d   1       4.864   4.802   1.020  0.00  0.00    -0.097 F 
ATOM     12  F4  UNL d   1       4.984   2.780   2.848  0.00  0.00    -0.092 F 
ENDROOT
TORSDOF 0
ENDMDL
