MODEL 1
REMARK minimizedAffinity 25.302351
REMARK minimizedRMSD -1
REMARK  0 active torsions:
REMARK  status: ('A' for Active; 'I' for Inactive)
ROOT
ATOM      1  C   UNL d   1       4.323   2.865   1.463  0.00  0.00     0.124 A 
ATOM      2  C1  UNL d   1       3.883   2.091   2.527  0.00  0.00     0.062 A 
ATOM      3  C2  UNL d   1       3.919   2.597   3.823  0.00  0.00     0.162 A 
ATOM      4  C3  UNL d   1       4.397   3.885   4.062  0.00  0.00    -0.034 A 
ATOM      5  C4  UNL d   1       4.839   4.658   2.987  0.00  0.00     0.162 A 
ATOM      6  C5  UNL d   1       4.801   4.147   1.693  0.00  0.00     0.062 A 
ATOM      7  F   UNL d   1       5.226   4.897   0.666  0.00  0.00    -0.097 F 
ATOM      8  F1  UNL d   1       5.305   5.901   3.181  0.00  0.00    -0.096 F 
ATOM      9  I   UNL d   1       4.454   4.646   5.999  0.00  0.00    -0.060 I 
ATOM     10  F2  UNL d   1       3.488   1.826   4.833  0.00  0.00    -0.096 F 
ATOM     11  F3  UNL d   1       3.422   0.851   2.307  0.00  0.00    -0.097 F 
ATOM     12  F4  UNL d   1       4.287   2.375   0.217  0.00  0.00    -0.092 F 
ENDROOT
TORSDOF 0
ENDMDL
