MODEL 1
REMARK minimizedAffinity 10.4204407
REMARK minimizedRMSD -1
REMARK  0 active torsions:
REMARK  status: ('A' for Active; 'I' for Inactive)
ROOT
ATOM      1  C   UNL d   1      -0.975  -2.847  -0.747  0.00  0.00     0.124 A 
ATOM      2  C1  UNL d   1      -0.841  -2.408   0.563  0.00  0.00     0.062 A 
ATOM      3  C2  UNL d   1      -1.333  -3.178   1.613  0.00  0.00     0.162 A 
ATOM      4  C3  UNL d   1      -1.963  -4.396   1.358  0.00  0.00    -0.034 A 
ATOM      5  C4  UNL d   1      -2.095  -4.831   0.038  0.00  0.00     0.162 A 
ATOM      6  C5  UNL d   1      -1.601  -4.058  -1.008  0.00  0.00     0.062 A 
ATOM      7  F   UNL d   1      -1.731  -4.484  -2.273  0.00  0.00    -0.097 F 
ATOM      8  F1  UNL d   1      -2.695  -5.997  -0.244  0.00  0.00    -0.096 F 
ATOM      9  I   UNL d   1      -2.701  -5.550   2.925  0.00  0.00    -0.060 I 
ATOM     10  F2  UNL d   1      -1.190  -2.729   2.869  0.00  0.00    -0.096 F 
ATOM     11  F3  UNL d   1      -0.237  -1.239   0.818  0.00  0.00    -0.097 F 
ATOM     12  F4  UNL d   1      -0.501  -2.104  -1.755  0.00  0.00    -0.092 F 
ENDROOT
TORSDOF 0
ENDMDL
