MODEL 1
REMARK minimizedAffinity 7.2394166
REMARK minimizedRMSD -1
REMARK  0 active torsions:
REMARK  status: ('A' for Active; 'I' for Inactive)
ROOT
ATOM      1  C   UNL d   1       4.714   3.879   1.956  0.00  0.00     0.124 A 
ATOM      2  C1  UNL d   1       4.366   3.144   3.081  0.00  0.00     0.062 A 
ATOM      3  C2  UNL d   1       3.269   2.289   3.046  0.00  0.00     0.162 A 
ATOM      4  C3  UNL d   1       2.512   2.162   1.881  0.00  0.00    -0.034 A 
ATOM      5  C4  UNL d   1       2.867   2.905   0.754  0.00  0.00     0.162 A 
ATOM      6  C5  UNL d   1       3.965   3.759   0.794  0.00  0.00     0.062 A 
ATOM      7  F   UNL d   1       4.300   4.468  -0.294  0.00  0.00    -0.097 F 
ATOM      8  F1  UNL d   1       2.161   2.807  -0.382  0.00  0.00    -0.096 F 
ATOM      9  I   UNL d   1       0.870   0.884   1.825  0.00  0.00    -0.060 I 
ATOM     10  F2  UNL d   1       2.955   1.591   4.148  0.00  0.00    -0.096 F 
ATOM     11  F3  UNL d   1       5.088   3.259   4.205  0.00  0.00    -0.097 F 
ATOM     12  F4  UNL d   1       5.770   4.702   1.992  0.00  0.00    -0.092 F 
ENDROOT
TORSDOF 0
ENDMDL
