MODEL 1
REMARK minimizedAffinity 11.3622589
REMARK minimizedRMSD -1
REMARK  0 active torsions:
REMARK  status: ('A' for Active; 'I' for Inactive)
ROOT
ATOM      1  C   UNL d   1      -0.598  -2.346  -0.699  0.00  0.00     0.124 A 
ATOM      2  C1  UNL d   1      -0.700  -1.829   0.585  0.00  0.00     0.062 A 
ATOM      3  C2  UNL d   1      -1.352  -2.551   1.581  0.00  0.00     0.162 A 
ATOM      4  C3  UNL d   1      -1.907  -3.799   1.297  0.00  0.00    -0.034 A 
ATOM      5  C4  UNL d   1      -1.801  -4.312   0.003  0.00  0.00     0.162 A 
ATOM      6  C5  UNL d   1      -1.149  -3.587  -0.989  0.00  0.00     0.062 A 
ATOM      7  F   UNL d   1      -1.051  -4.088  -2.229  0.00  0.00    -0.097 F 
ATOM      8  F1  UNL d   1      -2.323  -5.509  -0.305  0.00  0.00    -0.096 F 
ATOM      9  I   UNL d   1      -2.882  -4.881   2.783  0.00  0.00    -0.060 I 
ATOM     10  F2  UNL d   1      -1.436  -2.027   2.813  0.00  0.00    -0.096 F 
ATOM     11  F3  UNL d   1      -0.170  -0.630   0.868  0.00  0.00    -0.097 F 
ATOM     12  F4  UNL d   1       0.028  -1.649  -1.655  0.00  0.00    -0.092 F 
ENDROOT
TORSDOF 0
ENDMDL
