MODEL 1
REMARK minimizedAffinity 10.1653185
REMARK minimizedRMSD -1
REMARK  0 active torsions:
REMARK  status: ('A' for Active; 'I' for Inactive)
ROOT
ATOM      1  C   UNL d   1       4.717   3.671   2.224  0.00  0.00     0.124 A 
ATOM      2  C1  UNL d   1       4.178   3.526   0.953  0.00  0.00     0.062 A 
ATOM      3  C2  UNL d   1       3.129   2.638   0.735  0.00  0.00     0.162 A 
ATOM      4  C3  UNL d   1       2.609   1.889   1.791  0.00  0.00    -0.034 A 
ATOM      5  C4  UNL d   1       3.157   2.040   3.067  0.00  0.00     0.162 A 
ATOM      6  C5  UNL d   1       4.206   2.929   3.279  0.00  0.00     0.062 A 
ATOM      7  F   UNL d   1       4.725   3.068   4.508  0.00  0.00    -0.097 F 
ATOM      8  F1  UNL d   1       2.681   1.336   4.104  0.00  0.00    -0.096 F 
ATOM      9  I   UNL d   1       1.040   0.561   1.469  0.00  0.00    -0.060 I 
ATOM     10  F2  UNL d   1       2.628   2.518  -0.503  0.00  0.00    -0.096 F 
ATOM     11  F3  UNL d   1       4.671   4.241  -0.068  0.00  0.00    -0.097 F 
ATOM     12  F4  UNL d   1       5.728   4.525   2.431  0.00  0.00    -0.092 F 
ENDROOT
TORSDOF 0
ENDMDL
