MODEL 1
REMARK minimizedAffinity 4.91207457
REMARK minimizedRMSD -1
REMARK  0 active torsions:
REMARK  status: ('A' for Active; 'I' for Inactive)
ROOT
ATOM      1  C   UNL d   1       3.152   1.570   0.826  0.00  0.00     0.124 A 
ATOM      2  C1  UNL d   1       1.888   2.115   1.004  0.00  0.00     0.062 A 
ATOM      3  C2  UNL d   1       0.802   1.289   1.278  0.00  0.00     0.162 A 
ATOM      4  C3  UNL d   1       0.975  -0.091   1.377  0.00  0.00    -0.034 A 
ATOM      5  C4  UNL d   1       2.249  -0.633   1.196  0.00  0.00     0.162 A 
ATOM      6  C5  UNL d   1       3.331   0.197   0.922  0.00  0.00     0.062 A 
ATOM      7  F   UNL d   1       4.552  -0.332   0.751  0.00  0.00    -0.097 F 
ATOM      8  F1  UNL d   1       2.450  -1.956   1.284  0.00  0.00    -0.096 F 
ATOM      9  I   UNL d   1      -0.647  -1.330   1.786  0.00  0.00    -0.060 I 
ATOM     10  F2  UNL d   1      -0.408   1.844   1.445  0.00  0.00    -0.096 F 
ATOM     11  F3  UNL d   1       1.713   3.441   0.910  0.00  0.00    -0.097 F 
ATOM     12  F4  UNL d   1       4.196   2.366   0.562  0.00  0.00    -0.092 F 
ENDROOT
TORSDOF 0
ENDMDL
