MODEL 1
REMARK minimizedAffinity 5.54905748
REMARK minimizedRMSD -1
REMARK  0 active torsions:
REMARK  status: ('A' for Active; 'I' for Inactive)
ROOT
ATOM      1  C   UNL d   1       4.382   3.568   2.079  0.00  0.00     0.124 A 
ATOM      2  C1  UNL d   1       3.905   2.909   3.203  0.00  0.00     0.062 A 
ATOM      3  C2  UNL d   1       2.706   2.204   3.146  0.00  0.00     0.162 A 
ATOM      4  C3  UNL d   1       1.975   2.155   1.959  0.00  0.00    -0.034 A 
ATOM      5  C4  UNL d   1       2.461   2.821   0.832  0.00  0.00     0.162 A 
ATOM      6  C5  UNL d   1       3.660   3.524   0.895  0.00  0.00     0.062 A 
ATOM      7  F   UNL d   1       4.119   4.161  -0.193  0.00  0.00    -0.097 F 
ATOM      8  F1  UNL d   1       1.783   2.794  -0.325  0.00  0.00    -0.096 F 
ATOM      9  I   UNL d   1       0.182   1.103   1.868  0.00  0.00    -0.060 I 
ATOM     10  F2  UNL d   1       2.269   1.576   4.247  0.00  0.00    -0.096 F 
ATOM     11  F3  UNL d   1       4.601   2.950   4.349  0.00  0.00    -0.097 F 
ATOM     12  F4  UNL d   1       5.536   4.246   2.137  0.00  0.00    -0.092 F 
ENDROOT
TORSDOF 0
ENDMDL
