MODEL 1
REMARK minimizedAffinity 6.8679924
REMARK minimizedRMSD -1
REMARK  0 active torsions:
REMARK  status: ('A' for Active; 'I' for Inactive)
ROOT
ATOM      1  C   UNL d   1       4.811   3.736   2.241  0.00  0.00     0.124 A 
ATOM      2  C1  UNL d   1       4.237   3.605   0.983  0.00  0.00     0.062 A 
ATOM      3  C2  UNL d   1       3.056   2.886   0.824  0.00  0.00     0.162 A 
ATOM      4  C3  UNL d   1       2.440   2.291   1.926  0.00  0.00    -0.034 A 
ATOM      5  C4  UNL d   1       3.024   2.426   3.187  0.00  0.00     0.162 A 
ATOM      6  C5  UNL d   1       4.204   3.146   3.341  0.00  0.00     0.062 A 
ATOM      7  F   UNL d   1       4.757   3.271   4.556  0.00  0.00    -0.097 F 
ATOM      8  F1  UNL d   1       2.458   1.867   4.267  0.00  0.00    -0.096 F 
ATOM      9  I   UNL d   1       0.675   1.214   1.692  0.00  0.00    -0.060 I 
ATOM     10  F2  UNL d   1       2.524   2.776  -0.402  0.00  0.00    -0.096 F 
ATOM     11  F3  UNL d   1       4.821   4.173  -0.081  0.00  0.00    -0.097 F 
ATOM     12  F4  UNL d   1       5.947   4.428   2.391  0.00  0.00    -0.092 F 
ENDROOT
TORSDOF 0
ENDMDL
