MODEL 1
REMARK minimizedAffinity 6.75460052
REMARK minimizedRMSD -1
REMARK  0 active torsions:
REMARK  status: ('A' for Active; 'I' for Inactive)
ROOT
ATOM      1  C   UNL d   1      -1.123  -4.116   3.332  0.00  0.00     0.124 A 
ATOM      2  C1  UNL d   1      -0.548  -5.069   2.502  0.00  0.00     0.062 A 
ATOM      3  C2  UNL d   1      -0.823  -5.066   1.137  0.00  0.00     0.162 A 
ATOM      4  C3  UNL d   1      -1.677  -4.106   0.593  0.00  0.00    -0.034 A 
ATOM      5  C4  UNL d   1      -2.251  -3.152   1.435  0.00  0.00     0.162 A 
ATOM      6  C5  UNL d   1      -1.973  -3.159   2.798  0.00  0.00     0.062 A 
ATOM      7  F   UNL d   1      -2.529  -2.238   3.598  0.00  0.00    -0.097 F 
ATOM      8  F1  UNL d   1      -3.076  -2.214   0.945  0.00  0.00    -0.096 F 
ATOM      9  I   UNL d   1      -2.091  -4.099  -1.446  0.00  0.00    -0.060 I 
ATOM     10  F2  UNL d   1      -0.254  -5.999   0.359  0.00  0.00    -0.096 F 
ATOM     11  F3  UNL d   1       0.273  -5.996   3.015  0.00  0.00    -0.097 F 
ATOM     12  F4  UNL d   1      -0.857  -4.122   4.644  0.00  0.00    -0.092 F 
ENDROOT
TORSDOF 0
ENDMDL
