MODEL 1
REMARK minimizedAffinity 9.96040916
REMARK minimizedRMSD -1
REMARK  0 active torsions:
REMARK  status: ('A' for Active; 'I' for Inactive)
ROOT
ATOM      1  C   UNL d   1       4.579   3.951   1.552  0.00  0.00     0.124 A 
ATOM      2  C1  UNL d   1       4.384   3.049   2.589  0.00  0.00     0.062 A 
ATOM      3  C2  UNL d   1       3.380   2.089   2.503  0.00  0.00     0.162 A 
ATOM      4  C3  UNL d   1       2.562   2.025   1.375  0.00  0.00    -0.034 A 
ATOM      5  C4  UNL d   1       2.763   2.936   0.336  0.00  0.00     0.162 A 
ATOM      6  C5  UNL d   1       3.768   3.894   0.427  0.00  0.00     0.062 A 
ATOM      7  F   UNL d   1       3.954   4.764  -0.576  0.00  0.00    -0.097 F 
ATOM      8  F1  UNL d   1       1.995   2.903  -0.763  0.00  0.00    -0.096 F 
ATOM      9  I   UNL d   1       1.060   0.591   1.243  0.00  0.00    -0.060 I 
ATOM     10  F2  UNL d   1       3.215   1.231   3.521  0.00  0.00    -0.096 F 
ATOM     11  F3  UNL d   1       5.166   3.103   3.678  0.00  0.00    -0.097 F 
ATOM     12  F4  UNL d   1       5.545   4.874   1.638  0.00  0.00    -0.092 F 
ENDROOT
TORSDOF 0
ENDMDL
