MODEL 1
REMARK minimizedAffinity 5.95307493
REMARK minimizedRMSD -1
REMARK  0 active torsions:
REMARK  status: ('A' for Active; 'I' for Inactive)
ROOT
ATOM      1  C   UNL d   1       3.462   2.732   1.317  0.00  0.00     0.124 A 
ATOM      2  C1  UNL d   1       2.537   1.857   1.871  0.00  0.00     0.062 A 
ATOM      3  C2  UNL d   1       1.181   2.006   1.595  0.00  0.00     0.162 A 
ATOM      4  C3  UNL d   1       0.741   3.033   0.759  0.00  0.00    -0.034 A 
ATOM      5  C4  UNL d   1       1.677   3.909   0.207  0.00  0.00     0.162 A 
ATOM      6  C5  UNL d   1       3.031   3.756   0.486  0.00  0.00     0.062 A 
ATOM      7  F   UNL d   1       3.923   4.602  -0.049  0.00  0.00    -0.097 F 
ATOM      8  F1  UNL d   1       1.289   4.907  -0.600  0.00  0.00    -0.096 F 
ATOM      9  I   UNL d   1      -1.286   3.258   0.344  0.00  0.00    -0.060 I 
ATOM     10  F2  UNL d   1       0.309   1.146   2.143  0.00  0.00    -0.096 F 
ATOM     11  F3  UNL d   1       2.950   0.867   2.675  0.00  0.00    -0.097 F 
ATOM     12  F4  UNL d   1       4.766   2.587   1.586  0.00  0.00    -0.092 F 
ENDROOT
TORSDOF 0
ENDMDL
