MODEL 1
REMARK minimizedAffinity 11.0037336
REMARK minimizedRMSD -1
REMARK  0 active torsions:
REMARK  status: ('A' for Active; 'I' for Inactive)
ROOT
ATOM      1  C   UNL d   1       4.866   3.851   2.004  0.00  0.00     0.124 A 
ATOM      2  C1  UNL d   1       4.510   2.946   2.995  0.00  0.00     0.062 A 
ATOM      3  C2  UNL d   1       3.331   2.214   2.885  0.00  0.00     0.162 A 
ATOM      4  C3  UNL d   1       2.499   2.383   1.778  0.00  0.00    -0.034 A 
ATOM      5  C4  UNL d   1       2.863   3.295   0.786  0.00  0.00     0.162 A 
ATOM      6  C5  UNL d   1       4.042   4.024   0.901  0.00  0.00     0.062 A 
ATOM      7  F   UNL d   1       4.383   4.898  -0.057  0.00  0.00    -0.097 F 
ATOM      8  F1  UNL d   1       2.085   3.483  -0.291  0.00  0.00    -0.096 F 
ATOM      9  I   UNL d   1       0.736   1.291   1.610  0.00  0.00    -0.060 I 
ATOM     10  F2  UNL d   1       3.013   1.347   3.858  0.00  0.00    -0.096 F 
ATOM     11  F3  UNL d   1       5.304   2.777   4.062  0.00  0.00    -0.097 F 
ATOM     12  F4  UNL d   1       6.000   4.554   2.113  0.00  0.00    -0.092 F 
ENDROOT
TORSDOF 0
ENDMDL
