MODEL 1
REMARK minimizedAffinity 7.49152184
REMARK minimizedRMSD -1
REMARK  0 active torsions:
REMARK  status: ('A' for Active; 'I' for Inactive)
ROOT
ATOM      1  C   UNL d   1       4.858   3.832   1.521  0.00  0.00     0.124 A 
ATOM      2  C1  UNL d   1       4.672   2.968   2.592  0.00  0.00     0.062 A 
ATOM      3  C2  UNL d   1       3.535   2.167   2.655  0.00  0.00     0.162 A 
ATOM      4  C3  UNL d   1       2.577   2.225   1.643  0.00  0.00    -0.034 A 
ATOM      5  C4  UNL d   1       2.771   3.096   0.571  0.00  0.00     0.162 A 
ATOM      6  C5  UNL d   1       3.908   3.895   0.512  0.00  0.00     0.062 A 
ATOM      7  F   UNL d   1       4.087   4.729  -0.523  0.00  0.00    -0.097 F 
ATOM      8  F1  UNL d   1       1.869   3.177  -0.419  0.00  0.00    -0.096 F 
ATOM      9  I   UNL d   1       0.876   1.028   1.734  0.00  0.00    -0.060 I 
ATOM     10  F2  UNL d   1       3.381   1.341   3.701  0.00  0.00    -0.096 F 
ATOM     11  F3  UNL d   1       5.588   2.905   3.569  0.00  0.00    -0.097 F 
ATOM     12  F4  UNL d   1       5.952   4.602   1.464  0.00  0.00    -0.092 F 
ENDROOT
TORSDOF 0
ENDMDL
