MODEL 1
REMARK minimizedAffinity 3.80178022
REMARK minimizedRMSD -1
REMARK  0 active torsions:
REMARK  status: ('A' for Active; 'I' for Inactive)
ROOT
ATOM      1  C   UNL d   1       0.437   4.002   3.507  0.00  0.00     0.124 A 
ATOM      2  C1  UNL d   1      -0.935   3.835   3.629  0.00  0.00     0.062 A 
ATOM      3  C2  UNL d   1      -1.609   2.944   2.799  0.00  0.00     0.162 A 
ATOM      4  C3  UNL d   1      -0.910   2.211   1.839  0.00  0.00    -0.034 A 
ATOM      5  C4  UNL d   1       0.470   2.385   1.722  0.00  0.00     0.162 A 
ATOM      6  C5  UNL d   1       1.138   3.277   2.554  0.00  0.00     0.062 A 
ATOM      7  F   UNL d   1       2.464   3.437   2.435  0.00  0.00    -0.097 F 
ATOM      8  F1  UNL d   1       1.172   1.696   0.810  0.00  0.00    -0.096 F 
ATOM      9  I   UNL d   1      -1.914   0.877   0.596  0.00  0.00    -0.060 I 
ATOM     10  F2  UNL d   1      -2.935   2.803   2.939  0.00  0.00    -0.096 F 
ATOM     11  F3  UNL d   1      -1.615   4.535   4.549  0.00  0.00    -0.097 F 
ATOM     12  F4  UNL d   1       1.083   4.861   4.307  0.00  0.00    -0.092 F 
ENDROOT
TORSDOF 0
ENDMDL
