MODEL 1
REMARK minimizedAffinity -2.05036998
REMARK minimizedRMSD -1
REMARK  0 active torsions:
REMARK  status: ('A' for Active; 'I' for Inactive)
ROOT
ATOM      1  C   UNL d   1       1.264   0.808   0.016  0.00  0.00     0.124 A 
ATOM      2  C1  UNL d   1       1.873  -0.077  -0.863  0.00  0.00     0.062 A 
ATOM      3  C2  UNL d   1       1.135  -1.099  -1.452  0.00  0.00     0.162 A 
ATOM      4  C3  UNL d   1      -0.223  -1.241  -1.165  0.00  0.00    -0.034 A 
ATOM      5  C4  UNL d   1      -0.829  -0.348  -0.279  0.00  0.00     0.162 A 
ATOM      6  C5  UNL d   1      -0.086   0.672   0.307  0.00  0.00     0.062 A 
ATOM      7  F   UNL d   1      -0.677   1.526   1.155  0.00  0.00    -0.097 F 
ATOM      8  F1  UNL d   1      -2.132  -0.456   0.019  0.00  0.00    -0.096 F 
ATOM      9  I   UNL d   1      -1.331  -2.768  -2.043  0.00  0.00    -0.060 I 
ATOM     10  F2  UNL d   1       1.749  -1.939  -2.297  0.00  0.00    -0.096 F 
ATOM     11  F3  UNL d   1       3.178   0.052  -1.145  0.00  0.00    -0.097 F 
ATOM     12  F4  UNL d   1       1.977   1.790   0.582  0.00  0.00    -0.092 F 
ENDROOT
TORSDOF 0
ENDMDL
