MODEL 1
REMARK minimizedAffinity -2.75734806
REMARK minimizedRMSD -1
REMARK  0 active torsions:
REMARK  status: ('A' for Active; 'I' for Inactive)
ROOT
ATOM      1  C   UNL d   1      -0.693   0.822  -0.022  0.00  0.00     0.077 C 
ATOM      2  C1  UNL d   1      -0.177  -0.483  -0.550  0.00  0.00    -0.074 A 
ATOM      3  C2  UNL d   1       1.185  -0.667  -0.807  0.00  0.00    -0.005 A 
ATOM      4  C3  UNL d   1       1.652  -1.890  -1.288  0.00  0.00     0.006 A 
ATOM      5  C4  UNL d   1       0.762  -2.940  -1.517  0.00  0.00    -0.005 A 
ATOM      6  C5  UNL d   1      -0.604  -2.776  -1.265  0.00  0.00    -0.074 A 
ATOM      7  C6  UNL d   1      -1.572  -3.897  -1.497  0.00  0.00     0.077 C 
ATOM      8  C7  UNL d   1      -1.064  -1.546  -0.775  0.00  0.00    -0.001 A 
ENDROOT
TORSDOF 0
ENDMDL
