MODEL 1
REMARK minimizedAffinity -3.946872
REMARK minimizedRMSD -1
REMARK  0 active torsions:
REMARK  status: ('A' for Active; 'I' for Inactive)
ROOT
ATOM      1  C   UNL d   1      -1.500   1.622   1.890  0.00  0.00     0.077 C 
ATOM      2  C1  UNL d   1      -0.957   1.069   0.607  0.00  0.00    -0.074 A 
ATOM      3  C2  UNL d   1      -0.736   1.899  -0.498  0.00  0.00    -0.005 A 
ATOM      4  C3  UNL d   1      -0.221   1.371  -1.682  0.00  0.00     0.006 A 
ATOM      5  C4  UNL d   1       0.078   0.011  -1.774  0.00  0.00    -0.005 A 
ATOM      6  C5  UNL d   1      -0.136  -0.834  -0.680  0.00  0.00    -0.074 A 
ATOM      7  C6  UNL d   1       0.189  -2.296  -0.759  0.00  0.00     0.077 C 
ATOM      8  C7  UNL d   1      -0.647  -0.295   0.509  0.00  0.00    -0.001 A 
ENDROOT
TORSDOF 0
ENDMDL
