MODEL 1
REMARK minimizedAffinity -3.21887016
REMARK minimizedRMSD -1
REMARK  0 active torsions:
REMARK  status: ('A' for Active; 'I' for Inactive)
ROOT
ATOM      1  C   UNL d   1      -1.835   2.523   1.645  0.00  0.00     0.077 C 
ATOM      2  C1  UNL d   1      -0.917   1.366   1.383  0.00  0.00    -0.074 A 
ATOM      3  C2  UNL d   1       0.066   1.004   2.310  0.00  0.00    -0.005 A 
ATOM      4  C3  UNL d   1       0.906  -0.080   2.057  0.00  0.00     0.006 A 
ATOM      5  C4  UNL d   1       0.772  -0.813   0.877  0.00  0.00    -0.005 A 
ATOM      6  C5  UNL d   1      -0.207  -0.467  -0.061  0.00  0.00    -0.074 A 
ATOM      7  C6  UNL d   1      -0.371  -1.250  -1.329  0.00  0.00     0.077 C 
ATOM      8  C7  UNL d   1      -1.051   0.620   0.204  0.00  0.00    -0.001 A 
ENDROOT
TORSDOF 0
ENDMDL
