MODEL 1
REMARK minimizedAffinity -3.59029603
REMARK minimizedRMSD -1
REMARK  0 active torsions:
REMARK  status: ('A' for Active; 'I' for Inactive)
ROOT
ATOM      1  C   UNL d   1      -0.036   1.038   1.673  0.00  0.00     0.077 C 
ATOM      2  C1  UNL d   1       0.289   0.691   0.250  0.00  0.00    -0.074 A 
ATOM      3  C2  UNL d   1       0.057   1.604  -0.783  0.00  0.00    -0.005 A 
ATOM      4  C3  UNL d   1       0.373   1.271  -2.100  0.00  0.00     0.006 A 
ATOM      5  C4  UNL d   1       0.922   0.023  -2.397  0.00  0.00    -0.005 A 
ATOM      6  C5  UNL d   1       1.161  -0.903  -1.376  0.00  0.00    -0.074 A 
ATOM      7  C6  UNL d   1       1.760  -2.245  -1.677  0.00  0.00     0.077 C 
ATOM      8  C7  UNL d   1       0.848  -0.558  -0.054  0.00  0.00    -0.001 A 
ENDROOT
TORSDOF 0
ENDMDL
