MODEL 1
REMARK minimizedAffinity -2.72657585
REMARK minimizedRMSD -1
REMARK  0 active torsions:
REMARK  status: ('A' for Active; 'I' for Inactive)
ROOT
ATOM      1  C   UNL d   1       1.967  -4.183  -0.668  0.00  0.00     0.077 C 
ATOM      2  C1  UNL d   1       0.891  -3.243  -1.124  0.00  0.00    -0.074 A 
ATOM      3  C2  UNL d   1      -0.063  -3.645  -2.065  0.00  0.00    -0.005 A 
ATOM      4  C3  UNL d   1      -1.063  -2.762  -2.473  0.00  0.00     0.006 A 
ATOM      5  C4  UNL d   1      -1.119  -1.472  -1.945  0.00  0.00    -0.005 A 
ATOM      6  C5  UNL d   1      -0.174  -1.053  -1.003  0.00  0.00    -0.074 A 
ATOM      7  C6  UNL d   1      -0.226   0.328  -0.419  0.00  0.00     0.077 C 
ATOM      8  C7  UNL d   1       0.824  -1.947  -0.593  0.00  0.00    -0.001 A 
ENDROOT
TORSDOF 0
ENDMDL
