MODEL 1
REMARK minimizedAffinity -3.28723884
REMARK minimizedRMSD -1
REMARK  0 active torsions:
REMARK  status: ('A' for Active; 'I' for Inactive)
ROOT
ATOM      1  C   UNL d   1       0.068  -0.837  -1.372  0.00  0.00     0.077 C 
ATOM      2  C1  UNL d   1       0.031   0.001  -0.129  0.00  0.00    -0.074 A 
ATOM      3  C2  UNL d   1       0.901  -0.254   0.936  0.00  0.00    -0.005 A 
ATOM      4  C3  UNL d   1       0.862   0.540   2.082  0.00  0.00     0.006 A 
ATOM      5  C4  UNL d   1      -0.045   1.596   2.174  0.00  0.00    -0.005 A 
ATOM      6  C5  UNL d   1      -0.922   1.867   1.119  0.00  0.00    -0.074 A 
ATOM      7  C6  UNL d   1      -1.897   3.005   1.198  0.00  0.00     0.077 C 
ATOM      8  C7  UNL d   1      -0.872   1.069  -0.032  0.00  0.00    -0.001 A 
ENDROOT
TORSDOF 0
ENDMDL
