MODEL 1
REMARK minimizedAffinity -4.44769192
REMARK minimizedRMSD -1
REMARK  0 active torsions:
REMARK  status: ('A' for Active; 'I' for Inactive)
ROOT
ATOM      1  C   UNL d   1      -1.759  -3.797  -1.201  0.00  0.00     0.077 C 
ATOM      2  C1  UNL d   1      -0.762  -2.676  -1.193  0.00  0.00    -0.074 A 
ATOM      3  C2  UNL d   1       0.359  -2.705  -2.029  0.00  0.00    -0.005 A 
ATOM      4  C3  UNL d   1       1.272  -1.651  -2.017  0.00  0.00     0.006 A 
ATOM      5  C4  UNL d   1       1.075  -0.559  -1.171  0.00  0.00    -0.005 A 
ATOM      6  C5  UNL d   1      -0.041  -0.512  -0.328  0.00  0.00    -0.074 A 
ATOM      7  C6  UNL d   1      -0.273   0.658   0.581  0.00  0.00     0.077 C 
ATOM      8  C7  UNL d   1      -0.958  -1.572  -0.351  0.00  0.00    -0.001 A 
ENDROOT
TORSDOF 0
ENDMDL
