MODEL 1
REMARK minimizedAffinity -2.64255905
REMARK minimizedRMSD -1
REMARK  0 active torsions:
REMARK  status: ('A' for Active; 'I' for Inactive)
ROOT
ATOM      1  C   UNL d   1      -1.895   2.495   1.379  0.00  0.00     0.077 C 
ATOM      2  C1  UNL d   1      -0.907   1.379   1.216  0.00  0.00    -0.074 A 
ATOM      3  C2  UNL d   1       0.085   1.151   2.175  0.00  0.00    -0.005 A 
ATOM      4  C3  UNL d   1       0.992   0.103   2.015  0.00  0.00     0.006 A 
ATOM      5  C4  UNL d   1       0.916  -0.726   0.895  0.00  0.00    -0.005 A 
ATOM      6  C5  UNL d   1      -0.069  -0.514  -0.075  0.00  0.00    -0.074 A 
ATOM      7  C6  UNL d   1      -0.171  -1.402  -1.279  0.00  0.00     0.077 C 
ATOM      8  C7  UNL d   1      -0.981   0.536   0.098  0.00  0.00    -0.001 A 
ENDROOT
TORSDOF 0
ENDMDL
