MODEL 1
REMARK minimizedAffinity -3.82397246
REMARK minimizedRMSD -1
REMARK  0 active torsions:
REMARK  status: ('A' for Active; 'I' for Inactive)
ROOT
ATOM      1  C   UNL d   1      -1.906   2.608   1.493  0.00  0.00     0.077 C 
ATOM      2  C1  UNL d   1      -0.845   1.563   1.320  0.00  0.00    -0.074 A 
ATOM      3  C2  UNL d   1       0.128   1.357   2.304  0.00  0.00    -0.005 A 
ATOM      4  C3  UNL d   1       1.103   0.374   2.134  0.00  0.00     0.006 A 
ATOM      5  C4  UNL d   1       1.116  -0.411   0.980  0.00  0.00    -0.005 A 
ATOM      6  C5  UNL d   1       0.150  -0.220  -0.013  0.00  0.00    -0.074 A 
ATOM      7  C6  UNL d   1       0.144  -1.062  -1.255  0.00  0.00     0.077 C 
ATOM      8  C7  UNL d   1      -0.830   0.764   0.168  0.00  0.00    -0.001 A 
ENDROOT
TORSDOF 0
ENDMDL
