MODEL 1
REMARK minimizedAffinity -4.45184946
REMARK minimizedRMSD -1
REMARK  0 active torsions:
REMARK  status: ('A' for Active; 'I' for Inactive)
ROOT
ATOM      1  C   UNL d   1       0.440  -0.460  -1.394  0.00  0.00     0.077 C 
ATOM      2  C1  UNL d   1       0.277   0.122  -0.022  0.00  0.00    -0.074 A 
ATOM      3  C2  UNL d   1       1.099  -0.286   1.034  0.00  0.00    -0.005 A 
ATOM      4  C3  UNL d   1       0.942   0.272   2.303  0.00  0.00     0.006 A 
ATOM      5  C4  UNL d   1      -0.036   1.241   2.529  0.00  0.00    -0.005 A 
ATOM      6  C5  UNL d   1      -0.866   1.662   1.485  0.00  0.00    -0.074 A 
ATOM      7  C6  UNL d   1      -1.915   2.710   1.708  0.00  0.00     0.077 C 
ATOM      8  C7  UNL d   1      -0.698   1.102   0.211  0.00  0.00    -0.001 A 
ENDROOT
TORSDOF 0
ENDMDL
