MODEL 1
REMARK minimizedAffinity -1.55594063
REMARK minimizedRMSD -1
REMARK  0 active torsions:
REMARK  status: ('A' for Active; 'I' for Inactive)
ROOT
ATOM      1  C   UNL d   1      -1.840   2.451   2.228  0.00  0.00     0.077 C 
ATOM      2  C1  UNL d   1      -0.976   1.474   1.487  0.00  0.00    -0.074 A 
ATOM      3  C2  UNL d   1       0.051   0.783   2.139  0.00  0.00    -0.005 A 
ATOM      4  C3  UNL d   1       0.839  -0.129   1.439  0.00  0.00     0.006 A 
ATOM      5  C4  UNL d   1       0.610  -0.361   0.082  0.00  0.00    -0.005 A 
ATOM      6  C5  UNL d   1      -0.413   0.320  -0.586  0.00  0.00    -0.074 A 
ATOM      7  C6  UNL d   1      -0.679   0.076  -2.042  0.00  0.00     0.077 C 
ATOM      8  C7  UNL d   1      -1.205   1.230   0.126  0.00  0.00    -0.001 A 
ENDROOT
TORSDOF 0
ENDMDL
