MODEL 1
REMARK minimizedAffinity -4.61341095
REMARK minimizedRMSD -1
REMARK  0 active torsions:
REMARK  status: ('A' for Active; 'I' for Inactive)
ROOT
ATOM      1  C   UNL d   1      -0.616   3.010   2.014  0.00  0.00     0.077 C 
ATOM      2  C1  UNL d   1      -0.269   1.870   1.102  0.00  0.00    -0.074 A 
ATOM      3  C2  UNL d   1      -0.079   0.579   1.606  0.00  0.00    -0.005 A 
ATOM      4  C3  UNL d   1       0.234  -0.472   0.745  0.00  0.00     0.006 A 
ATOM      5  C4  UNL d   1       0.361  -0.244  -0.626  0.00  0.00    -0.005 A 
ATOM      6  C5  UNL d   1       0.175   1.040  -1.148  0.00  0.00    -0.074 A 
ATOM      7  C6  UNL d   1       0.298   1.301  -2.620  0.00  0.00     0.077 C 
ATOM      8  C7  UNL d   1      -0.147   2.090  -0.277  0.00  0.00    -0.001 A 
ENDROOT
TORSDOF 0
ENDMDL
