MODEL 1
REMARK minimizedAffinity -1.85395253
REMARK minimizedRMSD -1
REMARK  0 active torsions:
REMARK  status: ('A' for Active; 'I' for Inactive)
ROOT
ATOM      1  C   UNL d   1      -1.548   3.284   1.584  0.00  0.00     0.077 C 
ATOM      2  C1  UNL d   1      -0.988   2.236   0.669  0.00  0.00    -0.074 A 
ATOM      3  C2  UNL d   1      -1.274   2.250  -0.700  0.00  0.00    -0.005 A 
ATOM      4  C3  UNL d   1      -0.738   1.274  -1.541  0.00  0.00     0.006 A 
ATOM      5  C4  UNL d   1       0.088   0.276  -1.022  0.00  0.00    -0.005 A 
ATOM      6  C5  UNL d   1       0.386   0.247   0.344  0.00  0.00    -0.074 A 
ATOM      7  C6  UNL d   1       1.280  -0.813   0.917  0.00  0.00     0.077 C 
ATOM      8  C7  UNL d   1      -0.151   1.235   1.181  0.00  0.00    -0.001 A 
ENDROOT
TORSDOF 0
ENDMDL
