MODEL 1
REMARK minimizedAffinity -3.09290242
REMARK minimizedRMSD -1
REMARK  0 active torsions:
REMARK  status: ('A' for Active; 'I' for Inactive)
ROOT
ATOM      1  C   UNL d   1      -1.187   0.497   0.649  0.00  0.00     0.172 C 
ATOM      2  N   UNL d   1      -0.399   1.687   0.429  0.00  0.00    -0.070 N 
ATOM      3  C1  UNL d   1      -0.896   2.935   0.164  0.00  0.00    -0.004 A 
ATOM      4  C2  UNL d   1       0.172   3.793   0.019  0.00  0.00    -0.047 A 
ATOM      5  C3  UNL d   1       1.353   3.034   0.203  0.00  0.00    -0.047 A 
ATOM      6  C4  UNL d   1       0.969   1.734   0.455  0.00  0.00    -0.004 A 
ENDROOT
TORSDOF 0
ENDMDL
