MODEL 1
REMARK minimizedAffinity -3.38469672
REMARK minimizedRMSD -1
REMARK  0 active torsions:
REMARK  status: ('A' for Active; 'I' for Inactive)
ROOT
ATOM      1  C   UNL d   1       0.460   2.985   0.330  0.00  0.00     0.172 C 
ATOM      2  N   UNL d   1       0.327   1.547   0.324  0.00  0.00    -0.070 N 
ATOM      3  C1  UNL d   1      -0.839   0.852   0.502  0.00  0.00    -0.004 A 
ATOM      4  C2  UNL d   1      -0.545  -0.492   0.428  0.00  0.00    -0.047 A 
ATOM      5  C3  UNL d   1       0.847  -0.609   0.198  0.00  0.00    -0.047 A 
ATOM      6  C4  UNL d   1       1.362   0.668   0.138  0.00  0.00    -0.004 A 
ENDROOT
TORSDOF 0
ENDMDL
