MODEL 1
REMARK minimizedAffinity -3.21712399
REMARK minimizedRMSD -1
REMARK  0 active torsions:
REMARK  status: ('A' for Active; 'I' for Inactive)
ROOT
ATOM      1  C   UNL d   1      -0.084  -0.400   0.214  0.00  0.00     0.172 C 
ATOM      2  N   UNL d   1       0.003   1.041   0.268  0.00  0.00    -0.070 N 
ATOM      3  C1  UNL d   1      -1.049   1.909   0.153  0.00  0.00    -0.004 A 
ATOM      4  C2  UNL d   1      -0.552   3.191   0.257  0.00  0.00    -0.047 A 
ATOM      5  C3  UNL d   1       0.847   3.089   0.441  0.00  0.00    -0.047 A 
ATOM      6  C4  UNL d   1       1.164   1.747   0.444  0.00  0.00    -0.004 A 
ENDROOT
TORSDOF 0
ENDMDL
