MODEL 1
REMARK minimizedAffinity -2.88385463
REMARK minimizedRMSD -1
REMARK  0 active torsions:
REMARK  status: ('A' for Active; 'I' for Inactive)
ROOT
ATOM      1  C   UNL d   1       0.566  -1.452   0.020  0.00  0.00     0.172 C 
ATOM      2  N   UNL d   1      -0.156  -2.269  -0.927  0.00  0.00    -0.070 N 
ATOM      3  C1  UNL d   1       0.346  -2.763  -2.101  0.00  0.00    -0.004 A 
ATOM      4  C2  UNL d   1      -0.652  -3.490  -2.714  0.00  0.00    -0.047 A 
ATOM      5  C3  UNL d   1      -1.793  -3.431  -1.879  0.00  0.00    -0.047 A 
ATOM      6  C4  UNL d   1      -1.458  -2.669  -0.780  0.00  0.00    -0.004 A 
ENDROOT
TORSDOF 0
ENDMDL
