MODEL 1
REMARK minimizedAffinity -2.54112768
REMARK minimizedRMSD -1
REMARK  0 active torsions:
REMARK  status: ('A' for Active; 'I' for Inactive)
ROOT
ATOM      1  C   UNL d   1      -1.034   0.352  -0.131  0.00  0.00     0.172 C 
ATOM      2  N   UNL d   1       0.396   0.540  -0.069  0.00  0.00    -0.070 N 
ATOM      3  C1  UNL d   1       1.062   1.701  -0.359  0.00  0.00    -0.004 A 
ATOM      4  C2  UNL d   1       2.409   1.471  -0.178  0.00  0.00    -0.047 A 
ATOM      5  C3  UNL d   1       2.557   0.126   0.234  0.00  0.00    -0.047 A 
ATOM      6  C4  UNL d   1       1.296  -0.427   0.294  0.00  0.00    -0.004 A 
ENDROOT
TORSDOF 0
ENDMDL
