MODEL 1
REMARK minimizedAffinity -3.84097028
REMARK minimizedRMSD -1
REMARK  0 active torsions:
REMARK  status: ('A' for Active; 'I' for Inactive)
ROOT
ATOM      1  C   UNL d   1       2.597   2.560   1.066  0.00  0.00     0.172 C 
ATOM      2  N   UNL d   1       1.233   2.347   0.640  0.00  0.00    -0.070 N 
ATOM      3  C1  UNL d   1       0.282   3.321   0.494  0.00  0.00    -0.004 A 
ATOM      4  C2  UNL d   1      -0.882   2.714   0.072  0.00  0.00    -0.047 A 
ATOM      5  C3  UNL d   1      -0.620   1.327  -0.037  0.00  0.00    -0.047 A 
ATOM      6  C4  UNL d   1       0.696   1.128   0.320  0.00  0.00    -0.004 A 
ENDROOT
TORSDOF 0
ENDMDL
