MODEL 1
REMARK minimizedAffinity -4.19128513
REMARK minimizedRMSD -1
REMARK  0 active torsions:
REMARK  status: ('A' for Active; 'I' for Inactive)
ROOT
ATOM      1  C   UNL d   1      -0.765   0.715   0.362  0.00  0.00     0.172 C 
ATOM      2  N   UNL d   1       0.211   1.776   0.289  0.00  0.00    -0.070 N 
ATOM      3  C1  UNL d   1      -0.044   3.110   0.468  0.00  0.00    -0.004 A 
ATOM      4  C2  UNL d   1       1.145   3.791   0.319  0.00  0.00    -0.047 A 
ATOM      5  C3  UNL d   1       2.149   2.834   0.040  0.00  0.00    -0.047 A 
ATOM      6  C4  UNL d   1       1.544   1.595   0.027  0.00  0.00    -0.004 A 
ENDROOT
TORSDOF 0
ENDMDL
