MODEL 1
REMARK minimizedAffinity -3.39595699
REMARK minimizedRMSD -1
REMARK  0 active torsions:
REMARK  status: ('A' for Active; 'I' for Inactive)
ROOT
ATOM      1  C   UNL d   1      -1.038   0.364  -0.026  0.00  0.00     0.172 C 
ATOM      2  N   UNL d   1      -0.028   1.384   0.135  0.00  0.00    -0.070 N 
ATOM      3  C1  UNL d   1      -0.253   2.675   0.531  0.00  0.00    -0.004 A 
ATOM      4  C2  UNL d   1       0.962   3.325   0.562  0.00  0.00    -0.047 A 
ATOM      5  C3  UNL d   1       1.951   2.392   0.170  0.00  0.00    -0.047 A 
ATOM      6  C4  UNL d   1       1.311   1.198  -0.088  0.00  0.00    -0.004 A 
ENDROOT
TORSDOF 0
ENDMDL
