MODEL 1
REMARK minimizedAffinity -3.97406483
REMARK minimizedRMSD -1
REMARK  0 active torsions:
REMARK  status: ('A' for Active; 'I' for Inactive)
ROOT
ATOM      1  C   UNL d   1       3.218   1.508   0.365  0.00  0.00     0.172 C 
ATOM      2  N   UNL d   1       1.990   2.034  -0.183  0.00  0.00    -0.070 N 
ATOM      3  C1  UNL d   1       0.991   1.294  -0.758  0.00  0.00    -0.004 A 
ATOM      4  C2  UNL d   1      -0.004   2.163  -1.152  0.00  0.00    -0.047 A 
ATOM      5  C3  UNL d   1       0.412   3.470  -0.802  0.00  0.00    -0.047 A 
ATOM      6  C4  UNL d   1       1.649   3.361  -0.204  0.00  0.00    -0.004 A 
ENDROOT
TORSDOF 0
ENDMDL
