MODEL 1
REMARK minimizedAffinity -3.63501549
REMARK minimizedRMSD -1
REMARK  0 active torsions:
REMARK  status: ('A' for Active; 'I' for Inactive)
ROOT
ATOM      1  C   UNL d   1      -0.021  -0.219   0.049  0.00  0.00     0.172 C 
ATOM      2  N   UNL d   1      -0.074   1.224   0.060  0.00  0.00    -0.070 N 
ATOM      3  C1  UNL d   1       0.929   2.057   0.481  0.00  0.00    -0.004 A 
ATOM      4  C2  UNL d   1       0.490   3.355   0.333  0.00  0.00    -0.047 A 
ATOM      5  C3  UNL d   1      -0.823   3.300  -0.193  0.00  0.00    -0.047 A 
ATOM      6  C4  UNL d   1      -1.147   1.969  -0.352  0.00  0.00    -0.004 A 
ENDROOT
TORSDOF 0
ENDMDL
