MODEL 1
REMARK minimizedAffinity -4.10831451
REMARK minimizedRMSD -1
REMARK  0 active torsions:
REMARK  status: ('A' for Active; 'I' for Inactive)
ROOT
ATOM      1  C   UNL d   1       0.001  -0.598   0.373  0.00  0.00     0.172 C 
ATOM      2  N   UNL d   1       0.287   0.813   0.266  0.00  0.00    -0.070 N 
ATOM      3  C1  UNL d   1       1.526   1.387   0.375  0.00  0.00    -0.004 A 
ATOM      4  C2  UNL d   1       1.376   2.748   0.213  0.00  0.00    -0.047 A 
ATOM      5  C3  UNL d   1      -0.000   3.000   0.000  0.00  0.00    -0.047 A 
ATOM      6  C4  UNL d   1      -0.651   1.785   0.038  0.00  0.00    -0.004 A 
ENDROOT
TORSDOF 0
ENDMDL
