MODEL 1
REMARK minimizedAffinity -3.75899911
REMARK minimizedRMSD -1
REMARK  0 active torsions:
REMARK  status: ('A' for Active; 'I' for Inactive)
ROOT
ATOM      1  C   UNL d   1      -1.656   0.791   0.285  0.00  0.00     0.172 C 
ATOM      2  N   UNL d   1      -0.500   1.621   0.043  0.00  0.00    -0.070 N 
ATOM      3  C1  UNL d   1      -0.418   2.967   0.285  0.00  0.00    -0.004 A 
ATOM      4  C2  UNL d   1       0.844   3.385  -0.077  0.00  0.00    -0.047 A 
ATOM      5  C3  UNL d   1       1.545   2.252  -0.553  0.00  0.00    -0.047 A 
ATOM      6  C4  UNL d   1       0.690   1.174  -0.468  0.00  0.00    -0.004 A 
ENDROOT
TORSDOF 0
ENDMDL
