MODEL 1
REMARK minimizedAffinity -3.3075819
REMARK minimizedRMSD -1
REMARK  0 active torsions:
REMARK  status: ('A' for Active; 'I' for Inactive)
ROOT
ATOM      1  C   UNL d   1       1.166  -1.504   0.078  0.00  0.00     0.172 C 
ATOM      2  N   UNL d   1       0.289  -2.413  -0.622  0.00  0.00    -0.070 N 
ATOM      3  C1  UNL d   1       0.383  -2.754  -1.945  0.00  0.00    -0.004 A 
ATOM      4  C2  UNL d   1      -0.633  -3.641  -2.226  0.00  0.00    -0.047 A 
ATOM      5  C3  UNL d   1      -1.365  -3.839  -1.031  0.00  0.00    -0.047 A 
ATOM      6  C4  UNL d   1      -0.772  -3.067  -0.054  0.00  0.00    -0.004 A 
ENDROOT
TORSDOF 0
ENDMDL
