MODEL 1
REMARK minimizedAffinity -2.24013567
REMARK minimizedRMSD -1
REMARK  0 active torsions:
REMARK  status: ('A' for Active; 'I' for Inactive)
ROOT
ATOM      1  C   UNL d   1      -0.276  -0.527  -0.295  0.00  0.00     0.172 C 
ATOM      2  N   UNL d   1      -0.308  -1.788  -0.999  0.00  0.00    -0.070 N 
ATOM      3  C1  UNL d   1       0.248  -2.960  -0.563  0.00  0.00    -0.004 A 
ATOM      4  C2  UNL d   1       0.001  -3.925  -1.515  0.00  0.00    -0.047 A 
ATOM      5  C3  UNL d   1      -0.728  -3.311  -2.561  0.00  0.00    -0.047 A 
ATOM      6  C4  UNL d   1      -0.906  -1.988  -2.215  0.00  0.00    -0.004 A 
ENDROOT
TORSDOF 0
ENDMDL
