MODEL 1
REMARK minimizedAffinity 21.1263371
REMARK minimizedRMSD -1
REMARK  0 active torsions:
REMARK  status: ('A' for Active; 'I' for Inactive)
ROOT
ATOM      1  C   UNL d   1      -0.506   4.746  -1.471  0.00  0.00     0.124 A 
ATOM      2  C1  UNL d   1       0.720   5.022  -0.883  0.00  0.00     0.062 A 
ATOM      3  C2  UNL d   1       1.148   4.290   0.220  0.00  0.00     0.162 A 
ATOM      4  C3  UNL d   1       0.349   3.273   0.743  0.00  0.00    -0.034 A 
ATOM      5  C4  UNL d   1      -0.883   3.001   0.147  0.00  0.00     0.162 A 
ATOM      6  C5  UNL d   1      -1.307   3.736  -0.956  0.00  0.00     0.062 A 
ATOM      7  F   UNL d   1      -2.492   3.467  -1.523  0.00  0.00    -0.097 F 
ATOM      8  F1  UNL d   1      -1.677   2.030   0.624  0.00  0.00    -0.096 F 
ATOM      9  I   UNL d   1       0.986   2.176   2.393  0.00  0.00    -0.060 I 
ATOM     10  F2  UNL d   1       2.338   4.579   0.768  0.00  0.00    -0.096 F 
ATOM     11  F3  UNL d   1       1.495   5.998  -1.379  0.00  0.00    -0.097 F 
ATOM     12  F4  UNL d   1      -0.916   5.452  -2.533  0.00  0.00    -0.092 F 
ENDROOT
TORSDOF 0
ENDMDL
