MODEL 1
REMARK minimizedAffinity 14.9314241
REMARK minimizedRMSD -1
REMARK  0 active torsions:
REMARK  status: ('A' for Active; 'I' for Inactive)
ROOT
ATOM      1  C   UNL d   1      -5.401   4.175  -2.170  0.00  0.00     0.124 A 
ATOM      2  C1  UNL d   1      -5.619   2.818  -1.974  0.00  0.00     0.062 A 
ATOM      3  C2  UNL d   1      -5.790   1.972  -3.066  0.00  0.00     0.162 A 
ATOM      4  C3  UNL d   1      -5.743   2.480  -4.364  0.00  0.00    -0.034 A 
ATOM      5  C4  UNL d   1      -5.525   3.845  -4.553  0.00  0.00     0.162 A 
ATOM      6  C5  UNL d   1      -5.354   4.687  -3.459  0.00  0.00     0.062 A 
ATOM      7  F   UNL d   1      -5.144   5.998  -3.650  0.00  0.00    -0.097 F 
ATOM      8  F1  UNL d   1      -5.474   4.367  -5.788  0.00  0.00    -0.096 F 
ATOM      9  I   UNL d   1      -5.999   1.217  -5.999  0.00  0.00    -0.060 I 
ATOM     10  F2  UNL d   1      -5.999   0.665  -2.847  0.00  0.00    -0.096 F 
ATOM     11  F3  UNL d   1      -5.665   2.321  -0.730  0.00  0.00    -0.097 F 
ATOM     12  F4  UNL d   1      -5.237   4.987  -1.118  0.00  0.00    -0.092 F 
ENDROOT
TORSDOF 0
ENDMDL
