MODEL 1
REMARK minimizedAffinity 29.8082142
REMARK minimizedRMSD -1
REMARK  0 active torsions:
REMARK  status: ('A' for Active; 'I' for Inactive)
ROOT
ATOM      1  C   UNL d   1      -1.810   2.048   2.421  0.00  0.00     0.124 A 
ATOM      2  C1  UNL d   1      -0.696   2.400   1.671  0.00  0.00     0.062 A 
ATOM      3  C2  UNL d   1      -0.526   1.888   0.388  0.00  0.00     0.162 A 
ATOM      4  C3  UNL d   1      -1.473   1.019  -0.154  0.00  0.00    -0.034 A 
ATOM      5  C4  UNL d   1      -2.590   0.668   0.607  0.00  0.00     0.162 A 
ATOM      6  C5  UNL d   1      -2.755   1.183   1.889  0.00  0.00     0.062 A 
ATOM      7  F   UNL d   1      -3.832   0.842   2.612  0.00  0.00    -0.097 F 
ATOM      8  F1  UNL d   1      -3.519  -0.165   0.117  0.00  0.00    -0.096 F 
ATOM      9  I   UNL d   1      -1.222   0.251  -2.072  0.00  0.00    -0.060 I 
ATOM     10  F2  UNL d   1       0.559   2.245  -0.314  0.00  0.00    -0.096 F 
ATOM     11  F3  UNL d   1       0.219   3.235   2.184  0.00  0.00    -0.097 F 
ATOM     12  F4  UNL d   1      -1.971   2.541   3.656  0.00  0.00    -0.092 F 
ENDROOT
TORSDOF 0
ENDMDL
