MODEL 1
REMARK minimizedAffinity 23.1807098
REMARK minimizedRMSD -1
REMARK  0 active torsions:
REMARK  status: ('A' for Active; 'I' for Inactive)
ROOT
ATOM      1  C   UNL d   1       0.089  -0.057  -0.850  0.00  0.00     0.124 A 
ATOM      2  C1  UNL d   1       1.336  -0.288  -0.284  0.00  0.00     0.062 A 
ATOM      3  C2  UNL d   1       1.866   0.613   0.634  0.00  0.00     0.162 A 
ATOM      4  C3  UNL d   1       1.149   1.755   0.994  0.00  0.00    -0.034 A 
ATOM      5  C4  UNL d   1      -0.104   1.981   0.420  0.00  0.00     0.162 A 
ATOM      6  C5  UNL d   1      -0.629   1.077  -0.498  0.00  0.00     0.062 A 
ATOM      7  F   UNL d   1      -1.833   1.302  -1.044  0.00  0.00    -0.097 F 
ATOM      8  F1  UNL d   1      -0.819   3.068   0.743  0.00  0.00    -0.096 F 
ATOM      9  I   UNL d   1       1.938   3.105   2.366  0.00  0.00    -0.060 I 
ATOM     10  F2  UNL d   1       3.072   0.365   1.165  0.00  0.00    -0.096 F 
ATOM     11  F3  UNL d   1       2.032  -1.383  -0.624  0.00  0.00    -0.097 F 
ATOM     12  F4  UNL d   1      -0.418  -0.926  -1.734  0.00  0.00    -0.092 F 
ENDROOT
TORSDOF 0
ENDMDL
