MODEL 1
REMARK minimizedAffinity 20.1258278
REMARK minimizedRMSD -1
REMARK  0 active torsions:
REMARK  status: ('A' for Active; 'I' for Inactive)
ROOT
ATOM      1  C   UNL d   1       0.979   3.017   2.519  0.00  0.00     0.124 A 
ATOM      2  C1  UNL d   1      -0.126   3.005   1.680  0.00  0.00     0.062 A 
ATOM      3  C2  UNL d   1      -0.091   3.686   0.466  0.00  0.00     0.162 A 
ATOM      4  C3  UNL d   1       1.055   4.384   0.084  0.00  0.00    -0.034 A 
ATOM      5  C4  UNL d   1       2.162   4.392   0.934  0.00  0.00     0.162 A 
ATOM      6  C5  UNL d   1       2.122   3.710   2.145  0.00  0.00     0.062 A 
ATOM      7  F   UNL d   1       3.191   3.723   2.955  0.00  0.00    -0.097 F 
ATOM      8  F1  UNL d   1       3.279   5.053   0.597  0.00  0.00    -0.096 F 
ATOM      9  I   UNL d   1       1.111   5.403  -1.730  0.00  0.00    -0.060 I 
ATOM     10  F2  UNL d   1      -1.174   3.657  -0.325  0.00  0.00    -0.096 F 
ATOM     11  F3  UNL d   1      -1.231   2.336   2.039  0.00  0.00    -0.097 F 
ATOM     12  F4  UNL d   1       0.943   2.362   3.686  0.00  0.00    -0.092 F 
ENDROOT
TORSDOF 0
ENDMDL
