MODEL 1
REMARK minimizedAffinity 24.5093765
REMARK minimizedRMSD -1
REMARK  0 active torsions:
REMARK  status: ('A' for Active; 'I' for Inactive)
ROOT
ATOM      1  C   UNL d   1       1.125   2.935   2.534  0.00  0.00     0.124 A 
ATOM      2  C1  UNL d   1       2.209   3.735   2.201  0.00  0.00     0.062 A 
ATOM      3  C2  UNL d   1       2.127   4.611   1.122  0.00  0.00     0.162 A 
ATOM      4  C3  UNL d   1       0.956   4.692   0.368  0.00  0.00    -0.034 A 
ATOM      5  C4  UNL d   1      -0.130   3.884   0.709  0.00  0.00     0.162 A 
ATOM      6  C5  UNL d   1      -0.043   3.010   1.788  0.00  0.00     0.062 A 
ATOM      7  F   UNL d   1      -1.092   2.238   2.109  0.00  0.00    -0.097 F 
ATOM      8  F1  UNL d   1      -1.271   3.936   0.006  0.00  0.00    -0.096 F 
ATOM      9  I   UNL d   1       0.831   6.000  -1.246  0.00  0.00    -0.060 I 
ATOM     10  F2  UNL d   1       3.191   5.372   0.823  0.00  0.00    -0.096 F 
ATOM     11  F3  UNL d   1       3.339   3.664   2.920  0.00  0.00    -0.097 F 
ATOM     12  F4  UNL d   1       1.206   2.093   3.572  0.00  0.00    -0.092 F 
ENDROOT
TORSDOF 0
ENDMDL
