MODEL 1
REMARK minimizedAffinity 21.4846306
REMARK minimizedRMSD -1
REMARK  0 active torsions:
REMARK  status: ('A' for Active; 'I' for Inactive)
ROOT
ATOM      1  C   UNL d   1       5.197  -2.456  -2.360  0.00  0.00     0.124 A 
ATOM      2  C1  UNL d   1       5.004  -3.605  -3.115  0.00  0.00     0.062 A 
ATOM      3  C2  UNL d   1       4.172  -4.618  -2.648  0.00  0.00     0.162 A 
ATOM      4  C3  UNL d   1       3.525  -4.487  -1.419  0.00  0.00    -0.034 A 
ATOM      5  C4  UNL d   1       3.725  -3.329  -0.665  0.00  0.00     0.162 A 
ATOM      6  C5  UNL d   1       4.558  -2.319  -1.136  0.00  0.00     0.062 A 
ATOM      7  F   UNL d   1       4.743  -1.210  -0.405  0.00  0.00    -0.097 F 
ATOM      8  F1  UNL d   1       3.118  -3.170   0.521  0.00  0.00    -0.096 F 
ATOM      9  I   UNL d   1       2.280  -5.999  -0.717  0.00  0.00    -0.060 I 
ATOM     10  F2  UNL d   1       4.004  -5.717  -3.398  0.00  0.00    -0.096 F 
ATOM     11  F3  UNL d   1       5.622  -3.740  -4.297  0.00  0.00    -0.097 F 
ATOM     12  F4  UNL d   1       6.000  -1.484  -2.811  0.00  0.00    -0.092 F 
ENDROOT
TORSDOF 0
ENDMDL
