MODEL 1
REMARK minimizedAffinity -2.86096358
REMARK minimizedRMSD -1
REMARK  1 active torsions:
REMARK  status: ('A' for Active; 'I' for Inactive)
REMARK    1  A    between atoms: C1_2  and  C2_3 
ROOT
ATOM      1  C2  UNL d   1      -0.005   0.480  -0.565  0.00  0.00    -0.081 A 
ATOM      2  C3  UNL d   1       0.182  -0.542  -1.505  0.00  0.00     0.006 A 
ATOM      3  C4  UNL d   1      -0.002  -1.879  -1.143  0.00  0.00     0.002 A 
ATOM      4  C5  UNL d   1      -0.383  -2.216   0.160  0.00  0.00    -0.080 A 
ATOM      5  C6  UNL d   1      -0.613  -3.645   0.553  0.00  0.00     0.076 C 
ATOM      6  C7  UNL d   1      -0.553  -1.196   1.103  0.00  0.00     0.002 A 
ATOM      7  C8  UNL d   1      -0.369   0.140   0.742  0.00  0.00     0.006 A 
ENDROOT
BRANCH   1   8
ATOM      8  C1  UNL d   1       0.130   1.926  -0.969  0.00  0.00     0.054 C 
ATOM      9  C   UNL d   1       0.864   2.731   0.094  0.00  0.00     0.018 C 
ENDBRANCH   1   8
TORSDOF 1
ENDMDL
