MODEL 1
REMARK minimizedAffinity -4.98116112
REMARK minimizedRMSD -1
REMARK  1 active torsions:
REMARK  status: ('A' for Active; 'I' for Inactive)
REMARK    1  A    between atoms: C1_2  and  C2_3 
ROOT
ATOM      1  C2  UNL d   1       0.021   1.195   0.254  0.00  0.00    -0.081 A 
ATOM      2  C3  UNL d   1      -0.656   0.601   1.326  0.00  0.00     0.006 A 
ATOM      3  C4  UNL d   1      -0.678  -0.789   1.468  0.00  0.00     0.002 A 
ATOM      4  C5  UNL d   1      -0.019  -1.607   0.544  0.00  0.00    -0.080 A 
ATOM      5  C6  UNL d   1      -0.010  -3.098   0.701  0.00  0.00     0.076 C 
ATOM      6  C7  UNL d   1       0.642  -1.015  -0.537  0.00  0.00     0.002 A 
ATOM      7  C8  UNL d   1       0.665   0.375  -0.679  0.00  0.00     0.006 A 
ENDROOT
BRANCH   1   8
ATOM      8  C1  UNL d   1       0.102   2.695   0.135  0.00  0.00     0.054 C 
ATOM      9  C   UNL d   1       1.528   3.189   0.328  0.00  0.00     0.018 C 
ENDBRANCH   1   8
TORSDOF 1
ENDMDL
