MODEL 1
REMARK minimizedAffinity -3.66768932
REMARK minimizedRMSD -1
REMARK  1 active torsions:
REMARK  status: ('A' for Active; 'I' for Inactive)
REMARK    1  A    between atoms: C1_2  and  C2_3 
ROOT
ATOM      1  C2  UNL d   1       0.416   1.333   0.476  0.00  0.00    -0.081 A 
ATOM      2  C3  UNL d   1       0.922   0.642   1.583  0.00  0.00     0.006 A 
ATOM      3  C4  UNL d   1       0.671  -0.723   1.741  0.00  0.00     0.002 A 
ATOM      4  C5  UNL d   1      -0.084  -1.421   0.792  0.00  0.00    -0.080 A 
ATOM      5  C6  UNL d   1      -0.335  -2.893   0.934  0.00  0.00     0.076 C 
ATOM      6  C7  UNL d   1      -0.604  -0.727  -0.306  0.00  0.00     0.002 A 
ATOM      7  C8  UNL d   1      -0.354   0.638  -0.464  0.00  0.00     0.006 A 
ENDROOT
BRANCH   1   8
ATOM      8  C1  UNL d   1       0.739   2.791   0.268  0.00  0.00     0.054 C 
ATOM      9  C   UNL d   1       2.170   3.104   0.683  0.00  0.00     0.018 C 
ENDBRANCH   1   8
TORSDOF 1
ENDMDL
