MODEL 1
REMARK minimizedAffinity -2.17777538
REMARK minimizedRMSD -1
REMARK  1 active torsions:
REMARK  status: ('A' for Active; 'I' for Inactive)
REMARK    1  A    between atoms: C1_2  and  C2_3 
ROOT
ATOM      1  C2  UNL d   1       0.010  -1.589  -0.855  0.00  0.00    -0.081 A 
ATOM      2  C3  UNL d   1       0.049  -2.694   0.004  0.00  0.00     0.006 A 
ATOM      3  C4  UNL d   1      -0.238  -2.546   1.363  0.00  0.00     0.002 A 
ATOM      4  C5  UNL d   1      -0.576  -1.293   1.884  0.00  0.00    -0.080 A 
ATOM      5  C6  UNL d   1      -0.916  -1.126   3.336  0.00  0.00     0.076 C 
ATOM      6  C7  UNL d   1      -0.598  -0.185   1.030  0.00  0.00     0.002 A 
ATOM      7  C8  UNL d   1      -0.311  -0.332  -0.329  0.00  0.00     0.006 A 
ENDROOT
BRANCH   1   8
ATOM      8  C1  UNL d   1       0.255  -1.757  -2.332  0.00  0.00     0.054 C 
ATOM      9  C   UNL d   1      -0.156  -3.143  -2.808  0.00  0.00     0.018 C 
ENDBRANCH   1   8
TORSDOF 1
ENDMDL
