MODEL 1
REMARK minimizedAffinity -4.69986105
REMARK minimizedRMSD -1
REMARK  1 active torsions:
REMARK  status: ('A' for Active; 'I' for Inactive)
REMARK    1  A    between atoms: C1_2  and  C2_3 
ROOT
ATOM      1  C2  UNL d   1       0.182   0.684  -0.276  0.00  0.00    -0.081 A 
ATOM      2  C3  UNL d   1      -0.100   0.168   0.995  0.00  0.00     0.006 A 
ATOM      3  C4  UNL d   1      -0.105  -1.211   1.215  0.00  0.00     0.002 A 
ATOM      4  C5  UNL d   1       0.178  -2.097   0.171  0.00  0.00    -0.080 A 
ATOM      5  C6  UNL d   1       0.206  -3.579   0.400  0.00  0.00     0.076 C 
ATOM      6  C7  UNL d   1       0.443  -1.583  -1.104  0.00  0.00     0.002 A 
ATOM      7  C8  UNL d   1       0.448  -0.204  -1.324  0.00  0.00     0.006 A 
ENDROOT
BRANCH   1   8
ATOM      8  C1  UNL d   1       0.252   2.172  -0.501  0.00  0.00     0.054 C 
ATOM      9  C   UNL d   1       0.596   2.911   0.785  0.00  0.00     0.018 C 
ENDBRANCH   1   8
TORSDOF 1
ENDMDL
