MODEL 1
REMARK minimizedAffinity -4.43735933
REMARK minimizedRMSD -1
REMARK  1 active torsions:
REMARK  status: ('A' for Active; 'I' for Inactive)
REMARK    1  A    between atoms: C1_2  and  C2_3 
ROOT
ATOM      1  C2  UNL d   1      -0.099   0.301  -0.279  0.00  0.00    -0.081 A 
ATOM      2  C3  UNL d   1      -0.528  -0.513   0.776  0.00  0.00     0.006 A 
ATOM      3  C4  UNL d   1      -0.644  -1.895   0.604  0.00  0.00     0.002 A 
ATOM      4  C5  UNL d   1      -0.325  -2.486  -0.624  0.00  0.00    -0.080 A 
ATOM      5  C6  UNL d   1      -0.416  -3.971  -0.813  0.00  0.00     0.076 C 
ATOM      6  C7  UNL d   1       0.087  -1.671  -1.683  0.00  0.00     0.002 A 
ATOM      7  C8  UNL d   1       0.202  -0.289  -1.512  0.00  0.00     0.006 A 
ENDROOT
BRANCH   1   8
ATOM      8  C1  UNL d   1       0.089   1.783  -0.077  0.00  0.00     0.054 C 
ATOM      9  C   UNL d   1       1.514   2.107   0.347  0.00  0.00     0.018 C 
ENDBRANCH   1   8
TORSDOF 1
ENDMDL
