MODEL 1
REMARK minimizedAffinity -5.4346633
REMARK minimizedRMSD -1
REMARK  1 active torsions:
REMARK  status: ('A' for Active; 'I' for Inactive)
REMARK    1  A    between atoms: C1_2  and  C2_3 
ROOT
ATOM      1  C2  UNL d   1       0.716   1.372   0.314  0.00  0.00    -0.081 A 
ATOM      2  C3  UNL d   1       0.129   0.752  -0.796  0.00  0.00     0.006 A 
ATOM      3  C4  UNL d   1      -0.111  -0.624  -0.794  0.00  0.00     0.002 A 
ATOM      4  C5  UNL d   1       0.224  -1.401   0.320  0.00  0.00    -0.080 A 
ATOM      5  C6  UNL d   1      -0.056  -2.874   0.347  0.00  0.00     0.076 C 
ATOM      6  C7  UNL d   1       0.826  -0.785   1.422  0.00  0.00     0.002 A 
ATOM      7  C8  UNL d   1       1.067   0.591   1.420  0.00  0.00     0.006 A 
ENDROOT
BRANCH   1   8
ATOM      8  C1  UNL d   1       0.917   2.866   0.340  0.00  0.00     0.054 C 
ATOM      9  C   UNL d   1       2.378   3.224   0.568  0.00  0.00     0.018 C 
ENDBRANCH   1   8
TORSDOF 1
ENDMDL
