MODEL 1
REMARK minimizedAffinity -3.76994729
REMARK minimizedRMSD -1
REMARK  1 active torsions:
REMARK  status: ('A' for Active; 'I' for Inactive)
REMARK    1  A    between atoms: C1_2  and  C2_3 
ROOT
ATOM      1  C2  UNL d   1       0.536   0.662  -0.073  0.00  0.00    -0.081 A 
ATOM      2  C3  UNL d   1       1.024  -0.548  -0.580  0.00  0.00     0.006 A 
ATOM      3  C4  UNL d   1       0.392  -1.754  -0.265  0.00  0.00     0.002 A 
ATOM      4  C5  UNL d   1      -0.742  -1.768   0.554  0.00  0.00    -0.080 A 
ATOM      5  C6  UNL d   1      -1.448  -3.052   0.874  0.00  0.00     0.076 C 
ATOM      6  C7  UNL d   1      -1.219  -0.561   1.075  0.00  0.00     0.002 A 
ATOM      7  C8  UNL d   1      -0.588   0.645   0.761  0.00  0.00     0.006 A 
ENDROOT
BRANCH   1   8
ATOM      8  C1  UNL d   1       1.176   1.970  -0.462  0.00  0.00     0.054 C 
ATOM      9  C   UNL d   1       0.738   3.098   0.461  0.00  0.00     0.018 C 
ENDBRANCH   1   8
TORSDOF 1
ENDMDL
