MODEL 1
REMARK minimizedAffinity 1.55450737
REMARK minimizedRMSD -1
REMARK  1 active torsions:
REMARK  status: ('A' for Active; 'I' for Inactive)
REMARK    1  A    between atoms: C1_2  and  C2_3 
ROOT
ATOM      1  C2  UNL d   1       0.106  -1.299  -0.492  0.00  0.00    -0.081 A 
ATOM      2  C3  UNL d   1      -0.623  -2.379   0.021  0.00  0.00     0.006 A 
ATOM      3  C4  UNL d   1      -1.207  -2.302   1.287  0.00  0.00     0.002 A 
ATOM      4  C5  UNL d   1      -1.079  -1.142   2.058  0.00  0.00    -0.080 A 
ATOM      5  C6  UNL d   1      -1.728  -1.035   3.407  0.00  0.00     0.076 C 
ATOM      6  C7  UNL d   1      -0.336  -0.069   1.554  0.00  0.00     0.002 A 
ATOM      7  C8  UNL d   1       0.249  -0.146   0.288  0.00  0.00     0.006 A 
ENDROOT
BRANCH   1   8
ATOM      8  C1  UNL d   1       0.683  -1.355  -1.883  0.00  0.00     0.054 C 
ATOM      9  C   UNL d   1       0.485  -0.037  -2.618  0.00  0.00     0.018 C 
ENDBRANCH   1   8
TORSDOF 1
ENDMDL
