MODEL 1
REMARK minimizedAffinity -4.26613235
REMARK minimizedRMSD -1
REMARK  1 active torsions:
REMARK  status: ('A' for Active; 'I' for Inactive)
REMARK    1  A    between atoms: C1_2  and  C2_3 
ROOT
ATOM      1  C2  UNL d   1       0.458   0.439   0.306  0.00  0.00    -0.081 A 
ATOM      2  C3  UNL d   1       0.494   0.131  -1.059  0.00  0.00     0.006 A 
ATOM      3  C4  UNL d   1       0.334  -1.187  -1.492  0.00  0.00     0.002 A 
ATOM      4  C5  UNL d   1       0.127  -2.217  -0.569  0.00  0.00    -0.080 A 
ATOM      5  C6  UNL d   1      -0.077  -3.632  -1.022  0.00  0.00     0.076 C 
ATOM      6  C7  UNL d   1       0.107  -1.912   0.797  0.00  0.00     0.002 A 
ATOM      7  C8  UNL d   1       0.269  -0.594   1.230  0.00  0.00     0.006 A 
ENDROOT
BRANCH   1   8
ATOM      8  C1  UNL d   1       0.566   1.869   0.773  0.00  0.00     0.054 C 
ATOM      9  C   UNL d   1       1.847   2.519   0.271  0.00  0.00     0.018 C 
ENDBRANCH   1   8
TORSDOF 1
ENDMDL
