MODEL 1
REMARK minimizedAffinity -3.89079785
REMARK minimizedRMSD -1
REMARK  1 active torsions:
REMARK  status: ('A' for Active; 'I' for Inactive)
REMARK    1  A    between atoms: C1_2  and  C2_3 
ROOT
ATOM      1  C2  UNL d   1      -0.025   0.771  -0.562  0.00  0.00    -0.081 A 
ATOM      2  C3  UNL d   1       0.127   0.541  -1.935  0.00  0.00     0.006 A 
ATOM      3  C4  UNL d   1       0.145  -0.762  -2.437  0.00  0.00     0.002 A 
ATOM      4  C5  UNL d   1       0.003  -1.856  -1.577  0.00  0.00    -0.080 A 
ATOM      5  C6  UNL d   1      -0.010  -3.259  -2.107  0.00  0.00     0.076 C 
ATOM      6  C7  UNL d   1      -0.132  -1.627  -0.204  0.00  0.00     0.002 A 
ATOM      7  C8  UNL d   1      -0.150  -0.325   0.299  0.00  0.00     0.006 A 
ENDROOT
BRANCH   1   8
ATOM      8  C1  UNL d   1      -0.110   2.177  -0.025  0.00  0.00     0.054 C 
ATOM      9  C   UNL d   1       1.264   2.829   0.036  0.00  0.00     0.018 C 
ENDBRANCH   1   8
TORSDOF 1
ENDMDL
