MODEL 1
REMARK minimizedAffinity -2.07823873
REMARK minimizedRMSD -1
REMARK  1 active torsions:
REMARK  status: ('A' for Active; 'I' for Inactive)
REMARK    1  A    between atoms: C1_2  and  C2_3 
ROOT
ATOM      1  C2  UNL d   1       0.561   1.339   0.399  0.00  0.00    -0.081 A 
ATOM      2  C3  UNL d   1      -0.713   1.229  -0.173  0.00  0.00     0.006 A 
ATOM      3  C4  UNL d   1      -1.345  -0.014  -0.260  0.00  0.00     0.002 A 
ATOM      4  C5  UNL d   1      -0.718  -1.165   0.228  0.00  0.00    -0.080 A 
ATOM      5  C6  UNL d   1      -1.397  -2.501   0.167  0.00  0.00     0.076 C 
ATOM      6  C7  UNL d   1       0.562  -1.058   0.783  0.00  0.00     0.002 A 
ATOM      7  C8  UNL d   1       1.195   0.184   0.870  0.00  0.00     0.006 A 
ENDROOT
BRANCH   1   8
ATOM      8  C1  UNL d   1       1.217   2.687   0.553  0.00  0.00     0.054 C 
ATOM      9  C   UNL d   1       2.714   2.549   0.796  0.00  0.00     0.018 C 
ENDBRANCH   1   8
TORSDOF 1
ENDMDL
