MODEL 1
REMARK minimizedAffinity -5.50517511
REMARK minimizedRMSD -1
REMARK  1 active torsions:
REMARK  status: ('A' for Active; 'I' for Inactive)
REMARK    1  A    between atoms: C1_2  and  C2_3 
ROOT
ATOM      1  C2  UNL d   1      -0.046  -0.711   0.884  0.00  0.00    -0.081 A 
ATOM      2  C3  UNL d   1      -0.632   0.267   0.072  0.00  0.00     0.006 A 
ATOM      3  C4  UNL d   1       0.041   1.462  -0.196  0.00  0.00     0.002 A 
ATOM      4  C5  UNL d   1       1.314   1.694   0.337  0.00  0.00    -0.080 A 
ATOM      5  C6  UNL d   1       2.059   2.959   0.032  0.00  0.00     0.076 C 
ATOM      6  C7  UNL d   1       1.892   0.724   1.162  0.00  0.00     0.002 A 
ATOM      7  C8  UNL d   1       1.220  -0.470   1.431  0.00  0.00     0.006 A 
ENDROOT
BRANCH   1   8
ATOM      8  C1  UNL d   1      -0.741  -2.027   1.122  0.00  0.00     0.054 C 
ATOM      9  C   UNL d   1      -0.055  -3.159   0.371  0.00  0.00     0.018 C 
ENDBRANCH   1   8
TORSDOF 1
ENDMDL
