MODEL 1
REMARK minimizedAffinity -2.28484106
REMARK minimizedRMSD -1
REMARK  0 active torsions:
REMARK  status: ('A' for Active; 'I' for Inactive)
ROOT
ATOM      1  C2' OXE d   1       2.626  -0.531  -2.335  0.00  0.00     0.078 C 
ATOM      2  C1' OXE d   1       1.693  -2.910  -1.174  0.00  0.00     0.078 C 
ATOM      3  C1  OXE d   1       1.086  -1.612  -0.704  0.00  0.00    -0.078 A 
ATOM      4  C2  OXE d   1       1.581  -0.450  -1.244  0.00  0.00    -0.078 A 
ATOM      5  C3  OXE d   1       1.018   0.772  -0.885  0.00  0.00     0.003 A 
ATOM      6  C4  OXE d   1       0.059   0.838   0.132  0.00  0.00    -0.002 A 
ATOM      7  C5  OXE d   1      -0.431  -0.331   0.724  0.00  0.00    -0.002 A 
ATOM      8  C6  OXE d   1       0.040  -1.564   0.288  0.00  0.00     0.003 A 
ENDROOT
TORSDOF 0
ENDMDL
