MODEL 1
REMARK minimizedAffinity -5.53065586
REMARK minimizedRMSD -1
REMARK  0 active torsions:
REMARK  status: ('A' for Active; 'I' for Inactive)
ROOT
ATOM      1  C2' OXE d   1      -0.801  -0.016   0.694  0.00  0.00     0.078 C 
ATOM      2  C1' OXE d   1       0.529   1.797  -0.986  0.00  0.00     0.078 C 
ATOM      3  C1  OXE d   1       0.894   0.338  -1.096  0.00  0.00    -0.078 A 
ATOM      4  C2  OXE d   1       0.272  -0.536  -0.238  0.00  0.00    -0.078 A 
ATOM      5  C3  OXE d   1       0.533  -1.900  -0.334  0.00  0.00     0.003 A 
ATOM      6  C4  OXE d   1       1.534  -2.372  -1.191  0.00  0.00    -0.002 A 
ATOM      7  C5  OXE d   1       2.208  -1.493  -2.047  0.00  0.00    -0.002 A 
ATOM      8  C6  OXE d   1       1.871  -0.144  -2.042  0.00  0.00     0.003 A 
ENDROOT
TORSDOF 0
ENDMDL
