MODEL 1
REMARK minimizedAffinity -1.288957
REMARK minimizedRMSD -1
REMARK  0 active torsions:
REMARK  status: ('A' for Active; 'I' for Inactive)
ROOT
ATOM      1  C2' OXE d   1      -0.008  -1.918   1.059  0.00  0.00     0.078 C 
ATOM      2  C1' OXE d   1      -2.096  -0.061   0.785  0.00  0.00     0.078 C 
ATOM      3  C1  OXE d   1      -0.792   0.238   0.087  0.00  0.00    -0.078 A 
ATOM      4  C2  OXE d   1       0.239  -0.653   0.265  0.00  0.00    -0.078 A 
ATOM      5  C3  OXE d   1       1.445  -0.453  -0.400  0.00  0.00     0.003 A 
ATOM      6  C4  OXE d   1       1.668   0.724  -1.125  0.00  0.00    -0.002 A 
ATOM      7  C5  OXE d   1       0.644   1.664  -1.285  0.00  0.00    -0.002 A 
ATOM      8  C6  OXE d   1      -0.603   1.416  -0.722  0.00  0.00     0.003 A 
ENDROOT
TORSDOF 0
ENDMDL
