MODEL 1
REMARK minimizedAffinity -0.359817088
REMARK minimizedRMSD -1
REMARK  0 active torsions:
REMARK  status: ('A' for Active; 'I' for Inactive)
ROOT
ATOM      1  C2' OXE d   1       1.273  -2.955  -0.453  0.00  0.00     0.078 C 
ATOM      2  C1' OXE d   1       2.785  -0.984  -1.759  0.00  0.00     0.078 C 
ATOM      3  C1  OXE d   1       1.637  -0.530  -0.893  0.00  0.00    -0.078 A 
ATOM      4  C2  OXE d   1       0.874  -1.504  -0.295  0.00  0.00    -0.078 A 
ATOM      5  C3  OXE d   1      -0.164  -1.139   0.559  0.00  0.00     0.003 A 
ATOM      6  C4  OXE d   1      -0.533   0.205   0.691  0.00  0.00    -0.002 A 
ATOM      7  C5  OXE d   1       0.207   1.210   0.059  0.00  0.00    -0.002 A 
ATOM      8  C6  OXE d   1       1.318   0.863  -0.701  0.00  0.00     0.003 A 
ENDROOT
TORSDOF 0
ENDMDL
