MODEL 1
REMARK minimizedAffinity -2.34144664
REMARK minimizedRMSD -1
REMARK  0 active torsions:
REMARK  status: ('A' for Active; 'I' for Inactive)
ROOT
ATOM      1  C2' OXE d   1      -0.138  -0.959   1.872  0.00  0.00     0.078 C 
ATOM      2  C1' OXE d   1      -2.314   0.544   0.930  0.00  0.00     0.078 C 
ATOM      3  C1  OXE d   1      -0.989   0.706   0.226  0.00  0.00    -0.078 A 
ATOM      4  C2  OXE d   1       0.081   0.002   0.723  0.00  0.00    -0.078 A 
ATOM      5  C3  OXE d   1       1.312   0.073   0.078  0.00  0.00     0.003 A 
ATOM      6  C4  OXE d   1       1.509   0.972  -0.977  0.00  0.00    -0.002 A 
ATOM      7  C5  OXE d   1       0.441   1.728  -1.474  0.00  0.00    -0.002 A 
ATOM      8  C6  OXE d   1      -0.821   1.576  -0.912  0.00  0.00     0.003 A 
ENDROOT
TORSDOF 0
ENDMDL
