MODEL 1
REMARK minimizedAffinity -3.57041574
REMARK minimizedRMSD -1
REMARK  0 active torsions:
REMARK  status: ('A' for Active; 'I' for Inactive)
ROOT
ATOM      1  C2' OXE d   1       0.779  -2.423  -1.108  0.00  0.00     0.078 C 
ATOM      2  C1' OXE d   1       1.627  -0.066  -2.375  0.00  0.00     0.078 C 
ATOM      3  C1  OXE d   1       0.662   0.063  -1.223  0.00  0.00    -0.078 A 
ATOM      4  C2  OXE d   1       0.217  -1.098  -0.639  0.00  0.00    -0.078 A 
ATOM      5  C3  OXE d   1      -0.632  -1.034   0.463  0.00  0.00     0.003 A 
ATOM      6  C4  OXE d   1      -1.155   0.195   0.883  0.00  0.00    -0.002 A 
ATOM      7  C5  OXE d   1      -0.745   1.387   0.277  0.00  0.00    -0.002 A 
ATOM      8  C6  OXE d   1       0.194   1.341  -0.748  0.00  0.00     0.003 A 
ENDROOT
TORSDOF 0
ENDMDL
