MODEL 1
REMARK minimizedAffinity -3.57066607
REMARK minimizedRMSD -1
REMARK  0 active torsions:
REMARK  status: ('A' for Active; 'I' for Inactive)
ROOT
ATOM      1  C2' OXE d   1      -1.314   1.174   0.005  0.00  0.00     0.078 C 
ATOM      2  C1' OXE d   1       1.269   2.157   0.500  0.00  0.00     0.078 C 
ATOM      3  C1  OXE d   1       1.092   1.187  -0.642  0.00  0.00    -0.078 A 
ATOM      4  C2  OXE d   1      -0.167   0.675  -0.847  0.00  0.00    -0.078 A 
ATOM      5  C3  OXE d   1      -0.396  -0.181  -1.921  0.00  0.00     0.003 A 
ATOM      6  C4  OXE d   1       0.672  -0.644  -2.699  0.00  0.00    -0.002 A 
ATOM      7  C5  OXE d   1       1.968  -0.166  -2.481  0.00  0.00    -0.002 A 
ATOM      8  C6  OXE d   1       2.188   0.780  -1.486  0.00  0.00     0.003 A 
ENDROOT
TORSDOF 0
ENDMDL
