MODEL 1
REMARK minimizedAffinity -4.85625982
REMARK minimizedRMSD -1
REMARK  0 active torsions:
REMARK  status: ('A' for Active; 'I' for Inactive)
ROOT
ATOM      1  C2' OXE d   1       0.068  -2.457   0.127  0.00  0.00     0.078 C 
ATOM      2  C1' OXE d   1      -1.044  -0.019   0.963  0.00  0.00     0.078 C 
ATOM      3  C1  OXE d   1      -0.261  -0.029  -0.325  0.00  0.00    -0.078 A 
ATOM      4  C2  OXE d   1       0.319  -1.216  -0.703  0.00  0.00    -0.078 A 
ATOM      5  C3  OXE d   1       1.007  -1.294  -1.911  0.00  0.00     0.003 A 
ATOM      6  C4  OXE d   1       1.243  -0.140  -2.667  0.00  0.00    -0.002 A 
ATOM      7  C5  OXE d   1       0.695   1.088  -2.280  0.00  0.00    -0.002 A 
ATOM      8  C6  OXE d   1      -0.094   1.151  -1.137  0.00  0.00     0.003 A 
ENDROOT
TORSDOF 0
ENDMDL
