MODEL 1
REMARK minimizedAffinity -1.36284232
REMARK minimizedRMSD -1
REMARK  0 active torsions:
REMARK  status: ('A' for Active; 'I' for Inactive)
ROOT
ATOM      1  C2' OXE d   1      -0.630   0.376   2.188  0.00  0.00     0.078 C 
ATOM      2  C1' OXE d   1      -1.298   1.812  -0.130  0.00  0.00     0.078 C 
ATOM      3  C1  OXE d   1      -0.809   0.395  -0.297  0.00  0.00    -0.078 A 
ATOM      4  C2  OXE d   1      -0.440  -0.284   0.840  0.00  0.00    -0.078 A 
ATOM      5  C3  OXE d   1      -0.034  -1.612   0.747  0.00  0.00     0.003 A 
ATOM      6  C4  OXE d   1       0.148  -2.213  -0.504  0.00  0.00    -0.002 A 
ATOM      7  C5  OXE d   1      -0.184  -1.525  -1.676  0.00  0.00    -0.002 A 
ATOM      8  C6  OXE d   1      -0.703  -0.238  -1.588  0.00  0.00     0.003 A 
ENDROOT
TORSDOF 0
ENDMDL
