MODEL 1
REMARK minimizedAffinity -5.37366104
REMARK minimizedRMSD -1
REMARK  0 active torsions:
REMARK  status: ('A' for Active; 'I' for Inactive)
ROOT
ATOM      1  C2' OXE d   1       1.110   1.492  -1.098  0.00  0.00     0.078 C 
ATOM      2  C1' OXE d   1      -0.285   0.054   0.868  0.00  0.00     0.078 C 
ATOM      3  C1  OXE d   1       0.654  -0.712  -0.030  0.00  0.00    -0.078 A 
ATOM      4  C2  OXE d   1       1.298  -0.008  -1.019  0.00  0.00    -0.078 A 
ATOM      5  C3  OXE d   1       2.217  -0.655  -1.840  0.00  0.00     0.003 A 
ATOM      6  C4  OXE d   1       2.377  -2.044  -1.767  0.00  0.00    -0.002 A 
ATOM      7  C5  OXE d   1       1.701  -2.787  -0.793  0.00  0.00    -0.002 A 
ATOM      8  C6  OXE d   1       0.871  -2.131   0.110  0.00  0.00     0.003 A 
ENDROOT
TORSDOF 0
ENDMDL
