MODEL 1
REMARK minimizedAffinity -1.13549507
REMARK minimizedRMSD -1
REMARK  0 active torsions:
REMARK  status: ('A' for Active; 'I' for Inactive)
ROOT
ATOM      1  C2' OXE d   1      -0.324  -2.016   1.148  0.00  0.00     0.078 C 
ATOM      2  C1' OXE d   1      -2.210   0.014   1.598  0.00  0.00     0.078 C 
ATOM      3  C1  OXE d   1      -1.009   0.346   0.748  0.00  0.00    -0.078 A 
ATOM      4  C2  OXE d   1      -0.068  -0.640   0.572  0.00  0.00    -0.078 A 
ATOM      5  C3  OXE d   1       1.032  -0.403  -0.248  0.00  0.00     0.003 A 
ATOM      6  C4  OXE d   1       1.267   0.875  -0.768  0.00  0.00    -0.002 A 
ATOM      7  C5  OXE d   1       0.340   1.904  -0.567  0.00  0.00    -0.002 A 
ATOM      8  C6  OXE d   1      -0.822   1.645   0.151  0.00  0.00     0.003 A 
ENDROOT
TORSDOF 0
ENDMDL
