MODEL 1
REMARK minimizedAffinity -1.53503406
REMARK minimizedRMSD -1
REMARK  0 active torsions:
REMARK  status: ('A' for Active; 'I' for Inactive)
ROOT
ATOM      1  C2' OXE d   1      -0.582  -0.279   0.843  0.00  0.00     0.078 C 
ATOM      2  C1' OXE d   1       1.028   1.804  -0.132  0.00  0.00     0.078 C 
ATOM      3  C1  OXE d   1       1.301   0.409  -0.636  0.00  0.00    -0.078 A 
ATOM      4  C2  OXE d   1       0.539  -0.611  -0.118  0.00  0.00    -0.078 A 
ATOM      5  C3  OXE d   1       0.713  -1.909  -0.590  0.00  0.00     0.003 A 
ATOM      6  C4  OXE d   1       1.758  -2.209  -1.471  0.00  0.00    -0.002 A 
ATOM      7  C5  OXE d   1       2.572  -1.191  -1.981  0.00  0.00    -0.002 A 
ATOM      8  C6  OXE d   1       2.329   0.126  -1.607  0.00  0.00     0.003 A 
ENDROOT
TORSDOF 0
ENDMDL
