MODEL 1
REMARK minimizedAffinity -1.51657557
REMARK minimizedRMSD -1
REMARK  0 active torsions:
REMARK  status: ('A' for Active; 'I' for Inactive)
ROOT
ATOM      1  C2' OXE d   1      -1.032   0.102   1.816  0.00  0.00     0.078 C 
ATOM      2  C1' OXE d   1      -1.272   1.698  -0.481  0.00  0.00     0.078 C 
ATOM      3  C1  OXE d   1      -0.598   0.356  -0.623  0.00  0.00    -0.078 A 
ATOM      4  C2  OXE d   1      -0.443  -0.398   0.515  0.00  0.00    -0.078 A 
ATOM      5  C3  OXE d   1       0.123  -1.667   0.430  0.00  0.00     0.003 A 
ATOM      6  C4  OXE d   1       0.674  -2.117  -0.776  0.00  0.00    -0.002 A 
ATOM      7  C5  OXE d   1       0.563  -1.348  -1.939  0.00  0.00    -0.002 A 
ATOM      8  C6  OXE d   1      -0.107  -0.130  -1.889  0.00  0.00     0.003 A 
ENDROOT
TORSDOF 0
ENDMDL
