MODEL 1
REMARK minimizedAffinity -0.807398915
REMARK minimizedRMSD -1
REMARK  0 active torsions:
REMARK  status: ('A' for Active; 'I' for Inactive)
ROOT
ATOM      1  C2' OXE d   1      -0.681  -0.232   0.835  0.00  0.00     0.078 C 
ATOM      2  C1' OXE d   1       0.493  -2.254  -0.719  0.00  0.00     0.078 C 
ATOM      3  C1  OXE d   1       0.979  -0.840  -0.921  0.00  0.00    -0.078 A 
ATOM      4  C2  OXE d   1       0.366   0.149  -0.189  0.00  0.00    -0.078 A 
ATOM      5  C3  OXE d   1       0.813   1.463  -0.296  0.00  0.00     0.003 A 
ATOM      6  C4  OXE d   1       1.775   1.809  -1.253  0.00  0.00    -0.002 A 
ATOM      7  C5  OXE d   1       2.383   0.822  -2.036  0.00  0.00    -0.002 A 
ATOM      8  C6  OXE d   1       2.028  -0.509  -1.853  0.00  0.00     0.003 A 
ENDROOT
TORSDOF 0
ENDMDL
