MODEL 1
REMARK minimizedAffinity -3.79470944
REMARK minimizedRMSD -1
REMARK  0 active torsions:
REMARK  status: ('A' for Active; 'I' for Inactive)
ROOT
ATOM      1  C2' OXE d   1      -3.059   0.488   1.457  0.00  0.00     0.078 C 
ATOM      2  C1' OXE d   1      -0.725  -1.036   1.793  0.00  0.00     0.078 C 
ATOM      3  C1  OXE d   1      -0.714   0.045   0.741  0.00  0.00    -0.078 A 
ATOM      4  C2  OXE d   1      -1.876   0.755   0.552  0.00  0.00    -0.078 A 
ATOM      5  C3  OXE d   1      -1.903   1.799  -0.368  0.00  0.00     0.003 A 
ATOM      6  C4  OXE d   1      -0.808   2.032  -1.208  0.00  0.00    -0.002 A 
ATOM      7  C5  OXE d   1       0.371   1.295  -1.059  0.00  0.00    -0.002 A 
ATOM      8  C6  OXE d   1       0.449   0.328  -0.062  0.00  0.00     0.003 A 
ENDROOT
TORSDOF 0
ENDMDL
