MODEL 1
REMARK minimizedAffinity -5.26948977
REMARK minimizedRMSD -1
REMARK  0 active torsions:
REMARK  status: ('A' for Active; 'I' for Inactive)
ROOT
ATOM      1  C2' OXE d   1      -0.480   0.080   1.381  0.00  0.00     0.078 C 
ATOM      2  C1' OXE d   1       1.424   2.115   1.042  0.00  0.00     0.078 C 
ATOM      3  C1  OXE d   1       1.245   1.125  -0.081  0.00  0.00    -0.078 A 
ATOM      4  C2  OXE d   1       0.344   0.105   0.112  0.00  0.00    -0.078 A 
ATOM      5  C3  OXE d   1       0.101  -0.803  -0.914  0.00  0.00     0.003 A 
ATOM      6  C4  OXE d   1       0.875  -0.779  -2.081  0.00  0.00    -0.002 A 
ATOM      7  C5  OXE d   1       1.825   0.228  -2.281  0.00  0.00    -0.002 A 
ATOM      8  C6  OXE d   1       1.992   1.210  -1.312  0.00  0.00     0.003 A 
ENDROOT
TORSDOF 0
ENDMDL
