MODEL 1
REMARK minimizedAffinity -5.60686588
REMARK minimizedRMSD -1
REMARK  0 active torsions:
REMARK  status: ('A' for Active; 'I' for Inactive)
ROOT
ATOM      1  C2' OXE d   1      -0.524  -0.705   0.338  0.00  0.00     0.078 C 
ATOM      2  C1' OXE d   1       0.886  -2.893  -0.713  0.00  0.00     0.078 C 
ATOM      3  C1  OXE d   1       1.161  -1.531  -1.300  0.00  0.00    -0.078 A 
ATOM      4  C2  OXE d   1       0.432  -0.473  -0.812  0.00  0.00    -0.078 A 
ATOM      5  C3  OXE d   1       0.685   0.813  -1.280  0.00  0.00     0.003 A 
ATOM      6  C4  OXE d   1       1.564   1.017  -2.351  0.00  0.00    -0.002 A 
ATOM      7  C5  OXE d   1       2.287  -0.053  -2.890  0.00  0.00    -0.002 A 
ATOM      8  C6  OXE d   1       2.129  -1.324  -2.349  0.00  0.00     0.003 A 
ENDROOT
TORSDOF 0
ENDMDL
