MODEL 1
REMARK minimizedAffinity -2.36534929
REMARK minimizedRMSD -1
REMARK  0 active torsions:
REMARK  status: ('A' for Active; 'I' for Inactive)
ROOT
ATOM      1  C2' OXE d   1      -1.587   0.268   1.026  0.00  0.00     0.078 C 
ATOM      2  C1' OXE d   1       0.064  -1.657  -0.178  0.00  0.00     0.078 C 
ATOM      3  C1  OXE d   1       0.415  -0.205  -0.379  0.00  0.00    -0.078 A 
ATOM      4  C2  OXE d   1      -0.425   0.732   0.174  0.00  0.00    -0.078 A 
ATOM      5  C3  OXE d   1      -0.117   2.085   0.064  0.00  0.00     0.003 A 
ATOM      6  C4  OXE d   1       0.954   2.505  -0.733  0.00  0.00    -0.002 A 
ATOM      7  C5  OXE d   1       1.799   1.569  -1.339  0.00  0.00    -0.002 A 
ATOM      8  C6  OXE d   1       1.569   0.213  -1.137  0.00  0.00     0.003 A 
ENDROOT
TORSDOF 0
ENDMDL
