MODEL 1
REMARK minimizedAffinity -2.21835661
REMARK minimizedRMSD -1
REMARK  2 active torsions:
REMARK  status: ('A' for Active; 'I' for Inactive)
REMARK    1  A    between atoms: C2'_3  and  C1'_4 
REMARK    2  A    between atoms: C1'_4  and  C1_5 
ROOT
ATOM      1  C1  I4B d   1       0.359  -1.140  -0.834  0.00  0.00    -0.075 A 
ATOM      2  C2  I4B d   1       1.131  -2.182  -0.385  0.00  0.00     0.003 A 
ATOM      3  C3  I4B d   1       1.226  -3.376  -1.139  0.00  0.00     0.002 A 
ATOM      4  C4  I4B d   1       0.496  -3.505  -2.303  0.00  0.00    -0.004 A 
ATOM      5  C5  I4B d   1      -0.269  -2.439  -2.769  0.00  0.00     0.002 A 
ATOM      6  C6  I4B d   1      -0.329  -1.244  -2.036  0.00  0.00     0.003 A 
ENDROOT
BRANCH   1   7
ATOM      7  C1' I4B d   1       0.256   0.094   0.005  0.00  0.00     0.060 C 
BRANCH   7   8
ATOM      8  C2' I4B d   1      -0.179  -0.321   1.396  0.00  0.00    -0.013 C 
ATOM      9  C4' I4B d   1       0.967  -0.244   2.370  0.00  0.00     0.013 C 
ATOM     10  C3' I4B d   1      -1.307   0.574   1.814  0.00  0.00     0.013 C 
ENDBRANCH   7   8
ENDBRANCH   1   7
TORSDOF 2
ENDMDL
