MODEL 1
REMARK minimizedAffinity -3.66501355
REMARK minimizedRMSD -1
REMARK  2 active torsions:
REMARK  status: ('A' for Active; 'I' for Inactive)
REMARK    1  A    between atoms: C2'_3  and  C1'_4 
REMARK    2  A    between atoms: C1'_4  and  C1_5 
ROOT
ATOM      1  C1  I4B d   1      -0.068  -0.169   0.216  0.00  0.00    -0.075 A 
ATOM      2  C2  I4B d   1      -0.648  -1.064   1.080  0.00  0.00     0.003 A 
ATOM      3  C3  I4B d   1      -1.385  -0.602   2.197  0.00  0.00     0.002 A 
ATOM      4  C4  I4B d   1      -1.473   0.754   2.440  0.00  0.00    -0.004 A 
ATOM      5  C5  I4B d   1      -0.904   1.661   1.550  0.00  0.00     0.002 A 
ATOM      6  C6  I4B d   1      -0.207   1.197   0.425  0.00  0.00     0.003 A 
ENDROOT
BRANCH   1   7
ATOM      7  C1' I4B d   1       0.731  -0.692  -0.935  0.00  0.00     0.060 C 
BRANCH   7   8
ATOM      8  C2' I4B d   1       0.398  -2.160  -1.106  0.00  0.00    -0.013 C 
ATOM      9  C4' I4B d   1      -0.283  -2.414  -2.424  0.00  0.00     0.013 C 
ATOM     10  C3' I4B d   1       1.674  -2.940  -0.996  0.00  0.00     0.013 C 
ENDBRANCH   7   8
ENDBRANCH   1   7
TORSDOF 2
ENDMDL
