MODEL 1
REMARK minimizedAffinity -2.82516766
REMARK minimizedRMSD -1
REMARK  2 active torsions:
REMARK  status: ('A' for Active; 'I' for Inactive)
REMARK    1  A    between atoms: C2'_3  and  C1'_4 
REMARK    2  A    between atoms: C1'_4  and  C1_5 
ROOT
ATOM      1  C1  I4B d   1       0.592   0.747   0.069  0.00  0.00    -0.075 A 
ATOM      2  C2  I4B d   1      -0.017   1.246   1.194  0.00  0.00     0.003 A 
ATOM      3  C3  I4B d   1      -0.268   2.634   1.312  0.00  0.00     0.002 A 
ATOM      4  C4  I4B d   1       0.148   3.488   0.312  0.00  0.00    -0.004 A 
ATOM      5  C5  I4B d   1       0.744   2.979  -0.838  0.00  0.00     0.002 A 
ATOM      6  C6  I4B d   1       0.956   1.598  -0.967  0.00  0.00     0.003 A 
ENDROOT
BRANCH   1   7
ATOM      7  C1' I4B d   1       0.872  -0.720  -0.010  0.00  0.00     0.060 C 
BRANCH   7   8
ATOM      8  C2' I4B d   1       0.151  -1.269  -1.224  0.00  0.00    -0.013 C 
ATOM      9  C4' I4B d   1       0.770  -2.561  -1.688  0.00  0.00     0.013 C 
ATOM     10  C3' I4B d   1      -1.291  -1.459  -0.860  0.00  0.00     0.013 C 
ENDBRANCH   7   8
ENDBRANCH   1   7
TORSDOF 2
ENDMDL
