MODEL 1
REMARK minimizedAffinity -3.38939691
REMARK minimizedRMSD -1
REMARK  2 active torsions:
REMARK  status: ('A' for Active; 'I' for Inactive)
REMARK    1  A    between atoms: C2'_3  and  C1'_4 
REMARK    2  A    between atoms: C1'_4  and  C1_5 
ROOT
ATOM      1  C1  I4B d   1      -0.276   0.693   0.089  0.00  0.00    -0.075 A 
ATOM      2  C2  I4B d   1       0.113   1.914  -0.403  0.00  0.00     0.003 A 
ATOM      3  C3  I4B d   1      -0.023   3.079   0.391  0.00  0.00     0.002 A 
ATOM      4  C4  I4B d   1      -0.594   2.985   1.643  0.00  0.00    -0.004 A 
ATOM      5  C5  I4B d   1      -0.967   1.743   2.149  0.00  0.00     0.002 A 
ATOM      6  C6  I4B d   1      -0.796   0.588   1.372  0.00  0.00     0.003 A 
ENDROOT
BRANCH   1   7
ATOM      7  C1' I4B d   1      -0.150  -0.511  -0.789  0.00  0.00     0.060 C 
BRANCH   7   8
ATOM      8  C2' I4B d   1       1.299  -0.953  -0.770  0.00  0.00    -0.013 C 
ATOM      9  C4' I4B d   1       1.489  -2.233  -1.541  0.00  0.00     0.013 C 
ATOM     10  C3' I4B d   1       2.129   0.155  -1.347  0.00  0.00     0.013 C 
ENDBRANCH   7   8
ENDBRANCH   1   7
TORSDOF 2
ENDMDL
