MODEL 1
REMARK minimizedAffinity -3.30280757
REMARK minimizedRMSD -1
REMARK  2 active torsions:
REMARK  status: ('A' for Active; 'I' for Inactive)
REMARK    1  A    between atoms: C2'_3  and  C1'_4 
REMARK    2  A    between atoms: C1'_4  and  C1_5 
ROOT
ATOM      1  C1  I4B d   1       0.291  -0.153  -0.051  0.00  0.00    -0.075 A 
ATOM      2  C2  I4B d   1       0.032  -0.911   1.064  0.00  0.00     0.003 A 
ATOM      3  C3  I4B d   1      -0.712  -0.366   2.138  0.00  0.00     0.002 A 
ATOM      4  C4  I4B d   1      -1.131   0.948   2.078  0.00  0.00    -0.004 A 
ATOM      5  C5  I4B d   1      -0.887   1.707   0.937  0.00  0.00     0.002 A 
ATOM      6  C6  I4B d   1      -0.182   1.149  -0.139  0.00  0.00     0.003 A 
ENDROOT
BRANCH   1   7
ATOM      7  C1' I4B d   1       1.107  -0.750  -1.154  0.00  0.00     0.060 C 
BRANCH   7   8
ATOM      8  C2' I4B d   1       0.415  -2.016  -1.615  0.00  0.00    -0.013 C 
ATOM      9  C4' I4B d   1       0.091  -1.956  -3.084  0.00  0.00     0.013 C 
ATOM     10  C3' I4B d   1       1.316  -3.175  -1.306  0.00  0.00     0.013 C 
ENDBRANCH   7   8
ENDBRANCH   1   7
TORSDOF 2
ENDMDL
