MODEL 1
REMARK minimizedAffinity -1.54225612
REMARK minimizedRMSD -1
REMARK  2 active torsions:
REMARK  status: ('A' for Active; 'I' for Inactive)
REMARK    1  A    between atoms: C2'_3  and  C1'_4 
REMARK    2  A    between atoms: C1'_4  and  C1_5 
ROOT
ATOM      1  C1  I4B d   1       0.181  -0.546   0.202  0.00  0.00    -0.075 A 
ATOM      2  C2  I4B d   1       0.087  -1.311   1.338  0.00  0.00     0.003 A 
ATOM      3  C3  I4B d   1      -0.599  -0.819   2.474  0.00  0.00     0.002 A 
ATOM      4  C4  I4B d   1      -1.129   0.455   2.449  0.00  0.00    -0.004 A 
ATOM      5  C5  I4B d   1      -1.052   1.221   1.289  0.00  0.00     0.002 A 
ATOM      6  C6  I4B d   1      -0.404   0.713   0.154  0.00  0.00     0.003 A 
ENDROOT
BRANCH   1   7
ATOM      7  C1' I4B d   1       0.941  -1.084  -0.969  0.00  0.00     0.060 C 
BRANCH   7   8
ATOM      8  C2' I4B d   1       0.545  -2.534  -1.156  0.00  0.00    -0.013 C 
ATOM      9  C4' I4B d   1       0.002  -2.777  -2.539  0.00  0.00     0.013 C 
ATOM     10  C3' I4B d   1       1.754  -3.381  -0.892  0.00  0.00     0.013 C 
ENDBRANCH   7   8
ENDBRANCH   1   7
TORSDOF 2
ENDMDL
