MODEL 1
REMARK minimizedAffinity -3.22086596
REMARK minimizedRMSD -1
REMARK  2 active torsions:
REMARK  status: ('A' for Active; 'I' for Inactive)
REMARK    1  A    between atoms: C2'_3  and  C1'_4 
REMARK    2  A    between atoms: C1'_4  and  C1_5 
ROOT
ATOM      1  C1  I4B d   1       0.209  -0.062   0.015  0.00  0.00    -0.075 A 
ATOM      2  C2  I4B d   1      -0.403  -0.855   0.953  0.00  0.00     0.003 A 
ATOM      3  C3  I4B d   1      -1.246  -0.279   1.934  0.00  0.00     0.002 A 
ATOM      4  C4  I4B d   1      -1.406   1.091   1.972  0.00  0.00    -0.004 A 
ATOM      5  C5  I4B d   1      -0.803   1.892   1.006  0.00  0.00     0.002 A 
ATOM      6  C6  I4B d   1       0.000   1.311   0.014  0.00  0.00     0.003 A 
ENDROOT
BRANCH   1   7
ATOM      7  C1' I4B d   1       1.118  -0.700  -0.986  0.00  0.00     0.060 C 
BRANCH   7   8
ATOM      8  C2' I4B d   1       0.493  -2.012  -1.415  0.00  0.00    -0.013 C 
ATOM      9  C4' I4B d   1       0.032  -1.953  -2.848  0.00  0.00     0.013 C 
ATOM     10  C3' I4B d   1       1.509  -3.096  -1.218  0.00  0.00     0.013 C 
ENDBRANCH   7   8
ENDBRANCH   1   7
TORSDOF 2
ENDMDL
