MODEL 1
REMARK minimizedAffinity -5.13617373
REMARK minimizedRMSD -1
REMARK  2 active torsions:
REMARK  status: ('A' for Active; 'I' for Inactive)
REMARK    1  A    between atoms: C2'_3  and  C1'_4 
REMARK    2  A    between atoms: C1'_4  and  C1_5 
ROOT
ATOM      1  C1  I4B d   1       0.235   0.661   0.516  0.00  0.00    -0.075 A 
ATOM      2  C2  I4B d   1      -0.473   1.054   1.625  0.00  0.00     0.003 A 
ATOM      3  C3  I4B d   1      -0.927   2.390   1.744  0.00  0.00     0.002 A 
ATOM      4  C4  I4B d   1      -0.609   3.306   0.761  0.00  0.00    -0.004 A 
ATOM      5  C5  I4B d   1       0.089   2.900  -0.372  0.00  0.00     0.002 A 
ATOM      6  C6  I4B d   1       0.503   1.567  -0.502  0.00  0.00     0.003 A 
ENDROOT
BRANCH   1   7
ATOM      7  C1' I4B d   1       0.728  -0.749   0.439  0.00  0.00     0.060 C 
BRANCH   7   8
ATOM      8  C2' I4B d   1      -0.055  -1.458  -0.648  0.00  0.00    -0.013 C 
ATOM      9  C4' I4B d   1       0.690  -2.662  -1.160  0.00  0.00     0.013 C 
ATOM     10  C3' I4B d   1      -1.387  -1.847  -0.079  0.00  0.00     0.013 C 
ENDBRANCH   7   8
ENDBRANCH   1   7
TORSDOF 2
ENDMDL
