MODEL 1
REMARK minimizedAffinity -3.28950763
REMARK minimizedRMSD -1
REMARK  2 active torsions:
REMARK  status: ('A' for Active; 'I' for Inactive)
REMARK    1  A    between atoms: C2'_3  and  C1'_4 
REMARK    2  A    between atoms: C1'_4  and  C1_5 
ROOT
ATOM      1  C1  I4B d   1       0.430   0.397  -0.156  0.00  0.00    -0.075 A 
ATOM      2  C2  I4B d   1      -0.119  -0.415   0.805  0.00  0.00     0.003 A 
ATOM      3  C3  I4B d   1      -0.899   0.140   1.847  0.00  0.00     0.002 A 
ATOM      4  C4  I4B d   1      -1.061   1.509   1.920  0.00  0.00    -0.004 A 
ATOM      5  C5  I4B d   1      -0.523   2.329   0.932  0.00  0.00     0.002 A 
ATOM      6  C6  I4B d   1       0.218   1.769  -0.119  0.00  0.00     0.003 A 
ENDROOT
BRANCH   1   7
ATOM      7  C1' I4B d   1       1.276  -0.220  -1.224  0.00  0.00     0.060 C 
BRANCH   7   8
ATOM      8  C2' I4B d   1       0.793  -1.639  -1.440  0.00  0.00    -0.013 C 
ATOM      9  C4' I4B d   1       0.287  -1.835  -2.845  0.00  0.00     0.013 C 
ATOM     10  C3' I4B d   1       1.933  -2.567  -1.142  0.00  0.00     0.013 C 
ENDBRANCH   7   8
ENDBRANCH   1   7
TORSDOF 2
ENDMDL
