MODEL 1
REMARK minimizedAffinity -2.58456016
REMARK minimizedRMSD -1
REMARK  2 active torsions:
REMARK  status: ('A' for Active; 'I' for Inactive)
REMARK    1  A    between atoms: C2'_3  and  C1'_4 
REMARK    2  A    between atoms: C1'_4  and  C1_5 
ROOT
ATOM      1  C1  I4B d   1      -0.093   1.421   1.103  0.00  0.00    -0.075 A 
ATOM      2  C2  I4B d   1       0.246   1.864  -0.151  0.00  0.00     0.003 A 
ATOM      3  C3  I4B d   1       0.370   3.251  -0.408  0.00  0.00     0.002 A 
ATOM      4  C4  I4B d   1       0.099   4.155   0.598  0.00  0.00    -0.004 A 
ATOM      5  C5  I4B d   1      -0.223   3.704   1.875  0.00  0.00     0.002 A 
ATOM      6  C6  I4B d   1      -0.308   2.328   2.133  0.00  0.00     0.003 A 
ENDROOT
BRANCH   1   7
ATOM      7  C1' I4B d   1      -0.247  -0.049   1.331  0.00  0.00     0.060 C 
BRANCH   7   8
ATOM      8  C2' I4B d   1       1.094  -0.705   1.071  0.00  0.00    -0.013 C 
ATOM      9  C4' I4B d   1       1.481  -1.622   2.202  0.00  0.00     0.013 C 
ATOM     10  C3' I4B d   1       0.999  -1.454  -0.225  0.00  0.00     0.013 C 
ENDBRANCH   7   8
ENDBRANCH   1   7
TORSDOF 2
ENDMDL
