MODEL 1
REMARK minimizedAffinity -4.35418415
REMARK minimizedRMSD -1
REMARK  2 active torsions:
REMARK  status: ('A' for Active; 'I' for Inactive)
REMARK    1  A    between atoms: C2'_3  and  C1'_4 
REMARK    2  A    between atoms: C1'_4  and  C1_5 
ROOT
ATOM      1  C1  I4B d   1       0.676  -1.191  -0.203  0.00  0.00    -0.075 A 
ATOM      2  C2  I4B d   1       0.768   0.120  -0.600  0.00  0.00     0.003 A 
ATOM      3  C3  I4B d   1       0.295   1.155   0.241  0.00  0.00     0.002 A 
ATOM      4  C4  I4B d   1      -0.306   0.834   1.441  0.00  0.00    -0.004 A 
ATOM      5  C5  I4B d   1      -0.378  -0.493   1.853  0.00  0.00     0.002 A 
ATOM      6  C6  I4B d   1       0.126  -1.512   1.032  0.00  0.00     0.003 A 
ENDROOT
BRANCH   1   7
ATOM      7  C1' I4B d   1       1.156  -2.261  -1.130  0.00  0.00     0.060 C 
BRANCH   7   8
ATOM      8  C2' I4B d   1       0.062  -2.524  -2.145  0.00  0.00    -0.013 C 
ATOM      9  C4' I4B d   1       0.531  -2.220  -3.544  0.00  0.00     0.013 C 
ATOM     10  C3' I4B d   1      -0.356  -3.959  -2.015  0.00  0.00     0.013 C 
ENDBRANCH   7   8
ENDBRANCH   1   7
TORSDOF 2
ENDMDL
