MODEL 1
REMARK minimizedAffinity -3.23153853
REMARK minimizedRMSD -1
REMARK  2 active torsions:
REMARK  status: ('A' for Active; 'I' for Inactive)
REMARK    1  A    between atoms: C2'_3  and  C1'_4 
REMARK    2  A    between atoms: C1'_4  and  C1_5 
ROOT
ATOM      1  C1  I4B d   1       0.650  -1.233  -0.843  0.00  0.00    -0.075 A 
ATOM      2  C2  I4B d   1       1.604  -2.219  -0.869  0.00  0.00     0.003 A 
ATOM      3  C3  I4B d   1       1.427  -3.360  -1.688  0.00  0.00     0.002 A 
ATOM      4  C4  I4B d   1       0.266  -3.497  -2.422  0.00  0.00    -0.004 A 
ATOM      5  C5  I4B d   1      -0.690  -2.485  -2.411  0.00  0.00     0.002 A 
ATOM      6  C6  I4B d   1      -0.491  -1.340  -1.627  0.00  0.00     0.003 A 
ENDROOT
BRANCH   1   7
ATOM      7  C1' I4B d   1       0.854  -0.057   0.059  0.00  0.00     0.060 C 
BRANCH   7   8
ATOM      8  C2' I4B d   1      -0.396   0.109   0.899  0.00  0.00    -0.013 C 
ATOM      9  C4' I4B d   1      -0.490  -0.961   1.954  0.00  0.00     0.013 C 
ATOM     10  C3' I4B d   1      -0.361   1.476   1.516  0.00  0.00     0.013 C 
ENDBRANCH   7   8
ENDBRANCH   1   7
TORSDOF 2
ENDMDL
