MODEL 1
REMARK minimizedAffinity -1.80367839
REMARK minimizedRMSD -1
REMARK  2 active torsions:
REMARK  status: ('A' for Active; 'I' for Inactive)
REMARK    1  A    between atoms: C2'_3  and  C1'_4 
REMARK    2  A    between atoms: C1'_4  and  C1_5 
ROOT
ATOM      1  C1  I4B d   1      -0.523   1.841   0.359  0.00  0.00    -0.075 A 
ATOM      2  C2  I4B d   1       0.137   2.363  -0.725  0.00  0.00     0.003 A 
ATOM      3  C3  I4B d   1       0.395   3.753  -0.801  0.00  0.00     0.002 A 
ATOM      4  C4  I4B d   1      -0.065   4.585   0.198  0.00  0.00    -0.004 A 
ATOM      5  C5  I4B d   1      -0.714   4.051   1.308  0.00  0.00     0.002 A 
ATOM      6  C6  I4B d   1      -0.934   2.669   1.395  0.00  0.00     0.003 A 
ENDROOT
BRANCH   1   7
ATOM      7  C1' I4B d   1      -0.808   0.373   0.391  0.00  0.00     0.060 C 
BRANCH   7   8
ATOM      8  C2' I4B d   1       0.513  -0.356   0.532  0.00  0.00    -0.013 C 
ATOM      9  C4' I4B d   1       0.540  -1.200   1.779  0.00  0.00     0.013 C 
ATOM     10  C3' I4B d   1       0.711  -1.197  -0.695  0.00  0.00     0.013 C 
ENDBRANCH   7   8
ENDBRANCH   1   7
TORSDOF 2
ENDMDL
