MODEL 1
REMARK minimizedAffinity -2.96699667
REMARK minimizedRMSD -1
REMARK  1 active torsions:
REMARK  status: ('A' for Active; 'I' for Inactive)
REMARK    1  A    between atoms: C1_2  and  C2_3 
ROOT
ATOM      1  C2  UNL d   1       0.869   0.073  -2.549  0.00  0.00    -0.076 A 
ATOM      2  C3  UNL d   1       2.223   0.436  -2.443  0.00  0.00     0.004 A 
ATOM      3  C4  UNL d   1       3.198  -0.200  -3.209  0.00  0.00    -0.003 A 
ATOM      4  C5  UNL d   1       2.835  -1.208  -4.095  0.00  0.00     0.000 A 
ATOM      5  C6  UNL d   1       1.494  -1.569  -4.226  0.00  0.00     0.000 A 
ATOM      6  C7  UNL d   1       0.497  -0.927  -3.472  0.00  0.00    -0.073 A 
ATOM      7  C8  UNL d   1      -0.933  -1.360  -3.649  0.00  0.00     0.078 C 
ENDROOT
BRANCH   1   8
ATOM      8  C1  UNL d   1      -0.141   0.779  -1.672  0.00  0.00     0.053 C 
ATOM      9  C   UNL d   1      -0.290   0.120  -0.309  0.00  0.00     0.018 C 
ENDBRANCH   1   8
TORSDOF 1
ENDMDL
