MODEL 1
REMARK minimizedAffinity -4.61544991
REMARK minimizedRMSD -1
REMARK  1 active torsions:
REMARK  status: ('A' for Active; 'I' for Inactive)
REMARK    1  A    between atoms: C1_2  and  C2_3 
ROOT
ATOM      1  C2  UNL d   1      -0.969  -0.083   0.619  0.00  0.00    -0.076 A 
ATOM      2  C3  UNL d   1      -0.029  -0.410   1.612  0.00  0.00     0.004 A 
ATOM      3  C4  UNL d   1      -0.375  -0.387   2.962  0.00  0.00    -0.003 A 
ATOM      4  C5  UNL d   1      -1.667  -0.037   3.341  0.00  0.00     0.000 A 
ATOM      5  C6  UNL d   1      -2.616   0.273   2.368  0.00  0.00     0.000 A 
ATOM      6  C7  UNL d   1      -2.288   0.239   1.002  0.00  0.00    -0.073 A 
ATOM      7  C8  UNL d   1      -3.350   0.589  -0.004  0.00  0.00     0.078 C 
ENDROOT
BRANCH   1   8
ATOM      8  C1  UNL d   1      -0.528  -0.098  -0.828  0.00  0.00     0.053 C 
ATOM      9  C   UNL d   1       0.837   0.540  -1.028  0.00  0.00     0.018 C 
ENDBRANCH   1   8
TORSDOF 1
ENDMDL
