MODEL 1
REMARK minimizedAffinity -2.93025947
REMARK minimizedRMSD -1
REMARK  1 active torsions:
REMARK  status: ('A' for Active; 'I' for Inactive)
REMARK    1  A    between atoms: C1_2  and  C2_3 
ROOT
ATOM      1  C2  UNL d   1      -0.193  -0.213   1.144  0.00  0.00    -0.076 A 
ATOM      2  C3  UNL d   1       1.132   0.014   0.736  0.00  0.00     0.004 A 
ATOM      3  C4  UNL d   1       1.438   0.266  -0.600  0.00  0.00    -0.003 A 
ATOM      4  C5  UNL d   1       0.423   0.295  -1.550  0.00  0.00     0.000 A 
ATOM      5  C6  UNL d   1      -0.900   0.089  -1.160  0.00  0.00     0.000 A 
ATOM      6  C7  UNL d   1      -1.227  -0.150   0.186  0.00  0.00    -0.073 A 
ATOM      7  C8  UNL d   1      -2.670  -0.371   0.550  0.00  0.00     0.078 C 
ENDROOT
BRANCH   1   8
ATOM      8  C1  UNL d   1      -0.462  -0.508   2.603  0.00  0.00     0.053 C 
ATOM      9  C   UNL d   1      -0.044   0.636   3.515  0.00  0.00     0.018 C 
ENDBRANCH   1   8
TORSDOF 1
ENDMDL
