MODEL 1
REMARK minimizedAffinity -3.47701478
REMARK minimizedRMSD -1
REMARK  1 active torsions:
REMARK  status: ('A' for Active; 'I' for Inactive)
REMARK    1  A    between atoms: C1_2  and  C2_3 
ROOT
ATOM      1  C2  UNL d   1      -0.191   0.431   0.454  0.00  0.00    -0.076 A 
ATOM      2  C3  UNL d   1       0.880   0.196   1.334  0.00  0.00     0.004 A 
ATOM      3  C4  UNL d   1       0.668  -0.381   2.585  0.00  0.00    -0.003 A 
ATOM      4  C5  UNL d   1      -0.619  -0.732   2.977  0.00  0.00     0.000 A 
ATOM      5  C6  UNL d   1      -1.691  -0.522   2.110  0.00  0.00     0.000 A 
ATOM      6  C7  UNL d   1      -1.492   0.043   0.839  0.00  0.00    -0.073 A 
ATOM      7  C8  UNL d   1      -2.685   0.252  -0.053  0.00  0.00     0.078 C 
ENDROOT
BRANCH   1   8
ATOM      8  C1  UNL d   1       0.097   1.084  -0.879  0.00  0.00     0.053 C 
ATOM      9  C   UNL d   1       0.749   0.130  -1.867  0.00  0.00     0.018 C 
ENDBRANCH   1   8
TORSDOF 1
ENDMDL
