MODEL 1
REMARK minimizedAffinity -3.21784854
REMARK minimizedRMSD -1
REMARK  1 active torsions:
REMARK  status: ('A' for Active; 'I' for Inactive)
REMARK    1  A    between atoms: C1_2  and  C2_3 
ROOT
ATOM      1  C2  UNL d   1       1.084  -0.242  -2.220  0.00  0.00    -0.076 A 
ATOM      2  C3  UNL d   1       2.423   0.177  -2.297  0.00  0.00     0.004 A 
ATOM      3  C4  UNL d   1       3.324  -0.454  -3.153  0.00  0.00    -0.003 A 
ATOM      4  C5  UNL d   1       2.900  -1.515  -3.946  0.00  0.00     0.000 A 
ATOM      5  C6  UNL d   1       1.571  -1.933  -3.895  0.00  0.00     0.000 A 
ATOM      6  C7  UNL d   1       0.646  -1.297  -3.049  0.00  0.00    -0.073 A 
ATOM      7  C8  UNL d   1      -0.774  -1.793  -3.030  0.00  0.00     0.078 C 
ENDROOT
BRANCH   1   8
ATOM      8  C1  UNL d   1       0.159   0.463  -1.253  0.00  0.00     0.053 C 
ATOM      9  C   UNL d   1       0.252  -0.099   0.157  0.00  0.00     0.018 C 
ENDBRANCH   1   8
TORSDOF 1
ENDMDL
