MODEL 1
REMARK minimizedAffinity -4.88453054
REMARK minimizedRMSD -1
REMARK  1 active torsions:
REMARK  status: ('A' for Active; 'I' for Inactive)
REMARK    1  A    between atoms: C1_2  and  C2_3 
ROOT
ATOM      1  C2  UNL d   1      -1.711  -0.174   0.860  0.00  0.00    -0.076 A 
ATOM      2  C3  UNL d   1      -1.685   0.077  -0.523  0.00  0.00     0.004 A 
ATOM      3  C4  UNL d   1      -0.490   0.374  -1.176  0.00  0.00    -0.003 A 
ATOM      4  C5  UNL d   1       0.699   0.425  -0.457  0.00  0.00     0.000 A 
ATOM      5  C6  UNL d   1       0.694   0.162   0.912  0.00  0.00     0.000 A 
ATOM      6  C7  UNL d   1      -0.499  -0.156   1.583  0.00  0.00    -0.073 A 
ATOM      7  C8  UNL d   1      -0.447  -0.425   3.062  0.00  0.00     0.078 C 
ENDROOT
BRANCH   1   8
ATOM      8  C1  UNL d   1      -3.041  -0.465   1.518  0.00  0.00     0.053 C 
ATOM      9  C   UNL d   1      -4.170   0.379   0.948  0.00  0.00     0.018 C 
ENDBRANCH   1   8
TORSDOF 1
ENDMDL
