MODEL 1
REMARK minimizedAffinity -3.84790516
REMARK minimizedRMSD -1
REMARK  1 active torsions:
REMARK  status: ('A' for Active; 'I' for Inactive)
REMARK    1  A    between atoms: C1_2  and  C2_3 
ROOT
ATOM      1  C2  UNL d   1       1.071  -0.340  -2.143  0.00  0.00    -0.076 A 
ATOM      2  C3  UNL d   1       0.210  -1.447  -2.233  0.00  0.00     0.004 A 
ATOM      3  C4  UNL d   1       0.325  -2.363  -3.278  0.00  0.00    -0.003 A 
ATOM      4  C5  UNL d   1       1.304  -2.186  -4.249  0.00  0.00     0.000 A 
ATOM      5  C6  UNL d   1       2.178  -1.103  -4.166  0.00  0.00     0.000 A 
ATOM      6  C7  UNL d   1       2.086  -0.180  -3.110  0.00  0.00    -0.073 A 
ATOM      7  C8  UNL d   1       3.051   0.974  -3.073  0.00  0.00     0.078 C 
ENDROOT
BRANCH   1   8
ATOM      8  C1  UNL d   1       0.881   0.635  -1.003  0.00  0.00     0.053 C 
ATOM      9  C   UNL d   1       0.177   0.006   0.190  0.00  0.00     0.018 C 
ENDBRANCH   1   8
TORSDOF 1
ENDMDL
