MODEL 1
REMARK minimizedAffinity -0.729404211
REMARK minimizedRMSD -1
REMARK  1 active torsions:
REMARK  status: ('A' for Active; 'I' for Inactive)
REMARK    1  A    between atoms: C1_2  and  C2_3 
ROOT
ATOM      1  C2  UNL d   1       1.014  -1.061  -2.519  0.00  0.00    -0.076 A 
ATOM      2  C3  UNL d   1      -0.287  -1.571  -2.669  0.00  0.00     0.004 A 
ATOM      3  C4  UNL d   1      -0.585  -2.490  -3.674  0.00  0.00    -0.003 A 
ATOM      4  C5  UNL d   1       0.413  -2.913  -4.545  0.00  0.00     0.000 A 
ATOM      5  C6  UNL d   1       1.713  -2.431  -4.399  0.00  0.00     0.000 A 
ATOM      6  C7  UNL d   1       2.034  -1.517  -3.381  0.00  0.00    -0.073 A 
ATOM      7  C8  UNL d   1       3.452  -1.025  -3.273  0.00  0.00     0.078 C 
ENDROOT
BRANCH   1   8
ATOM      8  C1  UNL d   1       1.273  -0.047  -1.427  0.00  0.00     0.053 C 
ATOM      9  C   UNL d   1       0.092   0.103  -0.480  0.00  0.00     0.018 C 
ENDBRANCH   1   8
TORSDOF 1
ENDMDL
