MODEL 1
REMARK minimizedAffinity -1.68975496
REMARK minimizedRMSD -1
REMARK  1 active torsions:
REMARK  status: ('A' for Active; 'I' for Inactive)
REMARK    1  A    between atoms: C1_2  and  C2_3 
ROOT
ATOM      1  C2  UNL d   1      -1.711   2.040  -3.625  0.00  0.00    -0.076 A 
ATOM      2  C3  UNL d   1      -1.704   2.950  -4.696  0.00  0.00     0.004 A 
ATOM      3  C4  UNL d   1      -0.708   3.919  -4.808  0.00  0.00    -0.003 A 
ATOM      4  C5  UNL d   1       0.297   3.993  -3.850  0.00  0.00     0.000 A 
ATOM      5  C6  UNL d   1       0.316   3.087  -2.790  0.00  0.00     0.000 A 
ATOM      6  C7  UNL d   1      -0.672   2.094  -2.672  0.00  0.00    -0.073 A 
ATOM      7  C8  UNL d   1      -0.606   1.147  -1.505  0.00  0.00     0.078 C 
ENDROOT
BRANCH   1   8
ATOM      8  C1  UNL d   1      -2.831   1.028  -3.541  0.00  0.00     0.053 C 
ATOM      9  C   UNL d   1      -3.872   1.396  -2.495  0.00  0.00     0.018 C 
ENDBRANCH   1   8
TORSDOF 1
ENDMDL
