MODEL 1
REMARK minimizedAffinity 0.179330289
REMARK minimizedRMSD -1
REMARK  1 active torsions:
REMARK  status: ('A' for Active; 'I' for Inactive)
REMARK    1  A    between atoms: C1_2  and  C2_3 
ROOT
ATOM      1  C2  UNL d   1      -1.166  -3.525  -0.535  0.00  0.00    -0.076 A 
ATOM      2  C3  UNL d   1      -0.916  -3.674  -1.910  0.00  0.00     0.004 A 
ATOM      3  C4  UNL d   1      -1.687  -4.535  -2.690  0.00  0.00    -0.003 A 
ATOM      4  C5  UNL d   1      -2.721  -5.260  -2.107  0.00  0.00     0.000 A 
ATOM      5  C6  UNL d   1      -2.994  -5.110  -0.748  0.00  0.00     0.000 A 
ATOM      6  C7  UNL d   1      -2.237  -4.235   0.049  0.00  0.00    -0.073 A 
ATOM      7  C8  UNL d   1      -2.571  -4.117   1.511  0.00  0.00     0.078 C 
ENDROOT
BRANCH   1   8
ATOM      8  C1  UNL d   1      -0.279  -2.597   0.265  0.00  0.00     0.053 C 
ATOM      9  C   UNL d   1      -0.226  -1.194  -0.319  0.00  0.00     0.018 C 
ENDBRANCH   1   8
TORSDOF 1
ENDMDL
