MODEL 1
REMARK minimizedAffinity 6.33110666
REMARK minimizedRMSD -1
REMARK  1 active torsions:
REMARK  status: ('A' for Active; 'I' for Inactive)
REMARK    1  A    between atoms: C1_2  and  C2_3 
ROOT
ATOM      1  C2  UNL d   1      -1.640  -4.931  -3.821  0.00  0.00    -0.076 A 
ATOM      2  C3  UNL d   1      -0.276  -4.593  -3.851  0.00  0.00     0.004 A 
ATOM      3  C4  UNL d   1       0.528  -4.951  -4.931  0.00  0.00    -0.003 A 
ATOM      4  C5  UNL d   1      -0.018  -5.653  -6.000  0.00  0.00     0.000 A 
ATOM      5  C6  UNL d   1      -1.374  -5.981  -5.995  0.00  0.00     0.000 A 
ATOM      6  C7  UNL d   1      -2.202  -5.613  -4.921  0.00  0.00    -0.073 A 
ATOM      7  C8  UNL d   1      -3.656  -5.999  -4.966  0.00  0.00     0.078 C 
ENDROOT
BRANCH   1   8
ATOM      8  C1  UNL d   1      -2.457  -4.540  -2.610  0.00  0.00     0.053 C 
ATOM      9  C   UNL d   1      -1.591  -4.096  -1.442  0.00  0.00     0.018 C 
ENDBRANCH   1   8
TORSDOF 1
ENDMDL
