MODEL 1
REMARK minimizedAffinity -0.0992017984
REMARK minimizedRMSD -1
REMARK  1 active torsions:
REMARK  status: ('A' for Active; 'I' for Inactive)
REMARK    1  A    between atoms: C1_2  and  C2_3 
ROOT
ATOM      1  C2  UNL d   1       1.359  -0.676   0.295  0.00  0.00    -0.076 A 
ATOM      2  C3  UNL d   1       2.604  -0.038   0.160  0.00  0.00     0.004 A 
ATOM      3  C4  UNL d   1       3.764  -0.613   0.676  0.00  0.00    -0.003 A 
ATOM      4  C5  UNL d   1       3.698  -1.836   1.334  0.00  0.00     0.000 A 
ATOM      5  C6  UNL d   1       2.474  -2.492   1.461  0.00  0.00     0.000 A 
ATOM      6  C7  UNL d   1       1.297  -1.933   0.933  0.00  0.00    -0.073 A 
ATOM      7  C8  UNL d   1       0.003  -2.681   1.104  0.00  0.00     0.078 C 
ENDROOT
BRANCH   1   8
ATOM      8  C1  UNL d   1       0.131   0.009  -0.261  0.00  0.00     0.053 C 
ATOM      9  C   UNL d   1       0.331   0.496  -1.688  0.00  0.00     0.018 C 
ENDBRANCH   1   8
TORSDOF 1
ENDMDL
