MODEL 1
REMARK minimizedAffinity 4.28014994
REMARK minimizedRMSD -1
REMARK  1 active torsions:
REMARK  status: ('A' for Active; 'I' for Inactive)
REMARK    1  A    between atoms: C1_2  and  C2_3 
ROOT
ATOM      1  C2  UNL d   1       0.182  -1.760  -0.102  0.00  0.00    -0.076 A 
ATOM      2  C3  UNL d   1       0.034  -1.280  -1.415  0.00  0.00     0.004 A 
ATOM      3  C4  UNL d   1       0.083   0.086  -1.690  0.00  0.00    -0.003 A 
ATOM      4  C5  UNL d   1       0.281   0.994  -0.656  0.00  0.00     0.000 A 
ATOM      5  C6  UNL d   1       0.448   0.535   0.650  0.00  0.00     0.000 A 
ATOM      6  C7  UNL d   1       0.418  -0.840   0.942  0.00  0.00    -0.073 A 
ATOM      7  C8  UNL d   1       0.597  -1.279   2.369  0.00  0.00     0.078 C 
ENDROOT
BRANCH   1   8
ATOM      8  C1  UNL d   1       0.093  -3.250   0.139  0.00  0.00     0.053 C 
ATOM      9  C   UNL d   1      -1.305  -3.692   0.544  0.00  0.00     0.018 C 
ENDBRANCH   1   8
TORSDOF 1
ENDMDL
