MODEL 1
REMARK minimizedAffinity 11.9417753
REMARK minimizedRMSD -1
REMARK  1 active torsions:
REMARK  status: ('A' for Active; 'I' for Inactive)
REMARK    1  A    between atoms: C1_2  and  C2_3 
ROOT
ATOM      1  C2  UNL d   1      -2.156   2.361  -3.656  0.00  0.00    -0.076 A 
ATOM      2  C3  UNL d   1      -2.639   3.459  -4.390  0.00  0.00     0.004 A 
ATOM      3  C4  UNL d   1      -1.807   4.531  -4.708  0.00  0.00    -0.003 A 
ATOM      4  C5  UNL d   1      -0.479   4.523  -4.298  0.00  0.00     0.000 A 
ATOM      5  C6  UNL d   1       0.022   3.435  -3.584  0.00  0.00     0.000 A 
ATOM      6  C7  UNL d   1      -0.799   2.338  -3.270  0.00  0.00    -0.073 A 
ATOM      7  C8  UNL d   1      -0.208   1.193  -2.493  0.00  0.00     0.078 C 
ENDROOT
BRANCH   1   8
ATOM      8  C1  UNL d   1      -3.111   1.240  -3.318  0.00  0.00     0.053 C 
ATOM      9  C   UNL d   1      -4.563   1.612  -3.579  0.00  0.00     0.018 C 
ENDBRANCH   1   8
TORSDOF 1
ENDMDL
