MODEL 1
REMARK minimizedAffinity 6.79831648
REMARK minimizedRMSD -1
REMARK  1 active torsions:
REMARK  status: ('A' for Active; 'I' for Inactive)
REMARK    1  A    between atoms: C1_2  and  C2_3 
ROOT
ATOM      1  C2  UNL d   1      -4.495   0.786  -1.885  0.00  0.00    -0.076 A 
ATOM      2  C3  UNL d   1      -4.004   1.593  -0.843  0.00  0.00     0.004 A 
ATOM      3  C4  UNL d   1      -4.117   1.194   0.487  0.00  0.00    -0.003 A 
ATOM      4  C5  UNL d   1      -4.721  -0.019   0.799  0.00  0.00     0.000 A 
ATOM      5  C6  UNL d   1      -5.197  -0.840  -0.222  0.00  0.00     0.000 A 
ATOM      6  C7  UNL d   1      -5.077  -0.461  -1.570  0.00  0.00    -0.073 A 
ATOM      7  C8  UNL d   1      -5.614  -1.383  -2.631  0.00  0.00     0.078 C 
ENDROOT
BRANCH   1   8
ATOM      8  C1  UNL d   1      -4.369   1.283  -3.307  0.00  0.00     0.053 C 
ATOM      9  C   UNL d   1      -2.930   1.592  -3.691  0.00  0.00     0.018 C 
ENDBRANCH   1   8
TORSDOF 1
ENDMDL
