MODEL 1
REMARK minimizedAffinity 4.75585222
REMARK minimizedRMSD -1
REMARK  1 active torsions:
REMARK  status: ('A' for Active; 'I' for Inactive)
REMARK    1  A    between atoms: C1_2  and  C2_3 
ROOT
ATOM      1  C2  UNL d   1      -2.180  -1.292   0.363  0.00  0.00    -0.076 A 
ATOM      2  C3  UNL d   1      -1.337  -0.173   0.481  0.00  0.00     0.004 A 
ATOM      3  C4  UNL d   1       0.049  -0.316   0.481  0.00  0.00    -0.003 A 
ATOM      4  C5  UNL d   1       0.615  -1.581   0.363  0.00  0.00     0.000 A 
ATOM      5  C6  UNL d   1      -0.206  -2.700   0.227  0.00  0.00     0.000 A 
ATOM      6  C7  UNL d   1      -1.605  -2.571   0.208  0.00  0.00    -0.073 A 
ATOM      7  C8  UNL d   1      -2.443  -3.812   0.065  0.00  0.00     0.078 C 
ENDROOT
BRANCH   1   8
ATOM      8  C1  UNL d   1      -3.677  -1.077   0.397  0.00  0.00     0.053 C 
ATOM      9  C   UNL d   1      -4.250  -0.758  -0.975  0.00  0.00     0.018 C 
ENDBRANCH   1   8
TORSDOF 1
ENDMDL
