MODEL 1
REMARK minimizedAffinity 5.66693211
REMARK minimizedRMSD -1
REMARK  1 active torsions:
REMARK  status: ('A' for Active; 'I' for Inactive)
REMARK    1  A    between atoms: C1_2  and  C2_3 
ROOT
ATOM      1  C2  UNL d   1       2.929  -0.992   1.147  0.00  0.00    -0.076 A 
ATOM      2  C3  UNL d   1       2.032  -2.067   1.275  0.00  0.00     0.004 A 
ATOM      3  C4  UNL d   1       0.757  -2.008   0.716  0.00  0.00    -0.003 A 
ATOM      4  C5  UNL d   1       0.357  -0.873   0.019  0.00  0.00     0.000 A 
ATOM      5  C6  UNL d   1       1.240   0.196  -0.132  0.00  0.00     0.000 A 
ATOM      6  C7  UNL d   1       2.535   0.146   0.411  0.00  0.00    -0.073 A 
ATOM      7  C8  UNL d   1       3.444   1.330   0.222  0.00  0.00     0.078 C 
ENDROOT
BRANCH   1   8
ATOM      8  C1  UNL d   1       4.289  -1.102   1.797  0.00  0.00     0.053 C 
ATOM      9  C   UNL d   1       4.212  -1.081   3.316  0.00  0.00     0.018 C 
ENDBRANCH   1   8
TORSDOF 1
ENDMDL
