MODEL 1
REMARK minimizedAffinity 20.5750713
REMARK minimizedRMSD -1
REMARK  0 active torsions:
REMARK  status: ('A' for Active; 'I' for Inactive)
ROOT
ATOM      1  C   UNL d   1       1.764  -2.625   2.565  0.00  0.00     0.124 A 
ATOM      2  C1  UNL d   1       0.821  -1.972   3.346  0.00  0.00     0.062 A 
ATOM      3  C2  UNL d   1      -0.537  -2.179   3.123  0.00  0.00     0.162 A 
ATOM      4  C3  UNL d   1      -0.961  -3.043   2.114  0.00  0.00    -0.034 A 
ATOM      5  C4  UNL d   1      -0.007  -3.696   1.332  0.00  0.00     0.162 A 
ATOM      6  C5  UNL d   1       1.350  -3.486   1.559  0.00  0.00     0.062 A 
ATOM      7  F   UNL d   1       2.259  -4.118   0.803  0.00  0.00    -0.097 F 
ATOM      8  F1  UNL d   1      -0.379  -4.534   0.353  0.00  0.00    -0.096 F 
ATOM      9  I   UNL d   1      -2.991  -3.355   1.777  0.00  0.00    -0.060 I 
ATOM     10  F2  UNL d   1      -1.427  -1.534   3.893  0.00  0.00    -0.096 F 
ATOM     11  F3  UNL d   1       1.219  -1.139   4.319  0.00  0.00    -0.097 F 
ATOM     12  F4  UNL d   1       3.070  -2.424   2.782  0.00  0.00    -0.092 F 
ENDROOT
TORSDOF 0
ENDMDL
