MODEL 1
REMARK minimizedAffinity 19.5046577
REMARK minimizedRMSD -1
REMARK  0 active torsions:
REMARK  status: ('A' for Active; 'I' for Inactive)
ROOT
ATOM      1  C   UNL d   1      -5.625  -0.637  -2.070  0.00  0.00     0.124 A 
ATOM      2  C1  UNL d   1      -5.450  -0.384  -0.716  0.00  0.00     0.062 A 
ATOM      3  C2  UNL d   1      -5.459   0.925  -0.242  0.00  0.00     0.162 A 
ATOM      4  C3  UNL d   1      -5.645   1.991  -1.122  0.00  0.00    -0.034 A 
ATOM      5  C4  UNL d   1      -5.819   1.729  -2.482  0.00  0.00     0.162 A 
ATOM      6  C5  UNL d   1      -5.809   0.419  -2.951  0.00  0.00     0.062 A 
ATOM      7  F   UNL d   1      -5.978   0.176  -4.259  0.00  0.00    -0.097 F 
ATOM      8  F1  UNL d   1      -6.000   2.730  -3.356  0.00  0.00    -0.096 F 
ATOM      9  I   UNL d   1      -5.659   3.949  -0.418  0.00  0.00    -0.060 I 
ATOM     10  F2  UNL d   1      -5.287   1.140   1.071  0.00  0.00    -0.096 F 
ATOM     11  F3  UNL d   1      -5.271  -1.402   0.137  0.00  0.00    -0.097 F 
ATOM     12  F4  UNL d   1      -5.614  -1.897  -2.523  0.00  0.00    -0.092 F 
ENDROOT
TORSDOF 0
ENDMDL
