MODEL 1
REMARK minimizedAffinity 13.0112648
REMARK minimizedRMSD -1
REMARK  0 active torsions:
REMARK  status: ('A' for Active; 'I' for Inactive)
ROOT
ATOM      1  C   UNL d   1      -0.109  -1.304   3.630  0.00  0.00     0.124 A 
ATOM      2  C1  UNL d   1      -0.803  -0.204   4.114  0.00  0.00     0.062 A 
ATOM      3  C2  UNL d   1      -1.893   0.301   3.410  0.00  0.00     0.162 A 
ATOM      4  C3  UNL d   1      -2.295  -0.294   2.214  0.00  0.00    -0.034 A 
ATOM      5  C4  UNL d   1      -1.591  -1.400   1.734  0.00  0.00     0.162 A 
ATOM      6  C5  UNL d   1      -0.503  -1.901   2.441  0.00  0.00     0.062 A 
ATOM      7  F   UNL d   1       0.166  -2.964   1.972  0.00  0.00    -0.097 F 
ATOM      8  F1  UNL d   1      -1.952  -1.997   0.588  0.00  0.00    -0.096 F 
ATOM      9  I   UNL d   1      -3.924   0.458   1.159  0.00  0.00    -0.060 I 
ATOM     10  F2  UNL d   1      -2.545   1.365   3.901  0.00  0.00    -0.096 F 
ATOM     11  F3  UNL d   1      -0.423   0.375   5.262  0.00  0.00    -0.097 F 
ATOM     12  F4  UNL d   1       0.940  -1.787   4.309  0.00  0.00    -0.092 F 
ENDROOT
TORSDOF 0
ENDMDL
