MODEL 1
REMARK minimizedAffinity 22.8569221
REMARK minimizedRMSD -1
REMARK  0 active torsions:
REMARK  status: ('A' for Active; 'I' for Inactive)
ROOT
ATOM      1  C   UNL d   1       2.514   2.186  -1.622  0.00  0.00     0.124 A 
ATOM      2  C1  UNL d   1       2.238   2.713  -2.877  0.00  0.00     0.062 A 
ATOM      3  C2  UNL d   1       3.231   3.376  -3.591  0.00  0.00     0.162 A 
ATOM      4  C3  UNL d   1       4.511   3.516  -3.054  0.00  0.00    -0.034 A 
ATOM      5  C4  UNL d   1       4.780   2.984  -1.792  0.00  0.00     0.162 A 
ATOM      6  C5  UNL d   1       3.784   2.322  -1.081  0.00  0.00     0.062 A 
ATOM      7  F   UNL d   1       4.053   1.814   0.130  0.00  0.00    -0.097 F 
ATOM      8  F1  UNL d   1       6.000   3.100  -1.245  0.00  0.00    -0.096 F 
ATOM      9  I   UNL d   1       5.999   4.506  -4.119  0.00  0.00    -0.060 I 
ATOM     10  F2  UNL d   1       2.936   3.875  -4.801  0.00  0.00    -0.096 F 
ATOM     11  F3  UNL d   1       1.011   2.584  -3.401  0.00  0.00    -0.097 F 
ATOM     12  F4  UNL d   1       1.556   1.549  -0.936  0.00  0.00    -0.092 F 
ENDROOT
TORSDOF 0
ENDMDL
