MODEL 1
REMARK minimizedAffinity 25.1536751
REMARK minimizedRMSD -1
REMARK  0 active torsions:
REMARK  status: ('A' for Active; 'I' for Inactive)
ROOT
ATOM      1  C   UNL d   1       4.146   2.473   0.757  0.00  0.00     0.124 A 
ATOM      2  C1  UNL d   1       5.017   3.379   0.167  0.00  0.00     0.062 A 
ATOM      3  C2  UNL d   1       4.874   3.715  -1.176  0.00  0.00     0.162 A 
ATOM      4  C3  UNL d   1       3.855   3.144  -1.940  0.00  0.00    -0.034 A 
ATOM      5  C4  UNL d   1       2.985   2.232  -1.340  0.00  0.00     0.162 A 
ATOM      6  C5  UNL d   1       3.132   1.900   0.003  0.00  0.00     0.062 A 
ATOM      7  F   UNL d   1       2.290   1.024   0.571  0.00  0.00    -0.097 F 
ATOM      8  F1  UNL d   1       1.994   1.665  -2.045  0.00  0.00    -0.096 F 
ATOM      9  I   UNL d   1       3.638   3.643  -3.948  0.00  0.00    -0.060 I 
ATOM     10  F2  UNL d   1       5.729   4.594  -1.719  0.00  0.00    -0.096 F 
ATOM     11  F3  UNL d   1       5.999   3.933   0.893  0.00  0.00    -0.097 F 
ATOM     12  F4  UNL d   1       4.287   2.151   2.049  0.00  0.00    -0.092 F 
ENDROOT
TORSDOF 0
ENDMDL
