MODEL 1
REMARK minimizedAffinity 17.7363148
REMARK minimizedRMSD -1
REMARK  0 active torsions:
REMARK  status: ('A' for Active; 'I' for Inactive)
ROOT
ATOM      1  C   UNL d   1       4.037   1.423   1.517  0.00  0.00     0.124 A 
ATOM      2  C1  UNL d   1       3.572   1.917   0.306  0.00  0.00     0.062 A 
ATOM      3  C2  UNL d   1       3.923   3.198  -0.109  0.00  0.00     0.162 A 
ATOM      4  C3  UNL d   1       4.744   3.995   0.687  0.00  0.00    -0.034 A 
ATOM      5  C4  UNL d   1       5.207   3.493   1.905  0.00  0.00     0.162 A 
ATOM      6  C5  UNL d   1       4.854   2.212   2.315  0.00  0.00     0.062 A 
ATOM      7  F   UNL d   1       5.304   1.737   3.486  0.00  0.00    -0.097 F 
ATOM      8  F1  UNL d   1       5.999   4.233   2.695  0.00  0.00    -0.096 F 
ATOM      9  I   UNL d   1       5.272   5.912   0.070  0.00  0.00    -0.060 I 
ATOM     10  F2  UNL d   1       3.459   3.648  -1.284  0.00  0.00    -0.096 F 
ATOM     11  F3  UNL d   1       2.781   1.157  -0.466  0.00  0.00    -0.097 F 
ATOM     12  F4  UNL d   1       3.696   0.191   1.915  0.00  0.00    -0.092 F 
ENDROOT
TORSDOF 0
ENDMDL
