MODEL 1
REMARK minimizedAffinity 21.1967297
REMARK minimizedRMSD -1
REMARK  0 active torsions:
REMARK  status: ('A' for Active; 'I' for Inactive)
ROOT
ATOM      1  C   UNL d   1      -3.576   0.541   3.200  0.00  0.00     0.124 A 
ATOM      2  C1  UNL d   1      -3.287  -0.557   2.402  0.00  0.00     0.062 A 
ATOM      3  C2  UNL d   1      -2.030  -1.153   2.459  0.00  0.00     0.162 A 
ATOM      4  C3  UNL d   1      -1.052  -0.652   3.319  0.00  0.00    -0.034 A 
ATOM      5  C4  UNL d   1      -1.350   0.454   4.117  0.00  0.00     0.162 A 
ATOM      6  C5  UNL d   1      -2.607   1.046   4.056  0.00  0.00     0.062 A 
ATOM      7  F   UNL d   1      -2.885   2.107   4.828  0.00  0.00    -0.097 F 
ATOM      8  F1  UNL d   1      -0.433   0.961   4.955  0.00  0.00    -0.096 F 
ATOM      9  I   UNL d   1       0.828  -1.539   3.407  0.00  0.00    -0.060 I 
ATOM     10  F2  UNL d   1      -1.778  -2.213   1.677  0.00  0.00    -0.096 F 
ATOM     11  F3  UNL d   1      -4.220  -1.046   1.573  0.00  0.00    -0.097 F 
ATOM     12  F4  UNL d   1      -4.785   1.113   3.142  0.00  0.00    -0.092 F 
ENDROOT
TORSDOF 0
ENDMDL
