MODEL 1
REMARK minimizedAffinity 22.6095562
REMARK minimizedRMSD -1
REMARK  0 active torsions:
REMARK  status: ('A' for Active; 'I' for Inactive)
ROOT
ATOM      1  C   UNL d   1       0.688  -1.358   3.672  0.00  0.00     0.124 A 
ATOM      2  C1  UNL d   1       0.098  -2.076   2.641  0.00  0.00     0.062 A 
ATOM      3  C2  UNL d   1      -1.227  -1.836   2.289  0.00  0.00     0.162 A 
ATOM      4  C3  UNL d   1      -1.972  -0.871   2.968  0.00  0.00    -0.034 A 
ATOM      5  C4  UNL d   1      -1.372  -0.154   4.005  0.00  0.00     0.162 A 
ATOM      6  C5  UNL d   1      -0.047  -0.398   4.353  0.00  0.00     0.062 A 
ATOM      7  F   UNL d   1       0.521   0.296   5.349  0.00  0.00    -0.097 F 
ATOM      8  F1  UNL d   1      -2.058   0.781   4.679  0.00  0.00    -0.096 F 
ATOM      9  I   UNL d   1      -3.953  -0.508   2.446  0.00  0.00    -0.060 I 
ATOM     10  F2  UNL d   1      -1.772  -2.544   1.289  0.00  0.00    -0.096 F 
ATOM     11  F3  UNL d   1       0.805  -3.005   1.982  0.00  0.00    -0.097 F 
ATOM     12  F4  UNL d   1       1.962  -1.593   4.009  0.00  0.00    -0.092 F 
ENDROOT
TORSDOF 0
ENDMDL
