MODEL 1
REMARK minimizedAffinity 36.034893
REMARK minimizedRMSD -1
REMARK  0 active torsions:
REMARK  status: ('A' for Active; 'I' for Inactive)
ROOT
ATOM      1  C   UNL d   1       3.825  -2.865  -0.637  0.00  0.00     0.124 A 
ATOM      2  C1  UNL d   1       3.688  -1.534  -0.267  0.00  0.00     0.062 A 
ATOM      3  C2  UNL d   1       2.902  -1.190   0.829  0.00  0.00     0.162 A 
ATOM      4  C3  UNL d   1       2.247  -2.178   1.564  0.00  0.00    -0.034 A 
ATOM      5  C4  UNL d   1       2.389  -3.514   1.185  0.00  0.00     0.162 A 
ATOM      6  C5  UNL d   1       3.176  -3.854   0.089  0.00  0.00     0.062 A 
ATOM      7  F   UNL d   1       3.307  -5.140  -0.267  0.00  0.00    -0.097 F 
ATOM      8  F1  UNL d   1       1.773  -4.490   1.870  0.00  0.00    -0.096 F 
ATOM      9  I   UNL d   1       1.071  -1.667   3.203  0.00  0.00    -0.060 I 
ATOM     10  F2  UNL d   1       2.788   0.104   1.163  0.00  0.00    -0.096 F 
ATOM     11  F3  UNL d   1       4.314  -0.578  -0.968  0.00  0.00    -0.097 F 
ATOM     12  F4  UNL d   1       4.581  -3.194  -1.693  0.00  0.00    -0.092 F 
ENDROOT
TORSDOF 0
ENDMDL
