MODEL 1
REMARK minimizedAffinity 25.2206783
REMARK minimizedRMSD -1
REMARK  0 active torsions:
REMARK  status: ('A' for Active; 'I' for Inactive)
ROOT
ATOM      1  C   UNL d   1       3.852   2.724  -4.710  0.00  0.00     0.124 A 
ATOM      2  C1  UNL d   1       2.880   2.749  -3.719  0.00  0.00     0.062 A 
ATOM      3  C2  UNL d   1       2.954   3.683  -2.690  0.00  0.00     0.162 A 
ATOM      4  C3  UNL d   1       4.003   4.601  -2.647  0.00  0.00    -0.034 A 
ATOM      5  C4  UNL d   1       4.977   4.569  -3.646  0.00  0.00     0.162 A 
ATOM      6  C5  UNL d   1       4.900   3.633  -4.672  0.00  0.00     0.062 A 
ATOM      7  F   UNL d   1       5.840   3.610  -5.628  0.00  0.00    -0.097 F 
ATOM      8  F1  UNL d   1       6.000   5.437  -3.634  0.00  0.00    -0.096 F 
ATOM      9  I   UNL d   1       4.116   6.000  -1.109  0.00  0.00    -0.060 I 
ATOM     10  F2  UNL d   1       2.000   3.685  -1.747  0.00  0.00    -0.096 F 
ATOM     11  F3  UNL d   1       1.868   1.871  -3.753  0.00  0.00    -0.097 F 
ATOM     12  F4  UNL d   1       3.780   1.823  -5.698  0.00  0.00    -0.092 F 
ENDROOT
TORSDOF 0
ENDMDL
