MODEL 1
REMARK minimizedAffinity 28.9338341
REMARK minimizedRMSD -1
REMARK  0 active torsions:
REMARK  status: ('A' for Active; 'I' for Inactive)
ROOT
ATOM      1  C   UNL d   1       3.203   5.211  -1.627  0.00  0.00     0.124 A 
ATOM      2  C1  UNL d   1       2.214   4.397  -2.161  0.00  0.00     0.062 A 
ATOM      3  C2  UNL d   1       2.494   3.577  -3.250  0.00  0.00     0.162 A 
ATOM      4  C3  UNL d   1       3.772   3.564  -3.811  0.00  0.00    -0.034 A 
ATOM      5  C4  UNL d   1       4.761   4.386  -3.268  0.00  0.00     0.162 A 
ATOM      6  C5  UNL d   1       4.476   5.204  -2.180  0.00  0.00     0.062 A 
ATOM      7  F   UNL d   1       5.433   5.989  -1.665  0.00  0.00    -0.097 F 
ATOM      8  F1  UNL d   1       6.000   4.398  -3.783  0.00  0.00    -0.096 F 
ATOM      9  I   UNL d   1       4.195   2.339  -5.439  0.00  0.00    -0.060 I 
ATOM     10  F2  UNL d   1       1.519   2.801  -3.746  0.00  0.00    -0.096 F 
ATOM     11  F3  UNL d   1       0.983   4.403  -1.629  0.00  0.00    -0.097 F 
ATOM     12  F4  UNL d   1       2.930   6.000  -0.580  0.00  0.00    -0.092 F 
ENDROOT
TORSDOF 0
ENDMDL
