MODEL 1
REMARK minimizedAffinity 32.4511642
REMARK minimizedRMSD -1
REMARK  0 active torsions:
REMARK  status: ('A' for Active; 'I' for Inactive)
ROOT
ATOM      1  C   UNL d   1       3.484  -2.679  -0.072  0.00  0.00     0.124 A 
ATOM      2  C1  UNL d   1       3.528  -1.425   0.521  0.00  0.00     0.062 A 
ATOM      3  C2  UNL d   1       2.802  -1.174   1.681  0.00  0.00     0.162 A 
ATOM      4  C3  UNL d   1       2.027  -2.179   2.258  0.00  0.00    -0.034 A 
ATOM      5  C4  UNL d   1       1.986  -3.438   1.655  0.00  0.00     0.162 A 
ATOM      6  C5  UNL d   1       2.714  -3.684   0.495  0.00  0.00     0.062 A 
ATOM      7  F   UNL d   1       2.670  -4.896  -0.077  0.00  0.00    -0.097 F 
ATOM      8  F1  UNL d   1       1.251  -4.427   2.183  0.00  0.00    -0.096 F 
ATOM      9  I   UNL d   1       0.940  -1.808   3.993  0.00  0.00    -0.060 I 
ATOM     10  F2  UNL d   1       2.864   0.048   2.233  0.00  0.00    -0.096 F 
ATOM     11  F3  UNL d   1       4.271  -0.452  -0.026  0.00  0.00    -0.097 F 
ATOM     12  F4  UNL d   1       4.183  -2.918  -1.190  0.00  0.00    -0.092 F 
ENDROOT
TORSDOF 0
ENDMDL
