MODEL 1
REMARK minimizedAffinity 16.7849121
REMARK minimizedRMSD -1
REMARK  0 active torsions:
REMARK  status: ('A' for Active; 'I' for Inactive)
ROOT
ATOM      1  C   UNL d   1       2.359   1.085  -0.487  0.00  0.00     0.124 A 
ATOM      2  C1  UNL d   1       3.677   1.019  -0.916  0.00  0.00     0.062 A 
ATOM      3  C2  UNL d   1       4.651   1.808  -0.311  0.00  0.00     0.162 A 
ATOM      4  C3  UNL d   1       4.311   2.670   0.731  0.00  0.00    -0.034 A 
ATOM      5  C4  UNL d   1       2.982   2.732   1.156  0.00  0.00     0.162 A 
ATOM      6  C5  UNL d   1       2.013   1.942   0.548  0.00  0.00     0.062 A 
ATOM      7  F   UNL d   1       0.740   2.008   0.964  0.00  0.00    -0.097 F 
ATOM      8  F1  UNL d   1       2.620   3.550   2.156  0.00  0.00    -0.096 F 
ATOM      9  I   UNL d   1       5.764   3.851   1.639  0.00  0.00    -0.060 I 
ATOM     10  F2  UNL d   1       5.917   1.723  -0.746  0.00  0.00    -0.096 F 
ATOM     11  F3  UNL d   1       4.014   0.193  -1.917  0.00  0.00    -0.097 F 
ATOM     12  F4  UNL d   1       1.424   0.326  -1.072  0.00  0.00    -0.092 F 
ENDROOT
TORSDOF 0
ENDMDL
