MODEL 1
REMARK minimizedAffinity 20.9770374
REMARK minimizedRMSD -1
REMARK  0 active torsions:
REMARK  status: ('A' for Active; 'I' for Inactive)
ROOT
ATOM      1  C   UNL d   1       0.856   1.503  -1.865  0.00  0.00     0.124 A 
ATOM      2  C1  UNL d   1       0.924   2.313  -2.991  0.00  0.00     0.062 A 
ATOM      3  C2  UNL d   1       2.126   2.918  -3.345  0.00  0.00     0.162 A 
ATOM      4  C3  UNL d   1       3.271   2.715  -2.574  0.00  0.00    -0.034 A 
ATOM      5  C4  UNL d   1       3.194   1.900  -1.444  0.00  0.00     0.162 A 
ATOM      6  C5  UNL d   1       1.990   1.297  -1.093  0.00  0.00     0.062 A 
ATOM      7  F   UNL d   1       1.926   0.515  -0.006  0.00  0.00    -0.097 F 
ATOM      8  F1  UNL d   1       4.275   1.684  -0.680  0.00  0.00    -0.096 F 
ATOM      9  I   UNL d   1       5.070   3.619  -3.102  0.00  0.00    -0.060 I 
ATOM     10  F2  UNL d   1       2.163   3.695  -4.438  0.00  0.00    -0.096 F 
ATOM     11  F3  UNL d   1      -0.171   2.513  -3.738  0.00  0.00    -0.097 F 
ATOM     12  F4  UNL d   1      -0.302   0.922  -1.526  0.00  0.00    -0.092 F 
ENDROOT
TORSDOF 0
ENDMDL
