MODEL 1
REMARK minimizedAffinity 13.0358696
REMARK minimizedRMSD -1
REMARK  0 active torsions:
REMARK  status: ('A' for Active; 'I' for Inactive)
ROOT
ATOM      1  C   UNL d   1       2.776   1.709  -1.799  0.00  0.00     0.124 A 
ATOM      2  C1  UNL d   1       2.624   2.388  -3.000  0.00  0.00     0.062 A 
ATOM      3  C2  UNL d   1       1.965   3.613  -3.034  0.00  0.00     0.162 A 
ATOM      4  C3  UNL d   1       1.452   4.168  -1.861  0.00  0.00    -0.034 A 
ATOM      5  C4  UNL d   1       1.607   3.480  -0.657  0.00  0.00     0.162 A 
ATOM      6  C5  UNL d   1       2.267   2.255  -0.629  0.00  0.00     0.062 A 
ATOM      7  F   UNL d   1       2.413   1.601   0.533  0.00  0.00    -0.097 F 
ATOM      8  F1  UNL d   1       1.126   3.985   0.488  0.00  0.00    -0.096 F 
ATOM      9  I   UNL d   1       0.465   6.000  -1.908  0.00  0.00    -0.060 I 
ATOM     10  F2  UNL d   1       1.833   4.246  -4.209  0.00  0.00    -0.096 F 
ATOM     11  F3  UNL d   1       3.114   1.861  -4.132  0.00  0.00    -0.097 F 
ATOM     12  F4  UNL d   1       3.410   0.530  -1.769  0.00  0.00    -0.092 F 
ENDROOT
TORSDOF 0
ENDMDL
