MODEL 1
REMARK minimizedAffinity 16.3134022
REMARK minimizedRMSD -1
REMARK  0 active torsions:
REMARK  status: ('A' for Active; 'I' for Inactive)
ROOT
ATOM      1  C   UNL d   1      -2.956  -2.052   1.395  0.00  0.00     0.124 A 
ATOM      2  C1  UNL d   1      -1.977  -3.019   1.210  0.00  0.00     0.062 A 
ATOM      3  C2  UNL d   1      -0.650  -2.741   1.525  0.00  0.00     0.162 A 
ATOM      4  C3  UNL d   1      -0.294  -1.490   2.028  0.00  0.00    -0.034 A 
ATOM      5  C4  UNL d   1      -1.283  -0.522   2.211  0.00  0.00     0.162 A 
ATOM      6  C5  UNL d   1      -2.608  -0.805   1.895  0.00  0.00     0.062 A 
ATOM      7  F   UNL d   1      -3.552   0.131   2.074  0.00  0.00    -0.097 F 
ATOM      8  F1  UNL d   1      -0.975   0.691   2.693  0.00  0.00    -0.096 F 
ATOM      9  I   UNL d   1       1.690  -1.071   2.500  0.00  0.00    -0.060 I 
ATOM     10  F2  UNL d   1       0.274  -3.694   1.336  0.00  0.00    -0.096 F 
ATOM     11  F3  UNL d   1      -2.311  -4.224   0.726  0.00  0.00    -0.097 F 
ATOM     12  F4  UNL d   1      -4.232  -2.321   1.090  0.00  0.00    -0.092 F 
ENDROOT
TORSDOF 0
ENDMDL
