MODEL 1
REMARK minimizedAffinity 26.1609192
REMARK minimizedRMSD -1
REMARK  0 active torsions:
REMARK  status: ('A' for Active; 'I' for Inactive)
ROOT
ATOM      1  C   UNL d   1      -3.427  -4.241   1.524  0.00  0.00     0.124 A 
ATOM      2  C1  UNL d   1      -4.593  -4.110   0.782  0.00  0.00     0.062 A 
ATOM      3  C2  UNL d   1      -4.821  -2.959   0.035  0.00  0.00     0.162 A 
ATOM      4  C3  UNL d   1      -3.881  -1.928   0.025  0.00  0.00    -0.034 A 
ATOM      5  C4  UNL d   1      -2.712  -2.066   0.775  0.00  0.00     0.162 A 
ATOM      6  C5  UNL d   1      -2.488  -3.219   1.520  0.00  0.00     0.062 A 
ATOM      7  F   UNL d   1      -1.362  -3.344   2.237  0.00  0.00    -0.097 F 
ATOM      8  F1  UNL d   1      -1.787  -1.095   0.788  0.00  0.00    -0.096 F 
ATOM      9  I   UNL d   1      -4.219  -0.204  -1.091  0.00  0.00    -0.060 I 
ATOM     10  F2  UNL d   1      -5.956  -2.859  -0.673  0.00  0.00    -0.096 F 
ATOM     11  F3  UNL d   1      -5.502  -5.096   0.785  0.00  0.00    -0.097 F 
ATOM     12  F4  UNL d   1      -3.211  -5.350   2.243  0.00  0.00    -0.092 F 
ENDROOT
TORSDOF 0
ENDMDL
