MODEL 1
REMARK minimizedAffinity 30.7480965
REMARK minimizedRMSD -1
REMARK  0 active torsions:
REMARK  status: ('A' for Active; 'I' for Inactive)
ROOT
ATOM      1  C   UNL d   1       0.149  -0.956   3.934  0.00  0.00     0.124 A 
ATOM      2  C1  UNL d   1      -0.023  -1.270   2.593  0.00  0.00     0.062 A 
ATOM      3  C2  UNL d   1      -1.123  -0.781   1.895  0.00  0.00     0.162 A 
ATOM      4  C3  UNL d   1      -2.061   0.029   2.537  0.00  0.00    -0.034 A 
ATOM      5  C4  UNL d   1      -1.882   0.340   3.886  0.00  0.00     0.162 A 
ATOM      6  C5  UNL d   1      -0.780  -0.151   4.579  0.00  0.00     0.062 A 
ATOM      7  F   UNL d   1      -0.616   0.153   5.874  0.00  0.00    -0.097 F 
ATOM      8  F1  UNL d   1      -2.764   1.115   4.533  0.00  0.00    -0.096 F 
ATOM      9  I   UNL d   1      -3.708   0.762   1.496  0.00  0.00    -0.060 I 
ATOM     10  F2  UNL d   1      -1.264  -1.101   0.600  0.00  0.00    -0.096 F 
ATOM     11  F3  UNL d   1       0.873  -2.047   1.968  0.00  0.00    -0.097 F 
ATOM     12  F4  UNL d   1       1.208  -1.428   4.603  0.00  0.00    -0.092 F 
ENDROOT
TORSDOF 0
ENDMDL
