MODEL 1
REMARK minimizedAffinity 21.6080875
REMARK minimizedRMSD -1
REMARK  0 active torsions:
REMARK  status: ('A' for Active; 'I' for Inactive)
ROOT
ATOM      1  C   UNL d   1      -2.197   0.553   3.445  0.00  0.00     0.124 A 
ATOM      2  C1  UNL d   1      -3.330   1.354   3.450  0.00  0.00     0.062 A 
ATOM      3  C2  UNL d   1      -4.202   1.342   2.365  0.00  0.00     0.162 A 
ATOM      4  C3  UNL d   1      -3.943   0.525   1.264  0.00  0.00    -0.034 A 
ATOM      5  C4  UNL d   1      -2.801  -0.277   1.265  0.00  0.00     0.162 A 
ATOM      6  C5  UNL d   1      -1.933  -0.262   2.352  0.00  0.00     0.062 A 
ATOM      7  F   UNL d   1      -0.839  -1.036   2.345  0.00  0.00    -0.097 F 
ATOM      8  F1  UNL d   1      -2.523  -1.074   0.223  0.00  0.00    -0.096 F 
ATOM      9  I   UNL d   1      -5.244   0.505  -0.360  0.00  0.00    -0.060 I 
ATOM     10  F2  UNL d   1      -5.289   2.127   2.398  0.00  0.00    -0.096 F 
ATOM     11  F3  UNL d   1      -3.587   2.143   4.504  0.00  0.00    -0.097 F 
ATOM     12  F4  UNL d   1      -1.360   0.567   4.490  0.00  0.00    -0.092 F 
ENDROOT
TORSDOF 0
ENDMDL
