MODEL 1
REMARK minimizedAffinity -3.241328
REMARK minimizedRMSD -1
REMARK  0 active torsions:
REMARK  status: ('A' for Active; 'I' for Inactive)
ROOT
ATOM      1  C   UNL d   1       2.291  -0.140  -1.971  0.00  0.00     0.023 A 
ATOM      2  C1  UNL d   1       1.914  -1.357  -1.403  0.00  0.00     0.003 A 
ATOM      3  C2  UNL d   1       0.900  -1.397  -0.445  0.00  0.00     0.048 A 
ATOM      4  C3  UNL d   1       0.265  -0.217  -0.060  0.00  0.00     0.023 A 
ATOM      5  C4  UNL d   1       0.638   1.003  -0.626  0.00  0.00     0.048 A 
ATOM      6  C5  UNL d   1       1.654   1.039  -1.583  0.00  0.00     0.003 A 
ATOM      7  I   UNL d   1      -1.246  -0.275   1.366  0.00  0.00    -0.146 I 
ENDROOT
TORSDOF 0
ENDMDL
