MODEL 1
REMARK minimizedAffinity -1.66995931
REMARK minimizedRMSD -1
REMARK  0 active torsions:
REMARK  status: ('A' for Active; 'I' for Inactive)
ROOT
ATOM      1  C   UNL d   1       1.724   0.181  -1.450  0.00  0.00     0.023 A 
ATOM      2  C1  UNL d   1       1.023   1.369  -1.245  0.00  0.00     0.003 A 
ATOM      3  C2  UNL d   1      -0.001   1.423  -0.298  0.00  0.00     0.048 A 
ATOM      4  C3  UNL d   1      -0.319   0.285   0.442  0.00  0.00     0.023 A 
ATOM      5  C4  UNL d   1       0.380  -0.906   0.242  0.00  0.00     0.048 A 
ATOM      6  C5  UNL d   1       1.403  -0.956  -0.707  0.00  0.00     0.003 A 
ATOM      7  I   UNL d   1      -1.844   0.362   1.853  0.00  0.00    -0.146 I 
ENDROOT
TORSDOF 0
ENDMDL
