MODEL 1
REMARK minimizedAffinity -2.60931802
REMARK minimizedRMSD -1
REMARK  0 active torsions:
REMARK  status: ('A' for Active; 'I' for Inactive)
ROOT
ATOM      1  C   UNL d   1       1.430   1.006  -1.450  0.00  0.00     0.023 A 
ATOM      2  C1  UNL d   1       1.470  -0.071  -0.565  0.00  0.00     0.003 A 
ATOM      3  C2  UNL d   1       0.446  -0.248   0.368  0.00  0.00     0.048 A 
ATOM      4  C3  UNL d   1      -0.616   0.655   0.409  0.00  0.00     0.023 A 
ATOM      5  C4  UNL d   1      -0.660   1.734  -0.475  0.00  0.00     0.048 A 
ATOM      6  C5  UNL d   1       0.366   1.908  -1.405  0.00  0.00     0.003 A 
ATOM      7  I   UNL d   1      -2.141   0.393   1.797  0.00  0.00    -0.146 I 
ENDROOT
TORSDOF 0
ENDMDL
