MODEL 1
REMARK minimizedAffinity -4.15753746
REMARK minimizedRMSD -1
REMARK  0 active torsions:
REMARK  status: ('A' for Active; 'I' for Inactive)
ROOT
ATOM      1  C   UNL d   1       2.172  -0.499  -2.660  0.00  0.00     0.023 A 
ATOM      2  C1  UNL d   1       1.573  -1.648  -2.143  0.00  0.00     0.003 A 
ATOM      3  C2  UNL d   1       0.761  -1.564  -1.010  0.00  0.00     0.048 A 
ATOM      4  C3  UNL d   1       0.552  -0.328  -0.399  0.00  0.00     0.023 A 
ATOM      5  C4  UNL d   1       1.150   0.824  -0.913  0.00  0.00     0.048 A 
ATOM      6  C5  UNL d   1       1.961   0.735  -2.046  0.00  0.00     0.003 A 
ATOM      7  I   UNL d   1      -0.656  -0.201   1.287  0.00  0.00    -0.146 I 
ENDROOT
TORSDOF 0
ENDMDL
