MODEL 1
REMARK minimizedAffinity -1.47565305
REMARK minimizedRMSD -1
REMARK  0 active torsions:
REMARK  status: ('A' for Active; 'I' for Inactive)
ROOT
ATOM      1  C   UNL d   1       1.290   0.896  -0.367  0.00  0.00     0.023 A 
ATOM      2  C1  UNL d   1       0.163   1.344  -1.058  0.00  0.00     0.003 A 
ATOM      3  C2  UNL d   1      -1.112   1.117  -0.537  0.00  0.00     0.048 A 
ATOM      4  C3  UNL d   1      -1.254   0.444   0.676  0.00  0.00     0.023 A 
ATOM      5  C4  UNL d   1      -0.130  -0.005   1.371  0.00  0.00     0.048 A 
ATOM      6  C5  UNL d   1       1.144   0.223   0.845  0.00  0.00     0.003 A 
ATOM      7  I   UNL d   1      -3.151   0.106   1.454  0.00  0.00    -0.146 I 
ENDROOT
TORSDOF 0
ENDMDL
