MODEL 1
REMARK minimizedAffinity -2.54133368
REMARK minimizedRMSD -1
REMARK  0 active torsions:
REMARK  status: ('A' for Active; 'I' for Inactive)
ROOT
ATOM      1  C   UNL d   1       2.332  -0.139  -1.367  0.00  0.00     0.023 A 
ATOM      2  C1  UNL d   1       1.787   1.117  -1.104  0.00  0.00     0.003 A 
ATOM      3  C2  UNL d   1       0.642   1.232  -0.314  0.00  0.00     0.048 A 
ATOM      4  C3  UNL d   1       0.046   0.085   0.211  0.00  0.00     0.023 A 
ATOM      5  C4  UNL d   1       0.588  -1.174  -0.049  0.00  0.00     0.048 A 
ATOM      6  C5  UNL d   1       1.733  -1.284  -0.841  0.00  0.00     0.003 A 
ATOM      7  I   UNL d   1      -1.659   0.253   1.387  0.00  0.00    -0.146 I 
ENDROOT
TORSDOF 0
ENDMDL
