MODEL 1
REMARK minimizedAffinity -2.76601195
REMARK minimizedRMSD -1
REMARK  0 active torsions:
REMARK  status: ('A' for Active; 'I' for Inactive)
ROOT
ATOM      1  C   UNL d   1       0.348   1.321  -0.838  0.00  0.00     0.023 A 
ATOM      2  C1  UNL d   1      -0.728   2.207  -0.815  0.00  0.00     0.003 A 
ATOM      3  C2  UNL d   1      -1.836   1.942  -0.008  0.00  0.00     0.048 A 
ATOM      4  C3  UNL d   1      -1.861   0.788   0.775  0.00  0.00     0.023 A 
ATOM      5  C4  UNL d   1      -0.785  -0.101   0.757  0.00  0.00     0.048 A 
ATOM      6  C5  UNL d   1       0.320   0.168  -0.053  0.00  0.00     0.003 A 
ATOM      7  I   UNL d   1      -3.509   0.391   1.978  0.00  0.00    -0.146 I 
ENDROOT
TORSDOF 0
ENDMDL
