MODEL 1
REMARK minimizedAffinity -3.44922185
REMARK minimizedRMSD -1
REMARK  0 active torsions:
REMARK  status: ('A' for Active; 'I' for Inactive)
ROOT
ATOM      1  C   UNL d   1       0.391   1.684  -0.720  0.00  0.00     0.023 A 
ATOM      2  C1  UNL d   1       1.489   1.619  -1.578  0.00  0.00     0.003 A 
ATOM      3  C2  UNL d   1       2.096   0.390  -1.847  0.00  0.00     0.048 A 
ATOM      4  C3  UNL d   1       1.598  -0.770  -1.254  0.00  0.00     0.023 A 
ATOM      5  C4  UNL d   1       0.500  -0.710  -0.395  0.00  0.00     0.048 A 
ATOM      6  C5  UNL d   1      -0.103   0.521  -0.129  0.00  0.00     0.003 A 
ATOM      7  I   UNL d   1       2.499  -2.601  -1.652  0.00  0.00    -0.146 I 
ENDROOT
TORSDOF 0
ENDMDL
