MODEL 1
REMARK minimizedAffinity -1.948277
REMARK minimizedRMSD -1
REMARK  0 active torsions:
REMARK  status: ('A' for Active; 'I' for Inactive)
ROOT
ATOM      1  C   UNL d   1      -3.827   0.983   2.032  0.00  0.00     0.023 A 
ATOM      2  C1  UNL d   1      -2.684   0.804   2.811  0.00  0.00     0.003 A 
ATOM      3  C2  UNL d   1      -1.438   0.653   2.199  0.00  0.00     0.048 A 
ATOM      4  C3  UNL d   1      -1.342   0.684   0.808  0.00  0.00     0.023 A 
ATOM      5  C4  UNL d   1      -2.484   0.864   0.025  0.00  0.00     0.048 A 
ATOM      6  C5  UNL d   1      -3.727   1.013   0.641  0.00  0.00     0.003 A 
ATOM      7  I   UNL d   1       0.511   0.461  -0.105  0.00  0.00    -0.146 I 
ENDROOT
TORSDOF 0
ENDMDL
