MODEL 1
REMARK minimizedAffinity -2.64165783
REMARK minimizedRMSD -1
REMARK  0 active torsions:
REMARK  status: ('A' for Active; 'I' for Inactive)
ROOT
ATOM      1  C   UNL d   1       2.570  -0.141  -1.853  0.00  0.00     0.023 A 
ATOM      2  C1  UNL d   1       2.080   1.082  -1.394  0.00  0.00     0.003 A 
ATOM      3  C2  UNL d   1       0.998   1.115  -0.512  0.00  0.00     0.048 A 
ATOM      4  C3  UNL d   1       0.411  -0.078  -0.092  0.00  0.00     0.023 A 
ATOM      5  C4  UNL d   1       0.898  -1.304  -0.548  0.00  0.00     0.048 A 
ATOM      6  C5  UNL d   1       1.979  -1.332  -1.430  0.00  0.00     0.003 A 
ATOM      7  I   UNL d   1      -1.199  -0.030   1.222  0.00  0.00    -0.146 I 
ENDROOT
TORSDOF 0
ENDMDL
