MODEL 1
REMARK minimizedAffinity -2.32352877
REMARK minimizedRMSD -1
REMARK  0 active torsions:
REMARK  status: ('A' for Active; 'I' for Inactive)
ROOT
ATOM      1  C   UNL d   1       1.491   0.625  -1.180  0.00  0.00     0.023 A 
ATOM      2  C1  UNL d   1       1.299  -0.524  -0.413  0.00  0.00     0.003 A 
ATOM      3  C2  UNL d   1       0.144  -0.665   0.359  0.00  0.00     0.048 A 
ATOM      4  C3  UNL d   1      -0.816   0.347   0.359  0.00  0.00     0.023 A 
ATOM      5  C4  UNL d   1      -0.628   1.498  -0.408  0.00  0.00     0.048 A 
ATOM      6  C5  UNL d   1       0.528   1.635  -1.177  0.00  0.00     0.003 A 
ATOM      7  I   UNL d   1      -2.535   0.140   1.507  0.00  0.00    -0.146 I 
ENDROOT
TORSDOF 0
ENDMDL
