MODEL 1
REMARK minimizedAffinity -3.56570697
REMARK minimizedRMSD -1
REMARK  0 active torsions:
REMARK  status: ('A' for Active; 'I' for Inactive)
ROOT
ATOM      1  C   UNL d   1       1.149   0.750  -1.018  0.00  0.00     0.023 A 
ATOM      2  C1  UNL d   1      -0.056   1.035  -1.658  0.00  0.00     0.003 A 
ATOM      3  C2  UNL d   1      -1.264   0.898  -0.970  0.00  0.00     0.048 A 
ATOM      4  C3  UNL d   1      -1.258   0.475   0.359  0.00  0.00     0.023 A 
ATOM      5  C4  UNL d   1      -0.053   0.189   1.004  0.00  0.00     0.048 A 
ATOM      6  C5  UNL d   1       1.151   0.327   0.311  0.00  0.00     0.003 A 
ATOM      7  I   UNL d   1      -3.053   0.270   1.385  0.00  0.00    -0.146 I 
ENDROOT
TORSDOF 0
ENDMDL
