MODEL 1
REMARK minimizedAffinity -2.16973758
REMARK minimizedRMSD -1
REMARK  0 active torsions:
REMARK  status: ('A' for Active; 'I' for Inactive)
ROOT
ATOM      1  C   UNL d   1       0.806   0.006  -0.525  0.00  0.00     0.023 A 
ATOM      2  C1  UNL d   1       0.527  -0.566   0.717  0.00  0.00     0.003 A 
ATOM      3  C2  UNL d   1      -0.744  -0.431   1.279  0.00  0.00     0.048 A 
ATOM      4  C3  UNL d   1      -1.732   0.275   0.593  0.00  0.00     0.023 A 
ATOM      5  C4  UNL d   1      -1.457   0.849  -0.649  0.00  0.00     0.048 A 
ATOM      6  C5  UNL d   1      -0.184   0.712  -1.207  0.00  0.00     0.003 A 
ATOM      7  I   UNL d   1      -3.625   0.477   1.427  0.00  0.00    -0.146 I 
ENDROOT
TORSDOF 0
ENDMDL
