MODEL 1
REMARK minimizedAffinity -0.751898885
REMARK minimizedRMSD -1
REMARK  0 active torsions:
REMARK  status: ('A' for Active; 'I' for Inactive)
ROOT
ATOM      1  C   UNL d   1      -2.931   0.121   2.301  0.00  0.00     0.023 A 
ATOM      2  C1  UNL d   1      -2.966   1.267   1.506  0.00  0.00     0.003 A 
ATOM      3  C2  UNL d   1      -1.879   1.583   0.688  0.00  0.00     0.048 A 
ATOM      4  C3  UNL d   1      -0.762   0.749   0.669  0.00  0.00     0.023 A 
ATOM      5  C4  UNL d   1      -0.723  -0.398   1.463  0.00  0.00     0.048 A 
ATOM      6  C5  UNL d   1      -1.811  -0.710   2.280  0.00  0.00     0.003 A 
ATOM      7  I   UNL d   1       0.857   1.218  -0.548  0.00  0.00    -0.146 I 
ENDROOT
TORSDOF 0
ENDMDL
