MODEL 1
REMARK minimizedAffinity 7.35081387
REMARK minimizedRMSD -1
REMARK  0 active torsions:
REMARK  status: ('A' for Active; 'I' for Inactive)
ROOT
ATOM      1  C2' OXE d   1      -1.645  -4.182  -1.949  0.00  0.00     0.078 C 
ATOM      2  C1' OXE d   1       0.191  -6.000  -3.047  0.00  0.00     0.078 C 
ATOM      3  C1  OXE d   1      -0.958  -5.550  -3.914  0.00  0.00    -0.078 A 
ATOM      4  C2  OXE d   1      -1.877  -4.696  -3.353  0.00  0.00    -0.078 A 
ATOM      5  C3  OXE d   1      -2.926  -4.208  -4.126  0.00  0.00     0.003 A 
ATOM      6  C4  OXE d   1      -3.140  -4.697  -5.421  0.00  0.00    -0.002 A 
ATOM      7  C5  OXE d   1      -2.238  -5.597  -5.998  0.00  0.00    -0.002 A 
ATOM      8  C6  OXE d   1      -1.121  -6.000  -5.274  0.00  0.00     0.003 A 
ENDROOT
TORSDOF 0
ENDMDL
