MODEL 1
REMARK minimizedAffinity 2.23913932
REMARK minimizedRMSD -1
REMARK  0 active torsions:
REMARK  status: ('A' for Active; 'I' for Inactive)
ROOT
ATOM      1  C2' OXE d   1      -2.985  -4.544  -5.818  0.00  0.00     0.078 C 
ATOM      2  C1' OXE d   1      -2.963  -4.115  -3.044  0.00  0.00     0.078 C 
ATOM      3  C1  OXE d   1      -4.047  -3.445  -3.852  0.00  0.00    -0.078 A 
ATOM      4  C2  OXE d   1      -4.022  -3.623  -5.214  0.00  0.00    -0.078 A 
ATOM      5  C3  OXE d   1      -5.030  -3.072  -6.000  0.00  0.00     0.003 A 
ATOM      6  C4  OXE d   1      -5.980  -2.212  -5.434  0.00  0.00    -0.002 A 
ATOM      7  C5  OXE d   1      -5.999  -1.985  -4.054  0.00  0.00    -0.002 A 
ATOM      8  C6  OXE d   1      -5.068  -2.626  -3.245  0.00  0.00     0.003 A 
ENDROOT
TORSDOF 0
ENDMDL
