MODEL 1
REMARK minimizedAffinity 0.910449147
REMARK minimizedRMSD -1
REMARK  0 active torsions:
REMARK  status: ('A' for Active; 'I' for Inactive)
ROOT
ATOM      1  C2' OXE d   1      -2.603  -4.496  -2.456  0.00  0.00     0.078 C 
ATOM      2  C1' OXE d   1      -1.846  -5.998  -4.703  0.00  0.00     0.078 C 
ATOM      3  C1  OXE d   1      -3.107  -5.176  -4.799  0.00  0.00    -0.078 A 
ATOM      4  C2  OXE d   1      -3.495  -4.481  -3.679  0.00  0.00    -0.078 A 
ATOM      5  C3  OXE d   1      -4.621  -3.664  -3.730  0.00  0.00     0.003 A 
ATOM      6  C4  OXE d   1      -5.446  -3.665  -4.861  0.00  0.00    -0.002 A 
ATOM      7  C5  OXE d   1      -5.090  -4.397  -5.999  0.00  0.00    -0.002 A 
ATOM      8  C6  OXE d   1      -3.904  -5.123  -5.999  0.00  0.00     0.003 A 
ENDROOT
TORSDOF 0
ENDMDL
