MODEL 1
REMARK minimizedAffinity 0.649250209
REMARK minimizedRMSD -1
REMARK  0 active torsions:
REMARK  status: ('A' for Active; 'I' for Inactive)
ROOT
ATOM      1  C2' OXE d   1      -2.210  -4.482  -2.580  0.00  0.00     0.078 C 
ATOM      2  C1' OXE d   1      -1.250  -6.000  -4.738  0.00  0.00     0.078 C 
ATOM      3  C1  OXE d   1      -2.648  -5.441  -4.837  0.00  0.00    -0.078 A 
ATOM      4  C2  OXE d   1      -3.126  -4.739  -3.757  0.00  0.00    -0.078 A 
ATOM      5  C3  OXE d   1      -4.389  -4.157  -3.818  0.00  0.00     0.003 A 
ATOM      6  C4  OXE d   1      -5.234  -4.408  -4.906  0.00  0.00    -0.002 A 
ATOM      7  C5  OXE d   1      -4.780  -5.154  -6.000  0.00  0.00    -0.002 A 
ATOM      8  C6  OXE d   1      -3.478  -5.641  -5.999  0.00  0.00     0.003 A 
ENDROOT
TORSDOF 0
ENDMDL
