MODEL 1
REMARK minimizedAffinity -1.15846908
REMARK minimizedRMSD -1
REMARK  0 active torsions:
REMARK  status: ('A' for Active; 'I' for Inactive)
ROOT
ATOM      1  C2' OXE d   1      -4.362  -3.779  -5.995  0.00  0.00     0.078 C 
ATOM      2  C1' OXE d   1      -4.496  -3.896  -3.194  0.00  0.00     0.078 C 
ATOM      3  C1  OXE d   1      -3.353  -4.607  -3.874  0.00  0.00    -0.078 A 
ATOM      4  C2  OXE d   1      -3.321  -4.584  -5.247  0.00  0.00    -0.078 A 
ATOM      5  C3  OXE d   1      -2.259  -5.178  -5.922  0.00  0.00     0.003 A 
ATOM      6  C4  OXE d   1      -1.306  -5.929  -5.223  0.00  0.00    -0.002 A 
ATOM      7  C5  OXE d   1      -1.342  -5.999  -3.827  0.00  0.00    -0.002 A 
ATOM      8  C6  OXE d   1      -2.333  -5.310  -3.135  0.00  0.00     0.003 A 
ENDROOT
TORSDOF 0
ENDMDL
