MODEL 1
REMARK minimizedAffinity -1.87078047
REMARK minimizedRMSD -1
REMARK  0 active torsions:
REMARK  status: ('A' for Active; 'I' for Inactive)
ROOT
ATOM      1  C2' OXE d   1      -1.571  -5.251  -4.919  0.00  0.00     0.078 C 
ATOM      2  C1' OXE d   1      -2.989  -4.419  -2.644  0.00  0.00     0.078 C 
ATOM      3  C1  OXE d   1      -3.779  -4.984  -3.798  0.00  0.00    -0.078 A 
ATOM      4  C2  OXE d   1      -3.081  -5.345  -4.925  0.00  0.00    -0.078 A 
ATOM      5  C3  OXE d   1      -3.755  -5.923  -5.998  0.00  0.00     0.003 A 
ATOM      6  C4  OXE d   1      -5.153  -5.997  -5.999  0.00  0.00    -0.002 A 
ATOM      7  C5  OXE d   1      -5.887  -5.598  -4.877  0.00  0.00    -0.002 A 
ATOM      8  C6  OXE d   1      -5.213  -5.130  -3.754  0.00  0.00     0.003 A 
ENDROOT
TORSDOF 0
ENDMDL
