MODEL 1
REMARK minimizedAffinity 2.09187174
REMARK minimizedRMSD -1
REMARK  0 active torsions:
REMARK  status: ('A' for Active; 'I' for Inactive)
ROOT
ATOM      1  C2' OXE d   1      -1.794  -3.119   1.603  0.00  0.00     0.078 C 
ATOM      2  C1' OXE d   1      -2.900  -0.748   2.620  0.00  0.00     0.078 C 
ATOM      3  C1  OXE d   1      -1.641  -0.640   1.797  0.00  0.00    -0.078 A 
ATOM      4  C2  OXE d   1      -1.081  -1.810   1.342  0.00  0.00    -0.078 A 
ATOM      5  C3  OXE d   1       0.051  -1.764   0.532  0.00  0.00     0.003 A 
ATOM      6  C4  OXE d   1       0.710  -0.550   0.305  0.00  0.00    -0.002 A 
ATOM      7  C5  OXE d   1       0.178   0.649   0.792  0.00  0.00    -0.002 A 
ATOM      8  C6  OXE d   1      -1.017   0.626   1.502  0.00  0.00     0.003 A 
ENDROOT
TORSDOF 0
ENDMDL
