MODEL 1
REMARK minimizedAffinity 0.821644843
REMARK minimizedRMSD -1
REMARK  0 active torsions:
REMARK  status: ('A' for Active; 'I' for Inactive)
ROOT
ATOM      1  C2' OXE d   1      -0.722  -5.959  -5.129  0.00  0.00     0.078 C 
ATOM      2  C1' OXE d   1      -1.565  -4.349  -2.989  0.00  0.00     0.078 C 
ATOM      3  C1  OXE d   1      -2.601  -4.776  -3.999  0.00  0.00    -0.078 A 
ATOM      4  C2  OXE d   1      -2.170  -5.525  -5.068  0.00  0.00    -0.078 A 
ATOM      5  C3  OXE d   1      -3.094  -5.991  -6.000  0.00  0.00     0.003 A 
ATOM      6  C4  OXE d   1      -4.430  -5.577  -5.942  0.00  0.00    -0.002 A 
ATOM      7  C5  OXE d   1      -4.881  -4.781  -4.883  0.00  0.00    -0.002 A 
ATOM      8  C6  OXE d   1      -3.990  -4.408  -3.883  0.00  0.00     0.003 A 
ENDROOT
TORSDOF 0
ENDMDL
