MODEL 1
REMARK minimizedAffinity -1.05845511
REMARK minimizedRMSD -1
REMARK  0 active torsions:
REMARK  status: ('A' for Active; 'I' for Inactive)
ROOT
ATOM      1  C2' OXE d   1      -3.893  -0.618  -1.875  0.00  0.00     0.078 C 
ATOM      2  C1' OXE d   1      -2.433   1.594  -0.948  0.00  0.00     0.078 C 
ATOM      3  C1  OXE d   1      -2.509   0.378  -0.059  0.00  0.00    -0.078 A 
ATOM      4  C2  OXE d   1      -3.264  -0.682  -0.500  0.00  0.00    -0.078 A 
ATOM      5  C3  OXE d   1      -3.322  -1.849   0.257  0.00  0.00     0.003 A 
ATOM      6  C4  OXE d   1      -2.746  -1.896   1.532  0.00  0.00    -0.002 A 
ATOM      7  C5  OXE d   1      -2.006  -0.813   2.018  0.00  0.00    -0.002 A 
ATOM      8  C6  OXE d   1      -1.843   0.313   1.219  0.00  0.00     0.003 A 
ENDROOT
TORSDOF 0
ENDMDL
