MODEL 1
REMARK minimizedAffinity 1.79237711
REMARK minimizedRMSD -1
REMARK  0 active torsions:
REMARK  status: ('A' for Active; 'I' for Inactive)
ROOT
ATOM      1  C2' OXE d   1      -5.999  -4.170  -5.893  0.00  0.00     0.078 C 
ATOM      2  C1' OXE d   1      -4.723  -2.565  -3.976  0.00  0.00     0.078 C 
ATOM      3  C1  OXE d   1      -3.963  -3.749  -4.521  0.00  0.00    -0.078 A 
ATOM      4  C2  OXE d   1      -4.613  -4.556  -5.423  0.00  0.00    -0.078 A 
ATOM      5  C3  OXE d   1      -3.939  -5.630  -5.998  0.00  0.00     0.003 A 
ATOM      6  C4  OXE d   1      -2.661  -5.985  -5.551  0.00  0.00    -0.002 A 
ATOM      7  C5  OXE d   1      -1.996  -5.200  -4.603  0.00  0.00    -0.002 A 
ATOM      8  C6  OXE d   1      -2.615  -4.056  -4.111  0.00  0.00     0.003 A 
ENDROOT
TORSDOF 0
ENDMDL
