MODEL 1
REMARK minimizedAffinity -1.70653272
REMARK minimizedRMSD -1
REMARK  0 active torsions:
REMARK  status: ('A' for Active; 'I' for Inactive)
ROOT
ATOM      1  C2' OXE d   1      -1.132  -5.960  -4.833  0.00  0.00     0.078 C 
ATOM      2  C1' OXE d   1      -2.218  -5.179  -2.366  0.00  0.00     0.078 C 
ATOM      3  C1  OXE d   1      -3.000  -4.852  -3.613  0.00  0.00    -0.078 A 
ATOM      4  C2  OXE d   1      -2.439  -5.196  -4.819  0.00  0.00    -0.078 A 
ATOM      5  C3  OXE d   1      -3.143  -4.967  -5.998  0.00  0.00     0.003 A 
ATOM      6  C4  OXE d   1      -4.346  -4.251  -5.977  0.00  0.00    -0.002 A 
ATOM      7  C5  OXE d   1      -4.916  -3.856  -4.762  0.00  0.00    -0.002 A 
ATOM      8  C6  OXE d   1      -4.278  -4.186  -3.571  0.00  0.00     0.003 A 
ENDROOT
TORSDOF 0
ENDMDL
