MODEL 1
REMARK minimizedAffinity 0.0567940883
REMARK minimizedRMSD -1
REMARK  0 active torsions:
REMARK  status: ('A' for Active; 'I' for Inactive)
ROOT
ATOM      1  C2' OXE d   1      -2.780  -4.080  -2.974  0.00  0.00     0.078 C 
ATOM      2  C1' OXE d   1      -2.703  -6.000  -5.020  0.00  0.00     0.078 C 
ATOM      3  C1  OXE d   1      -3.866  -5.041  -4.999  0.00  0.00    -0.078 A 
ATOM      4  C2  OXE d   1      -3.920  -4.135  -3.967  0.00  0.00    -0.078 A 
ATOM      5  C3  OXE d   1      -4.943  -3.192  -3.931  0.00  0.00     0.003 A 
ATOM      6  C4  OXE d   1      -5.999  -3.255  -4.847  0.00  0.00    -0.002 A 
ATOM      7  C5  OXE d   1      -5.984  -4.196  -5.883  0.00  0.00    -0.002 A 
ATOM      8  C6  OXE d   1      -4.906  -5.066  -5.998  0.00  0.00     0.003 A 
ENDROOT
TORSDOF 0
ENDMDL
