MODEL 1
REMARK minimizedAffinity 8.97469044
REMARK minimizedRMSD -1
REMARK  0 active torsions:
REMARK  status: ('A' for Active; 'I' for Inactive)
ROOT
ATOM      1  C2' OXE d   1      -3.198  -1.179  -5.996  0.00  0.00     0.078 C 
ATOM      2  C1' OXE d   1      -5.996  -1.188  -5.767  0.00  0.00     0.078 C 
ATOM      3  C1  OXE d   1      -5.291  -2.520  -5.822  0.00  0.00    -0.078 A 
ATOM      4  C2  OXE d   1      -3.926  -2.506  -5.981  0.00  0.00    -0.078 A 
ATOM      5  C3  OXE d   1      -3.220  -3.706  -5.983  0.00  0.00     0.003 A 
ATOM      6  C4  OXE d   1      -3.902  -4.929  -5.979  0.00  0.00    -0.002 A 
ATOM      7  C5  OXE d   1      -5.295  -4.965  -5.858  0.00  0.00    -0.002 A 
ATOM      8  C6  OXE d   1      -5.999  -3.773  -5.736  0.00  0.00     0.003 A 
ENDROOT
TORSDOF 0
ENDMDL
