MODEL 1
REMARK minimizedAffinity -0.897430241
REMARK minimizedRMSD -1
REMARK  0 active torsions:
REMARK  status: ('A' for Active; 'I' for Inactive)
ROOT
ATOM      1  C2' OXE d   1      -1.875  -5.999  -5.083  0.00  0.00     0.078 C 
ATOM      2  C1' OXE d   1      -2.637  -4.134  -3.128  0.00  0.00     0.078 C 
ATOM      3  C1  OXE d   1      -3.686  -4.592  -4.110  0.00  0.00    -0.078 A 
ATOM      4  C2  OXE d   1      -3.292  -5.469  -5.092  0.00  0.00    -0.078 A 
ATOM      5  C3  OXE d   1      -4.233  -5.965  -5.991  0.00  0.00     0.003 A 
ATOM      6  C4  OXE d   1      -5.539  -5.462  -5.999  0.00  0.00    -0.002 A 
ATOM      7  C5  OXE d   1      -5.951  -4.538  -5.032  0.00  0.00    -0.002 A 
ATOM      8  C6  OXE d   1      -5.049  -4.126  -4.057  0.00  0.00     0.003 A 
ENDROOT
TORSDOF 0
ENDMDL
