MODEL 1
REMARK minimizedAffinity -2.89637923
REMARK minimizedRMSD -1
REMARK  0 active torsions:
REMARK  status: ('A' for Active; 'I' for Inactive)
ROOT
ATOM      1  C2' OXE d   1      -3.750  -1.819  -4.891  0.00  0.00     0.078 C 
ATOM      2  C1' OXE d   1      -5.797  -3.389  -5.997  0.00  0.00     0.078 C 
ATOM      3  C1  OXE d   1      -4.468  -4.052  -5.731  0.00  0.00    -0.078 A 
ATOM      4  C2  OXE d   1      -3.458  -3.264  -5.233  0.00  0.00    -0.078 A 
ATOM      5  C3  OXE d   1      -2.229  -3.837  -4.918  0.00  0.00     0.003 A 
ATOM      6  C4  OXE d   1      -1.965  -5.172  -5.246  0.00  0.00    -0.002 A 
ATOM      7  C5  OXE d   1      -2.967  -5.982  -5.791  0.00  0.00    -0.002 A 
ATOM      8  C6  OXE d   1      -4.235  -5.449  -5.999  0.00  0.00     0.003 A 
ENDROOT
TORSDOF 0
ENDMDL
