MODEL 1
REMARK minimizedAffinity 0.465147287
REMARK minimizedRMSD -1
REMARK  0 active torsions:
REMARK  status: ('A' for Active; 'I' for Inactive)
ROOT
ATOM      1  C2' OXE d   1      -2.386  -5.967  -4.945  0.00  0.00     0.078 C 
ATOM      2  C1' OXE d   1      -2.999  -4.536  -2.609  0.00  0.00     0.078 C 
ATOM      3  C1  OXE d   1      -3.961  -4.439  -3.766  0.00  0.00    -0.078 A 
ATOM      4  C2  OXE d   1      -3.630  -5.105  -4.921  0.00  0.00    -0.078 A 
ATOM      5  C3  OXE d   1      -4.510  -5.093  -6.000  0.00  0.00     0.003 A 
ATOM      6  C4  OXE d   1      -5.654  -4.286  -5.973  0.00  0.00    -0.002 A 
ATOM      7  C5  OXE d   1      -5.989  -3.568  -4.820  0.00  0.00    -0.002 A 
ATOM      8  C6  OXE d   1      -5.178  -3.667  -3.695  0.00  0.00     0.003 A 
ENDROOT
TORSDOF 0
ENDMDL
