MODEL 1
REMARK minimizedAffinity 3.39242268
REMARK minimizedRMSD -1
REMARK  0 active torsions:
REMARK  status: ('A' for Active; 'I' for Inactive)
ROOT
ATOM      1  C2' OXE d   1      -3.020  -5.996  -3.359  0.00  0.00     0.078 C 
ATOM      2  C1' OXE d   1      -2.311  -5.351  -5.997  0.00  0.00     0.078 C 
ATOM      3  C1  OXE d   1      -3.384  -4.524  -5.335  0.00  0.00    -0.078 A 
ATOM      4  C2  OXE d   1      -3.758  -4.876  -4.061  0.00  0.00    -0.078 A 
ATOM      5  C3  OXE d   1      -4.704  -4.112  -3.384  0.00  0.00     0.003 A 
ATOM      6  C4  OXE d   1      -5.388  -3.084  -4.043  0.00  0.00    -0.002 A 
ATOM      7  C5  OXE d   1      -5.051  -2.734  -5.355  0.00  0.00    -0.002 A 
ATOM      8  C6  OXE d   1      -4.024  -3.415  -5.999  0.00  0.00     0.003 A 
ENDROOT
TORSDOF 0
ENDMDL
