MODEL 1
REMARK minimizedAffinity 2.35213113
REMARK minimizedRMSD -1
REMARK  0 active torsions:
REMARK  status: ('A' for Active; 'I' for Inactive)
ROOT
ATOM      1  C2' OXE d   1      -6.000  -1.382  -3.010  0.00  0.00     0.078 C 
ATOM      2  C1' OXE d   1      -5.946  -1.883  -5.772  0.00  0.00     0.078 C 
ATOM      3  C1  OXE d   1      -4.856  -1.016  -5.193  0.00  0.00    -0.078 A 
ATOM      4  C2  OXE d   1      -4.917  -0.738  -3.848  0.00  0.00    -0.078 A 
ATOM      5  C3  OXE d   1      -3.906   0.012  -3.253  0.00  0.00     0.003 A 
ATOM      6  C4  OXE d   1      -2.914   0.613  -4.037  0.00  0.00    -0.002 A 
ATOM      7  C5  OXE d   1      -2.857   0.375  -5.415  0.00  0.00    -0.002 A 
ATOM      8  C6  OXE d   1      -3.793  -0.470  -6.000  0.00  0.00     0.003 A 
ENDROOT
TORSDOF 0
ENDMDL
