MODEL 1
REMARK minimizedAffinity -5.83340359
REMARK minimizedRMSD -1
REMARK  0 active torsions:
REMARK  status: ('A' for Active; 'I' for Inactive)
ROOT
ATOM      1  C   UNL d   1       3.350  -0.731   0.645  0.00  0.00     0.020 A 
ATOM      2  C1  UNL d   1       2.919   0.548   0.995  0.00  0.00     0.020 A 
ATOM      3  C2  UNL d   1       1.593   0.925   0.767  0.00  0.00     0.034 A 
ATOM      4  C3  UNL d   1       0.695   0.022   0.188  0.00  0.00     0.017 A 
ATOM      5  C4  UNL d   1       1.128  -1.262  -0.163  0.00  0.00     0.017 A 
ATOM      6  C5  UNL d   1       2.456  -1.634   0.067  0.00  0.00     0.034 A 
ATOM      7 Cl   UNL d   1       0.078  -2.431  -0.883  0.00  0.00    -0.070 Cl
ATOM      8 Cl1  UNL d   1      -0.929   0.555  -0.065  0.00  0.00    -0.070 Cl
ENDROOT
TORSDOF 0
ENDMDL
