MODEL 1
REMARK minimizedAffinity -1.34075797
REMARK minimizedRMSD -1
REMARK  0 active torsions:
REMARK  status: ('A' for Active; 'I' for Inactive)
ROOT
ATOM      1  C   UNL d   1       1.867  -2.563  -0.720  0.00  0.00     0.020 A 
ATOM      2  C1  UNL d   1       0.497  -2.307  -0.762  0.00  0.00     0.020 A 
ATOM      3  C2  UNL d   1       0.026  -0.999  -0.632  0.00  0.00     0.034 A 
ATOM      4  C3  UNL d   1       0.926   0.059  -0.460  0.00  0.00     0.017 A 
ATOM      5  C4  UNL d   1       2.301  -0.198  -0.418  0.00  0.00     0.017 A 
ATOM      6  C5  UNL d   1       2.767  -1.510  -0.549  0.00  0.00     0.034 A 
ATOM      7 Cl   UNL d   1       3.473   1.055  -0.209  0.00  0.00    -0.070 Cl
ATOM      8 Cl1  UNL d   1       0.274   1.652  -0.307  0.00  0.00    -0.070 Cl
ENDROOT
TORSDOF 0
ENDMDL
