MODEL 1
REMARK minimizedAffinity -4.55721235
REMARK minimizedRMSD -1
REMARK  0 active torsions:
REMARK  status: ('A' for Active; 'I' for Inactive)
ROOT
ATOM      1  C   UNL d   1       2.096  -2.028   0.093  0.00  0.00     0.020 A 
ATOM      2  C1  UNL d   1       0.846  -2.320  -0.450  0.00  0.00     0.020 A 
ATOM      3  C2  UNL d   1      -0.117  -1.315  -0.569  0.00  0.00     0.034 A 
ATOM      4  C3  UNL d   1       0.170  -0.013  -0.145  0.00  0.00     0.017 A 
ATOM      5  C4  UNL d   1       1.425   0.280   0.401  0.00  0.00     0.017 A 
ATOM      6  C5  UNL d   1       2.385  -0.730   0.517  0.00  0.00     0.034 A 
ATOM      7 Cl   UNL d   1       1.852   1.863   0.946  0.00  0.00    -0.070 Cl
ATOM      8 Cl1  UNL d   1      -1.067   1.181  -0.322  0.00  0.00    -0.070 Cl
ENDROOT
TORSDOF 0
ENDMDL
