MODEL 1
REMARK minimizedAffinity -5.13603973
REMARK minimizedRMSD -1
REMARK  0 active torsions:
REMARK  status: ('A' for Active; 'I' for Inactive)
ROOT
ATOM      1  C   UNL d   1       2.743  -1.389   0.665  0.00  0.00     0.020 A 
ATOM      2  C1  UNL d   1       2.543  -0.073   1.081  0.00  0.00     0.020 A 
ATOM      3  C2  UNL d   1       1.340   0.574   0.792  0.00  0.00     0.034 A 
ATOM      4  C3  UNL d   1       0.333  -0.093   0.085  0.00  0.00     0.017 A 
ATOM      5  C4  UNL d   1       0.536  -1.413  -0.333  0.00  0.00     0.017 A 
ATOM      6  C5  UNL d   1       1.742  -2.057  -0.041  0.00  0.00     0.034 A 
ATOM      7 Cl   UNL d   1      -0.660  -2.302  -1.210  0.00  0.00    -0.070 Cl
ATOM      8 Cl1  UNL d   1      -1.129   0.769  -0.237  0.00  0.00    -0.070 Cl
ENDROOT
TORSDOF 0
ENDMDL
