MODEL 1
REMARK minimizedAffinity -2.7914741
REMARK minimizedRMSD -1
REMARK  0 active torsions:
REMARK  status: ('A' for Active; 'I' for Inactive)
ROOT
ATOM      1  C   UNL d   1       0.518  -2.406  -0.484  0.00  0.00     0.020 A 
ATOM      2  C1  UNL d   1       1.824  -2.137  -0.076  0.00  0.00     0.020 A 
ATOM      3  C2  UNL d   1       2.168  -0.856   0.362  0.00  0.00     0.034 A 
ATOM      4  C3  UNL d   1       1.206   0.160   0.392  0.00  0.00     0.017 A 
ATOM      5  C4  UNL d   1      -0.104  -0.112  -0.018  0.00  0.00     0.017 A 
ATOM      6  C5  UNL d   1      -0.443  -1.396  -0.456  0.00  0.00     0.034 A 
ATOM      7 Cl   UNL d   1      -1.346   1.091  -0.009  0.00  0.00    -0.070 Cl
ATOM      8 Cl1  UNL d   1       1.702   1.720   0.945  0.00  0.00    -0.070 Cl
ENDROOT
TORSDOF 0
ENDMDL
