MODEL 1
REMARK minimizedAffinity -2.81013608
REMARK minimizedRMSD -1
REMARK  0 active torsions:
REMARK  status: ('A' for Active; 'I' for Inactive)
ROOT
ATOM      1  C   UNL d   1       1.018  -1.868  -0.139  0.00  0.00     0.020 A 
ATOM      2  C1  UNL d   1      -0.288  -1.968  -0.618  0.00  0.00     0.020 A 
ATOM      3  C2  UNL d   1      -1.042  -0.814  -0.838  0.00  0.00     0.034 A 
ATOM      4  C3  UNL d   1      -0.491   0.447  -0.578  0.00  0.00     0.017 A 
ATOM      5  C4  UNL d   1       0.819   0.546  -0.097  0.00  0.00     0.017 A 
ATOM      6  C5  UNL d   1       1.570  -0.613   0.121  0.00  0.00     0.034 A 
ATOM      7 Cl   UNL d   1       1.567   2.066   0.246  0.00  0.00    -0.070 Cl
ATOM      8 Cl1  UNL d   1      -1.481   1.832  -0.873  0.00  0.00    -0.070 Cl
ENDROOT
TORSDOF 0
ENDMDL
