MODEL 1
REMARK minimizedAffinity -0.69751811
REMARK minimizedRMSD -1
REMARK  0 active torsions:
REMARK  status: ('A' for Active; 'I' for Inactive)
ROOT
ATOM      1  C   UNL d   1      -4.238   1.343   0.967  0.00  0.00     0.020 A 
ATOM      2  C1  UNL d   1      -4.063  -0.039   1.032  0.00  0.00     0.020 A 
ATOM      3  C2  UNL d   1      -2.925  -0.625   0.473  0.00  0.00     0.034 A 
ATOM      4  C3  UNL d   1      -1.959   0.170  -0.154  0.00  0.00     0.017 A 
ATOM      5  C4  UNL d   1      -2.137   1.557  -0.219  0.00  0.00     0.017 A 
ATOM      6  C5  UNL d   1      -3.277   2.139   0.342  0.00  0.00     0.034 A 
ATOM      7 Cl   UNL d   1      -0.988   2.603  -0.976  0.00  0.00    -0.070 Cl
ATOM      8 Cl1  UNL d   1      -0.577  -0.623  -0.823  0.00  0.00    -0.070 Cl
ENDROOT
TORSDOF 0
ENDMDL
