MODEL 1
REMARK minimizedAffinity -0.471970171
REMARK minimizedRMSD -1
REMARK  0 active torsions:
REMARK  status: ('A' for Active; 'I' for Inactive)
ROOT
ATOM      1  C   UNL d   1      -0.804   0.059   0.890  0.00  0.00     0.020 A 
ATOM      2  C1  UNL d   1      -1.187  -0.819  -0.124  0.00  0.00     0.020 A 
ATOM      3  C2  UNL d   1      -0.216  -1.462  -0.894  0.00  0.00     0.034 A 
ATOM      4  C3  UNL d   1       1.142  -1.229  -0.651  0.00  0.00     0.017 A 
ATOM      5  C4  UNL d   1       1.526  -0.348   0.366  0.00  0.00     0.017 A 
ATOM      6  C5  UNL d   1       0.549   0.293   1.134  0.00  0.00     0.034 A 
ATOM      7 Cl   UNL d   1       3.183  -0.011   0.725  0.00  0.00    -0.070 Cl
ATOM      8 Cl1  UNL d   1       2.289  -2.060  -1.642  0.00  0.00    -0.070 Cl
ENDROOT
TORSDOF 0
ENDMDL
