MODEL 1
REMARK minimizedAffinity -4.84253931
REMARK minimizedRMSD -1
REMARK  0 active torsions:
REMARK  status: ('A' for Active; 'I' for Inactive)
ROOT
ATOM      1  C   UNL d   1       2.492  -0.160   1.064  0.00  0.00     0.020 A 
ATOM      2  C1  UNL d   1       2.955  -1.191   0.248  0.00  0.00     0.020 A 
ATOM      3  C2  UNL d   1       2.082  -1.826  -0.639  0.00  0.00     0.034 A 
ATOM      4  C3  UNL d   1       0.742  -1.429  -0.712  0.00  0.00     0.017 A 
ATOM      5  C4  UNL d   1       0.278  -0.394   0.108  0.00  0.00     0.017 A 
ATOM      6  C5  UNL d   1       1.156   0.238   0.994  0.00  0.00     0.034 A 
ATOM      7 Cl   UNL d   1      -1.362   0.150   0.074  0.00  0.00    -0.070 Cl
ATOM      8 Cl1  UNL d   1      -0.281  -2.257  -1.832  0.00  0.00    -0.070 Cl
ENDROOT
TORSDOF 0
ENDMDL
