MODEL 1
REMARK minimizedAffinity -1.20635533
REMARK minimizedRMSD -1
REMARK  0 active torsions:
REMARK  status: ('A' for Active; 'I' for Inactive)
ROOT
ATOM      1  C   UNL d   1       2.206  -2.490  -0.369  0.00  0.00     0.020 A 
ATOM      2  C1  UNL d   1       0.901  -2.941  -0.562  0.00  0.00     0.020 A 
ATOM      3  C2  UNL d   1      -0.162  -2.035  -0.527  0.00  0.00     0.034 A 
ATOM      4  C3  UNL d   1       0.078  -0.676  -0.298  0.00  0.00     0.017 A 
ATOM      5  C4  UNL d   1       1.389  -0.225  -0.104  0.00  0.00     0.017 A 
ATOM      6  C5  UNL d   1       2.450  -1.136  -0.141  0.00  0.00     0.034 A 
ATOM      7 Cl   UNL d   1       1.765   1.437   0.183  0.00  0.00    -0.070 Cl
ATOM      8 Cl1  UNL d   1      -1.284   0.387  -0.267  0.00  0.00    -0.070 Cl
ENDROOT
TORSDOF 0
ENDMDL
