MODEL 1
REMARK minimizedAffinity -3.16432261
REMARK minimizedRMSD -1
REMARK  0 active torsions:
REMARK  status: ('A' for Active; 'I' for Inactive)
ROOT
ATOM      1  C   UNL d   1       2.061   0.122   0.556  0.00  0.00     0.020 A 
ATOM      2  C1  UNL d   1       1.817   1.487   0.415  0.00  0.00     0.020 A 
ATOM      3  C2  UNL d   1       0.545   1.936   0.053  0.00  0.00     0.034 A 
ATOM      4  C3  UNL d   1      -0.488   1.018  -0.168  0.00  0.00     0.017 A 
ATOM      5  C4  UNL d   1      -0.242  -0.353  -0.026  0.00  0.00     0.017 A 
ATOM      6  C5  UNL d   1       1.033  -0.796   0.336  0.00  0.00     0.034 A 
ATOM      7 Cl   UNL d   1      -1.467  -1.545  -0.283  0.00  0.00    -0.070 Cl
ATOM      8 Cl1  UNL d   1      -2.036   1.643  -0.613  0.00  0.00    -0.070 Cl
ENDROOT
TORSDOF 0
ENDMDL
