MODEL 1
REMARK minimizedAffinity -1.16820705
REMARK minimizedRMSD -1
REMARK  0 active torsions:
REMARK  status: ('A' for Active; 'I' for Inactive)
ROOT
ATOM      1  C   UNL d   1       1.542  -3.748  -0.922  0.00  0.00     0.020 A 
ATOM      2  C1  UNL d   1       0.204  -3.733  -1.315  0.00  0.00     0.020 A 
ATOM      3  C2  UNL d   1      -0.451  -2.516  -1.512  0.00  0.00     0.034 A 
ATOM      4  C3  UNL d   1       0.230  -1.309  -1.316  0.00  0.00     0.017 A 
ATOM      5  C4  UNL d   1       1.573  -1.326  -0.922  0.00  0.00     0.017 A 
ATOM      6  C5  UNL d   1       2.225  -2.547  -0.726  0.00  0.00     0.034 A 
ATOM      7 Cl   UNL d   1       2.480   0.122  -0.661  0.00  0.00    -0.070 Cl
ATOM      8 Cl1  UNL d   1      -0.643   0.159  -1.578  0.00  0.00    -0.070 Cl
ENDROOT
TORSDOF 0
ENDMDL
