MODEL 1
REMARK minimizedAffinity -2.83077884
REMARK minimizedRMSD -1
REMARK  1 active torsions:
REMARK  status: ('A' for Active; 'I' for Inactive)
REMARK    1  A    between atoms: C3_4  and  O_7 
ROOT
ATOM      1  C   UNL d   1      -4.125   1.371   1.019  0.00  0.00    -0.033 A 
ATOM      2  C1  UNL d   1      -3.131   1.632   1.963  0.00  0.00     0.039 A 
ATOM      3  C2  UNL d   1      -1.788   1.421   1.642  0.00  0.00    -0.080 A 
ATOM      4  C3  UNL d   1      -1.455   0.951   0.374  0.00  0.00     0.150 A 
ATOM      5  C4  UNL d   1      -2.441   0.693  -0.572  0.00  0.00    -0.007 A 
ATOM      6  C5  UNL d   1      -3.780   0.903  -0.249  0.00  0.00     0.039 A 
ENDROOT
BRANCH   4   7
ATOM      7  O   UNL d   1      -0.159   0.725   0.016  0.00  0.00    -0.526 OA
ATOM      8  H5  UNL d   1       0.410   0.920   0.780  0.00  0.00     0.418 HD
ENDBRANCH   4   7
TORSDOF 1
ENDMDL
