MODEL 1
REMARK minimizedAffinity -4.34325504
REMARK minimizedRMSD -1
REMARK  1 active torsions:
REMARK  status: ('A' for Active; 'I' for Inactive)
REMARK    1  A    between atoms: C3_4  and  O_7 
ROOT
ATOM      1  C   UNL d   1      -0.917   0.477  -1.351  0.00  0.00    -0.033 A 
ATOM      2  C1  UNL d   1      -0.244  -0.086  -0.265  0.00  0.00     0.039 A 
ATOM      3  C2  UNL d   1      -0.739   0.083   1.030  0.00  0.00    -0.080 A 
ATOM      4  C3  UNL d   1      -1.907   0.814   1.224  0.00  0.00     0.150 A 
ATOM      5  C4  UNL d   1      -2.585   1.375   0.147  0.00  0.00    -0.007 A 
ATOM      6  C5  UNL d   1      -2.088   1.206  -1.145  0.00  0.00     0.039 A 
ENDROOT
BRANCH   4   7
ATOM      7  O   UNL d   1      -2.426   1.010   2.469  0.00  0.00    -0.526 OA
ATOM      8  H5  UNL d   1      -1.837   0.590   3.118  0.00  0.00     0.418 HD
ENDBRANCH   4   7
TORSDOF 1
ENDMDL
