MODEL 1
REMARK minimizedAffinity -4.42948818
REMARK minimizedRMSD -1
REMARK  1 active torsions:
REMARK  status: ('A' for Active; 'I' for Inactive)
REMARK    1  A    between atoms: C3_4  and  O_7 
ROOT
ATOM      1  C   UNL d   1      -0.430   0.504  -0.793  0.00  0.00    -0.033 A 
ATOM      2  C1  UNL d   1       0.461   1.201   0.026  0.00  0.00     0.039 A 
ATOM      3  C2  UNL d   1       1.514   0.527   0.647  0.00  0.00    -0.080 A 
ATOM      4  C3  UNL d   1       1.666  -0.842   0.441  0.00  0.00     0.150 A 
ATOM      5  C4  UNL d   1       0.784  -1.541  -0.377  0.00  0.00    -0.007 A 
ATOM      6  C5  UNL d   1      -0.267  -0.866  -0.996  0.00  0.00     0.039 A 
ENDROOT
BRANCH   4   7
ATOM      7  O   UNL d   1       2.675  -1.544   1.030  0.00  0.00    -0.526 OA
ATOM      8  H5  UNL d   1       3.187  -0.936   1.588  0.00  0.00     0.418 HD
ENDBRANCH   4   7
TORSDOF 1
ENDMDL
