MODEL 1
REMARK minimizedAffinity -4.4623189
REMARK minimizedRMSD -1
REMARK  1 active torsions:
REMARK  status: ('A' for Active; 'I' for Inactive)
REMARK    1  A    between atoms: C3_4  and  O_7 
ROOT
ATOM      1  C   UNL d   1       3.386   0.005  -0.127  0.00  0.00    -0.033 A 
ATOM      2  C1  UNL d   1       2.922   1.320  -0.069  0.00  0.00     0.039 A 
ATOM      3  C2  UNL d   1       1.556   1.586  -0.182  0.00  0.00    -0.080 A 
ATOM      4  C3  UNL d   1       0.666   0.529  -0.349  0.00  0.00     0.150 A 
ATOM      5  C4  UNL d   1       1.121  -0.784  -0.403  0.00  0.00    -0.007 A 
ATOM      6  C5  UNL d   1       2.485  -1.048  -0.292  0.00  0.00     0.039 A 
ENDROOT
BRANCH   4   7
ATOM      7  O   UNL d   1      -0.676   0.739  -0.468  0.00  0.00    -0.526 OA
ATOM      8  H5  UNL d   1      -0.841   1.696  -0.441  0.00  0.00     0.418 HD
ENDBRANCH   4   7
TORSDOF 1
ENDMDL
