MODEL 1
REMARK minimizedAffinity -3.78018451
REMARK minimizedRMSD -1
REMARK  1 active torsions:
REMARK  status: ('A' for Active; 'I' for Inactive)
REMARK    1  A    between atoms: C3_4  and  O_7 
ROOT
ATOM      1  C   UNL d   1      -0.047  -0.688   0.018  0.00  0.00    -0.033 A 
ATOM      2  C1  UNL d   1       1.137  -0.068   0.422  0.00  0.00     0.039 A 
ATOM      3  C2  UNL d   1       1.337   1.291   0.173  0.00  0.00    -0.080 A 
ATOM      4  C3  UNL d   1       0.345   2.019  -0.479  0.00  0.00     0.150 A 
ATOM      5  C4  UNL d   1      -0.839   1.409  -0.881  0.00  0.00    -0.007 A 
ATOM      6  C5  UNL d   1      -1.036   0.052  -0.632  0.00  0.00     0.039 A 
ENDROOT
BRANCH   4   7
ATOM      7  O   UNL d   1       0.496   3.346  -0.749  0.00  0.00    -0.526 OA
ATOM      8  H5  UNL d   1       1.374   3.625  -0.440  0.00  0.00     0.418 HD
ENDBRANCH   4   7
TORSDOF 1
ENDMDL
