MODEL 1
REMARK minimizedAffinity -4.46013737
REMARK minimizedRMSD -1
REMARK  1 active torsions:
REMARK  status: ('A' for Active; 'I' for Inactive)
REMARK    1  A    between atoms: C3_4  and  O_7 
ROOT
ATOM      1  C   UNL d   1       2.797   0.623   0.876  0.00  0.00    -0.033 A 
ATOM      2  C1  UNL d   1       1.478   1.063   0.745  0.00  0.00     0.039 A 
ATOM      3  C2  UNL d   1       0.492   0.191   0.280  0.00  0.00    -0.080 A 
ATOM      4  C3  UNL d   1       0.837  -1.117  -0.050  0.00  0.00     0.150 A 
ATOM      5  C4  UNL d   1       2.148  -1.563   0.082  0.00  0.00    -0.007 A 
ATOM      6  C5  UNL d   1       3.131  -0.690   0.546  0.00  0.00     0.039 A 
ENDROOT
BRANCH   4   7
ATOM      7  O   UNL d   1      -0.090  -2.003  -0.513  0.00  0.00    -0.526 OA
ATOM      8  H5  UNL d   1      -0.945  -1.547  -0.579  0.00  0.00     0.418 HD
ENDBRANCH   4   7
TORSDOF 1
ENDMDL
