MODEL 1
REMARK minimizedAffinity -4.37572622
REMARK minimizedRMSD -1
REMARK  1 active torsions:
REMARK  status: ('A' for Active; 'I' for Inactive)
REMARK    1  A    between atoms: C3_4  and  O_7 
ROOT
ATOM      1  C   UNL d   1       0.042  -0.238  -0.704  0.00  0.00    -0.033 A 
ATOM      2  C1  UNL d   1       0.760  -1.352  -1.144  0.00  0.00     0.039 A 
ATOM      3  C2  UNL d   1       1.834  -1.834  -0.393  0.00  0.00    -0.080 A 
ATOM      4  C3  UNL d   1       2.179  -1.194   0.794  0.00  0.00     0.150 A 
ATOM      5  C4  UNL d   1       1.466  -0.086   1.240  0.00  0.00    -0.007 A 
ATOM      6  C5  UNL d   1       0.395   0.394   0.489  0.00  0.00     0.039 A 
ENDROOT
BRANCH   4   7
ATOM      7  O   UNL d   1       3.223  -1.625   1.558  0.00  0.00    -0.526 OA
ATOM      8  H5  UNL d   1       3.640  -2.380   1.112  0.00  0.00     0.418 HD
ENDBRANCH   4   7
TORSDOF 1
ENDMDL
