MODEL 1
REMARK minimizedAffinity 22.6712551
REMARK minimizedRMSD -1
REMARK  0 active torsions:
REMARK  status: ('A' for Active; 'I' for Inactive)
ROOT
ATOM      1  N1  IND d   1      -4.731  -3.570   1.035  0.00  0.00    -0.196 N 
ATOM      2  C2  IND d   1      -4.333  -4.602   1.837  0.00  0.00     0.054 A 
ATOM      3  C3  IND d   1      -3.062  -4.409   2.257  0.00  0.00    -0.031 A 
ATOM      4  C4  IND d   1      -1.484  -2.419   1.833  0.00  0.00     0.051 A 
ATOM      5  C5  IND d   1      -1.388  -1.252   1.129  0.00  0.00    -0.031 A 
ATOM      6  C6  IND d   1      -2.423  -0.787   0.344  0.00  0.00     0.015 A 
ATOM      7  C7  IND d   1      -3.603  -1.469   0.242  0.00  0.00    -0.016 A 
ATOM      8  C8  IND d   1      -3.701  -2.658   0.950  0.00  0.00    -0.047 A 
ATOM      9  C9  IND d   1      -2.639  -3.157   1.714  0.00  0.00    -0.096 A 
ATOM     10  HN1 IND d   1      -5.495  -3.501   0.647  0.00  0.00     0.298 HD
ENDROOT
TORSDOF 0
ENDMDL
