MODEL 1
REMARK minimizedAffinity 18.5978146
REMARK minimizedRMSD -1
REMARK  0 active torsions:
REMARK  status: ('A' for Active; 'I' for Inactive)
ROOT
ATOM      1  N1  IND d   1       2.667   1.837  -2.792  0.00  0.00    -0.196 N 
ATOM      2  C2  IND d   1       2.741   1.381  -1.505  0.00  0.00     0.054 A 
ATOM      3  C3  IND d   1       3.684   2.063  -0.818  0.00  0.00    -0.031 A 
ATOM      4  C4  IND d   1       5.153   4.037  -1.576  0.00  0.00     0.051 A 
ATOM      5  C5  IND d   1       5.470   4.784  -2.675  0.00  0.00    -0.031 A 
ATOM      6  C6  IND d   1       4.854   4.585  -3.894  0.00  0.00     0.015 A 
ATOM      7  C7  IND d   1       3.886   3.635  -4.056  0.00  0.00    -0.016 A 
ATOM      8  C8  IND d   1       3.567   2.869  -2.943  0.00  0.00    -0.047 A 
ATOM      9  C9  IND d   1       4.219   3.038  -1.715  0.00  0.00    -0.096 A 
ATOM     10  HN1 IND d   1       2.146   1.531  -3.403  0.00  0.00     0.298 HD
ENDROOT
TORSDOF 0
ENDMDL
