MODEL 1
REMARK minimizedAffinity 15.3824873
REMARK minimizedRMSD -1
REMARK  0 active torsions:
REMARK  status: ('A' for Active; 'I' for Inactive)
ROOT
ATOM      1  N1  IND d   1       0.988  -2.057   4.084  0.00  0.00    -0.196 N 
ATOM      2  C2  IND d   1       1.753  -3.028   3.499  0.00  0.00     0.054 A 
ATOM      3  C3  IND d   1       1.142  -3.503   2.391  0.00  0.00    -0.031 A 
ATOM      4  C4  IND d   1      -1.067  -2.764   1.295  0.00  0.00     0.051 A 
ATOM      5  C5  IND d   1      -2.139  -1.937   1.484  0.00  0.00    -0.031 A 
ATOM      6  C6  IND d   1      -2.224  -1.089   2.569  0.00  0.00     0.015 A 
ATOM      7  C7  IND d   1      -1.230  -1.028   3.505  0.00  0.00    -0.016 A 
ATOM      8  C8  IND d   1      -0.143  -1.871   3.320  0.00  0.00    -0.047 A 
ATOM      9  C9  IND d   1      -0.071  -2.764   2.244  0.00  0.00    -0.096 A 
ATOM     10  HN1 IND d   1       1.181  -1.635   4.808  0.00  0.00     0.298 HD
ENDROOT
TORSDOF 0
ENDMDL
