MODEL 1
REMARK minimizedAffinity 4.85074615
REMARK minimizedRMSD -1
REMARK  0 active torsions:
REMARK  status: ('A' for Active; 'I' for Inactive)
ROOT
ATOM      1  N1  IND d   1       1.058  -5.998  -4.725  0.00  0.00    -0.196 N 
ATOM      2  C2  IND d   1       1.607  -5.194  -3.766  0.00  0.00     0.054 A 
ATOM      3  C3  IND d   1       0.746  -4.207  -3.431  0.00  0.00    -0.031 A 
ATOM      4  C4  IND d   1      -1.655  -3.781  -4.256  0.00  0.00     0.051 A 
ATOM      5  C5  IND d   1      -2.579  -4.227  -5.160  0.00  0.00    -0.031 A 
ATOM      6  C6  IND d   1      -2.334  -5.310  -5.979  0.00  0.00     0.015 A 
ATOM      7  C7  IND d   1      -1.155  -5.997  -5.917  0.00  0.00    -0.016 A 
ATOM      8  C8  IND d   1      -0.212  -5.543  -5.006  0.00  0.00    -0.047 A 
ATOM      9  C9  IND d   1      -0.438  -4.418  -4.202  0.00  0.00    -0.096 A 
ATOM     10  HN1 IND d   1       1.441  -6.675  -5.092  0.00  0.00     0.298 HD
ENDROOT
TORSDOF 0
ENDMDL
