MODEL 1
REMARK minimizedAffinity 16.8917828
REMARK minimizedRMSD -1
REMARK  0 active torsions:
REMARK  status: ('A' for Active; 'I' for Inactive)
ROOT
ATOM      1  N1  IND d   1       4.358  -5.972   1.230  0.00  0.00    -0.196 N 
ATOM      2  C2  IND d   1       3.003  -5.955   1.407  0.00  0.00     0.054 A 
ATOM      3  C3  IND d   1       2.465  -4.863   0.819  0.00  0.00    -0.031 A 
ATOM      4  C4  IND d   1       3.610  -3.025  -0.575  0.00  0.00     0.051 A 
ATOM      5  C5  IND d   1       4.840  -2.592  -0.982  0.00  0.00    -0.031 A 
ATOM      6  C6  IND d   1       5.996  -3.278  -0.669  0.00  0.00     0.015 A 
ATOM      7  C7  IND d   1       5.963  -4.435   0.057  0.00  0.00    -0.016 A 
ATOM      8  C8  IND d   1       4.716  -4.874   0.478  0.00  0.00    -0.047 A 
ATOM      9  C9  IND d   1       3.544  -4.160   0.200  0.00  0.00    -0.096 A 
ATOM     10  HN1 IND d   1       4.896  -6.568   1.536  0.00  0.00     0.298 HD
ENDROOT
TORSDOF 0
ENDMDL
