MODEL 1
REMARK minimizedAffinity 18.112463
REMARK minimizedRMSD -1
REMARK  0 active torsions:
REMARK  status: ('A' for Active; 'I' for Inactive)
ROOT
ATOM      1  N1  IND d   1       5.836   4.106  -3.753  0.00  0.00    -0.196 N 
ATOM      2  C2  IND d   1       5.999   4.454  -2.441  0.00  0.00     0.054 A 
ATOM      3  C3  IND d   1       4.845   4.275  -1.760  0.00  0.00    -0.031 A 
ATOM      4  C4  IND d   1       2.596   3.324  -2.576  0.00  0.00     0.051 A 
ATOM      5  C5  IND d   1       1.951   2.901  -3.705  0.00  0.00    -0.031 A 
ATOM      6  C6  IND d   1       2.582   2.855  -4.931  0.00  0.00     0.015 A 
ATOM      7  C7  IND d   1       3.890   3.221  -5.073  0.00  0.00    -0.016 A 
ATOM      8  C8  IND d   1       4.546   3.657  -3.931  0.00  0.00    -0.047 A 
ATOM      9  C9  IND d   1       3.899   3.747  -2.692  0.00  0.00    -0.096 A 
ATOM     10  HN1 IND d   1       6.439   4.159  -4.364  0.00  0.00     0.298 HD
ENDROOT
TORSDOF 0
ENDMDL
