MODEL 1
REMARK minimizedAffinity 22.5112782
REMARK minimizedRMSD -1
REMARK  0 active torsions:
REMARK  status: ('A' for Active; 'I' for Inactive)
ROOT
ATOM      1  N1  IND d   1      -4.127  -3.671   1.266  0.00  0.00    -0.196 N 
ATOM      2  C2  IND d   1      -3.206  -4.676   1.159  0.00  0.00     0.054 A 
ATOM      3  C3  IND d   1      -2.288  -4.374   0.212  0.00  0.00    -0.031 A 
ATOM      4  C4  IND d   1      -2.047  -2.243  -1.211  0.00  0.00     0.051 A 
ATOM      5  C5  IND d   1      -2.671  -1.060  -1.494  0.00  0.00    -0.031 A 
ATOM      6  C6  IND d   1      -3.834  -0.678  -0.857  0.00  0.00     0.015 A 
ATOM      7  C7  IND d   1      -4.412  -1.463   0.100  0.00  0.00    -0.016 A 
ATOM      8  C8  IND d   1      -3.786  -2.668   0.384  0.00  0.00    -0.047 A 
ATOM      9  C9  IND d   1      -2.629  -3.080  -0.289  0.00  0.00    -0.096 A 
ATOM     10  HN1 IND d   1      -4.805  -3.666   1.794  0.00  0.00     0.298 HD
ENDROOT
TORSDOF 0
ENDMDL
