MODEL 1
REMARK minimizedAffinity 14.7872982
REMARK minimizedRMSD -1
REMARK  0 active torsions:
REMARK  status: ('A' for Active; 'I' for Inactive)
ROOT
ATOM      1  N1  IND d   1       2.194   2.340  -3.825  0.00  0.00    -0.196 N 
ATOM      2  C2  IND d   1       1.997   2.378  -2.473  0.00  0.00     0.054 A 
ATOM      3  C3  IND d   1       2.931   3.159  -1.883  0.00  0.00    -0.031 A 
ATOM      4  C4  IND d   1       4.812   4.551  -2.954  0.00  0.00     0.051 A 
ATOM      5  C5  IND d   1       5.412   4.808  -4.155  0.00  0.00    -0.031 A 
ATOM      6  C6  IND d   1       4.959   4.247  -5.332  0.00  0.00     0.015 A 
ATOM      7  C7  IND d   1       3.877   3.412  -5.352  0.00  0.00    -0.016 A 
ATOM      8  C8  IND d   1       3.270   3.143  -4.134  0.00  0.00    -0.047 A 
ATOM      9  C9  IND d   1       3.751   3.677  -2.931  0.00  0.00    -0.096 A 
ATOM     10  HN1 IND d   1       1.725   1.891  -4.388  0.00  0.00     0.298 HD
ENDROOT
TORSDOF 0
ENDMDL
