MODEL 1
REMARK minimizedAffinity 20.7388535
REMARK minimizedRMSD -1
REMARK  0 active torsions:
REMARK  status: ('A' for Active; 'I' for Inactive)
ROOT
ATOM      1  N1  IND d   1      -4.898  -5.967  -5.995  0.00  0.00    -0.196 N 
ATOM      2  C2  IND d   1      -5.891  -5.109  -5.611  0.00  0.00     0.054 A 
ATOM      3  C3  IND d   1      -5.378  -4.092  -4.883  0.00  0.00    -0.031 A 
ATOM      4  C4  IND d   1      -2.927  -3.583  -4.283  0.00  0.00     0.051 A 
ATOM      5  C5  IND d   1      -1.665  -4.099  -4.379  0.00  0.00    -0.031 A 
ATOM      6  C6  IND d   1      -1.411  -5.286  -5.034  0.00  0.00     0.015 A 
ATOM      7  C7  IND d   1      -2.412  -6.000  -5.630  0.00  0.00    -0.016 A 
ATOM      8  C8  IND d   1      -3.696  -5.482  -5.528  0.00  0.00    -0.047 A 
ATOM      9  C9  IND d   1      -3.966  -4.299  -4.828  0.00  0.00    -0.096 A 
ATOM     10  HN1 IND d   1      -5.006  -6.688  -6.450  0.00  0.00     0.298 HD
ENDROOT
TORSDOF 0
ENDMDL
