MODEL 1
REMARK minimizedAffinity 20.0560246
REMARK minimizedRMSD -1
REMARK  0 active torsions:
REMARK  status: ('A' for Active; 'I' for Inactive)
ROOT
ATOM      1  N1  IND d   1       3.007   1.292   1.602  0.00  0.00    -0.196 N 
ATOM      2  C2  IND d   1       2.383   1.169   0.392  0.00  0.00     0.054 A 
ATOM      3  C3  IND d   1       2.995   1.942  -0.533  0.00  0.00    -0.031 A 
ATOM      4  C4  IND d   1       5.097   3.411  -0.306  0.00  0.00     0.051 A 
ATOM      5  C5  IND d   1       5.996   3.870   0.616  0.00  0.00    -0.031 A 
ATOM      6  C6  IND d   1       5.945   3.484   1.940  0.00  0.00     0.015 A 
ATOM      7  C7  IND d   1       4.996   2.611   2.391  0.00  0.00    -0.016 A 
ATOM      8  C8  IND d   1       4.077   2.148   1.459  0.00  0.00    -0.047 A 
ATOM      9  C9  IND d   1       4.098   2.569   0.123  0.00  0.00    -0.096 A 
ATOM     10  HN1 IND d   1       2.771   0.900   2.330  0.00  0.00     0.298 HD
ENDROOT
TORSDOF 0
ENDMDL
