MODEL 1
REMARK minimizedAffinity 13.778161
REMARK minimizedRMSD -1
REMARK  0 active torsions:
REMARK  status: ('A' for Active; 'I' for Inactive)
ROOT
ATOM      1  N1  IND d   1      -3.245  -5.347  -4.947  0.00  0.00    -0.196 N 
ATOM      2  C2  IND d   1      -2.652  -5.998  -5.993  0.00  0.00     0.054 A 
ATOM      3  C3  IND d   1      -1.306  -5.911  -5.900  0.00  0.00    -0.031 A 
ATOM      4  C4  IND d   1       0.140  -4.838  -4.060  0.00  0.00     0.051 A 
ATOM      5  C5  IND d   1       0.051  -4.091  -2.919  0.00  0.00    -0.031 A 
ATOM      6  C6  IND d   1      -1.165  -3.720  -2.383  0.00  0.00     0.015 A 
ATOM      7  C7  IND d   1      -2.343  -4.093  -2.965  0.00  0.00    -0.016 A 
ATOM      8  C8  IND d   1      -2.257  -4.845  -4.128  0.00  0.00    -0.047 A 
ATOM      9  C9  IND d   1      -1.026  -5.189  -4.699  0.00  0.00    -0.096 A 
ATOM     10  HN1 IND d   1      -4.091  -5.266  -4.821  0.00  0.00     0.298 HD
ENDROOT
TORSDOF 0
ENDMDL
