MODEL 1
REMARK minimizedAffinity 11.6572046
REMARK minimizedRMSD -1
REMARK  0 active torsions:
REMARK  status: ('A' for Active; 'I' for Inactive)
ROOT
ATOM      1  N1  IND d   1       4.522   5.889  -1.527  0.00  0.00    -0.196 N 
ATOM      2  C2  IND d   1       5.784   5.621  -1.979  0.00  0.00     0.054 A 
ATOM      3  C3  IND d   1       5.764   4.578  -2.839  0.00  0.00    -0.031 A 
ATOM      4  C4  IND d   1       3.760   3.228  -3.725  0.00  0.00     0.051 A 
ATOM      5  C5  IND d   1       2.410   3.078  -3.574  0.00  0.00    -0.031 A 
ATOM      6  C6  IND d   1       1.680   3.876  -2.717  0.00  0.00     0.015 A 
ATOM      7  C7  IND d   1       2.273   4.865  -1.985  0.00  0.00    -0.016 A 
ATOM      8  C8  IND d   1       3.645   5.015  -2.131  0.00  0.00    -0.047 A 
ATOM      9  C9  IND d   1       4.398   4.180  -2.967  0.00  0.00    -0.096 A 
ATOM     10  HN1 IND d   1       4.311   6.501  -0.961  0.00  0.00     0.298 HD
ENDROOT
TORSDOF 0
ENDMDL
