MODEL 1
REMARK minimizedAffinity 16.2667732
REMARK minimizedRMSD -1
REMARK  0 active torsions:
REMARK  status: ('A' for Active; 'I' for Inactive)
ROOT
ATOM      1  N1  IND d   1       1.054  -1.152   3.968  0.00  0.00    -0.196 N 
ATOM      2  C2  IND d   1       1.655  -2.268   3.457  0.00  0.00     0.054 A 
ATOM      3  C3  IND d   1       0.891  -2.808   2.480  0.00  0.00    -0.031 A 
ATOM      4  C4  IND d   1      -1.330  -1.967   1.488  0.00  0.00     0.051 A 
ATOM      5  C5  IND d   1      -2.289  -1.007   1.653  0.00  0.00    -0.031 A 
ATOM      6  C6  IND d   1      -2.179  -0.025   2.617  0.00  0.00     0.015 A 
ATOM      7  C7  IND d   1      -1.095   0.041   3.446  0.00  0.00    -0.016 A 
ATOM      8  C8  IND d   1      -0.123  -0.936   3.286  0.00  0.00    -0.047 A 
ATOM      9  C9  IND d   1      -0.250  -1.961   2.338  0.00  0.00    -0.096 A 
ATOM     10  HN1 IND d   1       1.360  -0.666   4.608  0.00  0.00     0.298 HD
ENDROOT
TORSDOF 0
ENDMDL
