MODEL 1
REMARK minimizedAffinity 14.9171181
REMARK minimizedRMSD -1
REMARK  0 active torsions:
REMARK  status: ('A' for Active; 'I' for Inactive)
ROOT
ATOM      1  N1  IND d   1      -2.372  -4.463   1.283  0.00  0.00    -0.196 N 
ATOM      2  C2  IND d   1      -3.594  -3.850   1.254  0.00  0.00     0.054 A 
ATOM      3  C3  IND d   1      -3.490  -2.573   1.686  0.00  0.00    -0.031 A 
ATOM      4  C4  IND d   1      -1.397  -1.250   2.391  0.00  0.00     0.051 A 
ATOM      5  C5  IND d   1      -0.057  -1.394   2.616  0.00  0.00    -0.031 A 
ATOM      6  C6  IND d   1       0.594  -2.592   2.401  0.00  0.00     0.015 A 
ATOM      7  C7  IND d   1      -0.073  -3.692   1.940  0.00  0.00    -0.016 A 
ATOM      8  C8  IND d   1      -1.435  -3.551   1.717  0.00  0.00    -0.047 A 
ATOM      9  C9  IND d   1      -2.109  -2.350   1.974  0.00  0.00    -0.096 A 
ATOM     10  HN1 IND d   1      -2.216  -5.280   1.065  0.00  0.00     0.298 HD
ENDROOT
TORSDOF 0
ENDMDL
