MODEL 1
REMARK minimizedAffinity 3.78966856
REMARK minimizedRMSD -1
REMARK  0 active torsions:
REMARK  status: ('A' for Active; 'I' for Inactive)
ROOT
ATOM      1  N1  IND d   1       5.360   4.937  -3.140  0.00  0.00    -0.196 N 
ATOM      2  C2  IND d   1       5.997   5.153  -1.951  0.00  0.00     0.054 A 
ATOM      3  C3  IND d   1       5.801   4.109  -1.115  0.00  0.00    -0.031 A 
ATOM      4  C4  IND d   1       4.553   1.896  -1.529  0.00  0.00     0.051 A 
ATOM      5  C5  IND d   1       3.776   1.253  -2.451  0.00  0.00    -0.031 A 
ATOM      6  C6  IND d   1       3.484   1.816  -3.677  0.00  0.00     0.015 A 
ATOM      7  C7  IND d   1       3.969   3.043  -4.031  0.00  0.00    -0.016 A 
ATOM      8  C8  IND d   1       4.752   3.701  -3.094  0.00  0.00    -0.047 A 
ATOM      9  C9  IND d   1       5.017   3.154  -1.832  0.00  0.00    -0.096 A 
ATOM     10  HN1 IND d   1       5.341   5.481  -3.806  0.00  0.00     0.298 HD
ENDROOT
TORSDOF 0
ENDMDL
