MODEL 1
REMARK minimizedAffinity 8.07231808
REMARK minimizedRMSD -1
REMARK  0 active torsions:
REMARK  status: ('A' for Active; 'I' for Inactive)
ROOT
ATOM      1  C   UNL d   1      -3.951  -5.177  -5.904  0.00  0.00     0.023 A 
ATOM      2  C1  UNL d   1      -4.006  -4.173  -4.936  0.00  0.00     0.003 A 
ATOM      3  C2  UNL d   1      -2.933  -3.985  -4.062  0.00  0.00     0.048 A 
ATOM      4  C3  UNL d   1      -1.809  -4.803  -4.161  0.00  0.00     0.023 A 
ATOM      5  C4  UNL d   1      -1.749  -5.808  -5.129  0.00  0.00     0.048 A 
ATOM      6  C5  UNL d   1      -2.824  -5.993  -6.000  0.00  0.00     0.003 A 
ATOM      7  I   UNL d   1      -0.211  -4.525  -2.861  0.00  0.00    -0.146 I 
ENDROOT
TORSDOF 0
ENDMDL
