MODEL 1
REMARK minimizedAffinity 3.52571583
REMARK minimizedRMSD -1
REMARK  0 active torsions:
REMARK  status: ('A' for Active; 'I' for Inactive)
ROOT
ATOM      1  C   UNL d   1      -0.496   3.144   1.939  0.00  0.00     0.023 A 
ATOM      2  C1  UNL d   1      -1.548   2.435   2.519  0.00  0.00     0.003 A 
ATOM      3  C2  UNL d   1      -1.293   1.252   3.217  0.00  0.00     0.048 A 
ATOM      4  C3  UNL d   1       0.016   0.786   3.332  0.00  0.00     0.023 A 
ATOM      5  C4  UNL d   1       1.071   1.492   2.754  0.00  0.00     0.048 A 
ATOM      6  C5  UNL d   1       0.812   2.673   2.056  0.00  0.00     0.003 A 
ATOM      7  I   UNL d   1       0.397  -0.974   4.371  0.00  0.00    -0.146 I 
ENDROOT
TORSDOF 0
ENDMDL
