MODEL 1
REMARK minimizedAffinity 4.68208694
REMARK minimizedRMSD -1
REMARK  0 active torsions:
REMARK  status: ('A' for Active; 'I' for Inactive)
ROOT
ATOM      1  C   UNL d   1       0.053   1.959  -0.240  0.00  0.00     0.023 A 
ATOM      2  C1  UNL d   1      -0.373   2.971  -1.101  0.00  0.00     0.003 A 
ATOM      3  C2  UNL d   1      -1.063   4.074  -0.595  0.00  0.00     0.048 A 
ATOM      4  C3  UNL d   1      -1.323   4.160   0.772  0.00  0.00     0.023 A 
ATOM      5  C4  UNL d   1      -0.898   3.150   1.637  0.00  0.00     0.048 A 
ATOM      6  C5  UNL d   1      -0.209   2.049   1.127  0.00  0.00     0.003 A 
ATOM      7  I   UNL d   1      -2.350   5.802   1.527  0.00  0.00    -0.146 I 
ENDROOT
TORSDOF 0
ENDMDL
