MODEL 1
REMARK minimizedAffinity 11.1192417
REMARK minimizedRMSD -1
REMARK  0 active torsions:
REMARK  status: ('A' for Active; 'I' for Inactive)
ROOT
ATOM      1  C   UNL d   1      -0.373   5.276  -2.765  0.00  0.00     0.023 A 
ATOM      2  C1  UNL d   1       0.871   5.034  -2.182  0.00  0.00     0.003 A 
ATOM      3  C2  UNL d   1       0.980   4.151  -1.107  0.00  0.00     0.048 A 
ATOM      4  C3  UNL d   1      -0.160   3.511  -0.620  0.00  0.00     0.023 A 
ATOM      5  C4  UNL d   1      -1.406   3.750  -1.201  0.00  0.00     0.048 A 
ATOM      6  C5  UNL d   1      -1.510   4.635  -2.275  0.00  0.00     0.003 A 
ATOM      7  I   UNL d   1      -0.001   2.195   0.981  0.00  0.00    -0.146 I 
ENDROOT
TORSDOF 0
ENDMDL
