MODEL 1
REMARK minimizedAffinity 5.43994379
REMARK minimizedRMSD -1
REMARK  0 active torsions:
REMARK  status: ('A' for Active; 'I' for Inactive)
ROOT
ATOM      1  C   UNL d   1      -0.480   6.000  -2.374  0.00  0.00     0.023 A 
ATOM      2  C1  UNL d   1      -1.510   5.115  -2.055  0.00  0.00     0.003 A 
ATOM      3  C2  UNL d   1      -1.303   4.115  -1.101  0.00  0.00     0.048 A 
ATOM      4  C3  UNL d   1      -0.064   4.008  -0.470  0.00  0.00     0.023 A 
ATOM      5  C4  UNL d   1       0.969   4.892  -0.785  0.00  0.00     0.048 A 
ATOM      6  C5  UNL d   1       0.758   5.889  -1.740  0.00  0.00     0.003 A 
ATOM      7  I   UNL d   1       0.246   2.522   0.949  0.00  0.00    -0.146 I 
ENDROOT
TORSDOF 0
ENDMDL
