MODEL 1
REMARK minimizedAffinity 15.6372776
REMARK minimizedRMSD -1
REMARK  0 active torsions:
REMARK  status: ('A' for Active; 'I' for Inactive)
ROOT
ATOM      1  C   UNL d   1       0.857   4.092  -1.454  0.00  0.00     0.023 A 
ATOM      2  C1  UNL d   1       0.573   5.450  -1.608  0.00  0.00     0.003 A 
ATOM      3  C2  UNL d   1      -0.563   5.998  -1.011  0.00  0.00     0.048 A 
ATOM      4  C3  UNL d   1      -1.411   5.185  -0.261  0.00  0.00     0.023 A 
ATOM      5  C4  UNL d   1      -1.131   3.826  -0.103  0.00  0.00     0.048 A 
ATOM      6  C5  UNL d   1       0.006   3.282  -0.703  0.00  0.00     0.003 A 
ATOM      7  I   UNL d   1      -3.104   5.999   0.629  0.00  0.00    -0.146 I 
ENDROOT
TORSDOF 0
ENDMDL
