MODEL 1
REMARK minimizedAffinity 11.0058355
REMARK minimizedRMSD -1
REMARK  0 active torsions:
REMARK  status: ('A' for Active; 'I' for Inactive)
ROOT
ATOM      1  C   UNL d   1       0.380  -5.064  -1.426  0.00  0.00     0.023 A 
ATOM      2  C1  UNL d   1       0.940  -5.997  -0.553  0.00  0.00     0.003 A 
ATOM      3  C2  UNL d   1       2.316  -6.000  -0.321  0.00  0.00     0.048 A 
ATOM      4  C3  UNL d   1       3.128  -5.066  -0.964  0.00  0.00     0.023 A 
ATOM      5  C4  UNL d   1       2.573  -4.130  -1.838  0.00  0.00     0.048 A 
ATOM      6  C5  UNL d   1       1.196  -4.132  -2.068  0.00  0.00     0.003 A 
ATOM      7  I   UNL d   1       5.178  -5.068  -0.620  0.00  0.00    -0.146 I 
ENDROOT
TORSDOF 0
ENDMDL
