MODEL 1
REMARK minimizedAffinity 10.1383524
REMARK minimizedRMSD -1
REMARK  0 active torsions:
REMARK  status: ('A' for Active; 'I' for Inactive)
ROOT
ATOM      1  C   UNL d   1      -0.374   4.147  -2.199  0.00  0.00     0.023 A 
ATOM      2  C1  UNL d   1      -0.227   3.767  -0.865  0.00  0.00     0.003 A 
ATOM      3  C2  UNL d   1      -1.073   4.298   0.112  0.00  0.00     0.048 A 
ATOM      4  C3  UNL d   1      -2.064   5.208  -0.254  0.00  0.00     0.023 A 
ATOM      5  C4  UNL d   1      -2.216   5.591  -1.587  0.00  0.00     0.048 A 
ATOM      6  C5  UNL d   1      -1.368   5.058  -2.560  0.00  0.00     0.003 A 
ATOM      7  I   UNL d   1      -3.324   6.000   1.198  0.00  0.00    -0.146 I 
ENDROOT
TORSDOF 0
ENDMDL
