MODEL 1
REMARK minimizedAffinity 6.92916679
REMARK minimizedRMSD -1
REMARK  0 active torsions:
REMARK  status: ('A' for Active; 'I' for Inactive)
ROOT
ATOM      1  C   UNL d   1      -0.745   0.924   1.773  0.00  0.00     0.023 A 
ATOM      2  C1  UNL d   1      -1.095   0.777   0.431  0.00  0.00     0.003 A 
ATOM      3  C2  UNL d   1      -0.822   1.800  -0.479  0.00  0.00     0.048 A 
ATOM      4  C3  UNL d   1      -0.197   2.967  -0.041  0.00  0.00     0.023 A 
ATOM      5  C4  UNL d   1       0.156   3.118   1.301  0.00  0.00     0.048 A 
ATOM      6  C5  UNL d   1      -0.121   2.093   2.208  0.00  0.00     0.003 A 
ATOM      7  I   UNL d   1       0.212   4.490  -1.394  0.00  0.00    -0.146 I 
ENDROOT
TORSDOF 0
ENDMDL
