MODEL 1
REMARK minimizedAffinity 8.39465714
REMARK minimizedRMSD -1
REMARK  0 active torsions:
REMARK  status: ('A' for Active; 'I' for Inactive)
ROOT
ATOM      1  C   UNL d   1      -0.277   4.376  -1.073  0.00  0.00     0.023 A 
ATOM      2  C1  UNL d   1      -0.187   3.131  -0.452  0.00  0.00     0.003 A 
ATOM      3  C2  UNL d   1      -1.173   2.166  -0.671  0.00  0.00     0.048 A 
ATOM      4  C3  UNL d   1      -2.246   2.454  -1.515  0.00  0.00     0.023 A 
ATOM      5  C4  UNL d   1      -2.340   3.698  -2.140  0.00  0.00     0.048 A 
ATOM      6  C5  UNL d   1      -1.352   4.660  -1.916  0.00  0.00     0.003 A 
ATOM      7  I   UNL d   1      -3.714   1.020  -1.843  0.00  0.00    -0.146 I 
ENDROOT
TORSDOF 0
ENDMDL
