MODEL 1
REMARK minimizedAffinity 4.31976175
REMARK minimizedRMSD -1
REMARK  0 active torsions:
REMARK  status: ('A' for Active; 'I' for Inactive)
ROOT
ATOM      1  C   UNL d   1       0.731   4.114  -0.937  0.00  0.00     0.023 A 
ATOM      2  C1  UNL d   1       0.374   5.449  -1.124  0.00  0.00     0.003 A 
ATOM      3  C2  UNL d   1      -0.700   5.992  -0.416  0.00  0.00     0.048 A 
ATOM      4  C3  UNL d   1      -1.412   5.194   0.478  0.00  0.00     0.023 A 
ATOM      5  C4  UNL d   1      -1.058   3.857   0.670  0.00  0.00     0.048 A 
ATOM      6  C5  UNL d   1       0.016   3.319  -0.041  0.00  0.00     0.003 A 
ATOM      7  I   UNL d   1      -3.012   5.999   1.533  0.00  0.00    -0.146 I 
ENDROOT
TORSDOF 0
ENDMDL
