MODEL 1
REMARK minimizedAffinity 5.03390694
REMARK minimizedRMSD -1
REMARK  0 active torsions:
REMARK  status: ('A' for Active; 'I' for Inactive)
ROOT
ATOM      1  C   UNL d   1      -1.129   5.999  -1.398  0.00  0.00     0.023 A 
ATOM      2  C1  UNL d   1      -1.572   5.973  -0.076  0.00  0.00     0.003 A 
ATOM      3  C2  UNL d   1      -1.216   4.913   0.760  0.00  0.00     0.048 A 
ATOM      4  C3  UNL d   1      -0.415   3.883   0.268  0.00  0.00     0.023 A 
ATOM      5  C4  UNL d   1       0.032   3.906  -1.054  0.00  0.00     0.048 A 
ATOM      6  C5  UNL d   1      -0.328   4.967  -1.887  0.00  0.00     0.003 A 
ATOM      7  I   UNL d   1       0.117   2.304   1.511  0.00  0.00    -0.146 I 
ENDROOT
TORSDOF 0
ENDMDL
