MODEL 1
REMARK minimizedAffinity 9.09139347
REMARK minimizedRMSD -1
REMARK  0 active torsions:
REMARK  status: ('A' for Active; 'I' for Inactive)
ROOT
ATOM      1  C   UNL d   1      -0.410   4.077   0.294  0.00  0.00     0.023 A 
ATOM      2  C1  UNL d   1      -0.935   5.327  -0.036  0.00  0.00     0.003 A 
ATOM      3  C2  UNL d   1      -0.830   5.808  -1.343  0.00  0.00     0.048 A 
ATOM      4  C3  UNL d   1      -0.201   5.032  -2.316  0.00  0.00     0.023 A 
ATOM      5  C4  UNL d   1       0.325   3.781  -1.991  0.00  0.00     0.048 A 
ATOM      6  C5  UNL d   1       0.219   3.305  -0.683  0.00  0.00     0.003 A 
ATOM      7  I   UNL d   1      -0.044   5.745  -4.262  0.00  0.00    -0.146 I 
ENDROOT
TORSDOF 0
ENDMDL
