MODEL 1
REMARK minimizedAffinity 10.911108
REMARK minimizedRMSD -1
REMARK  0 active torsions:
REMARK  status: ('A' for Active; 'I' for Inactive)
ROOT
ATOM      1  C   UNL d   1       5.949   5.999   4.495  0.00  0.00     0.077 C 
ATOM      2  C1  UNL d   1       4.499   5.649   4.651  0.00  0.00    -0.074 A 
ATOM      3  C2  UNL d   1       3.836   5.854   5.865  0.00  0.00    -0.005 A 
ATOM      4  C3  UNL d   1       2.485   5.532   5.992  0.00  0.00     0.006 A 
ATOM      5  C4  UNL d   1       1.783   5.004   4.908  0.00  0.00    -0.005 A 
ATOM      6  C5  UNL d   1       2.429   4.793   3.685  0.00  0.00    -0.074 A 
ATOM      7  C6  UNL d   1       1.687   4.235   2.507  0.00  0.00     0.077 C 
ATOM      8  C7  UNL d   1       3.785   5.125   3.563  0.00  0.00    -0.001 A 
ENDROOT
TORSDOF 0
ENDMDL
