MODEL 1
REMARK minimizedAffinity 16.6016655
REMARK minimizedRMSD -1
REMARK  0 active torsions:
REMARK  status: ('A' for Active; 'I' for Inactive)
ROOT
ATOM      1  C   UNL d   1      -3.001   6.000  -4.844  0.00  0.00     0.077 C 
ATOM      2  C1  UNL d   1      -3.925   4.827  -4.983  0.00  0.00    -0.074 A 
ATOM      3  C2  UNL d   1      -5.155   4.954  -5.637  0.00  0.00    -0.005 A 
ATOM      4  C3  UNL d   1      -6.000   3.852  -5.767  0.00  0.00     0.006 A 
ATOM      5  C4  UNL d   1      -5.625   2.614  -5.245  0.00  0.00    -0.005 A 
ATOM      6  C5  UNL d   1      -4.399   2.467  -4.588  0.00  0.00    -0.074 A 
ATOM      7  C6  UNL d   1      -3.976   1.141  -4.030  0.00  0.00     0.077 C 
ATOM      8  C7  UNL d   1      -3.552   3.578  -4.468  0.00  0.00    -0.001 A 
ENDROOT
TORSDOF 0
ENDMDL
