MODEL 1
REMARK minimizedAffinity 1.4291352
REMARK minimizedRMSD -1
REMARK  0 active torsions:
REMARK  status: ('A' for Active; 'I' for Inactive)
ROOT
ATOM      1  C   UNL d   1       6.000   5.979   3.593  0.00  0.00     0.077 C 
ATOM      2  C1  UNL d   1       4.667   5.614   4.175  0.00  0.00    -0.074 A 
ATOM      3  C2  UNL d   1       4.320   5.998   5.475  0.00  0.00    -0.005 A 
ATOM      4  C3  UNL d   1       3.073   5.659   5.999  0.00  0.00     0.006 A 
ATOM      5  C4  UNL d   1       2.161   4.935   5.230  0.00  0.00    -0.005 A 
ATOM      6  C5  UNL d   1       2.489   4.543   3.928  0.00  0.00    -0.074 A 
ATOM      7  C6  UNL d   1       1.517   3.773   3.085  0.00  0.00     0.077 C 
ATOM      8  C7  UNL d   1       3.742   4.893   3.406  0.00  0.00    -0.001 A 
ENDROOT
TORSDOF 0
ENDMDL
