MODEL 1
REMARK minimizedAffinity 9.01251602
REMARK minimizedRMSD -1
REMARK  0 active torsions:
REMARK  status: ('A' for Active; 'I' for Inactive)
ROOT
ATOM      1  C   UNL d   1       6.000  -3.661  -0.750  0.00  0.00     0.077 C 
ATOM      2  C1  UNL d   1       4.617  -4.206  -0.554  0.00  0.00    -0.074 A 
ATOM      3  C2  UNL d   1       4.290  -5.503  -0.965  0.00  0.00    -0.005 A 
ATOM      4  C3  UNL d   1       3.002  -6.000  -0.767  0.00  0.00     0.006 A 
ATOM      5  C4  UNL d   1       2.029  -5.207  -0.158  0.00  0.00    -0.005 A 
ATOM      6  C5  UNL d   1       2.337  -3.909   0.261  0.00  0.00    -0.074 A 
ATOM      7  C6  UNL d   1       1.306  -3.047   0.927  0.00  0.00     0.077 C 
ATOM      8  C7  UNL d   1       3.636  -3.419   0.065  0.00  0.00    -0.001 A 
ENDROOT
TORSDOF 0
ENDMDL
