MODEL 1
REMARK minimizedAffinity 11.1362829
REMARK minimizedRMSD -1
REMARK  0 active torsions:
REMARK  status: ('A' for Active; 'I' for Inactive)
ROOT
ATOM      1  C   UNL d   1       1.514   3.624   4.448  0.00  0.00     0.077 C 
ATOM      2  C1  UNL d   1       2.741   4.449   4.200  0.00  0.00    -0.074 A 
ATOM      3  C2  UNL d   1       2.878   5.197   3.026  0.00  0.00    -0.005 A 
ATOM      4  C3  UNL d   1       4.021   5.968   2.812  0.00  0.00     0.006 A 
ATOM      5  C4  UNL d   1       5.037   5.998   3.769  0.00  0.00    -0.005 A 
ATOM      6  C5  UNL d   1       4.916   5.258   4.949  0.00  0.00    -0.074 A 
ATOM      7  C6  UNL d   1       5.994   5.287   5.992  0.00  0.00     0.077 C 
ATOM      8  C7  UNL d   1       3.762   4.491   5.159  0.00  0.00    -0.001 A 
ENDROOT
TORSDOF 0
ENDMDL
