MODEL 1
REMARK minimizedAffinity 1.59067929
REMARK minimizedRMSD -1
REMARK  0 active torsions:
REMARK  status: ('A' for Active; 'I' for Inactive)
ROOT
ATOM      1  C   UNL d   1       5.392   5.995   3.791  0.00  0.00     0.077 C 
ATOM      2  C1  UNL d   1       4.021   5.634   4.281  0.00  0.00    -0.074 A 
ATOM      3  C2  UNL d   1       3.596   6.000   5.562  0.00  0.00    -0.005 A 
ATOM      4  C3  UNL d   1       2.314   5.666   6.000  0.00  0.00     0.006 A 
ATOM      5  C4  UNL d   1       1.446   4.964   5.163  0.00  0.00    -0.005 A 
ATOM      6  C5  UNL d   1       1.853   4.591   3.878  0.00  0.00    -0.074 A 
ATOM      7  C6  UNL d   1       0.929   3.845   2.962  0.00  0.00     0.077 C 
ATOM      8  C7  UNL d   1       3.140   4.936   3.442  0.00  0.00    -0.001 A 
ENDROOT
TORSDOF 0
ENDMDL
