MODEL 1
REMARK minimizedAffinity -4.09261656
REMARK minimizedRMSD -1
REMARK  0 active torsions:
REMARK  status: ('A' for Active; 'I' for Inactive)
ROOT
ATOM      1  C   UNL d   1       3.821   5.988   5.080  0.00  0.00     0.077 C 
ATOM      2  C1  UNL d   1       2.446   5.572   4.648  0.00  0.00    -0.074 A 
ATOM      3  C2  UNL d   1       2.259   4.789   3.505  0.00  0.00    -0.005 A 
ATOM      4  C3  UNL d   1       0.975   4.401   3.121  0.00  0.00     0.006 A 
ATOM      5  C4  UNL d   1      -0.132   4.793   3.875  0.00  0.00    -0.005 A 
ATOM      6  C5  UNL d   1       0.036   5.575   5.021  0.00  0.00    -0.074 A 
ATOM      7  C6  UNL d   1      -1.142   5.996   5.848  0.00  0.00     0.077 C 
ATOM      8  C7  UNL d   1       1.330   5.955   5.405  0.00  0.00    -0.001 A 
ENDROOT
TORSDOF 0
ENDMDL
