MODEL 1
REMARK minimizedAffinity 6.41019726
REMARK minimizedRMSD -1
REMARK  3 active torsions:
REMARK  status: ('A' for Active; 'I' for Inactive)
REMARK    1  A    between atoms: C3'_2  and  C2'_3 
REMARK    2  A    between atoms: C2'_3  and  C1'_4 
REMARK    3  A    between atoms: C1'_4  and  C1_5 
ROOT
ATOM      1  C1  N4B d   1      -0.193   3.633  -1.489  0.00  0.00    -0.075 A 
ATOM      2  C2  N4B d   1       1.146   3.662  -1.042  0.00  0.00     0.002 A 
ATOM      3  C3  N4B d   1       1.848   4.843  -1.051  0.00  0.00     0.002 A 
ATOM      4  C4  N4B d   1       1.240   5.998  -1.518  0.00  0.00    -0.004 A 
ATOM      5  C5  N4B d   1      -0.062   5.967  -1.925  0.00  0.00     0.002 A 
ATOM      6  C6  N4B d   1      -0.780   4.789  -1.918  0.00  0.00     0.002 A 
ENDROOT
BRANCH   1   7
ATOM      7  C1' N4B d   1      -0.973   2.350  -1.579  0.00  0.00     0.057 C 
BRANCH   7   8
ATOM      8  C2' N4B d   1      -0.250   1.389  -2.518  0.00  0.00     0.009 C 
BRANCH   8   9
ATOM      9  C3' N4B d   1      -0.975   1.239  -3.845  0.00  0.00     0.004 C 
ATOM     10  C4' N4B d   1      -2.406   1.680  -3.778  0.00  0.00     0.003 C 
ENDBRANCH   8   9
ENDBRANCH   7   8
ENDBRANCH   1   7
TORSDOF 3
ENDMDL
