MODEL 1
REMARK minimizedAffinity 8.13737583
REMARK minimizedRMSD -1
REMARK  3 active torsions:
REMARK  status: ('A' for Active; 'I' for Inactive)
REMARK    1  A    between atoms: C3'_2  and  C2'_3 
REMARK    2  A    between atoms: C2'_3  and  C1'_4 
REMARK    3  A    between atoms: C1'_4  and  C1_5 
ROOT
ATOM      1  C1  N4B d   1      -0.900   4.026  -1.563  0.00  0.00    -0.075 A 
ATOM      2  C2  N4B d   1       0.296   3.341  -1.258  0.00  0.00     0.002 A 
ATOM      3  C3  N4B d   1       1.499   4.003  -1.310  0.00  0.00     0.002 A 
ATOM      4  C4  N4B d   1       1.531   5.338  -1.682  0.00  0.00    -0.004 A 
ATOM      5  C5  N4B d   1       0.368   5.999  -1.950  0.00  0.00     0.002 A 
ATOM      6  C6  N4B d   1      -0.848   5.348  -1.898  0.00  0.00     0.002 A 
ENDROOT
BRANCH   1   7
ATOM      7  C1' N4B d   1      -2.230   3.323  -1.603  0.00  0.00     0.057 C 
BRANCH   7   8
ATOM      8  C2' N4B d   1      -2.807   3.423  -3.012  0.00  0.00     0.009 C 
BRANCH   8   9
ATOM      9  C3' N4B d   1      -3.318   2.084  -3.513  0.00  0.00     0.004 C 
ATOM     10  C4' N4B d   1      -4.089   1.329  -2.472  0.00  0.00     0.003 C 
ENDBRANCH   8   9
ENDBRANCH   7   8
ENDBRANCH   1   7
TORSDOF 3
ENDMDL
