MODEL 1
REMARK minimizedAffinity -2.44942355
REMARK minimizedRMSD -1
REMARK  3 active torsions:
REMARK  status: ('A' for Active; 'I' for Inactive)
REMARK    1  A    between atoms: C3'_2  and  C2'_3 
REMARK    2  A    between atoms: C2'_3  and  C1'_4 
REMARK    3  A    between atoms: C1'_4  and  C1_5 
ROOT
ATOM      1  C1  N4B d   1      -3.450   3.625   1.465  0.00  0.00    -0.075 A 
ATOM      2  C2  N4B d   1      -4.862   3.582   1.490  0.00  0.00     0.002 A 
ATOM      3  C3  N4B d   1      -5.583   4.748   1.562  0.00  0.00     0.002 A 
ATOM      4  C4  N4B d   1      -4.917   5.963   1.630  0.00  0.00    -0.004 A 
ATOM      5  C5  N4B d   1      -3.554   5.997   1.581  0.00  0.00     0.002 A 
ATOM      6  C6  N4B d   1      -2.817   4.833   1.504  0.00  0.00     0.002 A 
ENDROOT
BRANCH   1   7
ATOM      7  C1' N4B d   1      -2.618   2.372   1.473  0.00  0.00     0.057 C 
BRANCH   7   8
ATOM      8  C2' N4B d   1      -1.141   2.752   1.412  0.00  0.00     0.009 C 
BRANCH   8   9
ATOM      9  C3' N4B d   1      -0.534   2.458   0.051  0.00  0.00     0.004 C 
ATOM     10  C4' N4B d   1      -1.165   3.255  -1.051  0.00  0.00     0.003 C 
ENDBRANCH   8   9
ENDBRANCH   7   8
ENDBRANCH   1   7
TORSDOF 3
ENDMDL
