MODEL 1
REMARK minimizedAffinity 14.6503334
REMARK minimizedRMSD -1
REMARK  3 active torsions:
REMARK  status: ('A' for Active; 'I' for Inactive)
REMARK    1  A    between atoms: C3'_2  and  C2'_3 
REMARK    2  A    between atoms: C2'_3  and  C1'_4 
REMARK    3  A    between atoms: C1'_4  and  C1_5 
ROOT
ATOM      1  C1  N4B d   1      -3.188   1.312  -3.142  0.00  0.00    -0.075 A 
ATOM      2  C2  N4B d   1      -3.583   2.297  -2.211  0.00  0.00     0.002 A 
ATOM      3  C3  N4B d   1      -4.817   2.220  -1.612  0.00  0.00     0.002 A 
ATOM      4  C4  N4B d   1      -5.676   1.182  -1.942  0.00  0.00    -0.004 A 
ATOM      5  C5  N4B d   1      -5.276   0.221  -2.824  0.00  0.00     0.002 A 
ATOM      6  C6  N4B d   1      -4.038   0.284  -3.430  0.00  0.00     0.002 A 
ENDROOT
BRANCH   1   7
ATOM      7  C1' N4B d   1      -1.884   1.401  -3.887  0.00  0.00     0.057 C 
BRANCH   7   8
ATOM      8  C2' N4B d   1      -0.926   0.342  -3.348  0.00  0.00     0.009 C 
BRANCH   8   9
ATOM      9  C3' N4B d   1      -0.091   0.866  -2.192  0.00  0.00     0.004 C 
ATOM     10  C4' N4B d   1       0.811  -0.179  -1.607  0.00  0.00     0.003 C 
ENDBRANCH   8   9
ENDBRANCH   7   8
ENDBRANCH   1   7
TORSDOF 3
ENDMDL
