MODEL 1
REMARK minimizedAffinity -3.31841731
REMARK minimizedRMSD -1
REMARK  3 active torsions:
REMARK  status: ('A' for Active; 'I' for Inactive)
REMARK    1  A    between atoms: C3'_2  and  C2'_3 
REMARK    2  A    between atoms: C2'_3  and  C1'_4 
REMARK    3  A    between atoms: C1'_4  and  C1_5 
ROOT
ATOM      1  C1  N4B d   1      -3.427   3.613   1.508  0.00  0.00    -0.075 A 
ATOM      2  C2  N4B d   1      -4.838   3.616   1.564  0.00  0.00     0.002 A 
ATOM      3  C3  N4B d   1      -5.521   4.806   1.625  0.00  0.00     0.002 A 
ATOM      4  C4  N4B d   1      -4.816   6.000   1.651  0.00  0.00    -0.004 A 
ATOM      5  C5  N4B d   1      -3.455   5.990   1.571  0.00  0.00     0.002 A 
ATOM      6  C6  N4B d   1      -2.755   4.802   1.505  0.00  0.00     0.002 A 
ENDROOT
BRANCH   1   7
ATOM      7  C1' N4B d   1      -2.634   2.336   1.527  0.00  0.00     0.057 C 
BRANCH   7   8
ATOM      8  C2' N4B d   1      -1.230   2.610   0.996  0.00  0.00     0.009 C 
BRANCH   8   9
ATOM      9  C3' N4B d   1      -1.243   2.996  -0.473  0.00  0.00     0.004 C 
ATOM     10  C4' N4B d   1      -0.001   3.724  -0.894  0.00  0.00     0.003 C 
ENDBRANCH   8   9
ENDBRANCH   7   8
ENDBRANCH   1   7
TORSDOF 3
ENDMDL
