MODEL 1
REMARK minimizedAffinity -4.51991129
REMARK minimizedRMSD -1
REMARK  0 active torsions:
REMARK  status: ('A' for Active; 'I' for Inactive)
ROOT
ATOM      1  O1  BZF d   1      -1.548  -1.101   0.338  0.00  0.00    -0.204 OA
ATOM      2  C2  BZF d   1      -0.681  -0.038   0.500  0.00  0.00     0.174 A 
ATOM      3  C3  BZF d   1       0.517  -0.309  -0.058  0.00  0.00    -0.012 A 
ATOM      4  C3A BZF d   1       0.361  -1.587  -0.683  0.00  0.00    -0.107 A 
ATOM      5  C4  BZF d   1       1.196  -2.383  -1.412  0.00  0.00     0.055 A 
ATOM      6  C5  BZF d   1       0.758  -3.605  -1.816  0.00  0.00    -0.016 A 
ATOM      7  C6  BZF d   1      -0.505  -4.063  -1.504  0.00  0.00     0.022 A 
ATOM      8  C7  BZF d   1      -1.371  -3.306  -0.787  0.00  0.00     0.029 A 
ATOM      9  C7A BZF d   1      -0.943  -2.058  -0.406  0.00  0.00     0.058 A 
ENDROOT
TORSDOF 0
ENDMDL
