MODEL 1
REMARK minimizedAffinity -2.68719482
REMARK minimizedRMSD -1
REMARK  0 active torsions:
REMARK  status: ('A' for Active; 'I' for Inactive)
ROOT
ATOM      1  O1  BZF d   1       0.134  -2.365  -0.755  0.00  0.00    -0.204 OA
ATOM      2  C2  BZF d   1      -0.580  -3.196   0.086  0.00  0.00     0.174 A 
ATOM      3  C3  BZF d   1      -1.165  -2.489   1.074  0.00  0.00    -0.012 A 
ATOM      4  C3A BZF d   1      -0.869  -1.120   0.783  0.00  0.00    -0.107 A 
ATOM      5  C4  BZF d   1      -1.189   0.060   1.392  0.00  0.00     0.055 A 
ATOM      6  C5  BZF d   1      -0.681   1.218   0.896  0.00  0.00    -0.016 A 
ATOM      7  C6  BZF d   1       0.153   1.233  -0.203  0.00  0.00     0.022 A 
ATOM      8  C7  BZF d   1       0.494   0.089  -0.844  0.00  0.00     0.029 A 
ATOM      9  C7A BZF d   1      -0.044  -1.080  -0.365  0.00  0.00     0.058 A 
ENDROOT
TORSDOF 0
ENDMDL
