MODEL 1
REMARK minimizedAffinity -2.77000213
REMARK minimizedRMSD -1
REMARK  0 active torsions:
REMARK  status: ('A' for Active; 'I' for Inactive)
ROOT
ATOM      1  O1  BZF d   1      -1.055  -2.234   0.865  0.00  0.00    -0.204 OA
ATOM      2  C2  BZF d   1      -0.216  -3.033   0.112  0.00  0.00     0.174 A 
ATOM      3  C3  BZF d   1       0.596  -2.280  -0.658  0.00  0.00    -0.012 A 
ATOM      4  C3A BZF d   1       0.306  -0.926  -0.299  0.00  0.00    -0.107 A 
ATOM      5  C4  BZF d   1       0.800   0.280  -0.708  0.00  0.00     0.055 A 
ATOM      6  C5  BZF d   1       0.250   1.421  -0.214  0.00  0.00    -0.016 A 
ATOM      7  C6  BZF d   1      -0.797   1.393   0.684  0.00  0.00     0.022 A 
ATOM      8  C7  BZF d   1      -1.317   0.220   1.122  0.00  0.00     0.029 A 
ATOM      9  C7A BZF d   1      -0.741  -0.934   0.651  0.00  0.00     0.058 A 
ENDROOT
TORSDOF 0
ENDMDL
