MODEL 1
REMARK minimizedAffinity -4.01808119
REMARK minimizedRMSD -1
REMARK  0 active torsions:
REMARK  status: ('A' for Active; 'I' for Inactive)
ROOT
ATOM      1  O1  BZF d   1       0.394   0.352  -1.774  0.00  0.00    -0.204 OA
ATOM      2  C2  BZF d   1      -0.045   1.536  -1.212  0.00  0.00     0.174 A 
ATOM      3  C3  BZF d   1      -0.615   1.312  -0.010  0.00  0.00    -0.012 A 
ATOM      4  C3A BZF d   1      -0.445  -0.088   0.233  0.00  0.00    -0.107 A 
ATOM      5  C4  BZF d   1      -0.787  -0.909   1.269  0.00  0.00     0.055 A 
ATOM      6  C5  BZF d   1      -0.542  -2.242   1.163  0.00  0.00    -0.016 A 
ATOM      7  C6  BZF d   1       0.037  -2.787   0.036  0.00  0.00     0.022 A 
ATOM      8  C7  BZF d   1       0.398  -2.011  -1.015  0.00  0.00     0.029 A 
ATOM      9  C7A BZF d   1       0.183  -0.660  -0.898  0.00  0.00     0.058 A 
ENDROOT
TORSDOF 0
ENDMDL
