MODEL 1
REMARK minimizedAffinity -5.33533859
REMARK minimizedRMSD -1
REMARK  0 active torsions:
REMARK  status: ('A' for Active; 'I' for Inactive)
ROOT
ATOM      1  O1  BZF d   1      -0.156   0.027  -2.129  0.00  0.00    -0.204 OA
ATOM      2  C2  BZF d   1      -0.487   1.230  -1.534  0.00  0.00     0.174 A 
ATOM      3  C3  BZF d   1      -0.802   1.051  -0.235  0.00  0.00    -0.012 A 
ATOM      4  C3A BZF d   1      -0.570  -0.338   0.020  0.00  0.00    -0.107 A 
ATOM      5  C4  BZF d   1      -0.688  -1.120   1.134  0.00  0.00     0.055 A 
ATOM      6  C5  BZF d   1      -0.454  -2.455   1.031  0.00  0.00    -0.016 A 
ATOM      7  C6  BZF d   1      -0.106  -3.041  -0.169  0.00  0.00     0.022 A 
ATOM      8  C7  BZF d   1       0.028  -2.305  -1.299  0.00  0.00     0.029 A 
ATOM      9  C7A BZF d   1      -0.175  -0.951  -1.191  0.00  0.00     0.058 A 
ENDROOT
TORSDOF 0
ENDMDL
