MODEL 1
REMARK minimizedAffinity 0.770150781
REMARK minimizedRMSD -1
REMARK  0 active torsions:
REMARK  status: ('A' for Active; 'I' for Inactive)
ROOT
ATOM      1  O1  BZF d   1      -2.483  -0.898   1.073  0.00  0.00    -0.204 OA
ATOM      2  C2  BZF d   1      -1.934   0.365   1.188  0.00  0.00     0.174 A 
ATOM      3  C3  BZF d   1      -0.606   0.332   0.956  0.00  0.00    -0.012 A 
ATOM      4  C3A BZF d   1      -0.322  -1.021   0.589  0.00  0.00    -0.107 A 
ATOM      5  C4  BZF d   1       0.821  -1.675   0.226  0.00  0.00     0.055 A 
ATOM      6  C5  BZF d   1       0.772  -3.014   0.001  0.00  0.00    -0.016 A 
ATOM      7  C6  BZF d   1      -0.399  -3.731   0.135  0.00  0.00     0.022 A 
ATOM      8  C7  BZF d   1      -1.559  -3.125   0.487  0.00  0.00     0.029 A 
ATOM      9  C7A BZF d   1      -1.520  -1.766   0.683  0.00  0.00     0.058 A 
ENDROOT
TORSDOF 0
ENDMDL
