MODEL 1
REMARK minimizedAffinity -2.07248569
REMARK minimizedRMSD -1
REMARK  0 active torsions:
REMARK  status: ('A' for Active; 'I' for Inactive)
ROOT
ATOM      1  O1  BZF d   1      -1.185   0.143   0.606  0.00  0.00    -0.204 OA
ATOM      2  C2  BZF d   1      -0.480   1.021  -0.195  0.00  0.00     0.174 A 
ATOM      3  C3  BZF d   1       0.577   0.406  -0.763  0.00  0.00    -0.012 A 
ATOM      4  C3A BZF d   1       0.477  -0.964  -0.361  0.00  0.00    -0.107 A 
ATOM      5  C4  BZF d   1       1.227  -2.075  -0.618  0.00  0.00     0.055 A 
ATOM      6  C5  BZF d   1       0.901  -3.247  -0.012  0.00  0.00    -0.016 A 
ATOM      7  C6  BZF d   1      -0.165  -3.342   0.859  0.00  0.00     0.022 A 
ATOM      8  C7  BZF d   1      -0.942  -2.268   1.141  0.00  0.00     0.029 A 
ATOM      9  C7A BZF d   1      -0.634  -1.090   0.505  0.00  0.00     0.058 A 
ENDROOT
TORSDOF 0
ENDMDL
