MODEL 1
REMARK minimizedAffinity -4.24780226
REMARK minimizedRMSD -1
REMARK  0 active torsions:
REMARK  status: ('A' for Active; 'I' for Inactive)
ROOT
ATOM      1  O1  BZF d   1      -0.642   0.398   1.001  0.00  0.00    -0.204 OA
ATOM      2  C2  BZF d   1      -0.058   1.177   0.020  0.00  0.00     0.174 A 
ATOM      3  C3  BZF d   1       0.588   0.408  -0.879  0.00  0.00    -0.012 A 
ATOM      4  C3A BZF d   1       0.319  -0.940  -0.484  0.00  0.00    -0.107 A 
ATOM      5  C4  BZF d   1       0.674  -2.157  -0.994  0.00  0.00     0.055 A 
ATOM      6  C5  BZF d   1       0.309  -3.284  -0.328  0.00  0.00    -0.016 A 
ATOM      7  C6  BZF d   1      -0.407  -3.231   0.850  0.00  0.00     0.022 A 
ATOM      8  C7  BZF d   1      -0.786  -2.048   1.391  0.00  0.00     0.029 A 
ATOM      9  C7A BZF d   1      -0.446  -0.909   0.704  0.00  0.00     0.058 A 
ENDROOT
TORSDOF 0
ENDMDL
