MODEL 1
REMARK minimizedAffinity -5.72164631
REMARK minimizedRMSD -1
REMARK  0 active torsions:
REMARK  status: ('A' for Active; 'I' for Inactive)
ROOT
ATOM      1  O1  BZF d   1      -1.319   0.397   0.720  0.00  0.00    -0.204 OA
ATOM      2  C2  BZF d   1      -0.763   1.136  -0.307  0.00  0.00     0.174 A 
ATOM      3  C3  BZF d   1       0.250   0.461  -0.888  0.00  0.00    -0.012 A 
ATOM      4  C3A BZF d   1       0.272  -0.815  -0.241  0.00  0.00    -0.107 A 
ATOM      5  C4  BZF d   1       1.045  -1.931  -0.392  0.00  0.00     0.055 A 
ATOM      6  C5  BZF d   1       0.857  -2.983   0.448  0.00  0.00    -0.016 A 
ATOM      7  C6  BZF d   1      -0.090  -2.951   1.451  0.00  0.00     0.022 A 
ATOM      8  C7  BZF d   1      -0.884  -1.868   1.636  0.00  0.00     0.029 A 
ATOM      9  C7A BZF d   1      -0.719  -0.817   0.768  0.00  0.00     0.058 A 
ENDROOT
TORSDOF 0
ENDMDL
