MODEL 1
REMARK minimizedAffinity -3.28865743
REMARK minimizedRMSD -1
REMARK  0 active torsions:
REMARK  status: ('A' for Active; 'I' for Inactive)
ROOT
ATOM      1  O1  BZF d   1       1.722   0.098  -0.103  0.00  0.00    -0.204 OA
ATOM      2  C2  BZF d   1       1.215   1.347   0.199  0.00  0.00     0.174 A 
ATOM      3  C3  BZF d   1      -0.029   1.248   0.711  0.00  0.00    -0.012 A 
ATOM      4  C3A BZF d   1      -0.282  -0.157   0.815  0.00  0.00    -0.107 A 
ATOM      5  C4  BZF d   1      -1.342  -0.889   1.267  0.00  0.00     0.055 A 
ATOM      6  C5  BZF d   1      -1.302  -2.243   1.164  0.00  0.00    -0.016 A 
ATOM      7  C6  BZF d   1      -0.220  -2.897   0.611  0.00  0.00     0.022 A 
ATOM      8  C7  BZF d   1       0.857  -2.214   0.153  0.00  0.00     0.029 A 
ATOM      9  C7A BZF d   1       0.833  -0.847   0.286  0.00  0.00     0.058 A 
ENDROOT
TORSDOF 0
ENDMDL
