MODEL 1
REMARK minimizedAffinity -4.95780325
REMARK minimizedRMSD -1
REMARK  0 active torsions:
REMARK  status: ('A' for Active; 'I' for Inactive)
ROOT
ATOM      1  O1  BZF d   1       0.448   0.815  -0.719  0.00  0.00    -0.204 OA
ATOM      2  C2  BZF d   1      -0.097   1.482   0.360  0.00  0.00     0.174 A 
ATOM      3  C3  BZF d   1      -0.588   0.609   1.264  0.00  0.00    -0.012 A 
ATOM      4  C3A BZF d   1      -0.251  -0.686   0.758  0.00  0.00    -0.107 A 
ATOM      5  C4  BZF d   1      -0.454  -1.956   1.217  0.00  0.00     0.055 A 
ATOM      6  C5  BZF d   1      -0.066  -3.006   0.448  0.00  0.00    -0.016 A 
ATOM      7  C6  BZF d   1       0.524  -2.824  -0.786  0.00  0.00     0.022 A 
ATOM      8  C7  BZF d   1       0.751  -1.583  -1.281  0.00  0.00     0.029 A 
ATOM      9  C7A BZF d   1       0.389  -0.519  -0.492  0.00  0.00     0.058 A 
ENDROOT
TORSDOF 0
ENDMDL
