MODEL 1
REMARK minimizedAffinity -3.79969144
REMARK minimizedRMSD -1
REMARK  0 active torsions:
REMARK  status: ('A' for Active; 'I' for Inactive)
ROOT
ATOM      1  O1  BZF d   1      -0.122   0.255  -0.560  0.00  0.00    -0.204 OA
ATOM      2  C2  BZF d   1      -0.210   0.597   0.776  0.00  0.00     0.174 A 
ATOM      3  C3  BZF d   1      -0.225  -0.505   1.552  0.00  0.00    -0.012 A 
ATOM      4  C3A BZF d   1      -0.048  -1.603   0.651  0.00  0.00    -0.107 A 
ATOM      5  C4  BZF d   1       0.037  -2.955   0.823  0.00  0.00     0.055 A 
ATOM      6  C5  BZF d   1       0.136  -3.755  -0.270  0.00  0.00    -0.016 A 
ATOM      7  C6  BZF d   1       0.147  -3.239  -1.549  0.00  0.00     0.022 A 
ATOM      8  C7  BZF d   1       0.069  -1.904  -1.770  0.00  0.00     0.029 A 
ATOM      9  C7A BZF d   1       0.003  -1.090  -0.666  0.00  0.00     0.058 A 
ENDROOT
TORSDOF 0
ENDMDL
