MODEL 1
REMARK minimizedAffinity -4.59748793
REMARK minimizedRMSD -1
REMARK  0 active torsions:
REMARK  status: ('A' for Active; 'I' for Inactive)
ROOT
ATOM      1  O1  BZF d   1       1.633   0.052  -0.465  0.00  0.00    -0.204 OA
ATOM      2  C2  BZF d   1       1.049   1.304  -0.483  0.00  0.00     0.174 A 
ATOM      3  C3  BZF d   1      -0.214   1.250  -0.012  0.00  0.00    -0.012 A 
ATOM      4  C3A BZF d   1      -0.401  -0.104   0.408  0.00  0.00    -0.107 A 
ATOM      5  C4  BZF d   1      -1.446  -0.775   0.977  0.00  0.00     0.055 A 
ATOM      6  C5  BZF d   1      -1.332  -2.111   1.196  0.00  0.00    -0.016 A 
ATOM      7  C6  BZF d   1      -0.192  -2.809   0.854  0.00  0.00     0.022 A 
ATOM      8  C7  BZF d   1       0.873  -2.186   0.292  0.00  0.00     0.029 A 
ATOM      9  C7A BZF d   1       0.773  -0.829   0.100  0.00  0.00     0.058 A 
ENDROOT
TORSDOF 0
ENDMDL
