MODEL 1
REMARK minimizedAffinity -5.50286865
REMARK minimizedRMSD -1
REMARK  0 active torsions:
REMARK  status: ('A' for Active; 'I' for Inactive)
ROOT
ATOM      1  O1  BZF d   1       0.281   0.346  -2.189  0.00  0.00    -0.204 OA
ATOM      2  C2  BZF d   1       0.070   1.427  -1.355  0.00  0.00     0.174 A 
ATOM      3  C3  BZF d   1      -0.158   1.018  -0.090  0.00  0.00    -0.012 A 
ATOM      4  C3A BZF d   1       0.007  -0.403  -0.119  0.00  0.00    -0.107 A 
ATOM      5  C4  BZF d   1      -0.076  -1.377   0.834  0.00  0.00     0.055 A 
ATOM      6  C5  BZF d   1       0.066  -2.677   0.464  0.00  0.00    -0.016 A 
ATOM      7  C6  BZF d   1       0.287  -3.038  -0.849  0.00  0.00     0.022 A 
ATOM      8  C7  BZF d   1       0.381  -2.107  -1.829  0.00  0.00     0.029 A 
ATOM      9  C7A BZF d   1       0.271  -0.791  -1.453  0.00  0.00     0.058 A 
ENDROOT
TORSDOF 0
ENDMDL
