MODEL 1
REMARK minimizedAffinity -3.73039246
REMARK minimizedRMSD -1
REMARK  0 active torsions:
REMARK  status: ('A' for Active; 'I' for Inactive)
ROOT
ATOM      1  O1  BZF d   1      -1.059  -2.633   0.895  0.00  0.00    -0.204 OA
ATOM      2  C2  BZF d   1      -0.110  -3.413   0.263  0.00  0.00     0.174 A 
ATOM      3  C3  BZF d   1       0.702  -2.655  -0.501  0.00  0.00    -0.012 A 
ATOM      4  C3A BZF d   1       0.289  -1.306  -0.265  0.00  0.00    -0.107 A 
ATOM      5  C4  BZF d   1       0.724  -0.096  -0.726  0.00  0.00     0.055 A 
ATOM      6  C5  BZF d   1       0.058   1.030  -0.358  0.00  0.00    -0.016 A 
ATOM      7  C6  BZF d   1      -1.049   0.982   0.464  0.00  0.00     0.022 A 
ATOM      8  C7  BZF d   1      -1.515  -0.194   0.951  0.00  0.00     0.029 A 
ATOM      9  C7A BZF d   1      -0.824  -1.330   0.607  0.00  0.00     0.058 A 
ENDROOT
TORSDOF 0
ENDMDL
