MODEL 1
REMARK minimizedAffinity -4.3692975
REMARK minimizedRMSD -1
REMARK  0 active torsions:
REMARK  status: ('A' for Active; 'I' for Inactive)
ROOT
ATOM      1  O1  BZF d   1       0.149  -0.872  -2.642  0.00  0.00    -0.204 OA
ATOM      2  C2  BZF d   1      -0.064  -2.217  -2.872  0.00  0.00     0.174 A 
ATOM      3  C3  BZF d   1      -0.530  -2.825  -1.762  0.00  0.00    -0.012 A 
ATOM      4  C3A BZF d   1      -0.700  -1.777  -0.803  0.00  0.00    -0.107 A 
ATOM      5  C4  BZF d   1      -1.147  -1.748   0.487  0.00  0.00     0.055 A 
ATOM      6  C5  BZF d   1      -1.120  -0.573   1.170  0.00  0.00    -0.016 A 
ATOM      7  C6  BZF d   1      -0.647   0.589   0.596  0.00  0.00     0.022 A 
ATOM      8  C7  BZF d   1      -0.197   0.611  -0.682  0.00  0.00     0.029 A 
ATOM      9  C7A BZF d   1      -0.254  -0.568  -1.385  0.00  0.00     0.058 A 
ENDROOT
TORSDOF 0
ENDMDL
