MODEL 1
REMARK minimizedAffinity 20.9742184
REMARK minimizedRMSD -1
REMARK  0 active torsions:
REMARK  status: ('A' for Active; 'I' for Inactive)
ROOT
ATOM      1  C   UNL d   1      -0.681  -4.212  -0.225  0.00  0.00     0.124 A 
ATOM      2  C1  UNL d   1      -0.767  -4.271  -1.609  0.00  0.00     0.062 A 
ATOM      3  C2  UNL d   1      -1.216  -3.168  -2.330  0.00  0.00     0.162 A 
ATOM      4  C3  UNL d   1      -1.582  -1.996  -1.668  0.00  0.00    -0.034 A 
ATOM      5  C4  UNL d   1      -1.493  -1.944  -0.276  0.00  0.00     0.162 A 
ATOM      6  C5  UNL d   1      -1.044  -3.049   0.440  0.00  0.00     0.062 A 
ATOM      7  F   UNL d   1      -0.961  -2.990   1.778  0.00  0.00    -0.097 F 
ATOM      8  F1  UNL d   1      -1.836  -0.833   0.392  0.00  0.00    -0.096 F 
ATOM      9  I   UNL d   1      -2.253  -0.345  -2.743  0.00  0.00    -0.060 I 
ATOM     10  F2  UNL d   1      -1.289  -3.254  -3.666  0.00  0.00    -0.096 F 
ATOM     11  F3  UNL d   1      -0.418  -5.394  -2.253  0.00  0.00    -0.097 F 
ATOM     12  F4  UNL d   1      -0.250  -5.275   0.467  0.00  0.00    -0.092 F 
ENDROOT
TORSDOF 0
ENDMDL
