MODEL 1
REMARK minimizedAffinity 18.9264297
REMARK minimizedRMSD -1
REMARK  0 active torsions:
REMARK  status: ('A' for Active; 'I' for Inactive)
ROOT
ATOM      1  C   UNL d   1       4.022   0.581   3.372  0.00  0.00     0.124 A 
ATOM      2  C1  UNL d   1       3.012   1.516   3.191  0.00  0.00     0.062 A 
ATOM      3  C2  UNL d   1       3.002   2.689   3.941  0.00  0.00     0.162 A 
ATOM      4  C3  UNL d   1       4.006   2.934   4.877  0.00  0.00    -0.034 A 
ATOM      5  C4  UNL d   1       5.018   1.988   5.054  0.00  0.00     0.162 A 
ATOM      6  C5  UNL d   1       5.023   0.818   4.303  0.00  0.00     0.062 A 
ATOM      7  F   UNL d   1       6.000  -0.084   4.479  0.00  0.00    -0.097 F 
ATOM      8  F1  UNL d   1       5.998   2.193   5.946  0.00  0.00    -0.096 F 
ATOM      9  I   UNL d   1       3.994   4.686   6.000  0.00  0.00    -0.060 I 
ATOM     10  F2  UNL d   1       2.014   3.574   3.745  0.00  0.00    -0.096 F 
ATOM     11  F3  UNL d   1       2.043   1.289   2.293  0.00  0.00    -0.097 F 
ATOM     12  F4  UNL d   1       4.029  -0.547   2.650  0.00  0.00    -0.092 F 
ENDROOT
TORSDOF 0
ENDMDL
