MODEL 1
REMARK minimizedAffinity 19.4400272
REMARK minimizedRMSD -1
REMARK  0 active torsions:
REMARK  status: ('A' for Active; 'I' for Inactive)
ROOT
ATOM      1  C   UNL d   1      -2.888  -1.517   0.499  0.00  0.00     0.124 A 
ATOM      2  C1  UNL d   1      -3.152  -0.669  -0.568  0.00  0.00     0.062 A 
ATOM      3  C2  UNL d   1      -2.360  -0.714  -1.711  0.00  0.00     0.162 A 
ATOM      4  C3  UNL d   1      -1.296  -1.612  -1.795  0.00  0.00    -0.034 A 
ATOM      5  C4  UNL d   1      -1.035  -2.461  -0.718  0.00  0.00     0.162 A 
ATOM      6  C5  UNL d   1      -1.830  -2.412   0.423  0.00  0.00     0.062 A 
ATOM      7  F   UNL d   1      -1.573  -3.233   1.452  0.00  0.00    -0.097 F 
ATOM      8  F1  UNL d   1      -0.020  -3.337  -0.765  0.00  0.00    -0.096 F 
ATOM      9  I   UNL d   1      -0.109  -1.683  -3.503  0.00  0.00    -0.060 I 
ATOM     10  F2  UNL d   1      -2.638   0.117  -2.726  0.00  0.00    -0.096 F 
ATOM     11  F3  UNL d   1      -4.173   0.198  -0.496  0.00  0.00    -0.097 F 
ATOM     12  F4  UNL d   1      -3.651  -1.471   1.598  0.00  0.00    -0.092 F 
ENDROOT
TORSDOF 0
ENDMDL
