MODEL 1
REMARK minimizedAffinity 33.353878
REMARK minimizedRMSD -1
REMARK  0 active torsions:
REMARK  status: ('A' for Active; 'I' for Inactive)
ROOT
ATOM      1  C   UNL d   1      -0.956  -3.830  -0.298  0.00  0.00     0.124 A 
ATOM      2  C1  UNL d   1      -1.525  -2.594  -0.024  0.00  0.00     0.062 A 
ATOM      3  C2  UNL d   1      -2.055  -2.331   1.236  0.00  0.00     0.162 A 
ATOM      4  C3  UNL d   1      -2.017  -3.306   2.233  0.00  0.00    -0.034 A 
ATOM      5  C4  UNL d   1      -1.444  -4.547   1.950  0.00  0.00     0.162 A 
ATOM      6  C5  UNL d   1      -0.916  -4.805   0.689  0.00  0.00     0.062 A 
ATOM      7  F   UNL d   1      -0.366  -6.000   0.426  0.00  0.00    -0.097 F 
ATOM      8  F1  UNL d   1      -1.391  -5.507   2.885  0.00  0.00    -0.096 F 
ATOM      9  I   UNL d   1      -2.808  -2.917   4.119  0.00  0.00    -0.060 I 
ATOM     10  F2  UNL d   1      -2.599  -1.128   1.473  0.00  0.00    -0.096 F 
ATOM     11  F3  UNL d   1      -1.566  -1.651  -0.976  0.00  0.00    -0.097 F 
ATOM     12  F4  UNL d   1      -0.448  -4.081  -1.511  0.00  0.00    -0.092 F 
ENDROOT
TORSDOF 0
ENDMDL
