MODEL 1
REMARK minimizedAffinity 22.3945198
REMARK minimizedRMSD -1
REMARK  0 active torsions:
REMARK  status: ('A' for Active; 'I' for Inactive)
ROOT
ATOM      1  C   UNL d   1       4.165   3.748  -0.367  0.00  0.00     0.124 A 
ATOM      2  C1  UNL d   1       4.625   4.888   0.279  0.00  0.00     0.062 A 
ATOM      3  C2  UNL d   1       4.809   4.884   1.658  0.00  0.00     0.162 A 
ATOM      4  C3  UNL d   1       4.535   3.737   2.402  0.00  0.00    -0.034 A 
ATOM      5  C4  UNL d   1       4.072   2.595   1.746  0.00  0.00     0.162 A 
ATOM      6  C5  UNL d   1       3.889   2.603   0.367  0.00  0.00     0.062 A 
ATOM      7  F   UNL d   1       3.445   1.501  -0.255  0.00  0.00    -0.097 F 
ATOM      8  F1  UNL d   1       3.799   1.474   2.431  0.00  0.00    -0.096 F 
ATOM      9  I   UNL d   1       4.810   3.727   4.465  0.00  0.00    -0.060 I 
ATOM     10  F2  UNL d   1       5.255   6.000   2.256  0.00  0.00    -0.096 F 
ATOM     11  F3  UNL d   1       4.891   5.996  -0.428  0.00  0.00    -0.097 F 
ATOM     12  F4  UNL d   1       3.987   3.755  -1.694  0.00  0.00    -0.092 F 
ENDROOT
TORSDOF 0
ENDMDL
