MODEL 1
REMARK minimizedAffinity 19.9926682
REMARK minimizedRMSD -1
REMARK  0 active torsions:
REMARK  status: ('A' for Active; 'I' for Inactive)
ROOT
ATOM      1  C   UNL d   1      -0.593  -3.921   0.385  0.00  0.00     0.124 A 
ATOM      2  C1  UNL d   1      -0.604  -4.778   1.477  0.00  0.00     0.062 A 
ATOM      3  C2  UNL d   1      -1.177  -4.374   2.679  0.00  0.00     0.162 A 
ATOM      4  C3  UNL d   1      -1.746  -3.106   2.795  0.00  0.00    -0.034 A 
ATOM      5  C4  UNL d   1      -1.731  -2.249   1.693  0.00  0.00     0.162 A 
ATOM      6  C5  UNL d   1      -1.156  -2.658   0.494  0.00  0.00     0.062 A 
ATOM      7  F   UNL d   1      -1.147  -1.829  -0.560  0.00  0.00    -0.097 F 
ATOM      8  F1  UNL d   1      -2.269  -1.023   1.771  0.00  0.00    -0.096 F 
ATOM      9  I   UNL d   1      -2.604  -2.497   4.591  0.00  0.00    -0.060 I 
ATOM     10  F2  UNL d   1      -1.173  -5.223   3.717  0.00  0.00    -0.096 F 
ATOM     11  F3  UNL d   1      -0.059  -6.000   1.374  0.00  0.00    -0.097 F 
ATOM     12  F4  UNL d   1      -0.040  -4.313  -0.770  0.00  0.00    -0.092 F 
ENDROOT
TORSDOF 0
ENDMDL
