MODEL 1
REMARK minimizedAffinity 15.187664
REMARK minimizedRMSD -1
REMARK  0 active torsions:
REMARK  status: ('A' for Active; 'I' for Inactive)
ROOT
ATOM      1  C   UNL d   1      -0.450  -3.707  -1.368  0.00  0.00     0.124 A 
ATOM      2  C1  UNL d   1      -0.281  -4.859  -0.612  0.00  0.00     0.062 A 
ATOM      3  C2  UNL d   1      -0.608  -4.862   0.741  0.00  0.00     0.162 A 
ATOM      4  C3  UNL d   1      -1.108  -3.710   1.347  0.00  0.00    -0.034 A 
ATOM      5  C4  UNL d   1      -1.274  -2.555   0.581  0.00  0.00     0.162 A 
ATOM      6  C5  UNL d   1      -0.946  -2.556  -0.771  0.00  0.00     0.062 A 
ATOM      7  F   UNL d   1      -1.109  -1.442  -1.500  0.00  0.00    -0.097 F 
ATOM      8  F1  UNL d   1      -1.752  -1.429   1.132  0.00  0.00    -0.096 F 
ATOM      9  I   UNL d   1      -1.598  -3.711   3.370  0.00  0.00    -0.060 I 
ATOM     10  F2  UNL d   1      -0.435  -5.990   1.447  0.00  0.00    -0.096 F 
ATOM     11  F3  UNL d   1       0.198  -5.971  -1.186  0.00  0.00    -0.097 F 
ATOM     12  F4  UNL d   1      -0.134  -3.706  -2.669  0.00  0.00    -0.092 F 
ENDROOT
TORSDOF 0
ENDMDL
