MODEL 1
REMARK minimizedAffinity 15.4309883
REMARK minimizedRMSD -1
REMARK  0 active torsions:
REMARK  status: ('A' for Active; 'I' for Inactive)
ROOT
ATOM      1  C   UNL d   1      -1.489  -2.739   0.487  0.00  0.00     0.124 A 
ATOM      2  C1  UNL d   1      -2.249  -2.468   1.616  0.00  0.00     0.062 A 
ATOM      3  C2  UNL d   1      -2.305  -3.388   2.659  0.00  0.00     0.162 A 
ATOM      4  C3  UNL d   1      -1.599  -4.588   2.578  0.00  0.00    -0.034 A 
ATOM      5  C4  UNL d   1      -0.838  -4.854   1.438  0.00  0.00     0.162 A 
ATOM      6  C5  UNL d   1      -0.785  -3.931   0.399  0.00  0.00     0.062 A 
ATOM      7  F   UNL d   1      -0.050  -4.194  -0.692  0.00  0.00    -0.097 F 
ATOM      8  F1  UNL d   1      -0.146  -5.998   1.327  0.00  0.00    -0.096 F 
ATOM      9  I   UNL d   1      -1.680  -5.967   4.135  0.00  0.00    -0.060 I 
ATOM     10  F2  UNL d   1      -3.048  -3.101   3.739  0.00  0.00    -0.096 F 
ATOM     11  F3  UNL d   1      -2.932  -1.317   1.704  0.00  0.00    -0.097 F 
ATOM     12  F4  UNL d   1      -1.438  -1.852  -0.515  0.00  0.00    -0.092 F 
ENDROOT
TORSDOF 0
ENDMDL
