MODEL 1
REMARK minimizedAffinity 20.6913433
REMARK minimizedRMSD -1
REMARK  0 active torsions:
REMARK  status: ('A' for Active; 'I' for Inactive)
ROOT
ATOM      1  C   UNL d   1      -3.286   0.204  -1.803  0.00  0.00     0.124 A 
ATOM      2  C1  UNL d   1      -2.569  -0.871  -1.296  0.00  0.00     0.062 A 
ATOM      3  C2  UNL d   1      -1.238  -1.057  -1.658  0.00  0.00     0.162 A 
ATOM      4  C3  UNL d   1      -0.614  -0.166  -2.531  0.00  0.00    -0.034 A 
ATOM      5  C4  UNL d   1      -1.342   0.913  -3.037  0.00  0.00     0.162 A 
ATOM      6  C5  UNL d   1      -2.672   1.095  -2.672  0.00  0.00     0.062 A 
ATOM      7  F   UNL d   1      -3.363   2.134  -3.163  0.00  0.00    -0.097 F 
ATOM      8  F1  UNL d   1      -0.773   1.789  -3.878  0.00  0.00    -0.096 F 
ATOM      9  I   UNL d   1       1.376  -0.441  -3.074  0.00  0.00    -0.060 I 
ATOM     10  F2  UNL d   1      -0.569  -2.105  -1.153  0.00  0.00    -0.096 F 
ATOM     11  F3  UNL d   1      -3.160  -1.733  -0.456  0.00  0.00    -0.097 F 
ATOM     12  F4  UNL d   1      -4.567   0.381  -1.454  0.00  0.00    -0.092 F 
ENDROOT
TORSDOF 0
ENDMDL
