MODEL 1
REMARK minimizedAffinity 35.7575569
REMARK minimizedRMSD -1
REMARK  0 active torsions:
REMARK  status: ('A' for Active; 'I' for Inactive)
ROOT
ATOM      1  C   UNL d   1       2.717   2.250  -0.004  0.00  0.00     0.124 A 
ATOM      2  C1  UNL d   1       2.478   1.208  -0.888  0.00  0.00     0.062 A 
ATOM      3  C2  UNL d   1       3.414   0.894  -1.870  0.00  0.00     0.162 A 
ATOM      4  C3  UNL d   1       4.598   1.624  -1.972  0.00  0.00    -0.034 A 
ATOM      5  C4  UNL d   1       4.831   2.672  -1.079  0.00  0.00     0.162 A 
ATOM      6  C5  UNL d   1       3.893   2.981  -0.100  0.00  0.00     0.062 A 
ATOM      7  F   UNL d   1       4.125   3.989   0.754  0.00  0.00    -0.097 F 
ATOM      8  F1  UNL d   1       5.959   3.394  -1.149  0.00  0.00    -0.096 F 
ATOM      9  I   UNL d   1       6.000   1.158  -3.438  0.00  0.00    -0.060 I 
ATOM     10  F2  UNL d   1       3.157  -0.119  -2.711  0.00  0.00    -0.096 F 
ATOM     11  F3  UNL d   1       1.342   0.501  -0.798  0.00  0.00    -0.097 F 
ATOM     12  F4  UNL d   1       1.815   2.551   0.939  0.00  0.00    -0.092 F 
ENDROOT
TORSDOF 0
ENDMDL
