MODEL 1
REMARK minimizedAffinity 19.518383
REMARK minimizedRMSD -1
REMARK  0 active torsions:
REMARK  status: ('A' for Active; 'I' for Inactive)
ROOT
ATOM      1  C   UNL d   1       3.190   1.491  -0.939  0.00  0.00     0.124 A 
ATOM      2  C1  UNL d   1       2.843   2.815  -1.168  0.00  0.00     0.062 A 
ATOM      3  C2  UNL d   1       1.942   3.138  -2.179  0.00  0.00     0.162 A 
ATOM      4  C3  UNL d   1       1.380   2.134  -2.968  0.00  0.00    -0.034 A 
ATOM      5  C4  UNL d   1       1.735   0.805  -2.732  0.00  0.00     0.162 A 
ATOM      6  C5  UNL d   1       2.636   0.487  -1.721  0.00  0.00     0.062 A 
ATOM      7  F   UNL d   1       2.970  -0.792  -1.501  0.00  0.00    -0.097 F 
ATOM      8  F1  UNL d   1       1.214  -0.185  -3.472  0.00  0.00    -0.096 F 
ATOM      9  I   UNL d   1       0.032   2.612  -4.480  0.00  0.00    -0.060 I 
ATOM     10  F2  UNL d   1       1.624   4.426  -2.378  0.00  0.00    -0.096 F 
ATOM     11  F3  UNL d   1       3.378   3.787  -0.415  0.00  0.00    -0.097 F 
ATOM     12  F4  UNL d   1       4.058   1.184   0.033  0.00  0.00    -0.092 F 
ENDROOT
TORSDOF 0
ENDMDL
