MODEL 1
REMARK minimizedAffinity 25.7697392
REMARK minimizedRMSD -1
REMARK  0 active torsions:
REMARK  status: ('A' for Active; 'I' for Inactive)
ROOT
ATOM      1  C   UNL d   1      -4.508   1.694   5.839  0.00  0.00     0.124 A 
ATOM      2  C1  UNL d   1      -4.723   0.324   5.780  0.00  0.00     0.062 A 
ATOM      3  C2  UNL d   1      -3.643  -0.554   5.787  0.00  0.00     0.162 A 
ATOM      4  C3  UNL d   1      -2.338  -0.065   5.855  0.00  0.00    -0.034 A 
ATOM      5  C4  UNL d   1      -2.131   1.314   5.914  0.00  0.00     0.162 A 
ATOM      6  C5  UNL d   1      -3.213   2.188   5.907  0.00  0.00     0.062 A 
ATOM      7  F   UNL d   1      -3.004   3.511   5.964  0.00  0.00    -0.097 F 
ATOM      8  F1  UNL d   1      -0.890   1.818   5.981  0.00  0.00    -0.096 F 
ATOM      9  I   UNL d   1      -0.721  -1.375   5.866  0.00  0.00    -0.060 I 
ATOM     10  F2  UNL d   1      -3.880  -1.873   5.728  0.00  0.00    -0.096 F 
ATOM     11  F3  UNL d   1      -5.973  -0.155   5.714  0.00  0.00    -0.097 F 
ATOM     12  F4  UNL d   1      -5.549   2.537   5.831  0.00  0.00    -0.092 F 
ENDROOT
TORSDOF 0
ENDMDL
