MODEL 1
REMARK minimizedAffinity 20.1303082
REMARK minimizedRMSD -1
REMARK  0 active torsions:
REMARK  status: ('A' for Active; 'I' for Inactive)
ROOT
ATOM      1  C   UNL d   1      -1.715  -2.441  -1.444  0.00  0.00     0.124 A 
ATOM      2  C1  UNL d   1      -1.117  -3.567  -1.992  0.00  0.00     0.062 A 
ATOM      3  C2  UNL d   1      -0.647  -4.583  -1.164  0.00  0.00     0.162 A 
ATOM      4  C3  UNL d   1      -0.775  -4.478   0.221  0.00  0.00    -0.034 A 
ATOM      5  C4  UNL d   1      -1.378  -3.342   0.765  0.00  0.00     0.162 A 
ATOM      6  C5  UNL d   1      -1.845  -2.330  -0.066  0.00  0.00     0.062 A 
ATOM      7  F   UNL d   1      -2.423  -1.242   0.465  0.00  0.00    -0.097 F 
ATOM      8  F1  UNL d   1      -1.517  -3.210   2.092  0.00  0.00    -0.096 F 
ATOM      9  I   UNL d   1      -0.075  -5.996   1.461  0.00  0.00    -0.060 I 
ATOM     10  F2  UNL d   1      -0.073  -5.660  -1.721  0.00  0.00    -0.096 F 
ATOM     11  F3  UNL d   1      -0.989  -3.676  -3.322  0.00  0.00    -0.097 F 
ATOM     12  F4  UNL d   1      -2.165  -1.464  -2.242  0.00  0.00    -0.092 F 
ENDROOT
TORSDOF 0
ENDMDL
