MODEL 1
REMARK minimizedAffinity 22.2296486
REMARK minimizedRMSD -1
REMARK  0 active torsions:
REMARK  status: ('A' for Active; 'I' for Inactive)
ROOT
ATOM      1  C   UNL d   1      -0.171   1.461  -3.646  0.00  0.00     0.124 A 
ATOM      2  C1  UNL d   1      -0.038   2.540  -4.509  0.00  0.00     0.062 A 
ATOM      3  C2  UNL d   1      -1.152   3.049  -5.170  0.00  0.00     0.162 A 
ATOM      4  C3  UNL d   1      -2.410   2.481  -4.969  0.00  0.00    -0.034 A 
ATOM      5  C4  UNL d   1      -2.536   1.395  -4.101  0.00  0.00     0.162 A 
ATOM      6  C5  UNL d   1      -1.419   0.890  -3.443  0.00  0.00     0.062 A 
ATOM      7  F   UNL d   1      -1.550  -0.153  -2.609  0.00  0.00    -0.097 F 
ATOM      8  F1  UNL d   1      -3.730   0.825  -3.885  0.00  0.00    -0.096 F 
ATOM      9  I   UNL d   1      -4.078   3.239  -5.955  0.00  0.00    -0.060 I 
ATOM     10  F2  UNL d   1      -0.994   4.092  -5.998  0.00  0.00    -0.096 F 
ATOM     11  F3  UNL d   1       1.167   3.093  -4.708  0.00  0.00    -0.097 F 
ATOM     12  F4  UNL d   1       0.903   0.972  -3.013  0.00  0.00    -0.092 F 
ENDROOT
TORSDOF 0
ENDMDL
