MODEL 1
REMARK minimizedAffinity 13.4428854
REMARK minimizedRMSD -1
REMARK  0 active torsions:
REMARK  status: ('A' for Active; 'I' for Inactive)
ROOT
ATOM      1  C   UNL d   1      -1.125  -2.894  -2.016  0.00  0.00     0.124 A 
ATOM      2  C1  UNL d   1      -1.797  -1.856  -1.386  0.00  0.00     0.062 A 
ATOM      3  C2  UNL d   1      -1.996  -1.884  -0.008  0.00  0.00     0.162 A 
ATOM      4  C3  UNL d   1      -1.520  -2.954   0.749  0.00  0.00    -0.034 A 
ATOM      5  C4  UNL d   1      -0.846  -3.995   0.109  0.00  0.00     0.162 A 
ATOM      6  C5  UNL d   1      -0.650  -3.962  -1.268  0.00  0.00     0.062 A 
ATOM      7  F   UNL d   1      -0.000  -4.966  -1.875  0.00  0.00    -0.097 F 
ATOM      8  F1  UNL d   1      -0.375  -5.039   0.807  0.00  0.00    -0.096 F 
ATOM      9  I   UNL d   1      -1.814  -3.000   2.809  0.00  0.00    -0.060 I 
ATOM     10  F2  UNL d   1      -2.649  -0.867   0.574  0.00  0.00    -0.096 F 
ATOM     11  F3  UNL d   1      -2.258  -0.823  -2.106  0.00  0.00    -0.097 F 
ATOM     12  F4  UNL d   1      -0.936  -2.865  -3.341  0.00  0.00    -0.092 F 
ENDROOT
TORSDOF 0
ENDMDL
