MODEL 1
REMARK minimizedAffinity 23.2320366
REMARK minimizedRMSD -1
REMARK  0 active torsions:
REMARK  status: ('A' for Active; 'I' for Inactive)
ROOT
ATOM      1  C   UNL d   1      -3.512  -1.108   0.643  0.00  0.00     0.124 A 
ATOM      2  C1  UNL d   1      -2.167  -1.148   0.304  0.00  0.00     0.062 A 
ATOM      3  C2  UNL d   1      -1.401  -2.269   0.608  0.00  0.00     0.162 A 
ATOM      4  C3  UNL d   1      -1.980  -3.361   1.256  0.00  0.00    -0.034 A 
ATOM      5  C4  UNL d   1      -3.333  -3.313   1.594  0.00  0.00     0.162 A 
ATOM      6  C5  UNL d   1      -4.094  -2.190   1.288  0.00  0.00     0.062 A 
ATOM      7  F   UNL d   1      -5.394  -2.153   1.616  0.00  0.00    -0.097 F 
ATOM      8  F1  UNL d   1      -3.921  -4.346   2.217  0.00  0.00    -0.096 F 
ATOM      9  I   UNL d   1      -0.838  -5.040   1.713  0.00  0.00    -0.060 I 
ATOM     10  F2  UNL d   1      -0.104  -2.280   0.269  0.00  0.00    -0.096 F 
ATOM     11  F3  UNL d   1      -1.603  -0.103  -0.319  0.00  0.00    -0.097 F 
ATOM     12  F4  UNL d   1      -4.247  -0.027   0.349  0.00  0.00    -0.092 F 
ENDROOT
TORSDOF 0
ENDMDL
