MODEL 1
REMARK minimizedAffinity 24.797123
REMARK minimizedRMSD -1
REMARK  0 active torsions:
REMARK  status: ('A' for Active; 'I' for Inactive)
ROOT
ATOM      1  C   UNL d   1      -4.546   0.235   5.625  0.00  0.00     0.124 A 
ATOM      2  C1  UNL d   1      -3.299   0.814   5.814  0.00  0.00     0.062 A 
ATOM      3  C2  UNL d   1      -2.152   0.025   5.812  0.00  0.00     0.162 A 
ATOM      4  C3  UNL d   1      -2.247  -1.354   5.619  0.00  0.00    -0.034 A 
ATOM      5  C4  UNL d   1      -3.505  -1.929   5.431  0.00  0.00     0.162 A 
ATOM      6  C5  UNL d   1      -4.648  -1.136   5.434  0.00  0.00     0.062 A 
ATOM      7  F   UNL d   1      -5.852  -1.698   5.251  0.00  0.00    -0.097 F 
ATOM      8  F1  UNL d   1      -3.632  -3.251   5.243  0.00  0.00    -0.096 F 
ATOM      9  I   UNL d   1      -0.536  -2.537   5.615  0.00  0.00    -0.060 I 
ATOM     10  F2  UNL d   1      -0.960   0.612   5.997  0.00  0.00    -0.096 F 
ATOM     11  F3  UNL d   1      -3.197   2.138   6.000  0.00  0.00    -0.097 F 
ATOM     12  F4  UNL d   1      -5.647   0.997   5.628  0.00  0.00    -0.092 F 
ENDROOT
TORSDOF 0
ENDMDL
