MODEL 1
REMARK minimizedAffinity 26.132349
REMARK minimizedRMSD -1
REMARK  0 active torsions:
REMARK  status: ('A' for Active; 'I' for Inactive)
ROOT
ATOM      1  C   UNL d   1      -1.897  -2.162   5.191  0.00  0.00     0.124 A 
ATOM      2  C1  UNL d   1      -1.515  -0.837   5.348  0.00  0.00     0.062 A 
ATOM      3  C2  UNL d   1      -2.473   0.145   5.579  0.00  0.00     0.162 A 
ATOM      4  C3  UNL d   1      -3.824  -0.194   5.655  0.00  0.00    -0.034 A 
ATOM      5  C4  UNL d   1      -4.201  -1.529   5.495  0.00  0.00     0.162 A 
ATOM      6  C5  UNL d   1      -3.239  -2.507   5.264  0.00  0.00     0.062 A 
ATOM      7  F   UNL d   1      -3.610  -3.787   5.112  0.00  0.00    -0.097 F 
ATOM      8  F1  UNL d   1      -5.491  -1.890   5.562  0.00  0.00    -0.096 F 
ATOM      9  I   UNL d   1      -5.261   1.271   6.000  0.00  0.00    -0.060 I 
ATOM     10  F2  UNL d   1      -2.076   1.417   5.727  0.00  0.00    -0.096 F 
ATOM     11  F3  UNL d   1      -0.218  -0.502   5.277  0.00  0.00    -0.097 F 
ATOM     12  F4  UNL d   1      -0.972  -3.105   4.968  0.00  0.00    -0.092 F 
ENDROOT
TORSDOF 0
ENDMDL
