MODEL 1
REMARK minimizedAffinity 3.47307396
REMARK minimizedRMSD -1
REMARK  2 active torsions:
REMARK  status: ('A' for Active; 'I' for Inactive)
REMARK    1  A    between atoms: C1_2  and  C2_3 
REMARK    2  A    between atoms: C2_3  and  C3_4 
ROOT
ATOM      1  C3  UNL d   1       0.492   1.544   1.510  0.00  0.00    -0.075 A 
ATOM      2  C4  UNL d   1       1.510   0.615   1.251  0.00  0.00     0.002 A 
ATOM      3  C5  UNL d   1       1.908  -0.293   2.232  0.00  0.00     0.002 A 
ATOM      4  C6  UNL d   1       1.301  -0.278   3.486  0.00  0.00    -0.004 A 
ATOM      5  C7  UNL d   1       0.300   0.652   3.761  0.00  0.00     0.002 A 
ATOM      6  C8  UNL d   1      -0.103   1.559   2.779  0.00  0.00     0.002 A 
ENDROOT
BRANCH   1   7
ATOM      7  C2  UNL d   1       0.037   2.510   0.443  0.00  0.00     0.056 C 
BRANCH   7   8
ATOM      8  C1  UNL d   1       0.762   3.860   0.472  0.00  0.00     0.007 C 
ATOM      9  C   UNL d   1       0.222   4.854  -0.547  0.00  0.00     0.009 C 
ENDBRANCH   7   8
ENDBRANCH   1   7
TORSDOF 2
ENDMDL
