MODEL 1
REMARK minimizedAffinity 1.30471826
REMARK minimizedRMSD -1
REMARK  2 active torsions:
REMARK  status: ('A' for Active; 'I' for Inactive)
REMARK    1  A    between atoms: C1_2  and  C2_3 
REMARK    2  A    between atoms: C2_3  and  C3_4 
ROOT
ATOM      1  C3  UNL d   1      -2.071   2.792   0.813  0.00  0.00    -0.075 A 
ATOM      2  C4  UNL d   1      -2.724   1.843   0.013  0.00  0.00     0.002 A 
ATOM      3  C5  UNL d   1      -3.337   0.731   0.591  0.00  0.00     0.002 A 
ATOM      4  C6  UNL d   1      -3.296   0.548   1.971  0.00  0.00    -0.004 A 
ATOM      5  C7  UNL d   1      -2.637   1.476   2.774  0.00  0.00     0.002 A 
ATOM      6  C8  UNL d   1      -2.026   2.592   2.199  0.00  0.00     0.002 A 
ENDROOT
BRANCH   1   7
ATOM      7  C2  UNL d   1      -1.431   4.013   0.196  0.00  0.00     0.056 C 
BRANCH   7   8
ATOM      8  C1  UNL d   1       0.101   3.992   0.217  0.00  0.00     0.007 C 
ATOM      9  C   UNL d   1       0.726   5.299  -0.252  0.00  0.00     0.009 C 
ENDBRANCH   7   8
ENDBRANCH   1   7
TORSDOF 2
ENDMDL
