MODEL 1
REMARK minimizedAffinity 16.0870457
REMARK minimizedRMSD -1
REMARK  2 active torsions:
REMARK  status: ('A' for Active; 'I' for Inactive)
REMARK    1  A    between atoms: C1_2  and  C2_3 
REMARK    2  A    between atoms: C2_3  and  C3_4 
ROOT
ATOM      1  C3  UNL d   1      -0.118   1.703   0.021  0.00  0.00    -0.075 A 
ATOM      2  C4  UNL d   1       0.907   0.940  -0.556  0.00  0.00     0.002 A 
ATOM      3  C5  UNL d   1       0.604  -0.134  -1.394  0.00  0.00     0.002 A 
ATOM      4  C6  UNL d   1      -0.723  -0.465  -1.655  0.00  0.00    -0.004 A 
ATOM      5  C7  UNL d   1      -1.750   0.275  -1.073  0.00  0.00     0.002 A 
ATOM      6  C8  UNL d   1      -1.450   1.354  -0.239  0.00  0.00     0.002 A 
ENDROOT
BRANCH   1   7
ATOM      7  C2  UNL d   1       0.203   2.885   0.905  0.00  0.00     0.056 C 
BRANCH   7   8
ATOM      8  C1  UNL d   1       0.527   4.169   0.135  0.00  0.00     0.007 C 
ATOM      9  C   UNL d   1      -0.712   4.965  -0.254  0.00  0.00     0.009 C 
ENDBRANCH   7   8
ENDBRANCH   1   7
TORSDOF 2
ENDMDL
