MODEL 1
REMARK minimizedAffinity 9.79878998
REMARK minimizedRMSD -1
REMARK  2 active torsions:
REMARK  status: ('A' for Active; 'I' for Inactive)
REMARK    1  A    between atoms: C1_2  and  C2_3 
REMARK    2  A    between atoms: C2_3  and  C3_4 
ROOT
ATOM      1  C3  UNL d   1       4.995  -3.606  -1.099  0.00  0.00    -0.075 A 
ATOM      2  C4  UNL d   1       4.515  -4.101  -2.321  0.00  0.00     0.002 A 
ATOM      3  C5  UNL d   1       4.743  -3.403  -3.507  0.00  0.00     0.002 A 
ATOM      4  C6  UNL d   1       5.444  -2.199  -3.486  0.00  0.00    -0.004 A 
ATOM      5  C7  UNL d   1       5.912  -1.690  -2.277  0.00  0.00     0.002 A 
ATOM      6  C8  UNL d   1       5.689  -2.389  -1.089  0.00  0.00     0.002 A 
ENDROOT
BRANCH   1   7
ATOM      7  C2  UNL d   1       4.777  -4.372   0.184  0.00  0.00     0.056 C 
BRANCH   7   8
ATOM      8  C1  UNL d   1       5.604  -5.658   0.291  0.00  0.00     0.007 C 
ATOM      9  C   UNL d   1       5.999  -5.999   1.722  0.00  0.00     0.009 C 
ENDBRANCH   7   8
ENDBRANCH   1   7
TORSDOF 2
ENDMDL
