MODEL 1
REMARK minimizedAffinity 5.87053585
REMARK minimizedRMSD -1
REMARK  2 active torsions:
REMARK  status: ('A' for Active; 'I' for Inactive)
REMARK    1  A    between atoms: C1_2  and  C2_3 
REMARK    2  A    between atoms: C2_3  and  C3_4 
ROOT
ATOM      1  C3  UNL d   1       4.189  -4.393  -1.902  0.00  0.00    -0.075 A 
ATOM      2  C4  UNL d   1       4.774  -3.496  -0.996  0.00  0.00     0.002 A 
ATOM      3  C5  UNL d   1       5.345  -2.305  -1.446  0.00  0.00     0.002 A 
ATOM      4  C6  UNL d   1       5.348  -2.001  -2.806  0.00  0.00    -0.004 A 
ATOM      5  C7  UNL d   1       4.785  -2.892  -3.717  0.00  0.00     0.002 A 
ATOM      6  C8  UNL d   1       4.209  -4.082  -3.268  0.00  0.00     0.002 A 
ENDROOT
BRANCH   1   7
ATOM      7  C2  UNL d   1       3.544  -5.669  -1.418  0.00  0.00     0.056 C 
BRANCH   7   8
ATOM      8  C1  UNL d   1       2.083  -5.503  -0.985  0.00  0.00     0.007 C 
ATOM      9  C   UNL d   1       1.874  -4.360  -0.001  0.00  0.00     0.009 C 
ENDBRANCH   7   8
ENDBRANCH   1   7
TORSDOF 2
ENDMDL
