MODEL 1
REMARK minimizedAffinity -1.43475413
REMARK minimizedRMSD -1
REMARK  0 active torsions:
REMARK  status: ('A' for Active; 'I' for Inactive)
ROOT
ATOM      1  C   UNL d   1       2.969   0.215   0.916  0.00  0.00    -0.002 A 
ATOM      2  C1  UNL d   1       2.748  -1.149   1.045  0.00  0.00     0.010 A 
ATOM      3  C2  UNL d   1       1.498  -1.698   0.753  0.00  0.00     0.041 A 
ATOM      4  C3  UNL d   1       0.463  -0.844   0.322  0.00  0.00    -0.075 A 
ATOM      5  S   UNL d   1      -1.149  -1.293  -0.093  0.00  0.00     0.015 SA
ATOM      6  C4  UNL d   1      -1.583   0.316  -0.453  0.00  0.00     0.022 A 
ATOM      7  C5  UNL d   1      -0.536   1.187  -0.266  0.00  0.00     0.026 A 
ATOM      8  C6  UNL d   1       0.661   0.532   0.183  0.00  0.00    -0.082 A 
ATOM      9  C7  UNL d   1       1.940   1.058   0.489  0.00  0.00     0.045 A 
ENDROOT
TORSDOF 0
ENDMDL
