MODEL 1
REMARK minimizedAffinity 5.65295124
REMARK minimizedRMSD -1
REMARK  0 active torsions:
REMARK  status: ('A' for Active; 'I' for Inactive)
ROOT
ATOM      1  C   UNL d   1       0.395  -0.855   0.506  0.00  0.00    -0.002 A 
ATOM      2  C1  UNL d   1      -0.015   0.420   0.870  0.00  0.00     0.010 A 
ATOM      3  C2  UNL d   1      -0.914   1.131   0.075  0.00  0.00     0.041 A 
ATOM      4  C3  UNL d   1      -1.402   0.533  -1.104  0.00  0.00    -0.075 A 
ATOM      5  S   UNL d   1      -2.512   1.215  -2.233  0.00  0.00     0.015 SA
ATOM      6  C4  UNL d   1      -2.469  -0.170  -3.226  0.00  0.00     0.022 A 
ATOM      7  C5  UNL d   1      -1.633  -1.138  -2.723  0.00  0.00     0.026 A 
ATOM      8  C6  UNL d   1      -1.005  -0.749  -1.492  0.00  0.00    -0.082 A 
ATOM      9  C7  UNL d   1      -0.090  -1.445  -0.664  0.00  0.00     0.045 A 
ENDROOT
TORSDOF 0
ENDMDL
