MODEL 1
REMARK minimizedAffinity -5.39439487
REMARK minimizedRMSD -1
REMARK  0 active torsions:
REMARK  status: ('A' for Active; 'I' for Inactive)
ROOT
ATOM      1  C   UNL d   1       2.907  -1.662   2.413  0.00  0.00    -0.002 A 
ATOM      2  C1  UNL d   1       1.926  -2.628   2.243  0.00  0.00     0.010 A 
ATOM      3  C2  UNL d   1       0.764  -2.342   1.523  0.00  0.00     0.041 A 
ATOM      4  C3  UNL d   1       0.605  -1.057   0.969  0.00  0.00    -0.075 A 
ATOM      5  S   UNL d   1      -0.733  -0.480   0.047  0.00  0.00     0.015 SA
ATOM      6  C4  UNL d   1      -0.033   1.062  -0.144  0.00  0.00     0.022 A 
ATOM      7  C5  UNL d   1       1.192   1.153   0.474  0.00  0.00     0.026 A 
ATOM      8  C6  UNL d   1       1.580  -0.067   1.125  0.00  0.00    -0.082 A 
ATOM      9  C7  UNL d   1       2.746  -0.388   1.862  0.00  0.00     0.045 A 
ENDROOT
TORSDOF 0
ENDMDL
