MODEL 1
REMARK minimizedAffinity -5.12988424
REMARK minimizedRMSD -1
REMARK  0 active torsions:
REMARK  status: ('A' for Active; 'I' for Inactive)
ROOT
ATOM      1  C   UNL d   1       3.222  -1.132   1.441  0.00  0.00    -0.002 A 
ATOM      2  C1  UNL d   1       2.276  -2.059   1.853  0.00  0.00     0.010 A 
ATOM      3  C2  UNL d   1       0.928  -1.890   1.532  0.00  0.00     0.041 A 
ATOM      4  C3  UNL d   1       0.544  -0.763   0.779  0.00  0.00    -0.075 A 
ATOM      5  S   UNL d   1      -1.050  -0.349   0.267  0.00  0.00     0.015 SA
ATOM      6  C4  UNL d   1      -0.512   1.068  -0.512  0.00  0.00     0.022 A 
ATOM      7  C5  UNL d   1       0.847   1.237  -0.394  0.00  0.00     0.026 A 
ATOM      8  C6  UNL d   1       1.478   0.185   0.351  0.00  0.00    -0.082 A 
ATOM      9  C7  UNL d   1       2.837  -0.015   0.695  0.00  0.00     0.045 A 
ENDROOT
TORSDOF 0
ENDMDL
