MODEL 1
REMARK minimizedAffinity -5.14660501
REMARK minimizedRMSD -1
REMARK  0 active torsions:
REMARK  status: ('A' for Active; 'I' for Inactive)
ROOT
ATOM      1  C   UNL d   1       1.699  -2.965   1.998  0.00  0.00    -0.002 A 
ATOM      2  C1  UNL d   1       0.313  -3.020   2.040  0.00  0.00     0.010 A 
ATOM      3  C2  UNL d   1      -0.454  -1.947   1.580  0.00  0.00     0.041 A 
ATOM      4  C3  UNL d   1       0.202  -0.809   1.070  0.00  0.00    -0.075 A 
ATOM      5  S   UNL d   1      -0.532   0.622   0.450  0.00  0.00     0.015 SA
ATOM      6  C4  UNL d   1       0.978   1.340   0.114  0.00  0.00     0.022 A 
ATOM      7  C5  UNL d   1       2.026   0.521   0.461  0.00  0.00     0.026 A 
ATOM      8  C6  UNL d   1       1.597  -0.732   1.017  0.00  0.00    -0.082 A 
ATOM      9  C7  UNL d   1       2.346  -1.835   1.492  0.00  0.00     0.045 A 
ENDROOT
TORSDOF 0
ENDMDL
