MODEL 1
REMARK minimizedAffinity 3.13682055
REMARK minimizedRMSD -1
REMARK  0 active torsions:
REMARK  status: ('A' for Active; 'I' for Inactive)
ROOT
ATOM      1  C   UNL d   1      -1.221  -1.543  -2.831  0.00  0.00    -0.002 A 
ATOM      2  C1  UNL d   1      -1.594  -0.223  -3.044  0.00  0.00     0.010 A 
ATOM      3  C2  UNL d   1      -1.405   0.738  -2.049  0.00  0.00     0.041 A 
ATOM      4  C3  UNL d   1      -0.828   0.347  -0.825  0.00  0.00    -0.075 A 
ATOM      5  S   UNL d   1      -0.501   1.351   0.538  0.00  0.00     0.015 SA
ATOM      6  C4  UNL d   1       0.143   0.052   1.435  0.00  0.00     0.022 A 
ATOM      7  C5  UNL d   1       0.115  -1.126   0.727  0.00  0.00     0.026 A 
ATOM      8  C6  UNL d   1      -0.444  -0.976  -0.587  0.00  0.00    -0.082 A 
ATOM      9  C7  UNL d   1      -0.649  -1.927  -1.615  0.00  0.00     0.045 A 
ENDROOT
TORSDOF 0
ENDMDL
