MODEL 1
REMARK minimizedAffinity -2.29574323
REMARK minimizedRMSD -1
REMARK  0 active torsions:
REMARK  status: ('A' for Active; 'I' for Inactive)
ROOT
ATOM      1  C   UNL d   1       0.674   2.047   0.971  0.00  0.00    -0.002 A 
ATOM      2  C1  UNL d   1      -0.337   1.109   0.821  0.00  0.00     0.010 A 
ATOM      3  C2  UNL d   1      -0.052  -0.257   0.871  0.00  0.00     0.041 A 
ATOM      4  C3  UNL d   1       1.280  -0.668   1.077  0.00  0.00    -0.075 A 
ATOM      5  S   UNL d   1       1.865  -2.287   1.174  0.00  0.00     0.015 SA
ATOM      6  C4  UNL d   1       3.471  -1.770   1.418  0.00  0.00     0.022 A 
ATOM      7  C5  UNL d   1       3.577  -0.400   1.427  0.00  0.00     0.026 A 
ATOM      8  C6  UNL d   1       2.316   0.258   1.231  0.00  0.00    -0.082 A 
ATOM      9  C7  UNL d   1       1.994   1.636   1.176  0.00  0.00     0.045 A 
ENDROOT
TORSDOF 0
ENDMDL
