MODEL 1
REMARK minimizedAffinity 7.88313866
REMARK minimizedRMSD -1
REMARK  0 active torsions:
REMARK  status: ('A' for Active; 'I' for Inactive)
ROOT
ATOM      1  C   UNL d   1       1.084   3.862   2.339  0.00  0.00     0.023 A 
ATOM      2  C1  UNL d   1       0.277   3.678   1.217  0.00  0.00     0.003 A 
ATOM      3  C2  UNL d   1      -0.012   2.388   0.768  0.00  0.00     0.048 A 
ATOM      4  C3  UNL d   1       0.509   1.286   1.446  0.00  0.00     0.023 A 
ATOM      5  C4  UNL d   1       1.316   1.466   2.570  0.00  0.00     0.048 A 
ATOM      6  C5  UNL d   1       1.604   2.758   3.015  0.00  0.00     0.003 A 
ATOM      7  I   UNL d   1       0.080  -0.635   0.780  0.00  0.00    -0.146 I 
ENDROOT
TORSDOF 0
ENDMDL
