MODEL 1
REMARK minimizedAffinity 2.60951567
REMARK minimizedRMSD -1
REMARK  0 active torsions:
REMARK  status: ('A' for Active; 'I' for Inactive)
ROOT
ATOM      1  C   UNL d   1      -1.041   5.991  -0.859  0.00  0.00     0.023 A 
ATOM      2  C1  UNL d   1      -1.683   6.000   0.379  0.00  0.00     0.003 A 
ATOM      3  C2  UNL d   1      -1.639   4.869   1.197  0.00  0.00     0.048 A 
ATOM      4  C3  UNL d   1      -0.949   3.734   0.773  0.00  0.00     0.023 A 
ATOM      5  C4  UNL d   1      -0.304   3.722  -0.465  0.00  0.00     0.048 A 
ATOM      6  C5  UNL d   1      -0.352   4.854  -1.281  0.00  0.00     0.003 A 
ATOM      7  I   UNL d   1      -0.882   2.051   1.990  0.00  0.00    -0.146 I 
ENDROOT
TORSDOF 0
ENDMDL
