MODEL 1
REMARK minimizedAffinity 2.19989204
REMARK minimizedRMSD -1
REMARK  0 active torsions:
REMARK  status: ('A' for Active; 'I' for Inactive)
ROOT
ATOM      1  C   UNL d   1      -2.022   0.341  -1.502  0.00  0.00     0.023 A 
ATOM      2  C1  UNL d   1      -1.342   1.531  -1.762  0.00  0.00     0.003 A 
ATOM      3  C2  UNL d   1      -2.032   2.634  -2.270  0.00  0.00     0.048 A 
ATOM      4  C3  UNL d   1      -3.401   2.539  -2.516  0.00  0.00     0.023 A 
ATOM      5  C4  UNL d   1      -4.086   1.351  -2.257  0.00  0.00     0.048 A 
ATOM      6  C5  UNL d   1      -3.392   0.251  -1.749  0.00  0.00     0.003 A 
ATOM      7  I   UNL d   1      -4.430   4.179  -3.272  0.00  0.00    -0.146 I 
ENDROOT
TORSDOF 0
ENDMDL
