MODEL 1
REMARK minimizedAffinity 3.91105556
REMARK minimizedRMSD -1
REMARK  0 active torsions:
REMARK  status: ('A' for Active; 'I' for Inactive)
ROOT
ATOM      1  C   UNL d   1      -1.922  -0.279  -3.047  0.00  0.00     0.023 A 
ATOM      2  C1  UNL d   1      -0.616  -0.546  -2.635  0.00  0.00     0.003 A 
ATOM      3  C2  UNL d   1      -0.045   0.196  -1.599  0.00  0.00     0.048 A 
ATOM      4  C3  UNL d   1      -0.785   1.203  -0.980  0.00  0.00     0.023 A 
ATOM      5  C4  UNL d   1      -2.092   1.473  -1.388  0.00  0.00     0.048 A 
ATOM      6  C5  UNL d   1      -2.659   0.729  -2.425  0.00  0.00     0.003 A 
ATOM      7  I   UNL d   1       0.063   2.308   0.562  0.00  0.00    -0.146 I 
ENDROOT
TORSDOF 0
ENDMDL
