MODEL 1
REMARK minimizedAffinity 4.03384876
REMARK minimizedRMSD -1
REMARK  0 active torsions:
REMARK  status: ('A' for Active; 'I' for Inactive)
ROOT
ATOM      1  C   UNL d   1      -0.074   0.533   0.926  0.00  0.00     0.023 A 
ATOM      2  C1  UNL d   1      -0.407   0.628  -0.425  0.00  0.00     0.003 A 
ATOM      3  C2  UNL d   1      -0.359   1.864  -1.072  0.00  0.00     0.048 A 
ATOM      4  C3  UNL d   1       0.025   3.002  -0.362  0.00  0.00     0.023 A 
ATOM      5  C4  UNL d   1       0.360   2.911   0.990  0.00  0.00     0.048 A 
ATOM      6  C5  UNL d   1       0.309   1.673   1.633  0.00  0.00     0.003 A 
ATOM      7  I   UNL d   1       0.097   4.843  -1.323  0.00  0.00    -0.146 I 
ENDROOT
TORSDOF 0
ENDMDL
