MODEL 1
REMARK minimizedAffinity 4.61303091
REMARK minimizedRMSD -1
REMARK  3 active torsions:
REMARK  status: ('A' for Active; 'I' for Inactive)
REMARK    1  A    between atoms: C3'_2  and  C2'_3 
REMARK    2  A    between atoms: C2'_3  and  C1'_4 
REMARK    3  A    between atoms: C1'_4  and  C1_5 
ROOT
ATOM      1  C1  N4B d   1      -5.341   3.962   3.166  0.00  0.00    -0.075 A 
ATOM      2  C2  N4B d   1      -4.662   3.593   4.348  0.00  0.00     0.002 A 
ATOM      3  C3  N4B d   1      -4.659   4.438   5.430  0.00  0.00     0.002 A 
ATOM      4  C4  N4B d   1      -5.309   5.660   5.348  0.00  0.00    -0.004 A 
ATOM      5  C5  N4B d   1      -5.984   5.998   4.212  0.00  0.00     0.002 A 
ATOM      6  C6  N4B d   1      -5.999   5.157   3.118  0.00  0.00     0.002 A 
ENDROOT
BRANCH   1   7
ATOM      7  C1' N4B d   1      -5.301   3.110   1.927  0.00  0.00     0.057 C 
BRANCH   7   8
ATOM      8  C2' N4B d   1      -4.444   1.876   2.196  0.00  0.00     0.009 C 
BRANCH   8   9
ATOM      9  C3' N4B d   1      -4.009   1.195   0.910  0.00  0.00     0.004 C 
ATOM     10  C4' N4B d   1      -5.167   0.715   0.087  0.00  0.00     0.003 C 
ENDBRANCH   8   9
ENDBRANCH   7   8
ENDBRANCH   1   7
TORSDOF 3
ENDMDL
