MODEL 1
REMARK minimizedAffinity 12.7171392
REMARK minimizedRMSD -1
REMARK  3 active torsions:
REMARK  status: ('A' for Active; 'I' for Inactive)
REMARK    1  A    between atoms: C3'_2  and  C2'_3 
REMARK    2  A    between atoms: C2'_3  and  C1'_4 
REMARK    3  A    between atoms: C1'_4  and  C1_5 
ROOT
ATOM      1  C1  N4B d   1       2.615  -0.698  -0.977  0.00  0.00    -0.075 A 
ATOM      2  C2  N4B d   1       3.444   0.043  -1.847  0.00  0.00     0.002 A 
ATOM      3  C3  N4B d   1       3.716   1.362  -1.579  0.00  0.00     0.002 A 
ATOM      4  C4  N4B d   1       3.157   1.964  -0.462  0.00  0.00    -0.004 A 
ATOM      5  C5  N4B d   1       2.377   1.234   0.387  0.00  0.00     0.002 A 
ATOM      6  C6  N4B d   1       2.099  -0.094   0.132  0.00  0.00     0.002 A 
ENDROOT
BRANCH   1   7
ATOM      7  C1' N4B d   1       2.219  -2.119  -1.275  0.00  0.00     0.057 C 
BRANCH   7   8
ATOM      8  C2' N4B d   1       2.513  -2.424  -2.741  0.00  0.00     0.009 C 
BRANCH   8   9
ATOM      9  C3' N4B d   1       1.315  -2.141  -3.631  0.00  0.00     0.004 C 
ATOM     10  C4' N4B d   1       0.135  -1.618  -2.868  0.00  0.00     0.003 C 
ENDBRANCH   8   9
ENDBRANCH   7   8
ENDBRANCH   1   7
TORSDOF 3
ENDMDL
