MODEL 1
REMARK minimizedAffinity 14.1187611
REMARK minimizedRMSD -1
REMARK  3 active torsions:
REMARK  status: ('A' for Active; 'I' for Inactive)
REMARK    1  A    between atoms: C3'_2  and  C2'_3 
REMARK    2  A    between atoms: C2'_3  and  C1'_4 
REMARK    3  A    between atoms: C1'_4  and  C1_5 
ROOT
ATOM      1  C1  N4B d   1       3.706   0.748   0.666  0.00  0.00    -0.075 A 
ATOM      2  C2  N4B d   1       3.000   1.000  -0.531  0.00  0.00     0.002 A 
ATOM      3  C3  N4B d   1       2.272  -0.003  -1.123  0.00  0.00     0.002 A 
ATOM      4  C4  N4B d   1       2.251  -1.265  -0.549  0.00  0.00    -0.004 A 
ATOM      5  C5  N4B d   1       2.914  -1.494   0.620  0.00  0.00     0.002 A 
ATOM      6  C6  N4B d   1       3.647  -0.494   1.229  0.00  0.00     0.002 A 
ENDROOT
BRANCH   1   7
ATOM      7  C1' N4B d   1       4.585   1.788   1.304  0.00  0.00     0.057 C 
BRANCH   7   8
ATOM      8  C2' N4B d   1       3.710   2.904   1.868  0.00  0.00     0.009 C 
BRANCH   8   9
ATOM      9  C3' N4B d   1       4.502   3.857   2.748  0.00  0.00     0.004 C 
ATOM     10  C4' N4B d   1       3.662   4.500   3.811  0.00  0.00     0.003 C 
ENDBRANCH   8   9
ENDBRANCH   7   8
ENDBRANCH   1   7
TORSDOF 3
ENDMDL
