MODEL 1
REMARK minimizedAffinity 5.83027744
REMARK minimizedRMSD -1
REMARK  3 active torsions:
REMARK  status: ('A' for Active; 'I' for Inactive)
REMARK    1  A    between atoms: C3'_2  and  C2'_3 
REMARK    2  A    between atoms: C2'_3  and  C1'_4 
REMARK    3  A    between atoms: C1'_4  and  C1_5 
ROOT
ATOM      1  C1  N4B d   1      -4.883   4.601   3.001  0.00  0.00    -0.075 A 
ATOM      2  C2  N4B d   1      -3.771   5.362   3.422  0.00  0.00     0.002 A 
ATOM      3  C3  N4B d   1      -3.796   5.998   4.639  0.00  0.00     0.002 A 
ATOM      4  C4  N4B d   1      -4.924   5.903   5.440  0.00  0.00    -0.004 A 
ATOM      5  C5  N4B d   1      -5.984   5.145   5.036  0.00  0.00     0.002 A 
ATOM      6  C6  N4B d   1      -5.971   4.497   3.817  0.00  0.00     0.002 A 
ENDROOT
BRANCH   1   7
ATOM      7  C1' N4B d   1      -4.936   3.958   1.641  0.00  0.00     0.057 C 
BRANCH   7   8
ATOM      8  C2' N4B d   1      -4.481   2.506   1.756  0.00  0.00     0.009 C 
BRANCH   8   9
ATOM      9  C3' N4B d   1      -3.896   1.990   0.453  0.00  0.00     0.004 C 
ATOM     10  C4' N4B d   1      -4.356   0.602   0.119  0.00  0.00     0.003 C 
ENDBRANCH   8   9
ENDBRANCH   7   8
ENDBRANCH   1   7
TORSDOF 3
ENDMDL
