MODEL 1
REMARK minimizedAffinity 16.7495079
REMARK minimizedRMSD -1
REMARK  3 active torsions:
REMARK  status: ('A' for Active; 'I' for Inactive)
REMARK    1  A    between atoms: C3'_2  and  C2'_3 
REMARK    2  A    between atoms: C2'_3  and  C1'_4 
REMARK    3  A    between atoms: C1'_4  and  C1_5 
ROOT
ATOM      1  C1  N4B d   1       2.259  -2.565   1.376  0.00  0.00    -0.075 A 
ATOM      2  C2  N4B d   1       1.920  -3.202   0.162  0.00  0.00     0.002 A 
ATOM      3  C3  N4B d   1       2.128  -2.557  -1.033  0.00  0.00     0.002 A 
ATOM      4  C4  N4B d   1       2.653  -1.274  -1.037  0.00  0.00    -0.004 A 
ATOM      5  C5  N4B d   1       3.002  -0.676   0.138  0.00  0.00     0.002 A 
ATOM      6  C6  N4B d   1       2.802  -1.313   1.346  0.00  0.00     0.002 A 
ENDROOT
BRANCH   1   7
ATOM      7  C1' N4B d   1       1.971  -3.195   2.711  0.00  0.00     0.057 C 
BRANCH   7   8
ATOM      8  C2' N4B d   1       0.779  -2.489   3.351  0.00  0.00     0.009 C 
BRANCH   8   9
ATOM      9  C3' N4B d   1       0.457  -3.052   4.725  0.00  0.00     0.004 C 
ATOM     10  C4' N4B d   1      -0.739  -3.956   4.716  0.00  0.00     0.003 C 
ENDBRANCH   8   9
ENDBRANCH   7   8
ENDBRANCH   1   7
TORSDOF 3
ENDMDL
