MODEL 1
REMARK minimizedAffinity 9.28456211
REMARK minimizedRMSD -1
REMARK  3 active torsions:
REMARK  status: ('A' for Active; 'I' for Inactive)
REMARK    1  A    between atoms: C3'_2  and  C2'_3 
REMARK    2  A    between atoms: C2'_3  and  C1'_4 
REMARK    3  A    between atoms: C1'_4  and  C1_5 
ROOT
ATOM      1  C1  N4B d   1       0.461  -0.078   1.176  0.00  0.00    -0.075 A 
ATOM      2  C2  N4B d   1      -0.835   0.268   0.734  0.00  0.00     0.002 A 
ATOM      3  C3  N4B d   1      -1.806   0.601   1.647  0.00  0.00     0.002 A 
ATOM      4  C4  N4B d   1      -1.510   0.577   3.002  0.00  0.00    -0.004 A 
ATOM      5  C5  N4B d   1      -0.249   0.266   3.419  0.00  0.00     0.002 A 
ATOM      6  C6  N4B d   1       0.738  -0.067   2.512  0.00  0.00     0.002 A 
ENDROOT
BRANCH   1   7
ATOM      7  C1' N4B d   1       1.530  -0.533   0.221  0.00  0.00     0.057 C 
BRANCH   7   8
ATOM      8  C2' N4B d   1       1.204  -0.018  -1.178  0.00  0.00     0.009 C 
BRANCH   8   9
ATOM      9  C3' N4B d   1       2.120   1.122  -1.591  0.00  0.00     0.004 C 
ATOM     10  C4' N4B d   1       1.565   2.470  -1.240  0.00  0.00     0.003 C 
ENDBRANCH   8   9
ENDBRANCH   7   8
ENDBRANCH   1   7
TORSDOF 3
ENDMDL
