MODEL 1
REMARK minimizedAffinity -0.167240486
REMARK minimizedRMSD -1
REMARK  3 active torsions:
REMARK  status: ('A' for Active; 'I' for Inactive)
REMARK    1  A    between atoms: C3'_2  and  C2'_3 
REMARK    2  A    between atoms: C2'_3  and  C1'_4 
REMARK    3  A    between atoms: C1'_4  and  C1_5 
ROOT
ATOM      1  C1  N4B d   1      -4.842   3.349  -0.634  0.00  0.00    -0.075 A 
ATOM      2  C2  N4B d   1      -4.380   4.320  -1.550  0.00  0.00     0.002 A 
ATOM      3  C3  N4B d   1      -4.742   5.635  -1.398  0.00  0.00     0.002 A 
ATOM      4  C4  N4B d   1      -5.578   6.000  -0.353  0.00  0.00    -0.004 A 
ATOM      5  C5  N4B d   1      -6.000   5.061   0.542  0.00  0.00     0.002 A 
ATOM      6  C6  N4B d   1      -5.640   3.735   0.404  0.00  0.00     0.002 A 
ENDROOT
BRANCH   1   7
ATOM      7  C1' N4B d   1      -4.542   1.886  -0.809  0.00  0.00     0.057 C 
BRANCH   7   8
ATOM      8  C2' N4B d   1      -3.974   1.332   0.495  0.00  0.00     0.009 C 
BRANCH   8   9
ATOM      9  C3' N4B d   1      -2.557   0.812   0.321  0.00  0.00     0.004 C 
ATOM     10  C4' N4B d   1      -1.883   0.517   1.628  0.00  0.00     0.003 C 
ENDBRANCH   8   9
ENDBRANCH   7   8
ENDBRANCH   1   7
TORSDOF 3
ENDMDL
