MODEL 1
REMARK minimizedAffinity 4.65760374
REMARK minimizedRMSD -1
REMARK  3 active torsions:
REMARK  status: ('A' for Active; 'I' for Inactive)
REMARK    1  A    between atoms: C3'_2  and  C2'_3 
REMARK    2  A    between atoms: C2'_3  and  C1'_4 
REMARK    3  A    between atoms: C1'_4  and  C1_5 
ROOT
ATOM      1  C1  N4B d   1      -0.267   0.206   1.959  0.00  0.00    -0.075 A 
ATOM      2  C2  N4B d   1      -1.234   0.987   1.289  0.00  0.00     0.002 A 
ATOM      3  C3  N4B d   1      -2.528   1.020   1.749  0.00  0.00     0.002 A 
ATOM      4  C4  N4B d   1      -2.880   0.268   2.859  0.00  0.00    -0.004 A 
ATOM      5  C5  N4B d   1      -1.934  -0.464   3.515  0.00  0.00     0.002 A 
ATOM      6  C6  N4B d   1      -0.629  -0.503   3.067  0.00  0.00     0.002 A 
ENDROOT
BRANCH   1   7
ATOM      7  C1' N4B d   1       1.140   0.071   1.443  0.00  0.00     0.057 C 
BRANCH   7   8
ATOM      8  C2' N4B d   1       2.094  -0.077   2.625  0.00  0.00     0.009 C 
BRANCH   8   9
ATOM      9  C3' N4B d   1       3.366  -0.813   2.240  0.00  0.00     0.004 C 
ATOM     10  C4' N4B d   1       3.513  -0.981   0.757  0.00  0.00     0.003 C 
ENDBRANCH   8   9
ENDBRANCH   7   8
ENDBRANCH   1   7
TORSDOF 3
ENDMDL
