MODEL 1
REMARK minimizedAffinity 2.58851123
REMARK minimizedRMSD -1
REMARK  3 active torsions:
REMARK  status: ('A' for Active; 'I' for Inactive)
REMARK    1  A    between atoms: C3'_2  and  C2'_3 
REMARK    2  A    between atoms: C2'_3  and  C1'_4 
REMARK    3  A    between atoms: C1'_4  and  C1_5 
ROOT
ATOM      1  C1  N4B d   1      -0.014  -1.322   0.173  0.00  0.00    -0.075 A 
ATOM      2  C2  N4B d   1      -0.677  -0.599   1.190  0.00  0.00     0.002 A 
ATOM      3  C3  N4B d   1       0.036  -0.101   2.253  0.00  0.00     0.002 A 
ATOM      4  C4  N4B d   1       1.402  -0.327   2.330  0.00  0.00    -0.004 A 
ATOM      5  C5  N4B d   1       2.038  -1.004   1.331  0.00  0.00     0.002 A 
ATOM      6  C6  N4B d   1       1.336  -1.507   0.255  0.00  0.00     0.002 A 
ENDROOT
BRANCH   1   7
ATOM      7  C1' N4B d   1      -0.763  -1.959  -0.965  0.00  0.00     0.057 C 
BRANCH   7   8
ATOM      8  C2' N4B d   1      -0.235  -3.375  -1.182  0.00  0.00     0.009 C 
BRANCH   8   9
ATOM      9  C3' N4B d   1      -0.455  -3.851  -2.607  0.00  0.00     0.004 C 
ATOM     10  C4' N4B d   1      -0.370  -5.342  -2.741  0.00  0.00     0.003 C 
ENDBRANCH   8   9
ENDBRANCH   7   8
ENDBRANCH   1   7
TORSDOF 3
ENDMDL
