MODEL 1
REMARK minimizedAffinity 3.22370911
REMARK minimizedRMSD -1
REMARK  0 active torsions:
REMARK  status: ('A' for Active; 'I' for Inactive)
ROOT
ATOM      1  C   UNL d   1       2.639  -2.245   0.450  0.00  0.00     0.124 A 
ATOM      2  C1  UNL d   1       2.281  -1.518   1.577  0.00  0.00     0.062 A 
ATOM      3  C2  UNL d   1       1.470  -0.393   1.456  0.00  0.00     0.162 A 
ATOM      4  C3  UNL d   1       1.011   0.012   0.202  0.00  0.00    -0.034 A 
ATOM      5  C4  UNL d   1       1.376  -0.724  -0.927  0.00  0.00     0.162 A 
ATOM      6  C5  UNL d   1       2.186  -1.848  -0.800  0.00  0.00     0.062 A 
ATOM      7  F   UNL d   1       2.531  -2.549  -1.890  0.00  0.00    -0.097 F 
ATOM      8  F1  UNL d   1       0.952  -0.363  -2.147  0.00  0.00    -0.096 F 
ATOM      9  I   UNL d   1      -0.201   1.693   0.017  0.00  0.00    -0.060 I 
ATOM     10  F2  UNL d   1       1.140   0.290   2.562  0.00  0.00    -0.096 F 
ATOM     11  F3  UNL d   1       2.717  -1.900   2.786  0.00  0.00    -0.097 F 
ATOM     12  F4  UNL d   1       3.419  -3.327   0.569  0.00  0.00    -0.092 F 
ENDROOT
TORSDOF 0
ENDMDL
