MODEL 1
REMARK minimizedAffinity 12.5244207
REMARK minimizedRMSD -1
REMARK  0 active torsions:
REMARK  status: ('A' for Active; 'I' for Inactive)
ROOT
ATOM      1  C   UNL d   1      -0.819   3.229  -1.906  0.00  0.00     0.124 A 
ATOM      2  C1  UNL d   1      -0.090   2.073  -1.664  0.00  0.00     0.062 A 
ATOM      3  C2  UNL d   1       0.016   1.571  -0.371  0.00  0.00     0.162 A 
ATOM      4  C3  UNL d   1      -0.610   2.224   0.692  0.00  0.00    -0.034 A 
ATOM      5  C4  UNL d   1      -1.341   3.386   0.440  0.00  0.00     0.162 A 
ATOM      6  C5  UNL d   1      -1.444   3.885  -0.855  0.00  0.00     0.062 A 
ATOM      7  F   UNL d   1      -2.148   5.002  -1.087  0.00  0.00    -0.097 F 
ATOM      8  F1  UNL d   1      -1.955   4.039   1.438  0.00  0.00    -0.096 F 
ATOM      9  I   UNL d   1      -0.454   1.476   2.627  0.00  0.00    -0.060 I 
ATOM     10  F2  UNL d   1       0.727   0.452  -0.166  0.00  0.00    -0.096 F 
ATOM     11  F3  UNL d   1       0.515   1.439  -2.679  0.00  0.00    -0.097 F 
ATOM     12  F4  UNL d   1      -0.919   3.711  -3.152  0.00  0.00    -0.092 F 
ENDROOT
TORSDOF 0
ENDMDL
