MODEL 1
REMARK minimizedAffinity 9.1508522
REMARK minimizedRMSD -1
REMARK  0 active torsions:
REMARK  status: ('A' for Active; 'I' for Inactive)
ROOT
ATOM      1  C   UNL d   1      -0.293   1.587  -2.409  0.00  0.00     0.124 A 
ATOM      2  C1  UNL d   1      -0.774   2.692  -1.720  0.00  0.00     0.062 A 
ATOM      3  C2  UNL d   1      -0.628   2.774  -0.338  0.00  0.00     0.162 A 
ATOM      4  C3  UNL d   1       0.004   1.747   0.365  0.00  0.00    -0.034 A 
ATOM      5  C4  UNL d   1       0.484   0.639  -0.335  0.00  0.00     0.162 A 
ATOM      6  C5  UNL d   1       0.335   0.562  -1.716  0.00  0.00     0.062 A 
ATOM      7  F   UNL d   1       0.801  -0.507  -2.379  0.00  0.00    -0.097 F 
ATOM      8  F1  UNL d   1       1.096  -0.366   0.310  0.00  0.00    -0.096 F 
ATOM      9  I   UNL d   1       0.225   1.866   2.431  0.00  0.00    -0.060 I 
ATOM     10  F2  UNL d   1      -1.102   3.853   0.301  0.00  0.00    -0.096 F 
ATOM     11  F3  UNL d   1      -1.382   3.683  -2.387  0.00  0.00    -0.097 F 
ATOM     12  F4  UNL d   1      -0.436   1.510  -3.738  0.00  0.00    -0.092 F 
ENDROOT
TORSDOF 0
ENDMDL
