MODEL 1
REMARK minimizedAffinity 5.93013811
REMARK minimizedRMSD -1
REMARK  0 active torsions:
REMARK  status: ('A' for Active; 'I' for Inactive)
ROOT
ATOM      1  C   UNL d   1       0.864   1.885   1.268  0.00  0.00     0.124 A 
ATOM      2  C1  UNL d   1      -0.415   1.894   0.729  0.00  0.00     0.062 A 
ATOM      3  C2  UNL d   1      -0.728   1.067  -0.345  0.00  0.00     0.162 A 
ATOM      4  C3  UNL d   1       0.240   0.222  -0.888  0.00  0.00    -0.034 A 
ATOM      5  C4  UNL d   1       1.524   0.219  -0.342  0.00  0.00     0.162 A 
ATOM      6  C5  UNL d   1       1.832   1.048   0.732  0.00  0.00     0.062 A 
ATOM      7  F   UNL d   1       3.069   1.037   1.251  0.00  0.00    -0.097 F 
ATOM      8  F1  UNL d   1       2.479  -0.581  -0.840  0.00  0.00    -0.096 F 
ATOM      9  I   UNL d   1      -0.225  -1.017  -2.495  0.00  0.00    -0.060 I 
ATOM     10  F2  UNL d   1      -1.973   1.097  -0.845  0.00  0.00    -0.096 F 
ATOM     11  F3  UNL d   1      -1.352   2.703   1.245  0.00  0.00    -0.097 F 
ATOM     12  F4  UNL d   1       1.163   2.683   2.301  0.00  0.00    -0.092 F 
ENDROOT
TORSDOF 0
ENDMDL
