MODEL 1
REMARK minimizedAffinity 16.7970295
REMARK minimizedRMSD -1
REMARK  0 active torsions:
REMARK  status: ('A' for Active; 'I' for Inactive)
ROOT
ATOM      1  C   UNL d   1      -0.415   1.485   1.410  0.00  0.00     0.124 A 
ATOM      2  C1  UNL d   1      -0.437   2.235   0.242  0.00  0.00     0.062 A 
ATOM      3  C2  UNL d   1      -1.130   3.441   0.197  0.00  0.00     0.162 A 
ATOM      4  C3  UNL d   1      -1.808   3.906   1.325  0.00  0.00    -0.034 A 
ATOM      5  C4  UNL d   1      -1.782   3.146   2.495  0.00  0.00     0.162 A 
ATOM      6  C5  UNL d   1      -1.088   1.941   2.535  0.00  0.00     0.062 A 
ATOM      7  F   UNL d   1      -1.068   1.218   3.664  0.00  0.00    -0.097 F 
ATOM      8  F1  UNL d   1      -2.422   3.563   3.597  0.00  0.00    -0.096 F 
ATOM      9  I   UNL d   1      -2.845   5.709   1.262  0.00  0.00    -0.060 I 
ATOM     10  F2  UNL d   1      -1.134   4.145  -0.945  0.00  0.00    -0.096 F 
ATOM     11  F3  UNL d   1       0.211   1.796  -0.847  0.00  0.00    -0.097 F 
ATOM     12  F4  UNL d   1       0.252   0.325   1.450  0.00  0.00    -0.092 F 
ENDROOT
TORSDOF 0
ENDMDL
