MODEL 1
REMARK minimizedAffinity 5.8081708
REMARK minimizedRMSD -1
REMARK  0 active torsions:
REMARK  status: ('A' for Active; 'I' for Inactive)
ROOT
ATOM      1  C   UNL d   1      -0.306   2.153   2.745  0.00  0.00     0.124 A 
ATOM      2  C1  UNL d   1      -1.631   2.371   2.392  0.00  0.00     0.062 A 
ATOM      3  C2  UNL d   1      -1.974   3.467   1.605  0.00  0.00     0.162 A 
ATOM      4  C3  UNL d   1      -0.991   4.352   1.164  0.00  0.00    -0.034 A 
ATOM      5  C4  UNL d   1       0.339   4.127   1.525  0.00  0.00     0.162 A 
ATOM      6  C5  UNL d   1       0.677   3.031   2.312  0.00  0.00     0.062 A 
ATOM      7  F   UNL d   1       1.957   2.822   2.652  0.00  0.00    -0.097 F 
ATOM      8  F1  UNL d   1       1.310   4.959   1.118  0.00  0.00    -0.096 F 
ATOM      9  I   UNL d   1      -1.500   5.991  -0.013  0.00  0.00    -0.060 I 
ATOM     10  F2  UNL d   1      -3.262   3.653   1.279  0.00  0.00    -0.096 F 
ATOM     11  F3  UNL d   1      -2.583   1.525   2.811  0.00  0.00    -0.097 F 
ATOM     12  F4  UNL d   1       0.021   1.099   3.504  0.00  0.00    -0.092 F 
ENDROOT
TORSDOF 0
ENDMDL
