MODEL 1
REMARK minimizedAffinity 10.9093313
REMARK minimizedRMSD -1
REMARK  0 active torsions:
REMARK  status: ('A' for Active; 'I' for Inactive)
ROOT
ATOM      1  C   UNL d   1      -1.496   4.007   1.514  0.00  0.00     0.124 A 
ATOM      2  C1  UNL d   1      -0.379   3.224   1.774  0.00  0.00     0.062 A 
ATOM      3  C2  UNL d   1       0.009   2.237   0.874  0.00  0.00     0.162 A 
ATOM      4  C3  UNL d   1      -0.719   2.027  -0.297  0.00  0.00    -0.034 A 
ATOM      5  C4  UNL d   1      -1.841   2.817  -0.552  0.00  0.00     0.162 A 
ATOM      6  C5  UNL d   1      -2.225   3.803   0.351  0.00  0.00     0.062 A 
ATOM      7  F   UNL d   1      -3.304   4.558   0.098  0.00  0.00    -0.097 F 
ATOM      8  F1  UNL d   1      -2.564   2.641  -1.668  0.00  0.00    -0.096 F 
ATOM      9  I   UNL d   1      -0.141   0.551  -1.646  0.00  0.00    -0.060 I 
ATOM     10  F2  UNL d   1       1.092   1.496   1.152  0.00  0.00    -0.096 F 
ATOM     11  F3  UNL d   1       0.327   3.419   2.898  0.00  0.00    -0.097 F 
ATOM     12  F4  UNL d   1      -1.868   4.956   2.382  0.00  0.00    -0.092 F 
ENDROOT
TORSDOF 0
ENDMDL
