MODEL 1
REMARK minimizedAffinity 15.5164728
REMARK minimizedRMSD -1
REMARK  0 active torsions:
REMARK  status: ('A' for Active; 'I' for Inactive)
ROOT
ATOM      1  C   UNL d   1       0.421  -0.995   3.729  0.00  0.00     0.124 A 
ATOM      2  C1  UNL d   1       1.577  -0.758   2.998  0.00  0.00     0.062 A 
ATOM      3  C2  UNL d   1       1.596   0.233   2.020  0.00  0.00     0.162 A 
ATOM      4  C3  UNL d   1       0.455   0.995   1.769  0.00  0.00    -0.034 A 
ATOM      5  C4  UNL d   1      -0.704   0.750   2.507  0.00  0.00     0.162 A 
ATOM      6  C5  UNL d   1      -0.718  -0.242   3.483  0.00  0.00     0.062 A 
ATOM      7  F   UNL d   1      -1.835  -0.470   4.188  0.00  0.00    -0.097 F 
ATOM      8  F1  UNL d   1      -1.819   1.463   2.291  0.00  0.00    -0.096 F 
ATOM      9  I   UNL d   1       0.479   2.477   0.308  0.00  0.00    -0.060 I 
ATOM     10  F2  UNL d   1       2.726   0.441   1.329  0.00  0.00    -0.096 F 
ATOM     11  F3  UNL d   1       2.679  -1.485   3.233  0.00  0.00    -0.097 F 
ATOM     12  F4  UNL d   1       0.406  -1.950   4.668  0.00  0.00    -0.092 F 
ENDROOT
TORSDOF 0
ENDMDL
