MODEL 1
REMARK minimizedAffinity 13.1287956
REMARK minimizedRMSD -1
REMARK  0 active torsions:
REMARK  status: ('A' for Active; 'I' for Inactive)
ROOT
ATOM      1  C   UNL d   1      -0.213   0.669   0.604  0.00  0.00     0.124 A 
ATOM      2  C1  UNL d   1       0.873   0.009   0.047  0.00  0.00     0.062 A 
ATOM      3  C2  UNL d   1       1.786  -0.651   0.865  0.00  0.00     0.162 A 
ATOM      4  C3  UNL d   1       1.615  -0.655   2.250  0.00  0.00    -0.034 A 
ATOM      5  C4  UNL d   1       0.521   0.012   2.802  0.00  0.00     0.162 A 
ATOM      6  C5  UNL d   1      -0.388   0.670   1.981  0.00  0.00     0.062 A 
ATOM      7  F   UNL d   1      -1.438   1.307   2.521  0.00  0.00    -0.097 F 
ATOM      8  F1  UNL d   1       0.327   0.028   4.130  0.00  0.00    -0.096 F 
ATOM      9  I   UNL d   1       2.978  -1.641   3.476  0.00  0.00    -0.060 I 
ATOM     10  F2  UNL d   1       2.827  -1.281   0.300  0.00  0.00    -0.096 F 
ATOM     11  F3  UNL d   1       1.046   0.007  -1.283  0.00  0.00    -0.097 F 
ATOM     12  F4  UNL d   1      -1.089   1.304  -0.185  0.00  0.00    -0.092 F 
ENDROOT
TORSDOF 0
ENDMDL
