MODEL 1
REMARK minimizedAffinity 10.6619139
REMARK minimizedRMSD -1
REMARK  1 active torsions:
REMARK  status: ('A' for Active; 'I' for Inactive)
REMARK    1  A    between atoms: C1_2  and  C2_3 
ROOT
ATOM      1  C2  UNL d   1       2.098  -0.282   1.781  0.00  0.00    -0.081 A 
ATOM      2  C3  UNL d   1       1.436   0.842   2.289  0.00  0.00     0.006 A 
ATOM      3  C4  UNL d   1       1.533   2.075   1.638  0.00  0.00     0.002 A 
ATOM      4  C5  UNL d   1       2.285   2.201   0.465  0.00  0.00    -0.080 A 
ATOM      5  C6  UNL d   1       2.372   3.511  -0.260  0.00  0.00     0.076 C 
ATOM      6  C7  UNL d   1       2.960   1.082  -0.033  0.00  0.00     0.002 A 
ATOM      7  C8  UNL d   1       2.865  -0.151   0.618  0.00  0.00     0.006 A 
ENDROOT
BRANCH   1   8
ATOM      8  C1  UNL d   1       1.943  -1.627   2.444  0.00  0.00     0.054 C 
ATOM      9  C   UNL d   1       0.491  -2.081   2.444  0.00  0.00     0.018 C 
ENDBRANCH   1   8
TORSDOF 1
ENDMDL
