MODEL 1
REMARK minimizedAffinity 7.2901988
REMARK minimizedRMSD -1
REMARK  1 active torsions:
REMARK  status: ('A' for Active; 'I' for Inactive)
REMARK    1  A    between atoms: C1_2  and  C2_3 
ROOT
ATOM      1  C2  UNL d   1       1.660   0.589   2.562  0.00  0.00    -0.081 A 
ATOM      2  C3  UNL d   1       1.722  -0.514   1.702  0.00  0.00     0.006 A 
ATOM      3  C4  UNL d   1       1.131  -1.727   2.062  0.00  0.00     0.002 A 
ATOM      4  C5  UNL d   1       0.461  -1.855   3.284  0.00  0.00    -0.080 A 
ATOM      5  C6  UNL d   1      -0.204  -3.143   3.669  0.00  0.00     0.076 C 
ATOM      6  C7  UNL d   1       0.414  -0.758   4.151  0.00  0.00     0.002 A 
ATOM      7  C8  UNL d   1       1.006   0.455   3.791  0.00  0.00     0.006 A 
ENDROOT
BRANCH   1   8
ATOM      8  C1  UNL d   1       2.241   1.917   2.148  0.00  0.00     0.054 C 
ATOM      9  C   UNL d   1       1.889   3.010   3.147  0.00  0.00     0.018 C 
ENDBRANCH   1   8
TORSDOF 1
ENDMDL
