MODEL 1
REMARK minimizedAffinity 9.40782642
REMARK minimizedRMSD -1
REMARK  1 active torsions:
REMARK  status: ('A' for Active; 'I' for Inactive)
REMARK    1  A    between atoms: C1_2  and  C2_3 
ROOT
ATOM      1  C2  UNL d   1      -5.258  -3.769  -5.206  0.00  0.00    -0.081 A 
ATOM      2  C3  UNL d   1      -5.890  -2.585  -5.606  0.00  0.00     0.006 A 
ATOM      3  C4  UNL d   1      -5.647  -1.389  -4.927  0.00  0.00     0.002 A 
ATOM      4  C5  UNL d   1      -4.763  -1.355  -3.843  0.00  0.00    -0.080 A 
ATOM      5  C6  UNL d   1      -4.470  -0.071  -3.125  0.00  0.00     0.076 C 
ATOM      6  C7  UNL d   1      -4.145  -2.541  -3.433  0.00  0.00     0.002 A 
ATOM      7  C8  UNL d   1      -4.388  -3.737  -4.111  0.00  0.00     0.006 A 
ENDROOT
BRANCH   1   8
ATOM      8  C1  UNL d   1      -5.469  -5.048  -5.976  0.00  0.00     0.054 C 
ATOM      9  C   UNL d   1      -4.273  -5.979  -5.839  0.00  0.00     0.018 C 
ENDBRANCH   1   8
TORSDOF 1
ENDMDL
