MODEL 1
REMARK minimizedAffinity 11.5927048
REMARK minimizedRMSD -1
REMARK  1 active torsions:
REMARK  status: ('A' for Active; 'I' for Inactive)
REMARK    1  A    between atoms: C1_2  and  C2_3 
ROOT
ATOM      1  C2  UNL d   1      -5.343   3.650   0.039  0.00  0.00    -0.081 A 
ATOM      2  C3  UNL d   1      -4.079   3.127   0.338  0.00  0.00     0.006 A 
ATOM      3  C4  UNL d   1      -3.447   2.253  -0.550  0.00  0.00     0.002 A 
ATOM      4  C5  UNL d   1      -4.063   1.894  -1.753  0.00  0.00    -0.080 A 
ATOM      5  C6  UNL d   1      -3.382   0.980  -2.728  0.00  0.00     0.076 C 
ATOM      6  C7  UNL d   1      -5.334   2.402  -2.043  0.00  0.00     0.002 A 
ATOM      7  C8  UNL d   1      -5.967   3.276  -1.156  0.00  0.00     0.006 A 
ENDROOT
BRANCH   1   8
ATOM      8  C1  UNL d   1      -6.000   4.643   0.963  0.00  0.00     0.054 C 
ATOM      9  C   UNL d   1      -5.998   4.146   2.402  0.00  0.00     0.018 C 
ENDBRANCH   1   8
TORSDOF 1
ENDMDL
