MODEL 1
REMARK minimizedAffinity 9.93494892
REMARK minimizedRMSD -1
REMARK  1 active torsions:
REMARK  status: ('A' for Active; 'I' for Inactive)
REMARK    1  A    between atoms: C1_2  and  C2_3 
ROOT
ATOM      1  C2  UNL d   1      -4.465  -2.462  -3.527  0.00  0.00    -0.081 A 
ATOM      2  C3  UNL d   1      -5.198  -2.481  -4.720  0.00  0.00     0.006 A 
ATOM      3  C4  UNL d   1      -5.204  -3.620  -5.529  0.00  0.00     0.002 A 
ATOM      4  C5  UNL d   1      -4.484  -4.760  -5.155  0.00  0.00    -0.080 A 
ATOM      5  C6  UNL d   1      -4.507  -5.999  -6.000  0.00  0.00     0.076 C 
ATOM      6  C7  UNL d   1      -3.738  -4.735  -3.972  0.00  0.00     0.002 A 
ATOM      7  C8  UNL d   1      -3.731  -3.596  -3.163  0.00  0.00     0.006 A 
ENDROOT
BRANCH   1   8
ATOM      8  C1  UNL d   1      -4.508  -1.259  -2.620  0.00  0.00     0.054 C 
ATOM      9  C   UNL d   1      -3.232  -0.437  -2.730  0.00  0.00     0.018 C 
ENDBRANCH   1   8
TORSDOF 1
ENDMDL
