MODEL 1
REMARK minimizedAffinity 13.7924385
REMARK minimizedRMSD -1
REMARK  1 active torsions:
REMARK  status: ('A' for Active; 'I' for Inactive)
REMARK    1  A    between atoms: C1_2  and  C2_3 
ROOT
ATOM      1  C2  UNL d   1       4.952   5.731  -3.533  0.00  0.00    -0.081 A 
ATOM      2  C3  UNL d   1       5.223   5.979  -2.182  0.00  0.00     0.006 A 
ATOM      3  C4  UNL d   1       4.273   5.680  -1.203  0.00  0.00     0.002 A 
ATOM      4  C5  UNL d   1       3.040   5.121  -1.558  0.00  0.00    -0.080 A 
ATOM      5  C6  UNL d   1       2.023   4.766  -0.514  0.00  0.00     0.076 C 
ATOM      6  C7  UNL d   1       2.763   4.889  -2.909  0.00  0.00     0.002 A 
ATOM      7  C8  UNL d   1       3.712   5.189  -3.888  0.00  0.00     0.006 A 
ENDROOT
BRANCH   1   8
ATOM      8  C1  UNL d   1       6.000   5.993  -4.585  0.00  0.00     0.054 C 
ATOM      9  C   UNL d   1       5.394   5.995  -5.981  0.00  0.00     0.018 C 
ENDBRANCH   1   8
TORSDOF 1
ENDMDL
