MODEL 1
REMARK minimizedAffinity 7.63954592
REMARK minimizedRMSD -1
REMARK  1 active torsions:
REMARK  status: ('A' for Active; 'I' for Inactive)
REMARK    1  A    between atoms: C1_2  and  C2_3 
ROOT
ATOM      1  C2  UNL d   1      -4.970   1.856  -3.424  0.00  0.00    -0.081 A 
ATOM      2  C3  UNL d   1      -4.092   0.769  -3.519  0.00  0.00     0.006 A 
ATOM      3  C4  UNL d   1      -4.172  -0.288  -2.609  0.00  0.00     0.002 A 
ATOM      4  C5  UNL d   1      -5.134  -0.279  -1.594  0.00  0.00    -0.080 A 
ATOM      5  C6  UNL d   1      -5.250  -1.421  -0.629  0.00  0.00     0.076 C 
ATOM      6  C7  UNL d   1      -6.000   0.815  -1.488  0.00  0.00     0.002 A 
ATOM      7  C8  UNL d   1      -5.921   1.872  -2.397  0.00  0.00     0.006 A 
ENDROOT
BRANCH   1   8
ATOM      8  C1  UNL d   1      -4.929   2.966  -4.443  0.00  0.00     0.054 C 
ATOM      9  C   UNL d   1      -5.988   4.021  -4.154  0.00  0.00     0.018 C 
ENDBRANCH   1   8
TORSDOF 1
ENDMDL
