MODEL 1
REMARK minimizedAffinity 4.64500284
REMARK minimizedRMSD -1
REMARK  1 active torsions:
REMARK  status: ('A' for Active; 'I' for Inactive)
REMARK    1  A    between atoms: C1_2  and  C2_3 
ROOT
ATOM      1  C2  UNL d   1       2.356  -2.368   3.352  0.00  0.00    -0.081 A 
ATOM      2  C3  UNL d   1       2.304  -2.854   4.664  0.00  0.00     0.006 A 
ATOM      3  C4  UNL d   1       3.481  -3.069   5.386  0.00  0.00     0.002 A 
ATOM      4  C5  UNL d   1       4.726  -2.793   4.812  0.00  0.00    -0.080 A 
ATOM      5  C6  UNL d   1       5.995  -2.990   5.587  0.00  0.00     0.076 C 
ATOM      6  C7  UNL d   1       4.778  -2.324   3.495  0.00  0.00     0.002 A 
ATOM      7  C8  UNL d   1       3.603  -2.110   2.772  0.00  0.00     0.006 A 
ENDROOT
BRANCH   1   8
ATOM      8  C1  UNL d   1       1.087  -2.075   2.593  0.00  0.00     0.054 C 
ATOM      9  C   UNL d   1       1.350  -1.155   1.409  0.00  0.00     0.018 C 
ENDBRANCH   1   8
TORSDOF 1
ENDMDL
