MODEL 1
REMARK minimizedAffinity -5.72052097
REMARK minimizedRMSD -1
REMARK  2 active torsions:
REMARK  status: ('A' for Active; 'I' for Inactive)
REMARK    1  A    between atoms: C2'_3  and  C1'_4 
REMARK    2  A    between atoms: C1'_4  and  C1_5 
ROOT
ATOM      1  C1  I4B d   1      -0.127  -0.108  -0.050  0.00  0.00    -0.075 A 
ATOM      2  C2  I4B d   1      -0.296   1.254  -0.043  0.00  0.00     0.003 A 
ATOM      3  C3  I4B d   1      -1.207   1.856   0.859  0.00  0.00     0.002 A 
ATOM      4  C4  I4B d   1      -1.961   1.058   1.695  0.00  0.00    -0.004 A 
ATOM      5  C5  I4B d   1      -1.772  -0.321   1.703  0.00  0.00     0.002 A 
ATOM      6  C6  I4B d   1      -0.841  -0.907   0.834  0.00  0.00     0.003 A 
ENDROOT
BRANCH   1   7
ATOM      7  C1' I4B d   1       0.819  -0.712  -1.038  0.00  0.00     0.060 C 
BRANCH   7   8
ATOM      8  C2' I4B d   1       0.310  -2.096  -1.385  0.00  0.00    -0.013 C 
ATOM      9  C4' I4B d   1       0.028  -2.219  -2.860  0.00  0.00     0.013 C 
ATOM     10  C3' I4B d   1       1.341  -3.093  -0.947  0.00  0.00     0.013 C 
ENDBRANCH   7   8
ENDBRANCH   1   7
TORSDOF 2
ENDMDL
