MODEL 1
REMARK minimizedAffinity -5.82779551
REMARK minimizedRMSD -1
REMARK  2 active torsions:
REMARK  status: ('A' for Active; 'I' for Inactive)
REMARK    1  A    between atoms: C2'_3  and  C1'_4 
REMARK    2  A    between atoms: C1'_4  and  C1_5 
ROOT
ATOM      1  C1  I4B d   1      -0.053  -0.176  -0.150  0.00  0.00    -0.075 A 
ATOM      2  C2  I4B d   1      -0.709   0.920  -0.654  0.00  0.00     0.003 A 
ATOM      3  C3  I4B d   1      -1.629   1.632   0.153  0.00  0.00     0.002 A 
ATOM      4  C4  I4B d   1      -1.899   1.187   1.431  0.00  0.00    -0.004 A 
ATOM      5  C5  I4B d   1      -1.215   0.090   1.948  0.00  0.00     0.002 A 
ATOM      6  C6  I4B d   1      -0.277  -0.589   1.156  0.00  0.00     0.003 A 
ENDROOT
BRANCH   1   7
ATOM      7  C1' I4B d   1       0.888  -0.924  -1.041  0.00  0.00     0.060 C 
BRANCH   7   8
ATOM      8  C2' I4B d   1       0.208  -2.210  -1.463  0.00  0.00    -0.013 C 
ATOM      9  C4' I4B d   1      -0.329  -2.108  -2.866  0.00  0.00     0.013 C 
ATOM     10  C3' I4B d   1       1.206  -3.323  -1.345  0.00  0.00     0.013 C 
ENDBRANCH   7   8
ENDBRANCH   1   7
TORSDOF 2
ENDMDL
