MODEL 1
REMARK minimizedAffinity -4.28246927
REMARK minimizedRMSD -1
REMARK  2 active torsions:
REMARK  status: ('A' for Active; 'I' for Inactive)
REMARK    1  A    between atoms: C2'_3  and  C1'_4 
REMARK    2  A    between atoms: C1'_4  and  C1_5 
ROOT
ATOM      1  C1  I4B d   1      -0.772   0.178   0.577  0.00  0.00    -0.075 A 
ATOM      2  C2  I4B d   1      -0.469   0.825   1.749  0.00  0.00     0.003 A 
ATOM      3  C3  I4B d   1      -1.245   1.931   2.173  0.00  0.00     0.002 A 
ATOM      4  C4  I4B d   1      -2.276   2.384   1.375  0.00  0.00    -0.004 A 
ATOM      5  C5  I4B d   1      -2.596   1.712   0.199  0.00  0.00     0.002 A 
ATOM      6  C6  I4B d   1      -1.847   0.594  -0.197  0.00  0.00     0.003 A 
ENDROOT
BRANCH   1   7
ATOM      7  C1' I4B d   1       0.089  -0.966   0.142  0.00  0.00     0.060 C 
BRANCH   7   8
ATOM      8  C2' I4B d   1       0.489  -0.727  -1.300  0.00  0.00    -0.013 C 
ATOM      9  C4' I4B d   1       1.489   0.393  -1.410  0.00  0.00     0.013 C 
ATOM     10  C3' I4B d   1       1.048  -2.008  -1.843  0.00  0.00     0.013 C 
ENDBRANCH   7   8
ENDBRANCH   1   7
TORSDOF 2
ENDMDL
