MODEL 1
REMARK minimizedAffinity -2.4929831
REMARK minimizedRMSD -1
REMARK  2 active torsions:
REMARK  status: ('A' for Active; 'I' for Inactive)
REMARK    1  A    between atoms: C2'_3  and  C1'_4 
REMARK    2  A    between atoms: C1'_4  and  C1_5 
ROOT
ATOM      1  C1  I4B d   1       0.182  -1.092  -1.092  0.00  0.00    -0.075 A 
ATOM      2  C2  I4B d   1       0.879  -2.205  -0.694  0.00  0.00     0.003 A 
ATOM      3  C3  I4B d   1       0.857  -3.381  -1.483  0.00  0.00     0.002 A 
ATOM      4  C4  I4B d   1       0.090  -3.415  -2.630  0.00  0.00    -0.004 A 
ATOM      5  C5  I4B d   1      -0.598  -2.278  -3.044  0.00  0.00     0.002 A 
ATOM      6  C6  I4B d   1      -0.542  -1.105  -2.277  0.00  0.00     0.003 A 
ENDROOT
BRANCH   1   7
ATOM      7  C1' I4B d   1       0.200   0.121  -0.218  0.00  0.00     0.060 C 
BRANCH   7   8
ATOM      8  C2' I4B d   1      -0.827  -0.079   0.879  0.00  0.00    -0.013 C 
ATOM      9  C4' I4B d   1      -0.166  -0.418   2.189  0.00  0.00     0.013 C 
ATOM     10  C3' I4B d   1      -1.636   1.179   0.991  0.00  0.00     0.013 C 
ENDBRANCH   7   8
ENDBRANCH   1   7
TORSDOF 2
ENDMDL
