MODEL 1
REMARK minimizedAffinity -5.35307121
REMARK minimizedRMSD -1
REMARK  2 active torsions:
REMARK  status: ('A' for Active; 'I' for Inactive)
REMARK    1  A    between atoms: C2'_3  and  C1'_4 
REMARK    2  A    between atoms: C1'_4  and  C1_5 
ROOT
ATOM      1  C1  I4B d   1      -0.881  -0.025   0.430  0.00  0.00    -0.075 A 
ATOM      2  C2  I4B d   1      -0.514   0.545   1.624  0.00  0.00     0.003 A 
ATOM      3  C3  I4B d   1      -1.139   1.735   2.068  0.00  0.00     0.002 A 
ATOM      4  C4  I4B d   1      -2.085   2.345   1.269  0.00  0.00    -0.004 A 
ATOM      5  C5  I4B d   1      -2.472   1.753   0.070  0.00  0.00     0.002 A 
ATOM      6  C6  I4B d   1      -1.876   0.554  -0.347  0.00  0.00     0.003 A 
ENDROOT
BRANCH   1   7
ATOM      7  C1' I4B d   1      -0.176  -1.264  -0.024  0.00  0.00     0.060 C 
BRANCH   7   8
ATOM      8  C2' I4B d   1       0.308  -1.033  -1.441  0.00  0.00    -0.013 C 
ATOM      9  C4' I4B d   1       1.600  -0.260  -1.456  0.00  0.00     0.013 C 
ATOM     10  C3' I4B d   1       0.469  -2.370  -2.099  0.00  0.00     0.013 C 
ENDBRANCH   7   8
ENDBRANCH   1   7
TORSDOF 2
ENDMDL
