MODEL 1
REMARK minimizedAffinity -4.75407124
REMARK minimizedRMSD -1
REMARK  2 active torsions:
REMARK  status: ('A' for Active; 'I' for Inactive)
REMARK    1  A    between atoms: C2'_3  and  C1'_4 
REMARK    2  A    between atoms: C1'_4  and  C1_5 
ROOT
ATOM      1  C1  I4B d   1       0.167   0.006   0.131  0.00  0.00    -0.075 A 
ATOM      2  C2  I4B d   1      -0.022   1.210  -0.500  0.00  0.00     0.003 A 
ATOM      3  C3  I4B d   1      -0.973   2.134  -0.003  0.00  0.00     0.002 A 
ATOM      4  C4  I4B d   1      -1.743   1.795   1.091  0.00  0.00    -0.004 A 
ATOM      5  C5  I4B d   1      -1.534   0.583   1.743  0.00  0.00     0.002 A 
ATOM      6  C6  I4B d   1      -0.565  -0.312   1.268  0.00  0.00     0.003 A 
ENDROOT
BRANCH   1   7
ATOM      7  C1' I4B d   1       1.155  -0.960  -0.441  0.00  0.00     0.060 C 
BRANCH   7   8
ATOM      8  C2' I4B d   1       0.387  -2.006  -1.222  0.00  0.00    -0.013 C 
ATOM      9  C4' I4B d   1       0.063  -1.521  -2.611  0.00  0.00     0.013 C 
ATOM     10  C3' I4B d   1       1.218  -3.255  -1.265  0.00  0.00     0.013 C 
ENDBRANCH   7   8
ENDBRANCH   1   7
TORSDOF 2
ENDMDL
