MODEL 1
REMARK minimizedAffinity -2.54304767
REMARK minimizedRMSD -1
REMARK  2 active torsions:
REMARK  status: ('A' for Active; 'I' for Inactive)
REMARK    1  A    between atoms: C2'_3  and  C1'_4 
REMARK    2  A    between atoms: C1'_4  and  C1_5 
ROOT
ATOM      1  C1  I4B d   1       0.343  -0.713  -0.419  0.00  0.00    -0.075 A 
ATOM      2  C2  I4B d   1       0.400   0.386  -1.241  0.00  0.00     0.003 A 
ATOM      3  C3  I4B d   1      -0.274   1.579  -0.884  0.00  0.00     0.002 A 
ATOM      4  C4  I4B d   1      -1.030   1.613   0.270  0.00  0.00    -0.004 A 
ATOM      5  C5  I4B d   1      -1.068   0.506   1.114  0.00  0.00     0.002 A 
ATOM      6  C6  I4B d   1      -0.367  -0.660   0.773  0.00  0.00     0.003 A 
ENDROOT
BRANCH   1   7
ATOM      7  C1' I4B d   1       1.039  -1.967  -0.843  0.00  0.00     0.060 C 
BRANCH   7   8
ATOM      8  C2' I4B d   1       0.065  -2.788  -1.662  0.00  0.00    -0.013 C 
ATOM      9  C4' I4B d   1      -0.485  -1.992  -2.816  0.00  0.00     0.013 C 
ATOM     10  C3' I4B d   1       0.782  -4.014  -2.143  0.00  0.00     0.013 C 
ENDBRANCH   7   8
ENDBRANCH   1   7
TORSDOF 2
ENDMDL
