MODEL 1
REMARK minimizedAffinity -3.98529339
REMARK minimizedRMSD -1
REMARK  2 active torsions:
REMARK  status: ('A' for Active; 'I' for Inactive)
REMARK    1  A    between atoms: C2'_3  and  C1'_4 
REMARK    2  A    between atoms: C1'_4  and  C1_5 
ROOT
ATOM      1  C1  I4B d   1       0.051  -0.478  -0.088  0.00  0.00    -0.075 A 
ATOM      2  C2  I4B d   1      -0.686  -0.446   1.069  0.00  0.00     0.003 A 
ATOM      3  C3  I4B d   1      -0.961   0.788   1.707  0.00  0.00     0.002 A 
ATOM      4  C4  I4B d   1      -0.439   1.953   1.184  0.00  0.00    -0.004 A 
ATOM      5  C5  I4B d   1       0.290   1.922  -0.002  0.00  0.00     0.002 A 
ATOM      6  C6  I4B d   1       0.526   0.701  -0.649  0.00  0.00     0.003 A 
ENDROOT
BRANCH   1   7
ATOM      7  C1' I4B d   1       0.350  -1.802  -0.717  0.00  0.00     0.060 C 
BRANCH   7   8
ATOM      8  C2' I4B d   1       0.583  -1.574  -2.196  0.00  0.00    -0.013 C 
ATOM      9  C4' I4B d   1       2.054  -1.566  -2.521  0.00  0.00     0.013 C 
ATOM     10  C3' I4B d   1      -0.132  -2.655  -2.950  0.00  0.00     0.013 C 
ENDBRANCH   7   8
ENDBRANCH   1   7
TORSDOF 2
ENDMDL
