MODEL 1
REMARK minimizedAffinity -4.57965374
REMARK minimizedRMSD -1
REMARK  2 active torsions:
REMARK  status: ('A' for Active; 'I' for Inactive)
REMARK    1  A    between atoms: C2'_3  and  C1'_4 
REMARK    2  A    between atoms: C1'_4  and  C1_5 
ROOT
ATOM      1  C1  I4B d   1       0.173  -0.617  -0.386  0.00  0.00    -0.075 A 
ATOM      2  C2  I4B d   1       0.180   0.672  -0.856  0.00  0.00     0.003 A 
ATOM      3  C3  I4B d   1      -0.588   1.671  -0.210  0.00  0.00     0.002 A 
ATOM      4  C4  I4B d   1      -1.382   1.328   0.865  0.00  0.00    -0.004 A 
ATOM      5  C5  I4B d   1      -1.370   0.026   1.355  0.00  0.00     0.002 A 
ATOM      6  C6  I4B d   1      -0.578  -0.951   0.734  0.00  0.00     0.003 A 
ENDROOT
BRANCH   1   7
ATOM      7  C1' I4B d   1       0.970  -1.654  -1.112  0.00  0.00     0.060 C 
BRANCH   7   8
ATOM      8  C2' I4B d   1       0.052  -2.335  -2.107  0.00  0.00    -0.013 C 
ATOM      9  C4' I4B d   1       0.651  -2.335  -3.489  0.00  0.00     0.013 C 
ATOM     10  C3' I4B d   1      -0.197  -3.733  -1.625  0.00  0.00     0.013 C 
ENDBRANCH   7   8
ENDBRANCH   1   7
TORSDOF 2
ENDMDL
