MODEL 1
REMARK minimizedAffinity -4.24117422
REMARK minimizedRMSD -1
REMARK  2 active torsions:
REMARK  status: ('A' for Active; 'I' for Inactive)
REMARK    1  A    between atoms: C2'_3  and  C1'_4 
REMARK    2  A    between atoms: C1'_4  and  C1_5 
ROOT
ATOM      1  C1  I4B d   1       0.057   0.018   0.001  0.00  0.00    -0.075 A 
ATOM      2  C2  I4B d   1      -0.354   1.242  -0.464  0.00  0.00     0.003 A 
ATOM      3  C3  I4B d   1      -1.248   2.032   0.299  0.00  0.00     0.002 A 
ATOM      4  C4  I4B d   1      -1.742   1.540   1.490  0.00  0.00    -0.004 A 
ATOM      5  C5  I4B d   1      -1.306   0.308   1.972  0.00  0.00     0.002 A 
ATOM      6  C6  I4B d   1      -0.391  -0.452   1.228  0.00  0.00     0.003 A 
ENDROOT
BRANCH   1   7
ATOM      7  C1' I4B d   1       0.976  -0.803  -0.847  0.00  0.00     0.060 C 
BRANCH   7   8
ATOM      8  C2' I4B d   1       0.292  -2.125  -1.130  0.00  0.00    -0.013 C 
ATOM      9  C4' I4B d   1       0.150  -2.359  -2.611  0.00  0.00     0.013 C 
ATOM     10  C3' I4B d   1       1.100  -3.212  -0.486  0.00  0.00     0.013 C 
ENDBRANCH   7   8
ENDBRANCH   1   7
TORSDOF 2
ENDMDL
