MODEL 1
REMARK minimizedAffinity -2.3265245
REMARK minimizedRMSD -1
REMARK  2 active torsions:
REMARK  status: ('A' for Active; 'I' for Inactive)
REMARK    1  A    between atoms: C2'_3  and  C1'_4 
REMARK    2  A    between atoms: C1'_4  and  C1_5 
ROOT
ATOM      1  C1  I4B d   1      -0.370  -0.009  -0.089  0.00  0.00    -0.075 A 
ATOM      2  C2  I4B d   1      -0.370  -0.349   1.240  0.00  0.00     0.003 A 
ATOM      3  C3  I4B d   1      -1.158   0.381   2.163  0.00  0.00     0.002 A 
ATOM      4  C4  I4B d   1      -1.886   1.468   1.724  0.00  0.00    -0.004 A 
ATOM      5  C5  I4B d   1      -1.903   1.798   0.372  0.00  0.00     0.002 A 
ATOM      6  C6  I4B d   1      -1.150   1.047  -0.543  0.00  0.00     0.003 A 
ENDROOT
BRANCH   1   7
ATOM      7  C1' I4B d   1       0.499  -0.781  -1.031  0.00  0.00     0.060 C 
BRANCH   7   8
ATOM      8  C2' I4B d   1      -0.159  -2.123  -1.279  0.00  0.00    -0.013 C 
ATOM      9  C4' I4B d   1      -0.633  -2.244  -2.703  0.00  0.00     0.013 C 
ATOM     10  C3' I4B d   1       0.837  -3.195  -0.947  0.00  0.00     0.013 C 
ENDBRANCH   7   8
ENDBRANCH   1   7
TORSDOF 2
ENDMDL
