MODEL 1
REMARK minimizedAffinity -4.18720198
REMARK minimizedRMSD -1
REMARK  2 active torsions:
REMARK  status: ('A' for Active; 'I' for Inactive)
REMARK    1  A    between atoms: C2'_3  and  C1'_4 
REMARK    2  A    between atoms: C1'_4  and  C1_5 
ROOT
ATOM      1  C1  I4B d   1      -0.068  -0.172   0.117  0.00  0.00    -0.075 A 
ATOM      2  C2  I4B d   1       0.731   0.839  -0.357  0.00  0.00     0.003 A 
ATOM      3  C3  I4B d   1       1.629   0.596  -1.424  0.00  0.00     0.002 A 
ATOM      4  C4  I4B d   1       1.731  -0.675  -1.951  0.00  0.00    -0.004 A 
ATOM      5  C5  I4B d   1       0.904  -1.693  -1.485  0.00  0.00     0.002 A 
ATOM      6  C6  I4B d   1      -0.011  -1.437  -0.452  0.00  0.00     0.003 A 
ENDROOT
BRANCH   1   7
ATOM      7  C1' I4B d   1      -0.982   0.111   1.268  0.00  0.00     0.060 C 
BRANCH   7   8
ATOM      8  C2' I4B d   1      -0.828   1.572   1.638  0.00  0.00    -0.013 C 
ATOM      9  C4' I4B d   1      -2.144   2.298   1.551  0.00  0.00     0.013 C 
ATOM     10  C3' I4B d   1      -0.262   1.640   3.025  0.00  0.00     0.013 C 
ENDBRANCH   7   8
ENDBRANCH   1   7
TORSDOF 2
ENDMDL
