MODEL 1
REMARK minimizedAffinity -3.45571661
REMARK minimizedRMSD -1
REMARK  2 active torsions:
REMARK  status: ('A' for Active; 'I' for Inactive)
REMARK    1  A    between atoms: C2'_3  and  C1'_4 
REMARK    2  A    between atoms: C1'_4  and  C1_5 
ROOT
ATOM      1  C1  I4B d   1       0.528  -0.730  -0.456  0.00  0.00    -0.075 A 
ATOM      2  C2  I4B d   1       0.281   0.378  -1.228  0.00  0.00     0.003 A 
ATOM      3  C3  I4B d   1      -0.432   1.476  -0.690  0.00  0.00     0.002 A 
ATOM      4  C4  I4B d   1      -0.921   1.404   0.598  0.00  0.00    -0.004 A 
ATOM      5  C5  I4B d   1      -0.651   0.290   1.387  0.00  0.00     0.002 A 
ATOM      6  C6  I4B d   1       0.089  -0.780   0.861  0.00  0.00     0.003 A 
ENDROOT
BRANCH   1   7
ATOM      7  C1' I4B d   1       1.256  -1.886  -1.066  0.00  0.00     0.060 C 
BRANCH   7   8
ATOM      8  C2' I4B d   1       0.224  -2.863  -1.591  0.00  0.00    -0.013 C 
ATOM      9  C4' I4B d   1       0.233  -2.910  -3.097  0.00  0.00     0.013 C 
ATOM     10  C3' I4B d   1       0.522  -4.211  -1.006  0.00  0.00     0.013 C 
ENDBRANCH   7   8
ENDBRANCH   1   7
TORSDOF 2
ENDMDL
