MODEL 1
REMARK minimizedAffinity -0.714074016
REMARK minimizedRMSD -1
REMARK  1 active torsions:
REMARK  status: ('A' for Active; 'I' for Inactive)
REMARK    1  A    between atoms: C1_2  and  C2_3 
ROOT
ATOM      1  C2  UNL d   1      -0.859   3.874   0.869  0.00  0.00    -0.073 A 
ATOM      2  C3  UNL d   1      -1.284   5.176   0.578  0.00  0.00    -0.002 A 
ATOM      3  C4  UNL d   1      -2.290   5.774   1.337  0.00  0.00     0.004 A 
ATOM      4  C5  UNL d   1      -2.876   5.082   2.397  0.00  0.00    -0.004 A 
ATOM      5  C6  UNL d   1      -2.457   3.785   2.710  0.00  0.00    -0.075 A 
ATOM      6  C7  UNL d   1      -3.079   3.026   3.845  0.00  0.00     0.076 C 
ATOM      7  C8  UNL d   1      -1.447   3.190   1.942  0.00  0.00     0.001 A 
ENDROOT
BRANCH   1   8
ATOM      8  C1  UNL d   1       0.233   3.226   0.056  0.00  0.00     0.053 C 
ATOM      9  C   UNL d   1       1.141   4.254  -0.600  0.00  0.00     0.018 C 
ENDBRANCH   1   8
TORSDOF 1
ENDMDL
