MODEL 1
REMARK minimizedAffinity -0.163735628
REMARK minimizedRMSD -1
REMARK  1 active torsions:
REMARK  status: ('A' for Active; 'I' for Inactive)
REMARK    1  A    between atoms: C1_2  and  C2_3 
ROOT
ATOM      1  C2  UNL d   1      -5.451   2.926  -2.917  0.00  0.00    -0.073 A 
ATOM      2  C3  UNL d   1      -5.999   4.181  -2.630  0.00  0.00    -0.002 A 
ATOM      3  C4  UNL d   1      -5.689   5.284  -3.426  0.00  0.00     0.004 A 
ATOM      4  C5  UNL d   1      -4.834   5.143  -4.519  0.00  0.00    -0.004 A 
ATOM      5  C6  UNL d   1      -4.285   3.895  -4.829  0.00  0.00    -0.075 A 
ATOM      6  C7  UNL d   1      -3.362   3.727  -6.000  0.00  0.00     0.076 C 
ATOM      7  C8  UNL d   1      -4.599   2.792  -4.023  0.00  0.00     0.001 A 
ENDROOT
BRANCH   1   8
ATOM      8  C1  UNL d   1      -5.788   1.730  -2.064  0.00  0.00     0.053 C 
ATOM      9  C   UNL d   1      -4.804   1.551  -0.919  0.00  0.00     0.018 C 
ENDBRANCH   1   8
TORSDOF 1
ENDMDL
