MODEL 1
REMARK minimizedAffinity 3.21303535
REMARK minimizedRMSD -1
REMARK  1 active torsions:
REMARK  status: ('A' for Active; 'I' for Inactive)
REMARK    1  A    between atoms: C1_2  and  C2_3 
ROOT
ATOM      1  C2  UNL d   1       1.216   2.858   2.652  0.00  0.00    -0.073 A 
ATOM      2  C3  UNL d   1      -0.135   2.668   2.965  0.00  0.00    -0.002 A 
ATOM      3  C4  UNL d   1      -1.128   3.292   2.208  0.00  0.00     0.004 A 
ATOM      4  C5  UNL d   1      -0.782   4.106   1.130  0.00  0.00    -0.004 A 
ATOM      5  C6  UNL d   1       0.562   4.299   0.795  0.00  0.00    -0.075 A 
ATOM      6  C7  UNL d   1       0.952   5.173  -0.361  0.00  0.00     0.076 C 
ATOM      7  C8  UNL d   1       1.554   3.671   1.560  0.00  0.00     0.001 A 
ENDROOT
BRANCH   1   8
ATOM      8  C1  UNL d   1       2.291   2.181   3.462  0.00  0.00     0.053 C 
ATOM      9  C   UNL d   1       2.822   3.079   4.568  0.00  0.00     0.018 C 
ENDBRANCH   1   8
TORSDOF 1
ENDMDL
