MODEL 1
REMARK minimizedAffinity -0.0687498823
REMARK minimizedRMSD -1
REMARK  1 active torsions:
REMARK  status: ('A' for Active; 'I' for Inactive)
REMARK    1  A    between atoms: C1_2  and  C2_3 
ROOT
ATOM      1  C2  UNL d   1      -4.166   2.975  -4.839  0.00  0.00    -0.073 A 
ATOM      2  C3  UNL d   1      -2.908   2.638  -5.350  0.00  0.00    -0.002 A 
ATOM      3  C4  UNL d   1      -2.650   1.339  -5.790  0.00  0.00     0.004 A 
ATOM      4  C5  UNL d   1      -3.648   0.367  -5.729  0.00  0.00    -0.004 A 
ATOM      5  C6  UNL d   1      -4.915   0.687  -5.233  0.00  0.00    -0.075 A 
ATOM      6  C7  UNL d   1      -5.999  -0.348  -5.159  0.00  0.00     0.076 C 
ATOM      7  C8  UNL d   1      -5.166   1.993  -4.790  0.00  0.00     0.001 A 
ENDROOT
BRANCH   1   8
ATOM      8  C1  UNL d   1      -4.451   4.378  -4.369  0.00  0.00     0.053 C 
ATOM      9  C   UNL d   1      -3.376   4.892  -3.424  0.00  0.00     0.018 C 
ENDBRANCH   1   8
TORSDOF 1
ENDMDL
