MODEL 1
REMARK minimizedAffinity -4.01797199
REMARK minimizedRMSD -1
REMARK  1 active torsions:
REMARK  status: ('A' for Active; 'I' for Inactive)
REMARK    1  A    between atoms: C1_2  and  C2_3 
ROOT
ATOM      1  C2  UNL d   1      -5.293   3.441  -3.254  0.00  0.00    -0.073 A 
ATOM      2  C3  UNL d   1      -6.000   4.390  -4.001  0.00  0.00    -0.002 A 
ATOM      3  C4  UNL d   1      -5.753   4.538  -5.367  0.00  0.00     0.004 A 
ATOM      4  C5  UNL d   1      -4.804   3.736  -6.000  0.00  0.00    -0.004 A 
ATOM      5  C6  UNL d   1      -4.096   2.773  -5.272  0.00  0.00    -0.075 A 
ATOM      6  C7  UNL d   1      -3.070   1.904  -5.938  0.00  0.00     0.076 C 
ATOM      7  C8  UNL d   1      -4.348   2.632  -3.901  0.00  0.00     0.001 A 
ENDROOT
BRANCH   1   8
ATOM      8  C1  UNL d   1      -5.561   3.273  -1.781  0.00  0.00     0.053 C 
ATOM      9  C   UNL d   1      -5.931   1.841  -1.428  0.00  0.00     0.018 C 
ENDBRANCH   1   8
TORSDOF 1
ENDMDL
