MODEL 1
REMARK minimizedAffinity -3.92095804
REMARK minimizedRMSD -1
REMARK  1 active torsions:
REMARK  status: ('A' for Active; 'I' for Inactive)
REMARK    1  A    between atoms: C1_2  and  C2_3 
ROOT
ATOM      1  C2  UNL d   1      -4.932   3.859  -4.679  0.00  0.00    -0.073 A 
ATOM      2  C3  UNL d   1      -5.853   3.573  -3.666  0.00  0.00    -0.002 A 
ATOM      3  C4  UNL d   1      -6.000   2.267  -3.193  0.00  0.00     0.004 A 
ATOM      4  C5  UNL d   1      -5.222   1.238  -3.724  0.00  0.00    -0.004 A 
ATOM      5  C6  UNL d   1      -4.287   1.506  -4.729  0.00  0.00    -0.075 A 
ATOM      6  C7  UNL d   1      -3.445   0.409  -5.311  0.00  0.00     0.076 C 
ATOM      7  C8  UNL d   1      -4.148   2.818  -5.199  0.00  0.00     0.001 A 
ENDROOT
BRANCH   1   8
ATOM      8  C1  UNL d   1      -4.766   5.267  -5.187  0.00  0.00     0.053 C 
ATOM      9  C   UNL d   1      -5.996   5.751  -5.938  0.00  0.00     0.018 C 
ENDBRANCH   1   8
TORSDOF 1
ENDMDL
