MODEL 1
REMARK minimizedAffinity -1.4545207
REMARK minimizedRMSD -1
REMARK  0 active torsions:
REMARK  status: ('A' for Active; 'I' for Inactive)
ROOT
ATOM      1  C1  DEN d   1       0.458   0.686   0.733  0.00  0.00     0.130 A 
ATOM      2  C2  DEN d   1      -0.855   0.121   1.035  0.00  0.00    -0.031 A 
ATOM      3  C3  DEN d   1      -1.452  -0.349  -0.230  0.00  0.00     0.027 A 
ATOM      4  C4  DEN d   1      -0.476  -0.263  -2.616  0.00  0.00     0.027 A 
ATOM      5  C5  DEN d   1       0.603   0.136  -3.374  0.00  0.00    -0.003 A 
ATOM      6  C6  DEN d   1       1.685   0.771  -2.825  0.00  0.00     0.001 A 
ATOM      7  C7  DEN d   1       1.733   0.986  -1.473  0.00  0.00     0.017 A 
ATOM      8  C8  DEN d   1       0.646   0.594  -0.704  0.00  0.00    -0.094 A 
ATOM      9  C9  DEN d   1      -0.434  -0.058  -1.275  0.00  0.00    -0.072 A 
ENDROOT
TORSDOF 0
ENDMDL
