MODEL 1
REMARK minimizedAffinity -5.50610209
REMARK minimizedRMSD -1
REMARK  0 active torsions:
REMARK  status: ('A' for Active; 'I' for Inactive)
ROOT
ATOM      1  C1  DEN d   1      -1.381  -0.523  -0.739  0.00  0.00     0.130 A 
ATOM      2  C2  DEN d   1      -0.109  -0.832  -1.386  0.00  0.00    -0.031 A 
ATOM      3  C3  DEN d   1       0.977  -0.306  -0.534  0.00  0.00     0.027 A 
ATOM      4  C4  DEN d   1       0.813   0.947   1.714  0.00  0.00     0.027 A 
ATOM      5  C5  DEN d   1      -0.055   1.453   2.657  0.00  0.00    -0.003 A 
ATOM      6  C6  DEN d   1      -1.415   1.366   2.518  0.00  0.00     0.001 A 
ATOM      7  C7  DEN d   1      -1.947   0.719   1.434  0.00  0.00     0.017 A 
ATOM      8  C8  DEN d   1      -1.078   0.213   0.475  0.00  0.00    -0.094 A 
ATOM      9  C9  DEN d   1       0.294   0.301   0.640  0.00  0.00    -0.072 A 
ENDROOT
TORSDOF 0
ENDMDL
