MODEL 1
REMARK minimizedAffinity -2.75639153
REMARK minimizedRMSD -1
REMARK  0 active torsions:
REMARK  status: ('A' for Active; 'I' for Inactive)
ROOT
ATOM      1  C1  DEN d   1       0.607   0.572   2.308  0.00  0.00     0.130 A 
ATOM      2  C2  DEN d   1      -0.663   1.023   2.870  0.00  0.00    -0.031 A 
ATOM      3  C3  DEN d   1      -1.699   0.884   1.828  0.00  0.00     0.027 A 
ATOM      4  C4  DEN d   1      -1.463   0.015  -0.589  0.00  0.00     0.027 A 
ATOM      5  C5  DEN d   1      -0.578  -0.471  -1.526  0.00  0.00    -0.003 A 
ATOM      6  C6  DEN d   1       0.759  -0.611  -1.264  0.00  0.00     0.001 A 
ATOM      7  C7  DEN d   1       1.243  -0.303  -0.020  0.00  0.00     0.017 A 
ATOM      8  C8  DEN d   1       0.358   0.195   0.928  0.00  0.00    -0.094 A 
ATOM      9  C9  DEN d   1      -0.993   0.318   0.647  0.00  0.00    -0.072 A 
ENDROOT
TORSDOF 0
ENDMDL
