MODEL 1
REMARK minimizedAffinity -3.71705222
REMARK minimizedRMSD -1
REMARK  0 active torsions:
REMARK  status: ('A' for Active; 'I' for Inactive)
ROOT
ATOM      1  C1  DEN d   1       0.878   1.361  -0.356  0.00  0.00     0.130 A 
ATOM      2  C2  DEN d   1      -0.052   0.508   0.378  0.00  0.00    -0.031 A 
ATOM      3  C3  DEN d   1      -0.596  -0.491  -0.564  0.00  0.00     0.027 A 
ATOM      4  C4  DEN d   1      -0.087  -0.801  -3.073  0.00  0.00     0.027 A 
ATOM      5  C5  DEN d   1       0.630  -0.310  -4.142  0.00  0.00    -0.003 A 
ATOM      6  C6  DEN d   1       1.447   0.784  -4.033  0.00  0.00     0.001 A 
ATOM      7  C7  DEN d   1       1.602   1.396  -2.818  0.00  0.00     0.017 A 
ATOM      8  C8  DEN d   1       0.877   0.912  -1.737  0.00  0.00    -0.094 A 
ATOM      9  C9  DEN d   1       0.066  -0.203  -1.865  0.00  0.00    -0.072 A 
ENDROOT
TORSDOF 0
ENDMDL
