MODEL 1
REMARK minimizedAffinity -4.46917582
REMARK minimizedRMSD -1
REMARK  0 active torsions:
REMARK  status: ('A' for Active; 'I' for Inactive)
ROOT
ATOM      1  C1  DEN d   1       0.745   1.146   2.497  0.00  0.00     0.130 A 
ATOM      2  C2  DEN d   1      -0.567   1.614   2.936  0.00  0.00    -0.031 A 
ATOM      3  C3  DEN d   1      -1.570   1.136   1.963  0.00  0.00     0.027 A 
ATOM      4  C4  DEN d   1      -1.221  -0.278  -0.166  0.00  0.00     0.027 A 
ATOM      5  C5  DEN d   1      -0.283  -0.903  -0.957  0.00  0.00    -0.003 A 
ATOM      6  C6  DEN d   1       1.057  -0.861  -0.673  0.00  0.00     0.001 A 
ATOM      7  C7  DEN d   1       1.491  -0.217   0.456  0.00  0.00     0.017 A 
ATOM      8  C8  DEN d   1       0.552   0.423   1.254  0.00  0.00    -0.094 A 
ATOM      9  C9  DEN d   1      -0.799   0.358   0.957  0.00  0.00    -0.072 A 
ENDROOT
TORSDOF 0
ENDMDL
