MODEL 1
REMARK minimizedAffinity -4.47979879
REMARK minimizedRMSD -1
REMARK  0 active torsions:
REMARK  status: ('A' for Active; 'I' for Inactive)
ROOT
ATOM      1  C1  DEN d   1       0.699   0.731   1.846  0.00  0.00     0.130 A 
ATOM      2  C2  DEN d   1      -0.467   1.223   2.575  0.00  0.00    -0.031 A 
ATOM      3  C3  DEN d   1      -1.664   0.958   1.752  0.00  0.00     0.027 A 
ATOM      4  C4  DEN d   1      -1.825  -0.163  -0.565  0.00  0.00     0.027 A 
ATOM      5  C5  DEN d   1      -1.101  -0.735  -1.588  0.00  0.00    -0.003 A 
ATOM      6  C6  DEN d   1       0.265  -0.827  -1.553  0.00  0.00     0.001 A 
ATOM      7  C7  DEN d   1       0.947  -0.380  -0.453  0.00  0.00     0.017 A 
ATOM      8  C8  DEN d   1       0.225   0.205   0.579  0.00  0.00    -0.094 A 
ATOM      9  C9  DEN d   1      -1.156   0.278   0.530  0.00  0.00    -0.072 A 
ENDROOT
TORSDOF 0
ENDMDL
