MODEL 1
REMARK minimizedAffinity -3.44974303
REMARK minimizedRMSD -1
REMARK  0 active torsions:
REMARK  status: ('A' for Active; 'I' for Inactive)
ROOT
ATOM      1  C   UNL d   1      -0.079  -2.700   0.427  0.00  0.00     0.172 C 
ATOM      2  N   UNL d   1      -0.152  -1.310   0.043  0.00  0.00    -0.070 N 
ATOM      3  C1  UNL d   1       0.268  -0.788  -1.152  0.00  0.00    -0.004 A 
ATOM      4  C2  UNL d   1       0.027   0.568  -1.128  0.00  0.00    -0.047 A 
ATOM      5  C3  UNL d   1      -0.557   0.873   0.125  0.00  0.00    -0.047 A 
ATOM      6  C4  UNL d   1      -0.656  -0.308   0.830  0.00  0.00    -0.004 A 
ENDROOT
TORSDOF 0
ENDMDL
