MODEL 1
REMARK minimizedAffinity -2.78711486
REMARK minimizedRMSD -1
REMARK  0 active torsions:
REMARK  status: ('A' for Active; 'I' for Inactive)
ROOT
ATOM      1  C   UNL d   1       0.317   0.171  -0.996  0.00  0.00     0.172 C 
ATOM      2  N   UNL d   1       0.316  -1.131  -0.372  0.00  0.00    -0.070 N 
ATOM      3  C1  UNL d   1       1.224  -2.129  -0.605  0.00  0.00    -0.004 A 
ATOM      4  C2  UNL d   1       0.878  -3.207   0.181  0.00  0.00    -0.047 A 
ATOM      5  C3  UNL d   1      -0.279  -2.844   0.911  0.00  0.00    -0.047 A 
ATOM      6  C4  UNL d   1      -0.606  -1.555   0.549  0.00  0.00    -0.004 A 
ENDROOT
TORSDOF 0
ENDMDL
