MODEL 1
REMARK minimizedAffinity -2.22847295
REMARK minimizedRMSD -1
REMARK  0 active torsions:
REMARK  status: ('A' for Active; 'I' for Inactive)
ROOT
ATOM      1  C   UNL d   1       0.020   1.361  -0.615  0.00  0.00     0.172 C 
ATOM      2  N   UNL d   1      -0.302   0.067  -0.059  0.00  0.00    -0.070 N 
ATOM      3  C1  UNL d   1      -1.101  -0.157   1.030  0.00  0.00    -0.004 A 
ATOM      4  C2  UNL d   1      -1.158  -1.518   1.239  0.00  0.00    -0.047 A 
ATOM      5  C3  UNL d   1      -0.365  -2.133   0.241  0.00  0.00    -0.047 A 
ATOM      6  C4  UNL d   1       0.153  -1.128  -0.548  0.00  0.00    -0.004 A 
ENDROOT
TORSDOF 0
ENDMDL
