MODEL 1
REMARK minimizedAffinity -3.59925556
REMARK minimizedRMSD -1
REMARK  0 active torsions:
REMARK  status: ('A' for Active; 'I' for Inactive)
ROOT
ATOM      1  C   UNL d   1       0.206   1.306  -0.269  0.00  0.00     0.172 C 
ATOM      2  N   UNL d   1      -0.031  -0.085   0.035  0.00  0.00    -0.070 N 
ATOM      3  C1  UNL d   1      -0.867  -0.557   1.012  0.00  0.00    -0.004 A 
ATOM      4  C2  UNL d   1      -0.816  -1.934   0.982  0.00  0.00    -0.047 A 
ATOM      5  C3  UNL d   1       0.082  -2.302  -0.048  0.00  0.00    -0.047 A 
ATOM      6  C4  UNL d   1       0.553  -1.138  -0.618  0.00  0.00    -0.004 A 
ENDROOT
TORSDOF 0
ENDMDL
