MODEL 1
REMARK minimizedAffinity -2.33176541
REMARK minimizedRMSD -1
REMARK  0 active torsions:
REMARK  status: ('A' for Active; 'I' for Inactive)
ROOT
ATOM      1  C   UNL d   1       0.226   1.944  -0.484  0.00  0.00     0.172 C 
ATOM      2  N   UNL d   1      -0.189   0.637  -0.030  0.00  0.00    -0.070 N 
ATOM      3  C1  UNL d   1      -1.143   0.388   0.920  0.00  0.00    -0.004 A 
ATOM      4  C2  UNL d   1      -1.247  -0.979   1.066  0.00  0.00    -0.047 A 
ATOM      5  C3  UNL d   1      -0.322  -1.571   0.173  0.00  0.00    -0.047 A 
ATOM      6  C4  UNL d   1       0.319  -0.548  -0.493  0.00  0.00    -0.004 A 
ENDROOT
TORSDOF 0
ENDMDL
