MODEL 1
REMARK minimizedAffinity -2.13079619
REMARK minimizedRMSD -1
REMARK  0 active torsions:
REMARK  status: ('A' for Active; 'I' for Inactive)
ROOT
ATOM      1  C   UNL d   1       0.249   0.710   0.373  0.00  0.00     0.172 C 
ATOM      2  N   UNL d   1      -0.152  -0.677   0.333  0.00  0.00    -0.070 N 
ATOM      3  C1  UNL d   1      -1.228  -1.216   0.986  0.00  0.00    -0.004 A 
ATOM      4  C2  UNL d   1      -1.269  -2.562   0.693  0.00  0.00    -0.047 A 
ATOM      5  C3  UNL d   1      -0.179  -2.841  -0.166  0.00  0.00    -0.047 A 
ATOM      6  C4  UNL d   1       0.495  -1.657  -0.372  0.00  0.00    -0.004 A 
ENDROOT
TORSDOF 0
ENDMDL
