MODEL 1
REMARK minimizedAffinity -3.90938807
REMARK minimizedRMSD -1
REMARK  0 active torsions:
REMARK  status: ('A' for Active; 'I' for Inactive)
ROOT
ATOM      1  C   UNL d   1       0.004  -2.780   0.879  0.00  0.00     0.172 C 
ATOM      2  N   UNL d   1      -0.042  -1.428   0.374  0.00  0.00    -0.070 N 
ATOM      3  C1  UNL d   1      -0.779  -0.402   0.902  0.00  0.00    -0.004 A 
ATOM      4  C2  UNL d   1      -0.549   0.721   0.137  0.00  0.00    -0.047 A 
ATOM      5  C3  UNL d   1       0.356   0.357  -0.888  0.00  0.00    -0.047 A 
ATOM      6  C4  UNL d   1       0.654  -0.979  -0.717  0.00  0.00    -0.004 A 
ENDROOT
TORSDOF 0
ENDMDL
