MODEL 1
REMARK minimizedAffinity -2.73451877
REMARK minimizedRMSD -1
REMARK  0 active torsions:
REMARK  status: ('A' for Active; 'I' for Inactive)
ROOT
ATOM      1  C   UNL d   1      -1.053  -2.580   0.519  0.00  0.00     0.172 C 
ATOM      2  N   UNL d   1      -0.595  -1.242   0.224  0.00  0.00    -0.070 N 
ATOM      3  C1  UNL d   1      -1.026  -0.097   0.839  0.00  0.00    -0.004 A 
ATOM      4  C2  UNL d   1      -0.350   0.964   0.277  0.00  0.00    -0.047 A 
ATOM      5  C3  UNL d   1       0.517   0.438  -0.711  0.00  0.00    -0.047 A 
ATOM      6  C4  UNL d   1       0.345  -0.930  -0.722  0.00  0.00    -0.004 A 
ENDROOT
TORSDOF 0
ENDMDL
