MODEL 1
REMARK minimizedAffinity -3.77442241
REMARK minimizedRMSD -1
REMARK  0 active torsions:
REMARK  status: ('A' for Active; 'I' for Inactive)
ROOT
ATOM      1  C   UNL d   1       0.167   1.055  -0.260  0.00  0.00     0.172 C 
ATOM      2  N   UNL d   1      -0.069  -0.263   0.280  0.00  0.00    -0.070 N 
ATOM      3  C1  UNL d   1      -0.877  -0.555   1.347  0.00  0.00    -0.004 A 
ATOM      4  C2  UNL d   1      -0.835  -1.918   1.546  0.00  0.00    -0.047 A 
ATOM      5  C3  UNL d   1       0.027  -2.464   0.566  0.00  0.00    -0.047 A 
ATOM      6  C4  UNL d   1       0.487  -1.417  -0.205  0.00  0.00    -0.004 A 
ENDROOT
TORSDOF 0
ENDMDL
