MODEL 1
REMARK minimizedAffinity -3.72835994
REMARK minimizedRMSD -1
REMARK  0 active torsions:
REMARK  status: ('A' for Active; 'I' for Inactive)
ROOT
ATOM      1  C   UNL d   1       1.022  -1.560  -1.844  0.00  0.00     0.172 C 
ATOM      2  N   UNL d   1       0.315  -1.549  -0.586  0.00  0.00    -0.070 N 
ATOM      3  C1  UNL d   1      -0.120  -2.654   0.096  0.00  0.00    -0.004 A 
ATOM      4  C2  UNL d   1      -0.746  -2.222   1.245  0.00  0.00    -0.047 A 
ATOM      5  C3  UNL d   1      -0.686  -0.808   1.254  0.00  0.00    -0.047 A 
ATOM      6  C4  UNL d   1      -0.025  -0.418   0.109  0.00  0.00    -0.004 A 
ENDROOT
TORSDOF 0
ENDMDL
