MODEL 1
REMARK minimizedAffinity -1.90463901
REMARK minimizedRMSD -1
REMARK  0 active torsions:
REMARK  status: ('A' for Active; 'I' for Inactive)
ROOT
ATOM      1  C   UNL d   1      -0.000   0.264  -0.338  0.00  0.00     0.172 C 
ATOM      2  N   UNL d   1       0.045  -1.120   0.071  0.00  0.00    -0.070 N 
ATOM      3  C1  UNL d   1       1.167  -1.905   0.106  0.00  0.00    -0.004 A 
ATOM      4  C2  UNL d   1       0.793  -3.155   0.550  0.00  0.00    -0.047 A 
ATOM      5  C3  UNL d   1      -0.601  -3.120   0.789  0.00  0.00    -0.047 A 
ATOM      6  C4  UNL d   1      -1.039  -1.849   0.484  0.00  0.00    -0.004 A 
ENDROOT
TORSDOF 0
ENDMDL
