MODEL 1
REMARK minimizedAffinity -2.21705365
REMARK minimizedRMSD -1
REMARK  0 active torsions:
REMARK  status: ('A' for Active; 'I' for Inactive)
ROOT
ATOM      1  C   UNL d   1      -0.937  -2.671   0.505  0.00  0.00     0.172 C 
ATOM      2  N   UNL d   1      -0.541  -1.402  -0.059  0.00  0.00    -0.070 N 
ATOM      3  C1  UNL d   1      -0.210  -1.179  -1.369  0.00  0.00    -0.004 A 
ATOM      4  C2  UNL d   1       0.106   0.156  -1.504  0.00  0.00    -0.047 A 
ATOM      5  C3  UNL d   1      -0.039   0.755  -0.230  0.00  0.00    -0.047 A 
ATOM      6  C4  UNL d   1      -0.441  -0.231   0.645  0.00  0.00    -0.004 A 
ENDROOT
TORSDOF 0
ENDMDL
