MODEL 1
REMARK minimizedAffinity -2.24001956
REMARK minimizedRMSD -1
REMARK  0 active torsions:
REMARK  status: ('A' for Active; 'I' for Inactive)
ROOT
ATOM      1  C   UNL d   1      -0.004   0.783  -0.517  0.00  0.00     0.172 C 
ATOM      2  N   UNL d   1      -0.265  -0.528   0.028  0.00  0.00    -0.070 N 
ATOM      3  C1  UNL d   1       0.278  -1.702  -0.420  0.00  0.00    -0.004 A 
ATOM      4  C2  UNL d   1      -0.220  -2.723   0.361  0.00  0.00    -0.047 A 
ATOM      5  C3  UNL d   1      -1.094  -2.142   1.310  0.00  0.00    -0.047 A 
ATOM      6  C4  UNL d   1      -1.103  -0.783   1.082  0.00  0.00    -0.004 A 
ENDROOT
TORSDOF 0
ENDMDL
