MODEL 1
REMARK minimizedAffinity 7.60431528
REMARK minimizedRMSD -1
REMARK  0 active torsions:
REMARK  status: ('A' for Active; 'I' for Inactive)
ROOT
ATOM      1  C4' PXY d   1      -4.867   2.260   0.226  0.00  0.00     0.077 C 
ATOM      2  C1' PXY d   1       0.503   0.250   0.957  0.00  0.00     0.077 C 
ATOM      3  C1  PXY d   1      -0.903   0.788   0.773  0.00  0.00    -0.082 A 
ATOM      4  C2  PXY d   1      -1.894  -0.049   0.511  0.00  0.00     0.003 A 
ATOM      5  C3  PXY d   1      -3.165   0.424   0.309  0.00  0.00     0.003 A 
ATOM      6  C4  PXY d   1      -3.434   1.761   0.429  0.00  0.00    -0.082 A 
ATOM      7  C5  PXY d   1      -2.430   2.620   0.707  0.00  0.00     0.003 A 
ATOM      8  C6  PXY d   1      -1.140   2.124   0.867  0.00  0.00     0.003 A 
ENDROOT
TORSDOF 0
ENDMDL
