MODEL 1
REMARK minimizedAffinity 8.18677044
REMARK minimizedRMSD -1
REMARK  0 active torsions:
REMARK  status: ('A' for Active; 'I' for Inactive)
ROOT
ATOM      1  C4' PXY d   1       3.359   1.399  -2.566  0.00  0.00     0.077 C 
ATOM      2  C1' PXY d   1       1.597  -2.285   1.526  0.00  0.00     0.077 C 
ATOM      3  C1  PXY d   1       2.070  -1.326   0.451  0.00  0.00    -0.082 A 
ATOM      4  C2  PXY d   1       1.680  -0.062   0.484  0.00  0.00     0.003 A 
ATOM      5  C3  PXY d   1       2.072   0.811  -0.498  0.00  0.00     0.003 A 
ATOM      6  C4  PXY d   1       2.914   0.398  -1.496  0.00  0.00    -0.082 A 
ATOM      7  C5  PXY d   1       3.325  -0.888  -1.531  0.00  0.00     0.003 A 
ATOM      8  C6  PXY d   1       2.882  -1.768  -0.547  0.00  0.00     0.003 A 
ENDROOT
TORSDOF 0
ENDMDL
