MODEL 1
REMARK minimizedAffinity -4.51937866
REMARK minimizedRMSD -1
REMARK  0 active torsions:
REMARK  status: ('A' for Active; 'I' for Inactive)
ROOT
ATOM      1  C4' PXY d   1      -3.757   1.124   0.678  0.00  0.00     0.077 C 
ATOM      2  C1' PXY d   1       1.909   2.149   1.185  0.00  0.00     0.077 C 
ATOM      3  C1  PXY d   1       0.425   1.872   1.042  0.00  0.00    -0.082 A 
ATOM      4  C2  PXY d   1      -0.451   2.788   1.422  0.00  0.00     0.003 A 
ATOM      5  C3  PXY d   1      -1.796   2.541   1.330  0.00  0.00     0.003 A 
ATOM      6  C4  PXY d   1      -2.250   1.365   0.794  0.00  0.00    -0.082 A 
ATOM      7  C5  PXY d   1      -1.362   0.430   0.394  0.00  0.00     0.003 A 
ATOM      8  C6  PXY d   1      -0.001   0.683   0.535  0.00  0.00     0.003 A 
ENDROOT
TORSDOF 0
ENDMDL
