MODEL 1
REMARK minimizedAffinity 3.54238486
REMARK minimizedRMSD -1
REMARK  0 active torsions:
REMARK  status: ('A' for Active; 'I' for Inactive)
ROOT
ATOM      1  C4' PXY d   1      -0.925   2.954   3.625  0.00  0.00     0.077 C 
ATOM      2  C1' PXY d   1      -2.863  -0.235  -0.790  0.00  0.00     0.077 C 
ATOM      3  C1  PXY d   1      -2.351   0.611   0.359  0.00  0.00    -0.082 A 
ATOM      4  C2  PXY d   1      -2.049   0.034   1.511  0.00  0.00     0.003 A 
ATOM      5  C3  PXY d   1      -1.615   0.788   2.571  0.00  0.00     0.003 A 
ATOM      6  C4  PXY d   1      -1.437   2.139   2.434  0.00  0.00    -0.082 A 
ATOM      7  C5  PXY d   1      -1.732   2.733   1.259  0.00  0.00     0.003 A 
ATOM      8  C6  PXY d   1      -2.211   1.956   0.208  0.00  0.00     0.003 A 
ENDROOT
TORSDOF 0
ENDMDL
