MODEL 1
REMARK minimizedAffinity 3.08490229
REMARK minimizedRMSD -1
REMARK  0 active torsions:
REMARK  status: ('A' for Active; 'I' for Inactive)
ROOT
ATOM      1  C4' PXY d   1      -0.748   1.839  -5.999  0.00  0.00     0.077 C 
ATOM      2  C1' PXY d   1       4.253   0.664  -3.349  0.00  0.00     0.077 C 
ATOM      3  C1  PXY d   1       2.946   0.984  -4.048  0.00  0.00    -0.082 A 
ATOM      4  C2  PXY d   1       1.841   0.351  -3.689  0.00  0.00     0.003 A 
ATOM      5  C3  PXY d   1       0.657   0.605  -4.331  0.00  0.00     0.003 A 
ATOM      6  C4  PXY d   1       0.592   1.555  -5.316  0.00  0.00    -0.082 A 
ATOM      7  C5  PXY d   1       1.714   2.212  -5.680  0.00  0.00     0.003 A 
ATOM      8  C6  PXY d   1       2.914   1.910  -5.044  0.00  0.00     0.003 A 
ENDROOT
TORSDOF 0
ENDMDL
