MODEL 1
REMARK minimizedAffinity 13.5226068
REMARK minimizedRMSD -1
REMARK  0 active torsions:
REMARK  status: ('A' for Active; 'I' for Inactive)
ROOT
ATOM      1  C4' PXY d   1      -0.733   2.238  -5.910  0.00  0.00     0.077 C 
ATOM      2  C1' PXY d   1      -5.336   5.734  -5.981  0.00  0.00     0.077 C 
ATOM      3  C1  PXY d   1      -4.136   4.808  -5.957  0.00  0.00    -0.082 A 
ATOM      4  C2  PXY d   1      -2.916   5.319  -5.960  0.00  0.00     0.003 A 
ATOM      5  C3  PXY d   1      -1.819   4.495  -5.971  0.00  0.00     0.003 A 
ATOM      6  C4  PXY d   1      -1.974   3.136  -5.924  0.00  0.00    -0.082 A 
ATOM      7  C5  PXY d   1      -3.216   2.607  -5.910  0.00  0.00     0.003 A 
ATOM      8  C6  PXY d   1      -4.316   3.459  -5.941  0.00  0.00     0.003 A 
ENDROOT
TORSDOF 0
ENDMDL
