MODEL 1
REMARK minimizedAffinity -4.25921917
REMARK minimizedRMSD -1
REMARK  0 active torsions:
REMARK  status: ('A' for Active; 'I' for Inactive)
ROOT
ATOM      1  C4' PXY d   1       1.110   4.769   0.094  0.00  0.00     0.077 C 
ATOM      2  C1' PXY d   1      -0.041  -0.895   0.199  0.00  0.00     0.077 C 
ATOM      3  C1  PXY d   1       0.248   0.593   0.170  0.00  0.00    -0.082 A 
ATOM      4  C2  PXY d   1       1.445   1.019  -0.197  0.00  0.00     0.003 A 
ATOM      5  C3  PXY d   1       1.734   2.360  -0.198  0.00  0.00     0.003 A 
ATOM      6  C4  PXY d   1       0.770   3.276   0.129  0.00  0.00    -0.082 A 
ATOM      7  C5  PXY d   1      -0.457   2.849   0.494  0.00  0.00     0.003 A 
ATOM      8  C6  PXY d   1      -0.717   1.482   0.529  0.00  0.00     0.003 A 
ENDROOT
TORSDOF 0
ENDMDL
