MODEL 1
REMARK minimizedAffinity -3.73808837
REMARK minimizedRMSD -1
REMARK  0 active torsions:
REMARK  status: ('A' for Active; 'I' for Inactive)
ROOT
ATOM      1  C4' PXY d   1      -2.698   2.130   0.273  0.00  0.00     0.077 C 
ATOM      2  C1' PXY d   1       3.073   2.351   0.534  0.00  0.00     0.077 C 
ATOM      3  C1  PXY d   1       1.559   2.305   0.471  0.00  0.00    -0.082 A 
ATOM      4  C2  PXY d   1       0.944   1.138   0.371  0.00  0.00     0.003 A 
ATOM      5  C3  PXY d   1      -0.423   1.079   0.281  0.00  0.00     0.003 A 
ATOM      6  C4  PXY d   1      -1.171   2.224   0.348  0.00  0.00    -0.082 A 
ATOM      7  C5  PXY d   1      -0.552   3.418   0.461  0.00  0.00     0.003 A 
ATOM      8  C6  PXY d   1       0.839   3.459   0.509  0.00  0.00     0.003 A 
ENDROOT
TORSDOF 0
ENDMDL
