MODEL 1
REMARK minimizedAffinity 9.4447937
REMARK minimizedRMSD -1
REMARK  0 active torsions:
REMARK  status: ('A' for Active; 'I' for Inactive)
ROOT
ATOM      1  C4' PXY d   1      -1.878   0.871   1.110  0.00  0.00     0.077 C 
ATOM      2  C1' PXY d   1       3.693   2.087   2.055  0.00  0.00     0.077 C 
ATOM      3  C1  PXY d   1       2.236   1.761   1.796  0.00  0.00    -0.082 A 
ATOM      4  C2  PXY d   1       1.293   2.555   2.277  0.00  0.00     0.003 A 
ATOM      5  C3  PXY d   1      -0.031   2.258   2.080  0.00  0.00     0.003 A 
ATOM      6  C4  PXY d   1      -0.393   1.166   1.338  0.00  0.00    -0.082 A 
ATOM      7  C5  PXY d   1       0.563   0.357   0.835  0.00  0.00     0.003 A 
ATOM      8  C6  PXY d   1       1.901   0.653   1.081  0.00  0.00     0.003 A 
ENDROOT
TORSDOF 0
ENDMDL
