MODEL 1
REMARK minimizedAffinity 6.20833492
REMARK minimizedRMSD -1
REMARK  0 active torsions:
REMARK  status: ('A' for Active; 'I' for Inactive)
ROOT
ATOM      1  C4' PXY d   1       2.139   0.072   0.390  0.00  0.00     0.077 C 
ATOM      2  C1' PXY d   1      -3.480   1.429   0.368  0.00  0.00     0.077 C 
ATOM      3  C1  PXY d   1      -2.009   1.060   0.373  0.00  0.00    -0.082 A 
ATOM      4  C2  PXY d   1      -1.130   1.888   0.913  0.00  0.00     0.003 A 
ATOM      5  C3  PXY d   1       0.208   1.585   0.897  0.00  0.00     0.003 A 
ATOM      6  C4  PXY d   1       0.643   0.399   0.371  0.00  0.00    -0.082 A 
ATOM      7  C5  PXY d   1      -0.249  -0.456  -0.173  0.00  0.00     0.003 A 
ATOM      8  C6  PXY d   1      -1.598  -0.111  -0.184  0.00  0.00     0.003 A 
ENDROOT
TORSDOF 0
ENDMDL
