MODEL 1
REMARK minimizedAffinity -4.90770054
REMARK minimizedRMSD -1
REMARK  0 active torsions:
REMARK  status: ('A' for Active; 'I' for Inactive)
ROOT
ATOM      1  C4' PXY d   1      -3.966  -4.617  -1.315  0.00  0.00     0.077 C 
ATOM      2  C1' PXY d   1       0.786  -1.399  -0.625  0.00  0.00     0.077 C 
ATOM      3  C1  PXY d   1      -0.455  -2.252  -0.799  0.00  0.00    -0.082 A 
ATOM      4  C2  PXY d   1      -1.249  -2.048  -1.838  0.00  0.00     0.003 A 
ATOM      5  C3  PXY d   1      -2.392  -2.789  -1.993  0.00  0.00     0.003 A 
ATOM      6  C4  PXY d   1      -2.698  -3.785  -1.105  0.00  0.00    -0.082 A 
ATOM      7  C5  PXY d   1      -1.888  -4.007  -0.048  0.00  0.00     0.003 A 
ATOM      8  C6  PXY d   1      -0.754  -3.216   0.114  0.00  0.00     0.003 A 
ENDROOT
TORSDOF 0
ENDMDL
