MODEL 1
REMARK minimizedAffinity -4.32593584
REMARK minimizedRMSD -1
REMARK  0 active torsions:
REMARK  status: ('A' for Active; 'I' for Inactive)
ROOT
ATOM      1  C4' PXY d   1      -1.153  -2.399  -0.159  0.00  0.00     0.077 C 
ATOM      2  C1' PXY d   1       1.317   2.700   0.988  0.00  0.00     0.077 C 
ATOM      3  C1  PXY d   1       0.681   1.358   0.685  0.00  0.00    -0.082 A 
ATOM      4  C2  PXY d   1      -0.573   1.308   0.265  0.00  0.00     0.003 A 
ATOM      5  C3  PXY d   1      -1.173   0.100   0.017  0.00  0.00     0.003 A 
ATOM      6  C4  PXY d   1      -0.467  -1.065   0.150  0.00  0.00    -0.082 A 
ATOM      7  C5  PXY d   1       0.816  -1.022   0.568  0.00  0.00     0.003 A 
ATOM      8  C6  PXY d   1       1.395   0.212   0.853  0.00  0.00     0.003 A 
ENDROOT
TORSDOF 0
ENDMDL
