MODEL 1
REMARK minimizedAffinity -2.24464488
REMARK minimizedRMSD -1
REMARK  0 active torsions:
REMARK  status: ('A' for Active; 'I' for Inactive)
ROOT
ATOM      1  C4' PXY d   1      -5.999   1.890   0.869  0.00  0.00     0.077 C 
ATOM      2  C1' PXY d   1      -3.286   3.455  -3.989  0.00  0.00     0.077 C 
ATOM      3  C1  PXY d   1      -3.995   3.032  -2.718  0.00  0.00    -0.082 A 
ATOM      4  C2  PXY d   1      -4.877   3.846  -2.159  0.00  0.00     0.003 A 
ATOM      5  C3  PXY d   1      -5.504   3.492  -0.992  0.00  0.00     0.003 A 
ATOM      6  C4  PXY d   1      -5.266   2.272  -0.420  0.00  0.00    -0.082 A 
ATOM      7  C5  PXY d   1      -4.376   1.432  -0.989  0.00  0.00     0.003 A 
ATOM      8  C6  PXY d   1      -3.719   1.826  -2.152  0.00  0.00     0.003 A 
ENDROOT
TORSDOF 0
ENDMDL
