MODEL 1
REMARK minimizedAffinity -1.03434002
REMARK minimizedRMSD -1
REMARK  0 active torsions:
REMARK  status: ('A' for Active; 'I' for Inactive)
ROOT
ATOM      1  C4' PXY d   1      -1.762  -4.653  -2.100  0.00  0.00     0.077 C 
ATOM      2  C1' PXY d   1       1.401  -0.064  -0.566  0.00  0.00     0.077 C 
ATOM      3  C1  PXY d   1       0.576  -1.266  -0.981  0.00  0.00    -0.082 A 
ATOM      4  C2  PXY d   1      -0.486  -1.608  -0.269  0.00  0.00     0.003 A 
ATOM      5  C3  PXY d   1      -1.225  -2.711  -0.611  0.00  0.00     0.003 A 
ATOM      6  C4  PXY d   1      -0.905  -3.441  -1.724  0.00  0.00    -0.082 A 
ATOM      7  C5  PXY d   1       0.171  -3.093  -2.462  0.00  0.00     0.003 A 
ATOM      8  C6  PXY d   1       0.932  -1.994  -2.074  0.00  0.00     0.003 A 
ENDROOT
TORSDOF 0
ENDMDL
