MODEL 1
REMARK minimizedAffinity -4.18196106
REMARK minimizedRMSD -1
REMARK  0 active torsions:
REMARK  status: ('A' for Active; 'I' for Inactive)
ROOT
ATOM      1  C4' PXY d   1       1.356   0.661  -1.072  0.00  0.00     0.077 C 
ATOM      2  C1' PXY d   1      -1.795  -4.133  -1.784  0.00  0.00     0.077 C 
ATOM      3  C1  PXY d   1      -0.958  -2.882  -1.604  0.00  0.00    -0.082 A 
ATOM      4  C2  PXY d   1      -1.222  -2.058  -0.603  0.00  0.00     0.003 A 
ATOM      5  C3  PXY d   1      -0.496  -0.905  -0.444  0.00  0.00     0.003 A 
ATOM      6  C4  PXY d   1       0.544  -0.620  -1.287  0.00  0.00    -0.082 A 
ATOM      7  C5  PXY d   1       0.826  -1.461  -2.305  0.00  0.00     0.003 A 
ATOM      8  C6  PXY d   1       0.051  -2.605  -2.473  0.00  0.00     0.003 A 
ENDROOT
TORSDOF 0
ENDMDL
