MODEL 1
REMARK minimizedAffinity -1.24785423
REMARK minimizedRMSD -1
REMARK  0 active torsions:
REMARK  status: ('A' for Active; 'I' for Inactive)
ROOT
ATOM      1  C4' PXY d   1       1.796   5.461  -0.742  0.00  0.00     0.077 C 
ATOM      2  C1' PXY d   1       1.918  -0.135   0.701  0.00  0.00     0.077 C 
ATOM      3  C1  PXY d   1       1.877   1.335   0.332  0.00  0.00    -0.082 A 
ATOM      4  C2  PXY d   1       2.228   1.713  -0.887  0.00  0.00     0.003 A 
ATOM      5  C3  PXY d   1       2.228   3.041  -1.227  0.00  0.00     0.003 A 
ATOM      6  C4  PXY d   1       1.813   3.987  -0.328  0.00  0.00    -0.082 A 
ATOM      7  C5  PXY d   1       1.442   3.608   0.913  0.00  0.00     0.003 A 
ATOM      8  C6  PXY d   1       1.489   2.259   1.252  0.00  0.00     0.003 A 
ENDROOT
TORSDOF 0
ENDMDL
