MODEL 1
REMARK minimizedAffinity -0.309293747
REMARK minimizedRMSD -1
REMARK  0 active torsions:
REMARK  status: ('A' for Active; 'I' for Inactive)
ROOT
ATOM      1  C4' PXY d   1       1.451   5.515  -0.286  0.00  0.00     0.077 C 
ATOM      2  C1' PXY d   1       2.493  -0.065   0.809  0.00  0.00     0.077 C 
ATOM      3  C1  PXY d   1       2.210   1.399   0.531  0.00  0.00    -0.082 A 
ATOM      4  C2  PXY d   1       2.554   1.921  -0.635  0.00  0.00     0.003 A 
ATOM      5  C3  PXY d   1       2.335   3.250  -0.892  0.00  0.00     0.003 A 
ATOM      6  C4  PXY d   1       1.709   4.040   0.035  0.00  0.00    -0.082 A 
ATOM      7  C5  PXY d   1       1.345   3.512   1.223  0.00  0.00     0.003 A 
ATOM      8  C6  PXY d   1       1.614   2.171   1.479  0.00  0.00     0.003 A 
ENDROOT
TORSDOF 0
ENDMDL
