MODEL 1
REMARK minimizedAffinity -2.20008707
REMARK minimizedRMSD -1
REMARK  0 active torsions:
REMARK  status: ('A' for Active; 'I' for Inactive)
ROOT
ATOM      1  C   UNL d   1       0.999   1.612  -1.310  0.00  0.00     0.020 A 
ATOM      2  C1  UNL d   1       1.534   0.530  -2.008  0.00  0.00     0.020 A 
ATOM      3  C2  UNL d   1       1.340  -0.770  -1.536  0.00  0.00     0.034 A 
ATOM      4  C3  UNL d   1       0.609  -0.991  -0.363  0.00  0.00     0.017 A 
ATOM      5  C4  UNL d   1       0.073   0.096   0.337  0.00  0.00     0.017 A 
ATOM      6  C5  UNL d   1       0.270   1.395  -0.140  0.00  0.00     0.034 A 
ATOM      7 Cl   UNL d   1      -0.840  -0.098   1.792  0.00  0.00    -0.070 Cl
ATOM      8 Cl1  UNL d   1       0.408  -2.625   0.162  0.00  0.00    -0.070 Cl
ENDROOT
TORSDOF 0
ENDMDL
