MODEL 1
REMARK minimizedAffinity -5.32535267
REMARK minimizedRMSD -1
REMARK  0 active torsions:
REMARK  status: ('A' for Active; 'I' for Inactive)
ROOT
ATOM      1  C   UNL d   1       2.469  -0.215  -2.481  0.00  0.00     0.020 A 
ATOM      2  C1  UNL d   1       1.819  -1.315  -1.925  0.00  0.00     0.020 A 
ATOM      3  C2  UNL d   1       0.925  -1.137  -0.867  0.00  0.00     0.034 A 
ATOM      4  C3  UNL d   1       0.680   0.145  -0.361  0.00  0.00     0.017 A 
ATOM      5  C4  UNL d   1       1.334   1.249  -0.920  0.00  0.00     0.017 A 
ATOM      6  C5  UNL d   1       2.227   1.065  -1.980  0.00  0.00     0.034 A 
ATOM      7 Cl   UNL d   1       1.083   2.862  -0.350  0.00  0.00    -0.070 Cl
ATOM      8 Cl1  UNL d   1      -0.437   0.292   0.949  0.00  0.00    -0.070 Cl
ENDROOT
TORSDOF 0
ENDMDL
