MODEL 1
REMARK minimizedAffinity -3.76910996
REMARK minimizedRMSD -1
REMARK  0 active torsions:
REMARK  status: ('A' for Active; 'I' for Inactive)
ROOT
ATOM      1  C   UNL d   1      -0.637  -0.767   1.348  0.00  0.00     0.020 A 
ATOM      2  C1  UNL d   1      -0.225  -1.662   0.362  0.00  0.00     0.020 A 
ATOM      3  C2  UNL d   1       0.658  -1.244  -0.636  0.00  0.00     0.034 A 
ATOM      4  C3  UNL d   1       1.133   0.073  -0.649  0.00  0.00     0.017 A 
ATOM      5  C4  UNL d   1       0.719   0.971   0.342  0.00  0.00     0.017 A 
ATOM      6  C5  UNL d   1      -0.165   0.547   1.338  0.00  0.00     0.034 A 
ATOM      7 Cl   UNL d   1       1.262   2.611   0.392  0.00  0.00    -0.070 Cl
ATOM      8 Cl1  UNL d   1       2.223   0.521  -1.912  0.00  0.00    -0.070 Cl
ENDROOT
TORSDOF 0
ENDMDL
