MODEL 1
REMARK minimizedAffinity -5.53649282
REMARK minimizedRMSD -1
REMARK  0 active torsions:
REMARK  status: ('A' for Active; 'I' for Inactive)
ROOT
ATOM      1  C   UNL d   1       0.633   1.805  -0.142  0.00  0.00     0.020 A 
ATOM      2  C1  UNL d   1       0.059   0.861   0.709  0.00  0.00     0.020 A 
ATOM      3  C2  UNL d   1       0.024  -0.484   0.337  0.00  0.00     0.034 A 
ATOM      4  C3  UNL d   1       0.566  -0.891  -0.888  0.00  0.00     0.017 A 
ATOM      5  C4  UNL d   1       1.142   0.057  -1.741  0.00  0.00     0.017 A 
ATOM      6  C5  UNL d   1       1.174   1.403  -1.364  0.00  0.00     0.034 A 
ATOM      7 Cl   UNL d   1       1.830  -0.368  -3.269  0.00  0.00    -0.070 Cl
ATOM      8 Cl1  UNL d   1       0.489  -2.571  -1.283  0.00  0.00    -0.070 Cl
ENDROOT
TORSDOF 0
ENDMDL
