MODEL 1
REMARK minimizedAffinity -4.1168294
REMARK minimizedRMSD -1
REMARK  0 active torsions:
REMARK  status: ('A' for Active; 'I' for Inactive)
ROOT
ATOM      1  C   UNL d   1       2.044   0.450  -2.462  0.00  0.00     0.020 A 
ATOM      2  C1  UNL d   1       1.243  -0.676  -2.277  0.00  0.00     0.020 A 
ATOM      3  C2  UNL d   1       0.328  -0.716  -1.222  0.00  0.00     0.034 A 
ATOM      4  C3  UNL d   1       0.213   0.372  -0.349  0.00  0.00     0.017 A 
ATOM      5  C4  UNL d   1       1.018   1.501  -0.536  0.00  0.00     0.017 A 
ATOM      6  C5  UNL d   1       1.932   1.536  -1.593  0.00  0.00     0.034 A 
ATOM      7 Cl   UNL d   1       0.932   2.882   0.500  0.00  0.00    -0.070 Cl
ATOM      8 Cl1  UNL d   1      -0.940   0.254   0.933  0.00  0.00    -0.070 Cl
ENDROOT
TORSDOF 0
ENDMDL
