MODEL 1
REMARK minimizedAffinity -3.17475343
REMARK minimizedRMSD -1
REMARK  0 active torsions:
REMARK  status: ('A' for Active; 'I' for Inactive)
ROOT
ATOM      1  C   UNL d   1       2.118   0.307  -2.412  0.00  0.00     0.020 A 
ATOM      2  C1  UNL d   1       1.033  -0.554  -2.569  0.00  0.00     0.020 A 
ATOM      3  C2  UNL d   1       0.060  -0.640  -1.571  0.00  0.00     0.034 A 
ATOM      4  C3  UNL d   1       0.170   0.136  -0.412  0.00  0.00     0.017 A 
ATOM      5  C4  UNL d   1       1.260   1.000  -0.255  0.00  0.00     0.017 A 
ATOM      6  C5  UNL d   1       2.232   1.082  -1.257  0.00  0.00     0.034 A 
ATOM      7 Cl   UNL d   1       1.465   1.989   1.147  0.00  0.00    -0.070 Cl
ATOM      8 Cl1  UNL d   1      -1.070  -0.021   0.781  0.00  0.00    -0.070 Cl
ENDROOT
TORSDOF 0
ENDMDL
