MODEL 1
REMARK minimizedAffinity -4.19696903
REMARK minimizedRMSD -1
REMARK  0 active torsions:
REMARK  status: ('A' for Active; 'I' for Inactive)
ROOT
ATOM      1  C   UNL d   1       4.603   0.930  -1.057  0.00  0.00     0.020 A 
ATOM      2  C1  UNL d   1       5.014  -0.400  -1.137  0.00  0.00     0.020 A 
ATOM      3  C2  UNL d   1       4.091  -1.397  -1.463  0.00  0.00     0.034 A 
ATOM      4  C3  UNL d   1       2.754  -1.065  -1.710  0.00  0.00     0.017 A 
ATOM      5  C4  UNL d   1       2.343   0.270  -1.629  0.00  0.00     0.017 A 
ATOM      6  C5  UNL d   1       3.271   1.264  -1.302  0.00  0.00     0.034 A 
ATOM      7 Cl   UNL d   1       0.710   0.757  -1.919  0.00  0.00    -0.070 Cl
ATOM      8 Cl1  UNL d   1       1.668  -2.349  -2.107  0.00  0.00    -0.070 Cl
ENDROOT
TORSDOF 0
ENDMDL
