MODEL 1
REMARK minimizedAffinity -3.56296754
REMARK minimizedRMSD -1
REMARK  0 active torsions:
REMARK  status: ('A' for Active; 'I' for Inactive)
ROOT
ATOM      1  C   UNL d   1       0.117  -1.609  -0.163  0.00  0.00     0.020 A 
ATOM      2  C1  UNL d   1      -0.023  -0.684   0.872  0.00  0.00     0.020 A 
ATOM      3  C2  UNL d   1       0.371   0.642   0.680  0.00  0.00     0.034 A 
ATOM      4  C3  UNL d   1       0.907   1.047  -0.548  0.00  0.00     0.017 A 
ATOM      5  C4  UNL d   1       1.047   0.118  -1.585  0.00  0.00     0.017 A 
ATOM      6  C5  UNL d   1       0.650  -1.209  -1.388  0.00  0.00     0.034 A 
ATOM      7 Cl   UNL d   1       1.699   0.543  -3.128  0.00  0.00    -0.070 Cl
ATOM      8 Cl1  UNL d   1       1.373   2.702  -0.714  0.00  0.00    -0.070 Cl
ENDROOT
TORSDOF 0
ENDMDL
