MODEL 1
REMARK minimizedAffinity -4.055161
REMARK minimizedRMSD -1
REMARK  0 active torsions:
REMARK  status: ('A' for Active; 'I' for Inactive)
ROOT
ATOM      1  C   UNL d   1       1.832   1.025  -1.431  0.00  0.00     0.020 A 
ATOM      2  C1  UNL d   1       1.494   1.935  -0.430  0.00  0.00     0.020 A 
ATOM      3  C2  UNL d   1       0.647   1.547   0.609  0.00  0.00     0.034 A 
ATOM      4  C3  UNL d   1       0.134   0.245   0.651  0.00  0.00     0.017 A 
ATOM      5  C4  UNL d   1       0.473  -0.667  -0.355  0.00  0.00     0.017 A 
ATOM      6  C5  UNL d   1       1.322  -0.273  -1.393  0.00  0.00     0.034 A 
ATOM      7 Cl   UNL d   1      -0.120  -2.291  -0.371  0.00  0.00    -0.070 Cl
ATOM      8 Cl1  UNL d   1      -0.908  -0.166   1.966  0.00  0.00    -0.070 Cl
ENDROOT
TORSDOF 0
ENDMDL
