MODEL 1
REMARK minimizedAffinity -3.88869953
REMARK minimizedRMSD -1
REMARK  0 active torsions:
REMARK  status: ('A' for Active; 'I' for Inactive)
ROOT
ATOM      1  C   UNL d   1       1.599  -1.557  -2.315  0.00  0.00     0.020 A 
ATOM      2  C1  UNL d   1       1.445  -0.180  -2.158  0.00  0.00     0.020 A 
ATOM      3  C2  UNL d   1       0.697   0.321  -1.090  0.00  0.00     0.034 A 
ATOM      4  C3  UNL d   1       0.100  -0.555  -0.176  0.00  0.00     0.017 A 
ATOM      5  C4  UNL d   1       0.255  -1.937  -0.335  0.00  0.00     0.017 A 
ATOM      6  C5  UNL d   1       1.005  -2.433  -1.406  0.00  0.00     0.034 A 
ATOM      7 Cl   UNL d   1      -0.451  -3.080   0.752  0.00  0.00    -0.070 Cl
ATOM      8 Cl1  UNL d   1      -0.811   0.134   1.120  0.00  0.00    -0.070 Cl
ENDROOT
TORSDOF 0
ENDMDL
