MODEL 1
REMARK minimizedAffinity -4.77330685
REMARK minimizedRMSD -1
REMARK  0 active torsions:
REMARK  status: ('A' for Active; 'I' for Inactive)
ROOT
ATOM      1  C   UNL d   1       1.493   0.059  -2.407  0.00  0.00     0.020 A 
ATOM      2  C1  UNL d   1       1.209   1.213  -1.678  0.00  0.00     0.020 A 
ATOM      3  C2  UNL d   1       0.583   1.115  -0.433  0.00  0.00     0.034 A 
ATOM      4  C3  UNL d   1       0.239  -0.138   0.086  0.00  0.00     0.017 A 
ATOM      5  C4  UNL d   1       0.525  -1.296  -0.647  0.00  0.00     0.017 A 
ATOM      6  C5  UNL d   1       1.152  -1.193  -1.892  0.00  0.00     0.034 A 
ATOM      7 Cl   UNL d   1       0.131  -2.878  -0.072  0.00  0.00    -0.070 Cl
ATOM      8 Cl1  UNL d   1      -0.533  -0.184   1.631  0.00  0.00    -0.070 Cl
ENDROOT
TORSDOF 0
ENDMDL
