MODEL 1
REMARK minimizedAffinity -3.79353738
REMARK minimizedRMSD -1
REMARK  0 active torsions:
REMARK  status: ('A' for Active; 'I' for Inactive)
ROOT
ATOM      1  C   UNL d   1      -0.410  -1.766   0.401  0.00  0.00     0.020 A 
ATOM      2  C1  UNL d   1      -0.361  -0.821   1.425  0.00  0.00     0.020 A 
ATOM      3  C2  UNL d   1       0.140   0.457   1.171  0.00  0.00     0.034 A 
ATOM      4  C3  UNL d   1       0.594   0.794  -0.109  0.00  0.00     0.017 A 
ATOM      5  C4  UNL d   1       0.544  -0.155  -1.136  0.00  0.00     0.017 A 
ATOM      6  C5  UNL d   1       0.041  -1.434  -0.877  0.00  0.00     0.034 A 
ATOM      7 Cl   UNL d   1       1.085   0.187  -2.741  0.00  0.00    -0.070 Cl
ATOM      8 Cl1  UNL d   1       1.200   2.394  -0.351  0.00  0.00    -0.070 Cl
ENDROOT
TORSDOF 0
ENDMDL
