MODEL 1
REMARK minimizedAffinity -5.35088396
REMARK minimizedRMSD -1
REMARK  0 active torsions:
REMARK  status: ('A' for Active; 'I' for Inactive)
ROOT
ATOM      1  C   UNL d   1       0.991  -1.544  -2.266  0.00  0.00     0.020 A 
ATOM      2  C1  UNL d   1       1.796  -0.496  -2.710  0.00  0.00     0.020 A 
ATOM      3  C2  UNL d   1       1.931   0.658  -1.935  0.00  0.00     0.034 A 
ATOM      4  C3  UNL d   1       1.260   0.766  -0.711  0.00  0.00     0.017 A 
ATOM      5  C4  UNL d   1       0.453  -0.288  -0.266  0.00  0.00     0.017 A 
ATOM      6  C5  UNL d   1       0.321  -1.440  -1.046  0.00  0.00     0.034 A 
ATOM      7 Cl   UNL d   1      -0.406  -0.228   1.233  0.00  0.00    -0.070 Cl
ATOM      8 Cl1  UNL d   1       1.472   2.221   0.196  0.00  0.00    -0.070 Cl
ENDROOT
TORSDOF 0
ENDMDL
