MODEL 1
REMARK minimizedAffinity -2.51676774
REMARK minimizedRMSD -1
REMARK  0 active torsions:
REMARK  status: ('A' for Active; 'I' for Inactive)
ROOT
ATOM      1  C   UNL d   1       1.860   0.864  -2.184  0.00  0.00     0.020 A 
ATOM      2  C1  UNL d   1       1.502   1.698  -1.125  0.00  0.00     0.020 A 
ATOM      3  C2  UNL d   1       0.796   1.180  -0.037  0.00  0.00     0.034 A 
ATOM      4  C3  UNL d   1       0.445  -0.174  -0.004  0.00  0.00     0.017 A 
ATOM      5  C4  UNL d   1       0.805  -1.010  -1.068  0.00  0.00     0.017 A 
ATOM      6  C5  UNL d   1       1.512  -0.487  -2.155  0.00  0.00     0.034 A 
ATOM      7 Cl   UNL d   1       0.408  -2.692  -1.099  0.00  0.00    -0.070 Cl
ATOM      8 Cl1  UNL d   1      -0.427  -0.746   1.373  0.00  0.00    -0.070 Cl
ENDROOT
TORSDOF 0
ENDMDL
