MODEL 1
REMARK minimizedAffinity -3.52779126
REMARK minimizedRMSD -1
REMARK  0 active torsions:
REMARK  status: ('A' for Active; 'I' for Inactive)
ROOT
ATOM      1  C   UNL d   1      -0.463  -1.309  -0.163  0.00  0.00     0.020 A 
ATOM      2  C1  UNL d   1      -0.764  -0.397   0.848  0.00  0.00     0.020 A 
ATOM      3  C2  UNL d   1      -0.278   0.910   0.777  0.00  0.00     0.034 A 
ATOM      4  C3  UNL d   1       0.513   1.309  -0.306  0.00  0.00     0.017 A 
ATOM      5  C4  UNL d   1       0.816   0.393  -1.320  0.00  0.00     0.017 A 
ATOM      6  C5  UNL d   1       0.326  -0.915  -1.245  0.00  0.00     0.034 A 
ATOM      7 Cl   UNL d   1       1.786   0.812  -2.688  0.00  0.00    -0.070 Cl
ATOM      8 Cl1  UNL d   1       1.081   2.941  -0.328  0.00  0.00    -0.070 Cl
ENDROOT
TORSDOF 0
ENDMDL
