MODEL 1
REMARK minimizedAffinity -3.6028502
REMARK minimizedRMSD -1
REMARK  0 active torsions:
REMARK  status: ('A' for Active; 'I' for Inactive)
ROOT
ATOM      1  C   UNL d   1      -0.384   0.349   1.231  0.00  0.00     0.020 A 
ATOM      2  C1  UNL d   1       0.362   1.401   0.701  0.00  0.00     0.020 A 
ATOM      3  C2  UNL d   1       1.055   1.230  -0.498  0.00  0.00     0.034 A 
ATOM      4  C3  UNL d   1       1.005   0.004  -1.172  0.00  0.00     0.017 A 
ATOM      5  C4  UNL d   1       0.256  -1.051  -0.639  0.00  0.00     0.017 A 
ATOM      6  C5  UNL d   1      -0.437  -0.874   0.562  0.00  0.00     0.034 A 
ATOM      7 Cl   UNL d   1       0.145  -2.592  -1.413  0.00  0.00    -0.070 Cl
ATOM      8 Cl1  UNL d   1       1.887  -0.136  -2.651  0.00  0.00    -0.070 Cl
ENDROOT
TORSDOF 0
ENDMDL
