MODEL 1
REMARK minimizedAffinity -3.63022566
REMARK minimizedRMSD -1
REMARK  0 active torsions:
REMARK  status: ('A' for Active; 'I' for Inactive)
ROOT
ATOM      1  C   UNL d   1       2.321  -1.263  -2.175  0.00  0.00     0.020 A 
ATOM      2  C1  UNL d   1       1.659  -2.270  -1.474  0.00  0.00     0.020 A 
ATOM      3  C2  UNL d   1       0.804  -1.941  -0.420  0.00  0.00     0.034 A 
ATOM      4  C3  UNL d   1       0.609  -0.602  -0.063  0.00  0.00     0.017 A 
ATOM      5  C4  UNL d   1       1.274   0.408  -0.767  0.00  0.00     0.017 A 
ATOM      6  C5  UNL d   1       2.128   0.074  -1.822  0.00  0.00     0.034 A 
ATOM      7 Cl   UNL d   1       1.083   2.083  -0.385  0.00  0.00    -0.070 Cl
ATOM      8 Cl1  UNL d   1      -0.463  -0.268   1.251  0.00  0.00    -0.070 Cl
ENDROOT
TORSDOF 0
ENDMDL
