MODEL 1
REMARK minimizedAffinity 5.16429138
REMARK minimizedRMSD -1
REMARK  0 active torsions:
REMARK  status: ('A' for Active; 'I' for Inactive)
ROOT
ATOM      1  N1  IND d   1      -0.365  -0.270   3.296  0.00  0.00    -0.196 N 
ATOM      2  C2  IND d   1       0.831   0.101   3.846  0.00  0.00     0.054 A 
ATOM      3  C3  IND d   1       1.831  -0.068   2.953  0.00  0.00    -0.031 A 
ATOM      4  C4  IND d   1       1.721  -0.844   0.500  0.00  0.00     0.051 A 
ATOM      5  C5  IND d   1       0.853  -1.328  -0.438  0.00  0.00    -0.031 A 
ATOM      6  C6  IND d   1      -0.492  -1.484  -0.176  0.00  0.00     0.015 A 
ATOM      7  C7  IND d   1      -1.025  -1.150   1.037  0.00  0.00    -0.016 A 
ATOM      8  C8  IND d   1      -0.146  -0.665   1.995  0.00  0.00    -0.047 A 
ATOM      9  C9  IND d   1       1.228  -0.544   1.748  0.00  0.00    -0.096 A 
ATOM     10  HN1 IND d   1      -1.126  -0.258   3.696  0.00  0.00     0.298 HD
ENDROOT
TORSDOF 0
ENDMDL
