MODEL 1
REMARK minimizedAffinity -1.59469831
REMARK minimizedRMSD -1
REMARK  0 active torsions:
REMARK  status: ('A' for Active; 'I' for Inactive)
ROOT
ATOM      1  N1  IND d   1       3.319  -1.691   0.302  0.00  0.00    -0.196 N 
ATOM      2  C2  IND d   1       3.388  -0.404   0.756  0.00  0.00     0.054 A 
ATOM      3  C3  IND d   1       2.151   0.063   1.037  0.00  0.00    -0.031 A 
ATOM      4  C4  IND d   1      -0.119  -1.146   0.921  0.00  0.00     0.051 A 
ATOM      5  C5  IND d   1      -0.694  -2.323   0.530  0.00  0.00    -0.031 A 
ATOM      6  C6  IND d   1       0.055  -3.371   0.035  0.00  0.00     0.015 A 
ATOM      7  C7  IND d   1       1.414  -3.285  -0.077  0.00  0.00    -0.016 A 
ATOM      8  C8  IND d   1       2.001  -2.090   0.313  0.00  0.00    -0.047 A 
ATOM      9  C9  IND d   1       1.242  -1.007   0.776  0.00  0.00    -0.096 A 
ATOM     10  HN1 IND d   1       3.987  -2.171   0.051  0.00  0.00     0.298 HD
ENDROOT
TORSDOF 0
ENDMDL
