MODEL 1
REMARK minimizedAffinity 6.09977245
REMARK minimizedRMSD -1
REMARK  0 active torsions:
REMARK  status: ('A' for Active; 'I' for Inactive)
ROOT
ATOM      1  N1  IND d   1       2.455   5.998   1.274  0.00  0.00    -0.196 N 
ATOM      2  C2  IND d   1       2.883   5.839   2.562  0.00  0.00     0.054 A 
ATOM      3  C3  IND d   1       4.219   5.634   2.592  0.00  0.00    -0.031 A 
ATOM      4  C4  IND d   1       5.916   5.624   0.657  0.00  0.00     0.051 A 
ATOM      5  C5  IND d   1       5.996   5.690  -0.706  0.00  0.00    -0.031 A 
ATOM      6  C6  IND d   1       4.878   5.868  -1.495  0.00  0.00     0.015 A 
ATOM      7  C7  IND d   1       3.633   5.999  -0.946  0.00  0.00    -0.016 A 
ATOM      8  C8  IND d   1       3.547   5.926   0.437  0.00  0.00    -0.047 A 
ATOM      9  C9  IND d   1       4.674   5.702   1.240  0.00  0.00    -0.096 A 
ATOM     10  HN1 IND d   1       1.641   6.122   1.027  0.00  0.00     0.298 HD
ENDROOT
TORSDOF 0
ENDMDL
