MODEL 1
REMARK minimizedAffinity 3.23598671
REMARK minimizedRMSD -1
REMARK  0 active torsions:
REMARK  status: ('A' for Active; 'I' for Inactive)
ROOT
ATOM      1  N1  IND d   1      -1.491  -2.344   0.939  0.00  0.00    -0.196 N 
ATOM      2  C2  IND d   1      -1.844  -1.160   1.523  0.00  0.00     0.054 A 
ATOM      3  C3  IND d   1      -0.769  -0.347   1.626  0.00  0.00    -0.031 A 
ATOM      4  C4  IND d   1       1.645  -0.716   0.809  0.00  0.00     0.051 A 
ATOM      5  C5  IND d   1       2.460  -1.659   0.247  0.00  0.00    -0.031 A 
ATOM      6  C6  IND d   1       1.989  -2.902  -0.122  0.00  0.00     0.015 A 
ATOM      7  C7  IND d   1       0.678  -3.247   0.046  0.00  0.00    -0.016 A 
ATOM      8  C8  IND d   1      -0.151  -2.294   0.622  0.00  0.00    -0.047 A 
ATOM      9  C9  IND d   1       0.330  -1.046   1.039  0.00  0.00    -0.096 A 
ATOM     10  HN1 IND d   1      -2.017  -3.008   0.793  0.00  0.00     0.298 HD
ENDROOT
TORSDOF 0
ENDMDL
