MODEL 1
REMARK minimizedAffinity -1.7223438
REMARK minimizedRMSD -1
REMARK  0 active torsions:
REMARK  status: ('A' for Active; 'I' for Inactive)
ROOT
ATOM      1  N1  IND d   1       2.884  -1.426  -0.091  0.00  0.00    -0.196 N 
ATOM      2  C2  IND d   1       2.999  -2.649  -0.691  0.00  0.00     0.054 A 
ATOM      3  C3  IND d   1       1.816  -3.301  -0.660  0.00  0.00    -0.031 A 
ATOM      4  C4  IND d   1      -0.465  -2.511   0.235  0.00  0.00     0.051 A 
ATOM      5  C5  IND d   1      -1.060  -1.480   0.907  0.00  0.00    -0.031 A 
ATOM      6  C6  IND d   1      -0.357  -0.355   1.286  0.00  0.00     0.015 A 
ATOM      7  C7  IND d   1       0.971  -0.213   0.995  0.00  0.00    -0.016 A 
ATOM      8  C8  IND d   1       1.580  -1.260   0.320  0.00  0.00    -0.047 A 
ATOM      9  C9  IND d   1       0.882  -2.423  -0.030  0.00  0.00    -0.096 A 
ATOM     10  HN1 IND d   1       3.520  -0.856   0.013  0.00  0.00     0.298 HD
ENDROOT
TORSDOF 0
ENDMDL
