MODEL 1
REMARK minimizedAffinity -1.91666889
REMARK minimizedRMSD -1
REMARK  0 active torsions:
REMARK  status: ('A' for Active; 'I' for Inactive)
ROOT
ATOM      1  N1  IND d   1      -0.999  -2.827   0.032  0.00  0.00    -0.196 N 
ATOM      2  C2  IND d   1      -1.614  -1.670   0.421  0.00  0.00     0.054 A 
ATOM      3  C3  IND d   1      -0.694  -0.729   0.729  0.00  0.00    -0.031 A 
ATOM      4  C4  IND d   1       1.873  -0.837   0.569  0.00  0.00     0.051 A 
ATOM      5  C5  IND d   1       2.901  -1.697   0.300  0.00  0.00    -0.031 A 
ATOM      6  C6  IND d   1       2.676  -3.004  -0.083  0.00  0.00     0.015 A 
ATOM      7  C7  IND d   1       1.410  -3.497  -0.222  0.00  0.00    -0.016 A 
ATOM      8  C8  IND d   1       0.364  -2.629   0.057  0.00  0.00    -0.047 A 
ATOM      9  C9  IND d   1       0.587  -1.314   0.487  0.00  0.00    -0.096 A 
ATOM     10  HN1 IND d   1      -1.396  -3.556  -0.191  0.00  0.00     0.298 HD
ENDROOT
TORSDOF 0
ENDMDL
