MODEL 1
REMARK minimizedAffinity 4.45165873
REMARK minimizedRMSD -1
REMARK  0 active torsions:
REMARK  status: ('A' for Active; 'I' for Inactive)
ROOT
ATOM      1  N1  IND d   1       3.079  -1.950   0.041  0.00  0.00    -0.196 N 
ATOM      2  C2  IND d   1       3.101  -3.093  -0.708  0.00  0.00     0.054 A 
ATOM      3  C3  IND d   1       1.882  -3.678  -0.711  0.00  0.00    -0.031 A 
ATOM      4  C4  IND d   1      -0.317  -2.878   0.361  0.00  0.00     0.051 A 
ATOM      5  C5  IND d   1      -0.828  -1.907   1.177  0.00  0.00    -0.031 A 
ATOM      6  C6  IND d   1      -0.047  -0.878   1.663  0.00  0.00     0.015 A 
ATOM      7  C7  IND d   1       1.277  -0.776   1.341  0.00  0.00    -0.016 A 
ATOM      8  C8  IND d   1       1.800  -1.764   0.519  0.00  0.00    -0.047 A 
ATOM      9  C9  IND d   1       1.023  -2.834   0.057  0.00  0.00    -0.096 A 
ATOM     10  HN1 IND d   1       3.750  -1.434   0.189  0.00  0.00     0.298 HD
ENDROOT
TORSDOF 0
ENDMDL
