MODEL 1
REMARK minimizedAffinity 5.22902393
REMARK minimizedRMSD -1
REMARK  0 active torsions:
REMARK  status: ('A' for Active; 'I' for Inactive)
ROOT
ATOM      1  N1  IND d   1      -1.050   0.875   2.087  0.00  0.00    -0.196 N 
ATOM      2  C2  IND d   1      -2.268   0.639   1.513  0.00  0.00     0.054 A 
ATOM      3  C3  IND d   1      -2.162  -0.312   0.558  0.00  0.00    -0.031 A 
ATOM      4  C4  IND d   1      -0.108  -1.688  -0.159  0.00  0.00     0.051 A 
ATOM      5  C5  IND d   1       1.237  -1.805   0.052  0.00  0.00    -0.031 A 
ATOM      6  C6  IND d   1       1.902  -1.020   0.972  0.00  0.00     0.015 A 
ATOM      7  C7  IND d   1       1.241  -0.093   1.728  0.00  0.00    -0.016 A 
ATOM      8  C8  IND d   1      -0.124   0.033   1.511  0.00  0.00    -0.047 A 
ATOM      9  C9  IND d   1      -0.796  -0.731   0.549  0.00  0.00    -0.096 A 
ATOM     10  HN1 IND d   1      -0.889   1.452   2.703  0.00  0.00     0.298 HD
ENDROOT
TORSDOF 0
ENDMDL
