MODEL 1
REMARK minimizedAffinity 1.27871001
REMARK minimizedRMSD -1
REMARK  0 active torsions:
REMARK  status: ('A' for Active; 'I' for Inactive)
ROOT
ATOM      1  N1  IND d   1       0.744  -3.716  -0.311  0.00  0.00    -0.196 N 
ATOM      2  C2  IND d   1       2.006  -3.621  -0.827  0.00  0.00     0.054 A 
ATOM      3  C3  IND d   1       2.548  -2.419  -0.528  0.00  0.00    -0.031 A 
ATOM      4  C4  IND d   1       1.581  -0.495   0.882  0.00  0.00     0.051 A 
ATOM      5  C5  IND d   1       0.446  -0.102   1.534  0.00  0.00    -0.031 A 
ATOM      6  C6  IND d   1      -0.670  -0.911   1.608  0.00  0.00     0.015 A 
ATOM      7  C7  IND d   1      -0.687  -2.153   1.040  0.00  0.00    -0.016 A 
ATOM      8  C8  IND d   1       0.461  -2.553   0.371  0.00  0.00    -0.047 A 
ATOM      9  C9  IND d   1       1.581  -1.719   0.256  0.00  0.00    -0.096 A 
ATOM     10  HN1 IND d   1       0.215  -4.388  -0.398  0.00  0.00     0.298 HD
ENDROOT
TORSDOF 0
ENDMDL
