MODEL 1
REMARK minimizedAffinity 3.10767484
REMARK minimizedRMSD -1
REMARK  0 active torsions:
REMARK  status: ('A' for Active; 'I' for Inactive)
ROOT
ATOM      1  N1  IND d   1       1.909  -0.391   2.707  0.00  0.00    -0.196 N 
ATOM      2  C2  IND d   1       1.202  -0.892   3.764  0.00  0.00     0.054 A 
ATOM      3  C3  IND d   1       0.244  -1.741   3.328  0.00  0.00    -0.031 A 
ATOM      4  C4  IND d   1      -0.274  -2.532   0.934  0.00  0.00     0.051 A 
ATOM      5  C5  IND d   1       0.079  -2.324  -0.370  0.00  0.00    -0.031 A 
ATOM      6  C6  IND d   1       1.083  -1.445  -0.721  0.00  0.00     0.015 A 
ATOM      7  C7  IND d   1       1.781  -0.746   0.223  0.00  0.00    -0.016 A 
ATOM      8  C8  IND d   1       1.420  -0.950   1.547  0.00  0.00    -0.047 A 
ATOM      9  C9  IND d   1       0.374  -1.809   1.907  0.00  0.00    -0.096 A 
ATOM     10  HN1 IND d   1       2.552   0.178   2.758  0.00  0.00     0.298 HD
ENDROOT
TORSDOF 0
ENDMDL
