MODEL 1
REMARK minimizedAffinity 6.38283634
REMARK minimizedRMSD -1
REMARK  0 active torsions:
REMARK  status: ('A' for Active; 'I' for Inactive)
ROOT
ATOM      1  N1  IND d   1       0.773  -3.688  -0.162  0.00  0.00    -0.196 N 
ATOM      2  C2  IND d   1       2.049  -3.568  -0.638  0.00  0.00     0.054 A 
ATOM      3  C3  IND d   1       2.468  -2.286  -0.542  0.00  0.00    -0.031 A 
ATOM      4  C4  IND d   1       1.263  -0.242   0.458  0.00  0.00     0.051 A 
ATOM      5  C5  IND d   1       0.065   0.152   0.983  0.00  0.00    -0.031 A 
ATOM      6  C6  IND d   1      -0.979  -0.733   1.160  0.00  0.00     0.015 A 
ATOM      7  C7  IND d   1      -0.859  -2.053   0.827  0.00  0.00    -0.016 A 
ATOM      8  C8  IND d   1       0.354  -2.454   0.286  0.00  0.00    -0.047 A 
ATOM      9  C9  IND d   1       1.403  -1.552   0.065  0.00  0.00    -0.096 A 
ATOM     10  HN1 IND d   1       0.310  -4.412  -0.146  0.00  0.00     0.298 HD
ENDROOT
TORSDOF 0
ENDMDL
