MODEL 1
REMARK minimizedAffinity 4.23767042
REMARK minimizedRMSD -1
REMARK  0 active torsions:
REMARK  status: ('A' for Active; 'I' for Inactive)
ROOT
ATOM      1  N1  IND d   1      -5.109  -2.500   2.710  0.00  0.00    -0.196 N 
ATOM      2  C2  IND d   1      -5.369  -3.220   1.578  0.00  0.00     0.054 A 
ATOM      3  C3  IND d   1      -5.628  -4.510   1.890  0.00  0.00    -0.031 A 
ATOM      4  C4  IND d   1      -5.782  -5.634   4.200  0.00  0.00     0.051 A 
ATOM      5  C5  IND d   1      -5.589  -5.392   5.531  0.00  0.00    -0.031 A 
ATOM      6  C6  IND d   1      -5.221  -4.147   6.000  0.00  0.00     0.015 A 
ATOM      7  C7  IND d   1      -5.043  -3.091   5.152  0.00  0.00    -0.016 A 
ATOM      8  C8  IND d   1      -5.232  -3.335   3.799  0.00  0.00    -0.047 A 
ATOM      9  C9  IND d   1      -5.563  -4.607   3.314  0.00  0.00    -0.096 A 
ATOM     10  HN1 IND d   1      -4.904  -1.665   2.738  0.00  0.00     0.298 HD
ENDROOT
TORSDOF 0
ENDMDL
