MODEL 1
REMARK minimizedAffinity 4.14839411
REMARK minimizedRMSD -1
REMARK  0 active torsions:
REMARK  status: ('A' for Active; 'I' for Inactive)
ROOT
ATOM      1  N1  IND d   1      -0.719  -2.915   0.524  0.00  0.00    -0.196 N 
ATOM      2  C2  IND d   1      -1.304  -1.841   1.136  0.00  0.00     0.054 A 
ATOM      3  C3  IND d   1      -0.410  -0.836   1.276  0.00  0.00    -0.031 A 
ATOM      4  C4  IND d   1       2.035  -0.698   0.483  0.00  0.00     0.051 A 
ATOM      5  C5  IND d   1       3.024  -1.445  -0.094  0.00  0.00    -0.031 A 
ATOM      6  C6  IND d   1       2.811  -2.745  -0.504  0.00  0.00     0.015 A 
ATOM      7  C7  IND d   1       1.592  -3.346  -0.363  0.00  0.00    -0.016 A 
ATOM      8  C8  IND d   1       0.587  -2.593   0.228  0.00  0.00    -0.047 A 
ATOM      9  C9  IND d   1       0.809  -1.288   0.685  0.00  0.00    -0.096 A 
ATOM     10  HN1 IND d   1      -1.103  -3.665   0.353  0.00  0.00     0.298 HD
ENDROOT
TORSDOF 0
ENDMDL
