MODEL 1
REMARK minimizedAffinity 4.16944695
REMARK minimizedRMSD -1
REMARK  0 active torsions:
REMARK  status: ('A' for Active; 'I' for Inactive)
ROOT
ATOM      1  N1  IND d   1       2.386  -2.801  -0.040  0.00  0.00    -0.196 N 
ATOM      2  C2  IND d   1       1.709  -3.829  -0.633  0.00  0.00     0.054 A 
ATOM      3  C3  IND d   1       0.379  -3.587  -0.618  0.00  0.00    -0.031 A 
ATOM      4  C4  IND d   1      -0.898  -1.521   0.236  0.00  0.00     0.051 A 
ATOM      5  C5  IND d   1      -0.714  -0.337   0.894  0.00  0.00    -0.031 A 
ATOM      6  C6  IND d   1       0.539   0.096   1.279  0.00  0.00     0.015 A 
ATOM      7  C7  IND d   1       1.660  -0.636   1.009  0.00  0.00    -0.016 A 
ATOM      8  C8  IND d   1       1.476  -1.843   0.348  0.00  0.00    -0.047 A 
ATOM      9  C9  IND d   1       0.203  -2.308  -0.007  0.00  0.00    -0.096 A 
ATOM     10  HN1 IND d   1       3.238  -2.759   0.071  0.00  0.00     0.298 HD
ENDROOT
TORSDOF 0
ENDMDL
