MODEL 1
REMARK minimizedAffinity 6.4966054
REMARK minimizedRMSD -1
REMARK  1 active torsions:
REMARK  status: ('A' for Active; 'I' for Inactive)
REMARK    1  A    between atoms: C3_4  and  O_7 
ROOT
ATOM      1  C   UNL d   1      -1.227   1.594   0.418  0.00  0.00    -0.033 A 
ATOM      2  C1  UNL d   1      -0.058   2.018   1.054  0.00  0.00     0.039 A 
ATOM      3  C2  UNL d   1       0.742   2.999   0.466  0.00  0.00    -0.080 A 
ATOM      4  C3  UNL d   1       0.362   3.549  -0.756  0.00  0.00     0.150 A 
ATOM      5  C4  UNL d   1      -0.803   3.135  -1.392  0.00  0.00    -0.007 A 
ATOM      6  C5  UNL d   1      -1.601   2.154  -0.804  0.00  0.00     0.039 A 
ENDROOT
BRANCH   4   7
ATOM      7  O   UNL d   1       1.113   4.506  -1.371  0.00  0.00    -0.526 OA
ATOM      8  H5  UNL d   1       1.903   4.672  -0.829  0.00  0.00     0.418 HD
ENDBRANCH   4   7
TORSDOF 1
ENDMDL
