MODEL 1
REMARK minimizedAffinity 15.3360376
REMARK minimizedRMSD -1
REMARK  1 active torsions:
REMARK  status: ('A' for Active; 'I' for Inactive)
REMARK    1  A    between atoms: C3_4  and  O_7 
ROOT
ATOM      1  C   UNL d   1      -0.581   2.208   0.226  0.00  0.00    -0.033 A 
ATOM      2  C1  UNL d   1      -1.020   3.530   0.123  0.00  0.00     0.039 A 
ATOM      3  C2  UNL d   1      -0.355   4.424  -0.718  0.00  0.00    -0.080 A 
ATOM      4  C3  UNL d   1       0.744   3.985  -1.451  0.00  0.00     0.150 A 
ATOM      5  C4  UNL d   1       1.184   2.669  -1.356  0.00  0.00    -0.007 A 
ATOM      6  C5  UNL d   1       0.520   1.778  -0.515  0.00  0.00     0.039 A 
ENDROOT
BRANCH   4   7
ATOM      7  O   UNL d   1       1.427   4.823  -2.282  0.00  0.00    -0.526 OA
ATOM      8  H5  UNL d   1       1.028   5.707  -2.224  0.00  0.00     0.418 HD
ENDBRANCH   4   7
TORSDOF 1
ENDMDL
