MODEL 1
REMARK minimizedAffinity 9.14656544
REMARK minimizedRMSD -1
REMARK  1 active torsions:
REMARK  status: ('A' for Active; 'I' for Inactive)
REMARK    1  A    between atoms: C3_4  and  O_7 
ROOT
ATOM      1  C   UNL d   1      -0.963   2.197   1.779  0.00  0.00    -0.033 A 
ATOM      2  C1  UNL d   1      -1.629   3.226   1.110  0.00  0.00     0.039 A 
ATOM      3  C2  UNL d   1      -1.198   3.633  -0.154  0.00  0.00    -0.080 A 
ATOM      4  C3  UNL d   1      -0.103   3.003  -0.738  0.00  0.00     0.150 A 
ATOM      5  C4  UNL d   1       0.563   1.975  -0.079  0.00  0.00    -0.007 A 
ATOM      6  C5  UNL d   1       0.132   1.571   1.184  0.00  0.00     0.039 A 
ENDROOT
BRANCH   4   7
ATOM      7  O   UNL d   1       0.358   3.369  -1.968  0.00  0.00    -0.526 OA
ATOM      8  H5  UNL d   1      -0.181   4.110  -2.290  0.00  0.00     0.418 HD
ENDBRANCH   4   7
TORSDOF 1
ENDMDL
