MODEL 1
REMARK minimizedAffinity 9.75173664
REMARK minimizedRMSD -1
REMARK  1 active torsions:
REMARK  status: ('A' for Active; 'I' for Inactive)
REMARK    1  A    between atoms: C3_4  and  O_7 
ROOT
ATOM      1  C   UNL d   1      -4.275   1.366  -1.462  0.00  0.00    -0.033 A 
ATOM      2  C1  UNL d   1      -3.494   0.338  -0.930  0.00  0.00     0.039 A 
ATOM      3  C2  UNL d   1      -2.255   0.627  -0.355  0.00  0.00    -0.080 A 
ATOM      4  C3  UNL d   1      -1.809   1.945  -0.319  0.00  0.00     0.150 A 
ATOM      5  C4  UNL d   1      -2.584   2.974  -0.844  0.00  0.00    -0.007 A 
ATOM      6  C5  UNL d   1      -3.820   2.684  -1.418  0.00  0.00     0.039 A 
ENDROOT
BRANCH   4   7
ATOM      7  O   UNL d   1      -0.604   2.276   0.228  0.00  0.00    -0.526 OA
ATOM      8  H5  UNL d   1      -0.167   1.460   0.524  0.00  0.00     0.418 HD
ENDBRANCH   4   7
TORSDOF 1
ENDMDL
