MODEL 1
REMARK minimizedAffinity 8.28164387
REMARK minimizedRMSD -1
REMARK  1 active torsions:
REMARK  status: ('A' for Active; 'I' for Inactive)
REMARK    1  A    between atoms: C3_4  and  O_7 
ROOT
ATOM      1  C   UNL d   1      -1.099   2.758   0.395  0.00  0.00    -0.033 A 
ATOM      2  C1  UNL d   1      -1.602   3.400  -0.738  0.00  0.00     0.039 A 
ATOM      3  C2  UNL d   1      -0.729   3.991  -1.653  0.00  0.00    -0.080 A 
ATOM      4  C3  UNL d   1       0.643   3.931  -1.425  0.00  0.00     0.150 A 
ATOM      5  C4  UNL d   1       1.151   3.289  -0.300  0.00  0.00    -0.007 A 
ATOM      6  C5  UNL d   1       0.277   2.701   0.614  0.00  0.00     0.039 A 
ENDROOT
BRANCH   4   7
ATOM      7  O   UNL d   1       1.534   4.497  -2.287  0.00  0.00    -0.526 OA
ATOM      8  H5  UNL d   1       1.039   4.929  -3.002  0.00  0.00     0.418 HD
ENDBRANCH   4   7
TORSDOF 1
ENDMDL
