MODEL 1
REMARK minimizedAffinity 1.44973421
REMARK minimizedRMSD -1
REMARK  1 active torsions:
REMARK  status: ('A' for Active; 'I' for Inactive)
REMARK    1  A    between atoms: C3_4  and  O_7 
ROOT
ATOM      1  C   UNL d   1      -0.952  -0.159  -0.991  0.00  0.00    -0.033 A 
ATOM      2  C1  UNL d   1      -1.586   1.079  -0.874  0.00  0.00     0.039 A 
ATOM      3  C2  UNL d   1      -0.846   2.258  -0.982  0.00  0.00    -0.080 A 
ATOM      4  C3  UNL d   1       0.525   2.185  -1.210  0.00  0.00     0.150 A 
ATOM      5  C4  UNL d   1       1.163   0.955  -1.331  0.00  0.00    -0.007 A 
ATOM      6  C5  UNL d   1       0.423  -0.221  -1.221  0.00  0.00     0.039 A 
ENDROOT
BRANCH   4   7
ATOM      7  O   UNL d   1       1.290   3.308  -1.318  0.00  0.00    -0.526 OA
ATOM      8  H5  UNL d   1       0.720   4.083  -1.184  0.00  0.00     0.418 HD
ENDBRANCH   4   7
TORSDOF 1
ENDMDL
