MODEL 1
REMARK minimizedAffinity -2.29201841
REMARK minimizedRMSD -1
REMARK  0 active torsions:
REMARK  status: ('A' for Active; 'I' for Inactive)
ROOT
ATOM      1  C   UNL d   1      -0.474   2.283   1.017  0.00  0.00     0.124 A 
ATOM      2  C1  UNL d   1      -0.719   1.020   1.537  0.00  0.00     0.062 A 
ATOM      3  C2  UNL d   1      -0.276  -0.113   0.860  0.00  0.00     0.162 A 
ATOM      4  C3  UNL d   1       0.418   0.012  -0.344  0.00  0.00    -0.034 A 
ATOM      5  C4  UNL d   1       0.659   1.287  -0.860  0.00  0.00     0.162 A 
ATOM      6  C5  UNL d   1       0.215   2.416  -0.180  0.00  0.00     0.062 A 
ATOM      7  F   UNL d   1       0.453   3.636  -0.683  0.00  0.00    -0.097 F 
ATOM      8  F1  UNL d   1       1.323   1.444  -2.015  0.00  0.00    -0.096 F 
ATOM      9  I   UNL d   1       1.081  -1.679  -1.359  0.00  0.00    -0.060 I 
ATOM     10  F2  UNL d   1      -0.527  -1.322   1.385  0.00  0.00    -0.096 F 
ATOM     11  F3  UNL d   1      -1.385   0.889   2.693  0.00  0.00    -0.097 F 
ATOM     12  F4  UNL d   1      -0.902   3.371   1.670  0.00  0.00    -0.092 F 
ENDROOT
TORSDOF 0
ENDMDL
