MODEL 1
REMARK minimizedAffinity -1.07941043
REMARK minimizedRMSD -1
REMARK  0 active torsions:
REMARK  status: ('A' for Active; 'I' for Inactive)
ROOT
ATOM      1  C   UNL d   1      -0.835   1.540   0.894  0.00  0.00     0.124 A 
ATOM      2  C1  UNL d   1      -0.276   1.512  -0.375  0.00  0.00     0.062 A 
ATOM      3  C2  UNL d   1       0.370   0.366  -0.831  0.00  0.00     0.162 A 
ATOM      4  C3  UNL d   1       0.459  -0.762  -0.016  0.00  0.00    -0.034 A 
ATOM      5  C4  UNL d   1      -0.106  -0.727   1.260  0.00  0.00     0.162 A 
ATOM      6  C5  UNL d   1      -0.750   0.421   1.711  0.00  0.00     0.062 A 
ATOM      7  F   UNL d   1      -1.290   0.446   2.938  0.00  0.00    -0.097 F 
ATOM      8  F1  UNL d   1      -0.039  -1.794   2.070  0.00  0.00    -0.096 F 
ATOM      9  I   UNL d   1       1.424  -2.478  -0.693  0.00  0.00    -0.060 I 
ATOM     10  F2  UNL d   1       0.902   0.368  -2.062  0.00  0.00    -0.096 F 
ATOM     11  F3  UNL d   1      -0.356   2.592  -1.166  0.00  0.00    -0.097 F 
ATOM     12  F4  UNL d   1      -1.455   2.644   1.330  0.00  0.00    -0.092 F 
ENDROOT
TORSDOF 0
ENDMDL
