MODEL 1
REMARK minimizedAffinity 4.35256863
REMARK minimizedRMSD -1
REMARK  0 active torsions:
REMARK  status: ('A' for Active; 'I' for Inactive)
ROOT
ATOM      1  C   UNL d   1       0.034   1.765   0.094  0.00  0.00     0.124 A 
ATOM      2  C1  UNL d   1       0.702   1.492  -1.091  0.00  0.00     0.062 A 
ATOM      3  C2  UNL d   1       1.068   0.186  -1.404  0.00  0.00     0.162 A 
ATOM      4  C3  UNL d   1       0.765  -0.858  -0.529  0.00  0.00    -0.034 A 
ATOM      5  C4  UNL d   1       0.094  -0.575   0.662  0.00  0.00     0.162 A 
ATOM      6  C5  UNL d   1      -0.269   0.732   0.969  0.00  0.00     0.062 A 
ATOM      7  F   UNL d   1      -0.915   0.994   2.115  0.00  0.00    -0.097 F 
ATOM      8  F1  UNL d   1      -0.212  -1.555   1.525  0.00  0.00    -0.096 F 
ATOM      9  I   UNL d   1       1.311  -2.812  -0.992  0.00  0.00    -0.060 I 
ATOM     10  F2  UNL d   1       1.713  -0.049  -2.556  0.00  0.00    -0.096 F 
ATOM     11  F3  UNL d   1       0.997   2.489  -1.938  0.00  0.00    -0.097 F 
ATOM     12  F4  UNL d   1      -0.316   3.023   0.392  0.00  0.00    -0.092 F 
ENDROOT
TORSDOF 0
ENDMDL
