MODEL 1
REMARK minimizedAffinity 4.56748486
REMARK minimizedRMSD -1
REMARK  0 active torsions:
REMARK  status: ('A' for Active; 'I' for Inactive)
ROOT
ATOM      1  C   UNL d   1       0.777  -2.593  -2.225  0.00  0.00     0.124 A 
ATOM      2  C1  UNL d   1       1.288  -2.359  -0.956  0.00  0.00     0.062 A 
ATOM      3  C2  UNL d   1       0.932  -1.208  -0.259  0.00  0.00     0.162 A 
ATOM      4  C3  UNL d   1       0.057  -0.283  -0.828  0.00  0.00    -0.034 A 
ATOM      5  C4  UNL d   1      -0.453  -0.524  -2.105  0.00  0.00     0.162 A 
ATOM      6  C5  UNL d   1      -0.093  -1.676  -2.798  0.00  0.00     0.062 A 
ATOM      7  F   UNL d   1      -0.588  -1.900  -4.024  0.00  0.00    -0.097 F 
ATOM      8  F1  UNL d   1      -1.296   0.345  -2.683  0.00  0.00    -0.096 F 
ATOM      9  I   UNL d   1      -0.478   1.439   0.211  0.00  0.00    -0.060 I 
ATOM     10  F2  UNL d   1       1.441  -1.008   0.966  0.00  0.00    -0.096 F 
ATOM     11  F3  UNL d   1       2.130  -3.243  -0.400  0.00  0.00    -0.097 F 
ATOM     12  F4  UNL d   1       1.122  -3.700  -2.894  0.00  0.00    -0.092 F 
ENDROOT
TORSDOF 0
ENDMDL
