MODEL 1
REMARK minimizedAffinity 1.14433169
REMARK minimizedRMSD -1
REMARK  0 active torsions:
REMARK  status: ('A' for Active; 'I' for Inactive)
ROOT
ATOM      1  C   UNL d   1      -0.711   1.868   0.645  0.00  0.00     0.124 A 
ATOM      2  C1  UNL d   1      -0.003   1.861  -0.549  0.00  0.00     0.062 A 
ATOM      3  C2  UNL d   1       0.554   0.678  -1.026  0.00  0.00     0.162 A 
ATOM      4  C3  UNL d   1       0.403  -0.510  -0.310  0.00  0.00    -0.034 A 
ATOM      5  C4  UNL d   1      -0.310  -0.495   0.890  0.00  0.00     0.162 A 
ATOM      6  C5  UNL d   1      -0.864   0.690   1.363  0.00  0.00     0.062 A 
ATOM      7  F   UNL d   1      -1.548   0.695   2.516  0.00  0.00    -0.097 F 
ATOM      8  F1  UNL d   1      -0.474  -1.619   1.604  0.00  0.00    -0.096 F 
ATOM      9  I   UNL d   1       1.233  -2.281  -1.021  0.00  0.00    -0.060 I 
ATOM     10  F2  UNL d   1       1.233   0.701  -2.183  0.00  0.00    -0.096 F 
ATOM     11  F3  UNL d   1       0.147   2.998  -1.244  0.00  0.00    -0.097 F 
ATOM     12  F4  UNL d   1      -1.244   3.008   1.102  0.00  0.00    -0.092 F 
ENDROOT
TORSDOF 0
ENDMDL
