MODEL 1
REMARK minimizedAffinity 1.36639845
REMARK minimizedRMSD -1
REMARK  0 active torsions:
REMARK  status: ('A' for Active; 'I' for Inactive)
ROOT
ATOM      1  C   UNL d   1      -0.672   1.673   0.760  0.00  0.00     0.124 A 
ATOM      2  C1  UNL d   1       0.127   1.733  -0.374  0.00  0.00     0.062 A 
ATOM      3  C2  UNL d   1       0.639   0.565  -0.931  0.00  0.00     0.162 A 
ATOM      4  C3  UNL d   1       0.354  -0.673  -0.357  0.00  0.00    -0.034 A 
ATOM      5  C4  UNL d   1      -0.450  -0.726   0.783  0.00  0.00     0.162 A 
ATOM      6  C5  UNL d   1      -0.960   0.444   1.337  0.00  0.00     0.062 A 
ATOM      7  F   UNL d   1      -1.732   0.384   2.432  0.00  0.00    -0.097 F 
ATOM      8  F1  UNL d   1      -0.744  -1.900   1.361  0.00  0.00    -0.096 F 
ATOM      9  I   UNL d   1       1.118  -2.422  -1.188  0.00  0.00    -0.060 I 
ATOM     10  F2  UNL d   1       1.408   0.653  -2.027  0.00  0.00    -0.096 F 
ATOM     11  F3  UNL d   1       0.407   2.919  -0.933  0.00  0.00    -0.097 F 
ATOM     12  F4  UNL d   1      -1.163   2.798   1.295  0.00  0.00    -0.092 F 
ENDROOT
TORSDOF 0
ENDMDL
