MODEL 1
REMARK minimizedAffinity 2.33776808
REMARK minimizedRMSD -1
REMARK  0 active torsions:
REMARK  status: ('A' for Active; 'I' for Inactive)
ROOT
ATOM      1  C   UNL d   1      -0.048   1.509  -0.379  0.00  0.00     0.124 A 
ATOM      2  C1  UNL d   1       0.547   1.164  -1.585  0.00  0.00     0.062 A 
ATOM      3  C2  UNL d   1       0.563  -0.163  -2.003  0.00  0.00     0.162 A 
ATOM      4  C3  UNL d   1      -0.018  -1.157  -1.215  0.00  0.00    -0.034 A 
ATOM      5  C4  UNL d   1      -0.614  -0.803  -0.003  0.00  0.00     0.162 A 
ATOM      6  C5  UNL d   1      -0.627   0.526   0.411  0.00  0.00     0.062 A 
ATOM      7  F   UNL d   1      -1.203   0.857   1.576  0.00  0.00    -0.097 F 
ATOM      8  F1  UNL d   1      -1.182  -1.732   0.779  0.00  0.00    -0.096 F 
ATOM      9  I   UNL d   1       0.004  -3.143  -1.837  0.00  0.00    -0.060 I 
ATOM     10  F2  UNL d   1       1.145  -0.467  -3.173  0.00  0.00    -0.096 F 
ATOM     11  F3  UNL d   1       1.108   2.112  -2.349  0.00  0.00    -0.097 F 
ATOM     12  F4  UNL d   1      -0.062   2.787   0.022  0.00  0.00    -0.092 F 
ENDROOT
TORSDOF 0
ENDMDL
