MODEL 1
REMARK minimizedAffinity -2.00850487
REMARK minimizedRMSD -1
REMARK  0 active torsions:
REMARK  status: ('A' for Active; 'I' for Inactive)
ROOT
ATOM      1  C   UNL d   1      -0.182   1.882   0.381  0.00  0.00     0.124 A 
ATOM      2  C1  UNL d   1       0.647   1.765  -0.726  0.00  0.00     0.062 A 
ATOM      3  C2  UNL d   1       1.146   0.520  -1.097  0.00  0.00     0.162 A 
ATOM      4  C3  UNL d   1       0.817  -0.619  -0.362  0.00  0.00    -0.034 A 
ATOM      5  C4  UNL d   1      -0.017  -0.492   0.751  0.00  0.00     0.162 A 
ATOM      6  C5  UNL d   1      -0.514   0.754   1.118  0.00  0.00     0.062 A 
ATOM      7  F   UNL d   1      -1.315   0.866   2.188  0.00  0.00    -0.097 F 
ATOM      8  F1  UNL d   1      -0.354  -1.566   1.480  0.00  0.00    -0.096 F 
ATOM      9  I   UNL d   1       1.561  -2.482  -0.914  0.00  0.00    -0.060 I 
ATOM     10  F2  UNL d   1       1.945   0.436  -2.171  0.00  0.00    -0.096 F 
ATOM     11  F3  UNL d   1       0.969   2.853  -1.439  0.00  0.00    -0.097 F 
ATOM     12  F4  UNL d   1      -0.660   3.082   0.737  0.00  0.00    -0.092 F 
ENDROOT
TORSDOF 0
ENDMDL
