MODEL 1
REMARK minimizedAffinity 1.08557141
REMARK minimizedRMSD -1
REMARK  0 active torsions:
REMARK  status: ('A' for Active; 'I' for Inactive)
ROOT
ATOM      1  C   UNL d   1      -0.924   0.358   2.112  0.00  0.00     0.124 A 
ATOM      2  C1  UNL d   1      -0.436  -0.909   1.822  0.00  0.00     0.062 A 
ATOM      3  C2  UNL d   1      -0.079  -1.241   0.519  0.00  0.00     0.162 A 
ATOM      4  C3  UNL d   1      -0.208  -0.303  -0.506  0.00  0.00    -0.034 A 
ATOM      5  C4  UNL d   1      -0.700   0.969  -0.207  0.00  0.00     0.162 A 
ATOM      6  C5  UNL d   1      -1.055   1.295   1.097  0.00  0.00     0.062 A 
ATOM      7  F   UNL d   1      -1.526   2.520   1.375  0.00  0.00    -0.097 F 
ATOM      8  F1  UNL d   1      -0.836   1.894  -1.169  0.00  0.00    -0.096 F 
ATOM      9  I   UNL d   1       0.325  -0.795  -2.457  0.00  0.00    -0.060 I 
ATOM     10  F2  UNL d   1       0.389  -2.472   0.268  0.00  0.00    -0.096 F 
ATOM     11  F3  UNL d   1      -0.309  -1.817   2.801  0.00  0.00    -0.097 F 
ATOM     12  F4  UNL d   1      -1.267   0.674   3.367  0.00  0.00    -0.092 F 
ENDROOT
TORSDOF 0
ENDMDL
