MODEL 1
REMARK minimizedAffinity -0.219736561
REMARK minimizedRMSD -1
REMARK  0 active torsions:
REMARK  status: ('A' for Active; 'I' for Inactive)
ROOT
ATOM      1  C   UNL d   1      -0.740   1.336   0.963  0.00  0.00     0.124 A 
ATOM      2  C1  UNL d   1      -0.932   0.153   1.664  0.00  0.00     0.062 A 
ATOM      3  C2  UNL d   1      -0.519  -1.059   1.119  0.00  0.00     0.162 A 
ATOM      4  C3  UNL d   1       0.093  -1.094  -0.134  0.00  0.00    -0.034 A 
ATOM      5  C4  UNL d   1       0.283   0.099  -0.833  0.00  0.00     0.162 A 
ATOM      6  C5  UNL d   1      -0.133   1.308  -0.284  0.00  0.00     0.062 A 
ATOM      7  F   UNL d   1       0.054   2.449  -0.963  0.00  0.00    -0.097 F 
ATOM      8  F1  UNL d   1       0.868   0.101  -2.040  0.00  0.00    -0.096 F 
ATOM      9  I   UNL d   1       0.714  -2.904  -0.953  0.00  0.00    -0.060 I 
ATOM     10  F2  UNL d   1      -0.717  -2.186   1.818  0.00  0.00    -0.096 F 
ATOM     11  F3  UNL d   1      -1.520   0.178   2.869  0.00  0.00    -0.097 F 
ATOM     12  F4  UNL d   1      -1.140   2.501   1.490  0.00  0.00    -0.092 F 
ENDROOT
TORSDOF 0
ENDMDL
