MODEL 1
REMARK minimizedAffinity 1.28740942
REMARK minimizedRMSD -1
REMARK  0 active torsions:
REMARK  status: ('A' for Active; 'I' for Inactive)
ROOT
ATOM      1  C   UNL d   1      -0.592   1.231   0.887  0.00  0.00     0.124 A 
ATOM      2  C1  UNL d   1       0.244   1.280  -0.219  0.00  0.00     0.062 A 
ATOM      3  C2  UNL d   1       0.540   0.118  -0.926  0.00  0.00     0.162 A 
ATOM      4  C3  UNL d   1      -0.002  -1.104  -0.528  0.00  0.00    -0.034 A 
ATOM      5  C4  UNL d   1      -0.842  -1.146   0.586  0.00  0.00     0.162 A 
ATOM      6  C5  UNL d   1      -1.135   0.018   1.289  0.00  0.00     0.062 A 
ATOM      7  F   UNL d   1      -1.943  -0.031   2.357  0.00  0.00    -0.097 F 
ATOM      8  F1  UNL d   1      -1.380  -2.304   0.996  0.00  0.00    -0.096 F 
ATOM      9  I   UNL d   1       0.438  -2.845  -1.581  0.00  0.00    -0.060 I 
ATOM     10  F2  UNL d   1       1.352   0.195  -1.991  0.00  0.00    -0.096 F 
ATOM     11  F3  UNL d   1       0.770   2.450  -0.609  0.00  0.00    -0.097 F 
ATOM     12  F4  UNL d   1      -0.874   2.351   1.565  0.00  0.00    -0.092 F 
ENDROOT
TORSDOF 0
ENDMDL
