MODEL 1
REMARK minimizedAffinity 0.585663378
REMARK minimizedRMSD -1
REMARK  0 active torsions:
REMARK  status: ('A' for Active; 'I' for Inactive)
ROOT
ATOM      1  C   UNL d   1      -0.649   1.906   1.144  0.00  0.00     0.124 A 
ATOM      2  C1  UNL d   1      -0.849   0.734   1.862  0.00  0.00     0.062 A 
ATOM      3  C2  UNL d   1      -0.495  -0.494   1.311  0.00  0.00     0.162 A 
ATOM      4  C3  UNL d   1       0.064  -0.557   0.034  0.00  0.00    -0.034 A 
ATOM      5  C4  UNL d   1       0.261   0.625  -0.682  0.00  0.00     0.162 A 
ATOM      6  C5  UNL d   1      -0.094   1.850  -0.127  0.00  0.00     0.062 A 
ATOM      7  F   UNL d   1       0.100   2.980  -0.822  0.00  0.00    -0.097 F 
ATOM      8  F1  UNL d   1       0.796   0.600  -1.912  0.00  0.00    -0.096 F 
ATOM      9  I   UNL d   1       0.594  -2.391  -0.794  0.00  0.00    -0.060 I 
ATOM     10  F2  UNL d   1      -0.700  -1.609   2.027  0.00  0.00    -0.096 F 
ATOM     11  F3  UNL d   1      -1.386   0.786   3.089  0.00  0.00    -0.097 F 
ATOM     12  F4  UNL d   1      -0.991   3.086   1.677  0.00  0.00    -0.092 F 
ENDROOT
TORSDOF 0
ENDMDL
