MODEL 1
REMARK minimizedAffinity 1.49674284
REMARK minimizedRMSD -1
REMARK  0 active torsions:
REMARK  status: ('A' for Active; 'I' for Inactive)
ROOT
ATOM      1  C   UNL d   1      -0.340   1.870   0.766  0.00  0.00     0.124 A 
ATOM      2  C1  UNL d   1      -0.606   0.751   1.543  0.00  0.00     0.062 A 
ATOM      3  C2  UNL d   1      -0.212  -0.511   1.110  0.00  0.00     0.162 A 
ATOM      4  C3  UNL d   1       0.454  -0.662  -0.106  0.00  0.00    -0.034 A 
ATOM      5  C4  UNL d   1       0.718   0.468  -0.882  0.00  0.00     0.162 A 
ATOM      6  C5  UNL d   1       0.321   1.728  -0.445  0.00  0.00     0.062 A 
ATOM      7  F   UNL d   1       0.579   2.808  -1.197  0.00  0.00    -0.097 F 
ATOM      8  F1  UNL d   1       1.356   0.359  -2.057  0.00  0.00    -0.096 F 
ATOM      9  I   UNL d   1       1.046  -2.548  -0.757  0.00  0.00    -0.060 I 
ATOM     10  F2  UNL d   1      -0.482  -1.575   1.881  0.00  0.00    -0.096 F 
ATOM     11  F3  UNL d   1      -1.246   0.886   2.714  0.00  0.00    -0.097 F 
ATOM     12  F4  UNL d   1      -0.722   3.084   1.185  0.00  0.00    -0.092 F 
ENDROOT
TORSDOF 0
ENDMDL
