MODEL 1
REMARK minimizedAffinity -4.27840853
REMARK minimizedRMSD -1
REMARK  0 active torsions:
REMARK  status: ('A' for Active; 'I' for Inactive)
ROOT
ATOM      1  C   UNL d   1      -0.641   2.362   0.633  0.00  0.00     0.124 A 
ATOM      2  C1  UNL d   1      -1.106   1.162   1.152  0.00  0.00     0.062 A 
ATOM      3  C2  UNL d   1      -0.550  -0.044   0.734  0.00  0.00     0.162 A 
ATOM      4  C3  UNL d   1       0.479  -0.055  -0.208  0.00  0.00    -0.034 A 
ATOM      5  C4  UNL d   1       0.940   1.156  -0.726  0.00  0.00     0.162 A 
ATOM      6  C5  UNL d   1       0.381   2.358  -0.305  0.00  0.00     0.062 A 
ATOM      7  F   UNL d   1       0.832   3.517  -0.808  0.00  0.00    -0.097 F 
ATOM      8  F1  UNL d   1       1.928   1.182  -1.633  0.00  0.00    -0.096 F 
ATOM      9  I   UNL d   1       1.313  -1.856  -0.836  0.00  0.00    -0.060 I 
ATOM     10  F2  UNL d   1      -1.019  -1.189   1.252  0.00  0.00    -0.096 F 
ATOM     11  F3  UNL d   1      -2.095   1.162   2.058  0.00  0.00    -0.097 F 
ATOM     12  F4  UNL d   1      -1.179   3.520   1.036  0.00  0.00    -0.092 F 
ENDROOT
TORSDOF 0
ENDMDL
