MODEL 1
REMARK minimizedAffinity -4.37983418
REMARK minimizedRMSD -1
REMARK  0 active torsions:
REMARK  status: ('A' for Active; 'I' for Inactive)
ROOT
ATOM      1  C   UNL d   1      -0.521   3.373  -0.444  0.00  0.00     0.124 A 
ATOM      2  C1  UNL d   1       0.343   2.382  -0.890  0.00  0.00     0.062 A 
ATOM      3  C2  UNL d   1       0.354   1.134  -0.274  0.00  0.00     0.162 A 
ATOM      4  C3  UNL d   1      -0.504   0.868   0.794  0.00  0.00    -0.034 A 
ATOM      5  C4  UNL d   1      -1.369   1.870   1.237  0.00  0.00     0.162 A 
ATOM      6  C5  UNL d   1      -1.375   3.116   0.619  0.00  0.00     0.062 A 
ATOM      7  F   UNL d   1      -2.210   4.072   1.051  0.00  0.00    -0.097 F 
ATOM      8  F1  UNL d   1      -2.206   1.649   2.261  0.00  0.00    -0.096 F 
ATOM      9  I   UNL d   1      -0.491  -0.997   1.717  0.00  0.00    -0.060 I 
ATOM     10  F2  UNL d   1       1.199   0.195  -0.726  0.00  0.00    -0.096 F 
ATOM     11  F3  UNL d   1       1.171   2.628  -1.916  0.00  0.00    -0.097 F 
ATOM     12  F4  UNL d   1      -0.528   4.573  -1.037  0.00  0.00    -0.092 F 
ENDROOT
TORSDOF 0
ENDMDL
