MODEL 1
REMARK minimizedAffinity -2.71635985
REMARK minimizedRMSD -1
REMARK  0 active torsions:
REMARK  status: ('A' for Active; 'I' for Inactive)
ROOT
ATOM      1  C   UNL d   1      -0.656   1.489   0.951  0.00  0.00     0.124 A 
ATOM      2  C1  UNL d   1      -0.021   1.457  -0.282  0.00  0.00     0.062 A 
ATOM      3  C2  UNL d   1       0.520   0.267  -0.760  0.00  0.00     0.162 A 
ATOM      4  C3  UNL d   1       0.427  -0.902  -0.004  0.00  0.00    -0.034 A 
ATOM      5  C4  UNL d   1      -0.213  -0.861   1.236  0.00  0.00     0.162 A 
ATOM      6  C5  UNL d   1      -0.752   0.331   1.709  0.00  0.00     0.062 A 
ATOM      7  F   UNL d   1      -1.365   0.360   2.901  0.00  0.00    -0.097 F 
ATOM      8  F1  UNL d   1      -0.320  -1.967   1.988  0.00  0.00    -0.096 F 
ATOM      9  I   UNL d   1       1.234  -2.684  -0.715  0.00  0.00    -0.060 I 
ATOM     10  F2  UNL d   1       1.129   0.265  -1.955  0.00  0.00    -0.096 F 
ATOM     11  F3  UNL d   1       0.074   2.576  -1.016  0.00  0.00    -0.097 F 
ATOM     12  F4  UNL d   1      -1.175   2.636   1.409  0.00  0.00    -0.092 F 
ENDROOT
TORSDOF 0
ENDMDL
