MODEL 1
REMARK minimizedAffinity 0.722568154
REMARK minimizedRMSD -1
REMARK  0 active torsions:
REMARK  status: ('A' for Active; 'I' for Inactive)
ROOT
ATOM      1  C   UNL d   1      -0.436   1.614   0.926  0.00  0.00     0.124 A 
ATOM      2  C1  UNL d   1       0.117   1.568  -0.347  0.00  0.00     0.062 A 
ATOM      3  C2  UNL d   1       0.416   0.344  -0.936  0.00  0.00     0.162 A 
ATOM      4  C3  UNL d   1       0.162  -0.846  -0.255  0.00  0.00    -0.034 A 
ATOM      5  C4  UNL d   1      -0.394  -0.792   1.025  0.00  0.00     0.162 A 
ATOM      6  C5  UNL d   1      -0.691   0.434   1.610  0.00  0.00     0.062 A 
ATOM      7  F   UNL d   1      -1.224   0.476   2.840  0.00  0.00    -0.097 F 
ATOM      8  F1  UNL d   1      -0.651  -1.917   1.709  0.00  0.00    -0.096 F 
ATOM      9  I   UNL d   1       0.607  -2.680  -1.133  0.00  0.00    -0.060 I 
ATOM     10  F2  UNL d   1       0.949   0.329  -2.167  0.00  0.00    -0.096 F 
ATOM     11  F3  UNL d   1       0.365   2.707  -1.010  0.00  0.00    -0.097 F 
ATOM     12  F4  UNL d   1      -0.722   2.794   1.491  0.00  0.00    -0.092 F 
ENDROOT
TORSDOF 0
ENDMDL
