MODEL 1
REMARK minimizedAffinity 9.73559475
REMARK minimizedRMSD -1
REMARK  0 active torsions:
REMARK  status: ('A' for Active; 'I' for Inactive)
ROOT
ATOM      1  C   UNL d   1       5.997  -0.008   2.973  0.00  0.00     0.077 C 
ATOM      2  C1  UNL d   1       5.383   1.102   2.172  0.00  0.00    -0.074 A 
ATOM      3  C2  UNL d   1       4.269   1.800   2.648  0.00  0.00    -0.005 A 
ATOM      4  C3  UNL d   1       3.714   2.836   1.897  0.00  0.00     0.006 A 
ATOM      5  C4  UNL d   1       4.267   3.184   0.664  0.00  0.00    -0.005 A 
ATOM      6  C5  UNL d   1       5.382   2.497   0.172  0.00  0.00    -0.074 A 
ATOM      7  C6  UNL d   1       5.995   2.865  -1.147  0.00  0.00     0.077 C 
ATOM      8  C7  UNL d   1       5.938   1.462   0.936  0.00  0.00    -0.001 A 
ENDROOT
TORSDOF 0
ENDMDL
