MODEL 1
REMARK minimizedAffinity 14.5101652
REMARK minimizedRMSD -1
REMARK  0 active torsions:
REMARK  status: ('A' for Active; 'I' for Inactive)
ROOT
ATOM      1  C   UNL d   1      -2.704  -1.905   3.319  0.00  0.00     0.077 C 
ATOM      2  C1  UNL d   1      -2.007  -2.660   2.226  0.00  0.00    -0.074 A 
ATOM      3  C2  UNL d   1      -1.875  -2.113   0.946  0.00  0.00    -0.005 A 
ATOM      4  C3  UNL d   1      -1.217  -2.824  -0.058  0.00  0.00     0.006 A 
ATOM      5  C4  UNL d   1      -0.684  -4.086   0.209  0.00  0.00    -0.005 A 
ATOM      6  C5  UNL d   1      -0.806  -4.648   1.483  0.00  0.00    -0.074 A 
ATOM      7  C6  UNL d   1      -0.231  -5.999   1.789  0.00  0.00     0.077 C 
ATOM      8  C7  UNL d   1      -1.463  -3.925   2.488  0.00  0.00    -0.001 A 
ENDROOT
TORSDOF 0
ENDMDL
