MODEL 1
REMARK minimizedAffinity 12.7168951
REMARK minimizedRMSD -1
REMARK  0 active torsions:
REMARK  status: ('A' for Active; 'I' for Inactive)
ROOT
ATOM      1  C   UNL d   1       5.947   1.649  -4.059  0.00  0.00     0.077 C 
ATOM      2  C1  UNL d   1       4.825   1.081  -3.241  0.00  0.00    -0.074 A 
ATOM      3  C2  UNL d   1       4.394  -0.236  -3.429  0.00  0.00    -0.005 A 
ATOM      4  C3  UNL d   1       3.355  -0.754  -2.654  0.00  0.00     0.006 A 
ATOM      5  C4  UNL d   1       2.738   0.040  -1.686  0.00  0.00    -0.005 A 
ATOM      6  C5  UNL d   1       3.156   1.359  -1.484  0.00  0.00    -0.074 A 
ATOM      7  C6  UNL d   1       2.511   2.222  -0.441  0.00  0.00     0.077 C 
ATOM      8  C7  UNL d   1       4.205   1.869  -2.261  0.00  0.00    -0.001 A 
ENDROOT
TORSDOF 0
ENDMDL
