MODEL 1
REMARK minimizedAffinity 8.46648502
REMARK minimizedRMSD -1
REMARK  0 active torsions:
REMARK  status: ('A' for Active; 'I' for Inactive)
ROOT
ATOM      1  C   UNL d   1       6.000   2.260  -4.589  0.00  0.00     0.077 C 
ATOM      2  C1  UNL d   1       5.382   1.129  -3.822  0.00  0.00    -0.074 A 
ATOM      3  C2  UNL d   1       6.000  -0.124  -3.766  0.00  0.00    -0.005 A 
ATOM      4  C3  UNL d   1       5.418  -1.164  -3.041  0.00  0.00     0.006 A 
ATOM      5  C4  UNL d   1       4.214  -0.961  -2.365  0.00  0.00    -0.005 A 
ATOM      6  C5  UNL d   1       3.582   0.285  -2.408  0.00  0.00    -0.074 A 
ATOM      7  C6  UNL d   1       2.293   0.523  -1.680  0.00  0.00     0.077 C 
ATOM      8  C7  UNL d   1       4.177   1.327  -3.134  0.00  0.00    -0.001 A 
ENDROOT
TORSDOF 0
ENDMDL
