MODEL 1
REMARK minimizedAffinity 7.42250395
REMARK minimizedRMSD -1
REMARK  0 active torsions:
REMARK  status: ('A' for Active; 'I' for Inactive)
ROOT
ATOM      1  C   UNL d   1       5.075   4.773  -0.204  0.00  0.00     0.077 C 
ATOM      2  C1  UNL d   1       4.305   3.647   0.421  0.00  0.00    -0.074 A 
ATOM      3  C2  UNL d   1       3.414   2.879  -0.335  0.00  0.00    -0.005 A 
ATOM      4  C3  UNL d   1       2.712   1.829   0.257  0.00  0.00     0.006 A 
ATOM      5  C4  UNL d   1       2.895   1.538   1.610  0.00  0.00    -0.005 A 
ATOM      6  C5  UNL d   1       3.782   2.294   2.381  0.00  0.00    -0.074 A 
ATOM      7  C6  UNL d   1       3.997   1.988   3.834  0.00  0.00     0.077 C 
ATOM      8  C7  UNL d   1       4.489   3.343   1.777  0.00  0.00    -0.001 A 
ENDROOT
TORSDOF 0
ENDMDL
