MODEL 1
REMARK minimizedAffinity 8.60844135
REMARK minimizedRMSD -1
REMARK  0 active torsions:
REMARK  status: ('A' for Active; 'I' for Inactive)
ROOT
ATOM      1  C   UNL d   1       2.242   0.345  -1.719  0.00  0.00     0.077 C 
ATOM      2  C1  UNL d   1       3.555   0.123  -2.408  0.00  0.00    -0.074 A 
ATOM      3  C2  UNL d   1       4.189  -1.123  -2.362  0.00  0.00    -0.005 A 
ATOM      4  C3  UNL d   1       5.406  -1.318  -3.016  0.00  0.00     0.006 A 
ATOM      5  C4  UNL d   1       6.000  -0.271  -3.722  0.00  0.00    -0.005 A 
ATOM      6  C5  UNL d   1       5.380   0.981  -3.780  0.00  0.00    -0.074 A 
ATOM      7  C6  UNL d   1       6.000   2.115  -4.542  0.00  0.00     0.077 C 
ATOM      8  C7  UNL d   1       4.154   1.167  -3.126  0.00  0.00    -0.001 A 
ENDROOT
TORSDOF 0
ENDMDL
