MODEL 1
REMARK minimizedAffinity 16.8340187
REMARK minimizedRMSD -1
REMARK  0 active torsions:
REMARK  status: ('A' for Active; 'I' for Inactive)
ROOT
ATOM      1  C   UNL d   1       4.715   5.460   0.093  0.00  0.00     0.077 C 
ATOM      2  C1  UNL d   1       4.232   4.081   0.432  0.00  0.00    -0.074 A 
ATOM      3  C2  UNL d   1       4.581   3.475   1.643  0.00  0.00    -0.005 A 
ATOM      4  C3  UNL d   1       4.117   2.196   1.949  0.00  0.00     0.006 A 
ATOM      5  C4  UNL d   1       3.301   1.511   1.049  0.00  0.00    -0.005 A 
ATOM      6  C5  UNL d   1       2.941   2.101  -0.167  0.00  0.00    -0.074 A 
ATOM      7  C6  UNL d   1       2.056   1.382  -1.142  0.00  0.00     0.077 C 
ATOM      8  C7  UNL d   1       3.405   3.389  -0.464  0.00  0.00    -0.001 A 
ENDROOT
TORSDOF 0
ENDMDL
