MODEL 1
REMARK minimizedAffinity 8.13008022
REMARK minimizedRMSD -1
REMARK  0 active torsions:
REMARK  status: ('A' for Active; 'I' for Inactive)
ROOT
ATOM      1  C   UNL d   1      -1.877  -1.506  -1.584  0.00  0.00     0.077 C 
ATOM      2  C1  UNL d   1      -1.685  -2.230  -0.284  0.00  0.00    -0.074 A 
ATOM      3  C2  UNL d   1      -0.768  -3.280  -0.176  0.00  0.00    -0.005 A 
ATOM      4  C3  UNL d   1      -0.593  -3.938   1.042  0.00  0.00     0.006 A 
ATOM      5  C4  UNL d   1      -1.331  -3.552   2.161  0.00  0.00    -0.005 A 
ATOM      6  C5  UNL d   1      -2.252  -2.503   2.072  0.00  0.00    -0.074 A 
ATOM      7  C6  UNL d   1      -3.046  -2.070   3.268  0.00  0.00     0.077 C 
ATOM      8  C7  UNL d   1      -2.417  -1.843   0.847  0.00  0.00    -0.001 A 
ENDROOT
TORSDOF 0
ENDMDL
