MODEL 1
REMARK minimizedAffinity 9.13216496
REMARK minimizedRMSD -1
REMARK  0 active torsions:
REMARK  status: ('A' for Active; 'I' for Inactive)
ROOT
ATOM      1  C   UNL d   1       1.993   0.970  -1.625  0.00  0.00     0.077 C 
ATOM      2  C1  UNL d   1       0.892   0.012  -1.969  0.00  0.00    -0.074 A 
ATOM      3  C2  UNL d   1       0.818  -0.572  -3.238  0.00  0.00    -0.005 A 
ATOM      4  C3  UNL d   1      -0.207  -1.470  -3.540  0.00  0.00     0.006 A 
ATOM      5  C4  UNL d   1      -1.165  -1.791  -2.578  0.00  0.00    -0.005 A 
ATOM      6  C5  UNL d   1      -1.107  -1.218  -1.304  0.00  0.00    -0.074 A 
ATOM      7  C6  UNL d   1      -2.124  -1.560  -0.256  0.00  0.00     0.077 C 
ATOM      8  C7  UNL d   1      -0.070  -0.323  -1.006  0.00  0.00    -0.001 A 
ENDROOT
TORSDOF 0
ENDMDL
