MODEL 1
REMARK minimizedAffinity 6.83790064
REMARK minimizedRMSD -1
REMARK  0 active torsions:
REMARK  status: ('A' for Active; 'I' for Inactive)
ROOT
ATOM      1  C   UNL d   1      -0.686  -4.021   0.484  0.00  0.00     0.077 C 
ATOM      2  C1  UNL d   1      -0.951  -2.770  -0.299  0.00  0.00    -0.074 A 
ATOM      3  C2  UNL d   1      -2.223  -2.190  -0.318  0.00  0.00    -0.005 A 
ATOM      4  C3  UNL d   1      -2.452  -1.020  -1.043  0.00  0.00     0.006 A 
ATOM      5  C4  UNL d   1      -1.413  -0.420  -1.755  0.00  0.00    -0.005 A 
ATOM      6  C5  UNL d   1      -0.134  -0.985  -1.747  0.00  0.00    -0.074 A 
ATOM      7  C6  UNL d   1       0.997  -0.347  -2.499  0.00  0.00     0.077 C 
ATOM      8  C7  UNL d   1       0.090  -2.156  -1.010  0.00  0.00    -0.001 A 
ENDROOT
TORSDOF 0
ENDMDL
