MODEL 1
REMARK minimizedAffinity 14.3132458
REMARK minimizedRMSD -1
REMARK  0 active torsions:
REMARK  status: ('A' for Active; 'I' for Inactive)
ROOT
ATOM      1  C   UNL d   1       6.000   3.358  -1.554  0.00  0.00     0.077 C 
ATOM      2  C1  UNL d   1       5.333   2.846  -0.312  0.00  0.00    -0.074 A 
ATOM      3  C2  UNL d   1       4.101   3.359   0.107  0.00  0.00    -0.005 A 
ATOM      4  C3  UNL d   1       3.489   2.865   1.259  0.00  0.00     0.006 A 
ATOM      5  C4  UNL d   1       4.101   1.856   2.003  0.00  0.00    -0.005 A 
ATOM      6  C5  UNL d   1       5.332   1.331   1.600  0.00  0.00    -0.074 A 
ATOM      7  C6  UNL d   1       5.999   0.239   2.382  0.00  0.00     0.077 C 
ATOM      8  C7  UNL d   1       5.938   1.827   0.437  0.00  0.00    -0.001 A 
ENDROOT
TORSDOF 0
ENDMDL
