MODEL 1
REMARK minimizedAffinity 20.7373295
REMARK minimizedRMSD -1
REMARK  0 active torsions:
REMARK  status: ('A' for Active; 'I' for Inactive)
ROOT
ATOM      1  C   UNL d   1       4.969   5.367  -0.342  0.00  0.00     0.077 C 
ATOM      2  C1  UNL d   1       4.287   4.082   0.022  0.00  0.00    -0.074 A 
ATOM      3  C2  UNL d   1       4.114   3.713   1.360  0.00  0.00    -0.005 A 
ATOM      4  C3  UNL d   1       3.469   2.519   1.683  0.00  0.00     0.006 A 
ATOM      5  C4  UNL d   1       2.991   1.683   0.673  0.00  0.00    -0.005 A 
ATOM      6  C5  UNL d   1       3.153   2.036  -0.671  0.00  0.00    -0.074 A 
ATOM      7  C6  UNL d   1       2.637   1.154  -1.768  0.00  0.00     0.077 C 
ATOM      8  C7  UNL d   1       3.796   3.241  -0.987  0.00  0.00    -0.001 A 
ENDROOT
TORSDOF 0
ENDMDL
