MODEL 1
REMARK minimizedAffinity 12.2198324
REMARK minimizedRMSD -1
REMARK  0 active torsions:
REMARK  status: ('A' for Active; 'I' for Inactive)
ROOT
ATOM      1  C   UNL d   1      -2.447  -2.139   3.226  0.00  0.00     0.077 C 
ATOM      2  C1  UNL d   1      -2.014  -2.435   1.821  0.00  0.00    -0.074 A 
ATOM      3  C2  UNL d   1      -2.235  -1.514   0.791  0.00  0.00    -0.005 A 
ATOM      4  C3  UNL d   1      -1.818  -1.799  -0.509  0.00  0.00     0.006 A 
ATOM      5  C4  UNL d   1      -1.177  -3.006  -0.792  0.00  0.00    -0.005 A 
ATOM      6  C5  UNL d   1      -0.946  -3.938   0.224  0.00  0.00    -0.074 A 
ATOM      7  C6  UNL d   1      -0.250  -5.235  -0.062  0.00  0.00     0.077 C 
ATOM      8  C7  UNL d   1      -1.362  -3.641   1.529  0.00  0.00    -0.001 A 
ENDROOT
TORSDOF 0
ENDMDL
