MODEL 1
REMARK minimizedAffinity 18.2499981
REMARK minimizedRMSD -1
REMARK  0 active torsions:
REMARK  status: ('A' for Active; 'I' for Inactive)
ROOT
ATOM      1  C   UNL d   1       3.338   4.756   6.000  0.00  0.00     0.077 C 
ATOM      2  C1  UNL d   1       3.376   3.430   5.302  0.00  0.00    -0.074 A 
ATOM      3  C2  UNL d   1       3.707   2.261   5.996  0.00  0.00    -0.005 A 
ATOM      4  C3  UNL d   1       3.729   1.033   5.335  0.00  0.00     0.006 A 
ATOM      5  C4  UNL d   1       3.421   0.961   3.976  0.00  0.00    -0.005 A 
ATOM      6  C5  UNL d   1       3.088   2.118   3.266  0.00  0.00    -0.074 A 
ATOM      7  C6  UNL d   1       2.745   2.057   1.807  0.00  0.00     0.077 C 
ATOM      8  C7  UNL d   1       3.061   3.348   3.938  0.00  0.00    -0.001 A 
ENDROOT
TORSDOF 0
ENDMDL
