MODEL 1
REMARK minimizedAffinity -5.8180294
REMARK minimizedRMSD -1
REMARK  1 active torsions:
REMARK  status: ('A' for Active; 'I' for Inactive)
REMARK    1  A    between atoms: C1_2  and  C2_3 
ROOT
ATOM      1  C2  UNL d   1      -0.039  -0.830  -0.649  0.00  0.00    -0.076 A 
ATOM      2  C3  UNL d   1       0.171  -1.305  -1.955  0.00  0.00     0.004 A 
ATOM      3  C4  UNL d   1      -0.228  -2.588  -2.325  0.00  0.00    -0.003 A 
ATOM      4  C5  UNL d   1      -0.844  -3.417  -1.394  0.00  0.00     0.000 A 
ATOM      5  C6  UNL d   1      -1.077  -2.956  -0.099  0.00  0.00     0.000 A 
ATOM      6  C7  UNL d   1      -0.695  -1.660   0.286  0.00  0.00    -0.073 A 
ATOM      7  C8  UNL d   1      -0.965  -1.216   1.698  0.00  0.00     0.078 C 
ENDROOT
BRANCH   1   8
ATOM      8  C1  UNL d   1       0.440   0.561  -0.298  0.00  0.00     0.053 C 
ATOM      9  C   UNL d   1      -0.641   1.614  -0.488  0.00  0.00     0.018 C 
ENDBRANCH   1   8
TORSDOF 1
ENDMDL
