MODEL 1
REMARK minimizedAffinity -3.85013723
REMARK minimizedRMSD -1
REMARK  1 active torsions:
REMARK  status: ('A' for Active; 'I' for Inactive)
REMARK    1  A    between atoms: C1_2  and  C2_3 
ROOT
ATOM      1  C2  UNL d   1      -0.477  -0.950  -0.561  0.00  0.00    -0.076 A 
ATOM      2  C3  UNL d   1      -0.009  -0.719  -1.867  0.00  0.00     0.004 A 
ATOM      3  C4  UNL d   1      -0.126  -1.696  -2.854  0.00  0.00    -0.003 A 
ATOM      4  C5  UNL d   1      -0.712  -2.920  -2.552  0.00  0.00     0.000 A 
ATOM      5  C6  UNL d   1      -1.197  -3.160  -1.267  0.00  0.00     0.000 A 
ATOM      6  C7  UNL d   1      -1.102  -2.180  -0.264  0.00  0.00    -0.073 A 
ATOM      7  C8  UNL d   1      -1.637  -2.495   1.106  0.00  0.00     0.078 C 
ENDROOT
BRANCH   1   8
ATOM      8  C1  UNL d   1      -0.299   0.136   0.475  0.00  0.00     0.053 C 
ATOM      9  C   UNL d   1       0.464   1.337  -0.065  0.00  0.00     0.018 C 
ENDBRANCH   1   8
TORSDOF 1
ENDMDL
