MODEL 1
REMARK minimizedAffinity -2.5001595
REMARK minimizedRMSD -1
REMARK  1 active torsions:
REMARK  status: ('A' for Active; 'I' for Inactive)
REMARK    1  A    between atoms: C1_2  and  C2_3 
ROOT
ATOM      1  C2  UNL d   1       0.253   1.573   0.604  0.00  0.00    -0.076 A 
ATOM      2  C3  UNL d   1       0.017   1.303   1.963  0.00  0.00     0.004 A 
ATOM      3  C4  UNL d   1      -0.499   0.074   2.371  0.00  0.00    -0.003 A 
ATOM      4  C5  UNL d   1      -0.786  -0.906   1.427  0.00  0.00     0.000 A 
ATOM      5  C6  UNL d   1      -0.540  -0.662   0.076  0.00  0.00     0.000 A 
ATOM      6  C7  UNL d   1      -0.006   0.566  -0.351  0.00  0.00    -0.073 A 
ATOM      7  C8  UNL d   1       0.233   0.777  -1.821  0.00  0.00     0.078 C 
ENDROOT
BRANCH   1   8
ATOM      8  C1  UNL d   1       0.788   2.933   0.218  0.00  0.00     0.053 C 
ATOM      9  C   UNL d   1       2.308   2.984   0.220  0.00  0.00     0.018 C 
ENDBRANCH   1   8
TORSDOF 1
ENDMDL
