MODEL 1
REMARK minimizedAffinity -3.05919671
REMARK minimizedRMSD -1
REMARK  1 active torsions:
REMARK  status: ('A' for Active; 'I' for Inactive)
REMARK    1  A    between atoms: C1_2  and  C2_3 
ROOT
ATOM      1  C2  UNL d   1      -0.348   0.008  -0.539  0.00  0.00    -0.076 A 
ATOM      2  C3  UNL d   1      -0.023  -0.674  -1.724  0.00  0.00     0.004 A 
ATOM      3  C4  UNL d   1      -0.151  -2.059  -1.812  0.00  0.00    -0.003 A 
ATOM      4  C5  UNL d   1      -0.607  -2.785  -0.717  0.00  0.00     0.000 A 
ATOM      5  C6  UNL d   1      -0.951  -2.123   0.460  0.00  0.00     0.000 A 
ATOM      6  C7  UNL d   1      -0.843  -0.725   0.561  0.00  0.00    -0.073 A 
ATOM      7  C8  UNL d   1      -1.223  -0.063   1.858  0.00  0.00     0.078 C 
ENDROOT
BRANCH   1   8
ATOM      8  C1  UNL d   1      -0.163   1.508  -0.492  0.00  0.00     0.053 C 
ATOM      9  C   UNL d   1       1.156   1.913   0.148  0.00  0.00     0.018 C 
ENDBRANCH   1   8
TORSDOF 1
ENDMDL
