MODEL 1
REMARK minimizedAffinity -3.83603716
REMARK minimizedRMSD -1
REMARK  1 active torsions:
REMARK  status: ('A' for Active; 'I' for Inactive)
REMARK    1  A    between atoms: C1_2  and  C2_3 
ROOT
ATOM      1  C2  UNL d   1      -0.233  -0.825  -0.440  0.00  0.00    -0.076 A 
ATOM      2  C3  UNL d   1       0.245  -0.776  -1.761  0.00  0.00     0.004 A 
ATOM      3  C4  UNL d   1       0.219  -1.907  -2.575  0.00  0.00    -0.003 A 
ATOM      4  C5  UNL d   1      -0.285  -3.105  -2.082  0.00  0.00     0.000 A 
ATOM      5  C6  UNL d   1      -0.779  -3.167  -0.779  0.00  0.00     0.000 A 
ATOM      6  C7  UNL d   1      -0.776  -2.032   0.050  0.00  0.00    -0.073 A 
ATOM      7  C8  UNL d   1      -1.316  -2.157   1.448  0.00  0.00     0.078 C 
ENDROOT
BRANCH   1   8
ATOM      8  C1  UNL d   1      -0.155   0.427   0.405  0.00  0.00     0.053 C 
ATOM      9  C   UNL d   1      -0.123   1.695  -0.433  0.00  0.00     0.018 C 
ENDBRANCH   1   8
TORSDOF 1
ENDMDL
