MODEL 1
REMARK minimizedAffinity -0.55141151
REMARK minimizedRMSD -1
REMARK  1 active torsions:
REMARK  status: ('A' for Active; 'I' for Inactive)
REMARK    1  A    between atoms: C1_2  and  C2_3 
ROOT
ATOM      1  C2  UNL d   1      -0.587  -1.755  -0.202  0.00  0.00    -0.076 A 
ATOM      2  C3  UNL d   1      -1.268  -1.489   0.999  0.00  0.00     0.004 A 
ATOM      3  C4  UNL d   1      -1.275  -0.209   1.551  0.00  0.00    -0.003 A 
ATOM      4  C5  UNL d   1      -0.602   0.825   0.911  0.00  0.00     0.000 A 
ATOM      5  C6  UNL d   1       0.063   0.583  -0.291  0.00  0.00     0.000 A 
ATOM      6  C7  UNL d   1       0.067  -0.698  -0.869  0.00  0.00    -0.073 A 
ATOM      7  C8  UNL d   1       0.805  -0.903  -2.163  0.00  0.00     0.078 C 
ENDROOT
BRANCH   1   8
ATOM      8  C1  UNL d   1      -0.592  -3.169  -0.739  0.00  0.00     0.053 C 
ATOM      9  C   UNL d   1      -1.021  -3.237  -2.196  0.00  0.00     0.018 C 
ENDBRANCH   1   8
TORSDOF 1
ENDMDL
