MODEL 1
REMARK minimizedAffinity -4.12683249
REMARK minimizedRMSD -1
REMARK  1 active torsions:
REMARK  status: ('A' for Active; 'I' for Inactive)
REMARK    1  A    between atoms: C1_2  and  C2_3 
ROOT
ATOM      1  C2  UNL d   1      -0.355  -0.831  -1.039  0.00  0.00    -0.076 A 
ATOM      2  C3  UNL d   1       0.090  -0.927  -2.369  0.00  0.00     0.004 A 
ATOM      3  C4  UNL d   1       0.124  -2.156  -3.026  0.00  0.00    -0.003 A 
ATOM      4  C5  UNL d   1      -0.285  -3.308  -2.364  0.00  0.00     0.000 A 
ATOM      5  C6  UNL d   1      -0.745  -3.228  -1.051  0.00  0.00     0.000 A 
ATOM      6  C7  UNL d   1      -0.802  -1.995  -0.379  0.00  0.00    -0.073 A 
ATOM      7  C8  UNL d   1      -1.302  -1.968   1.040  0.00  0.00     0.078 C 
ENDROOT
BRANCH   1   8
ATOM      8  C1  UNL d   1      -0.345   0.525  -0.368  0.00  0.00     0.053 C 
ATOM      9  C   UNL d   1       0.852   0.711   0.552  0.00  0.00     0.018 C 
ENDBRANCH   1   8
TORSDOF 1
ENDMDL
