MODEL 1
REMARK minimizedAffinity -2.65865755
REMARK minimizedRMSD -1
REMARK  1 active torsions:
REMARK  status: ('A' for Active; 'I' for Inactive)
REMARK    1  A    between atoms: C1_2  and  C2_3 
ROOT
ATOM      1  C2  UNL d   1      -1.179  -2.247  -0.308  0.00  0.00    -0.076 A 
ATOM      2  C3  UNL d   1      -1.009  -2.963  -1.506  0.00  0.00     0.004 A 
ATOM      3  C4  UNL d   1      -0.170  -2.487  -2.513  0.00  0.00    -0.003 A 
ATOM      4  C5  UNL d   1       0.512  -1.288  -2.338  0.00  0.00     0.000 A 
ATOM      5  C6  UNL d   1       0.369  -0.574  -1.148  0.00  0.00     0.000 A 
ATOM      6  C7  UNL d   1      -0.460  -1.048  -0.117  0.00  0.00    -0.073 A 
ATOM      7  C8  UNL d   1      -0.582  -0.234   1.142  0.00  0.00     0.078 C 
ENDROOT
BRANCH   1   8
ATOM      8  C1  UNL d   1      -2.122  -2.799   0.737  0.00  0.00     0.053 C 
ATOM      9  C   UNL d   1      -3.573  -2.773   0.284  0.00  0.00     0.018 C 
ENDBRANCH   1   8
TORSDOF 1
ENDMDL
