MODEL 1
REMARK minimizedAffinity -1.24897456
REMARK minimizedRMSD -1
REMARK  1 active torsions:
REMARK  status: ('A' for Active; 'I' for Inactive)
REMARK    1  A    between atoms: C1_2  and  C2_3 
ROOT
ATOM      1  C2  UNL d   1      -0.465  -1.461  -1.036  0.00  0.00    -0.076 A 
ATOM      2  C3  UNL d   1      -0.917  -2.477  -0.176  0.00  0.00     0.004 A 
ATOM      3  C4  UNL d   1      -1.282  -2.194   1.139  0.00  0.00    -0.003 A 
ATOM      4  C5  UNL d   1      -1.201  -0.890   1.615  0.00  0.00     0.000 A 
ATOM      5  C6  UNL d   1      -0.772   0.133   0.771  0.00  0.00     0.000 A 
ATOM      6  C7  UNL d   1      -0.415  -0.133  -0.563  0.00  0.00    -0.073 A 
ATOM      7  C8  UNL d   1       0.047   1.008  -1.428  0.00  0.00     0.078 C 
ENDROOT
BRANCH   1   8
ATOM      8  C1  UNL d   1      -0.057  -1.833  -2.444  0.00  0.00     0.053 C 
ATOM      9  C   UNL d   1      -0.755  -3.089  -2.941  0.00  0.00     0.018 C 
ENDBRANCH   1   8
TORSDOF 1
ENDMDL
