MODEL 1
REMARK minimizedAffinity 5.44632721
REMARK minimizedRMSD -1
REMARK  0 active torsions:
REMARK  status: ('A' for Active; 'I' for Inactive)
ROOT
ATOM      1  C   UNL d   1       1.656   0.696   0.468  0.00  0.00    -0.002 A 
ATOM      2  C1  UNL d   1       0.785   1.764   0.624  0.00  0.00     0.010 A 
ATOM      3  C2  UNL d   1      -0.186   2.036  -0.342  0.00  0.00     0.041 A 
ATOM      4  C3  UNL d   1      -0.269   1.206  -1.477  0.00  0.00    -0.075 A 
ATOM      5  S   UNL d   1      -1.378   1.347  -2.789  0.00  0.00     0.015 SA
ATOM      6  C4  UNL d   1      -0.722  -0.009  -3.587  0.00  0.00     0.022 A 
ATOM      7  C5  UNL d   1       0.319  -0.567  -2.884  0.00  0.00     0.026 A 
ATOM      8  C6  UNL d   1       0.597   0.123  -1.656  0.00  0.00    -0.082 A 
ATOM      9  C7  UNL d   1       1.572  -0.125  -0.659  0.00  0.00     0.045 A 
ENDROOT
TORSDOF 0
ENDMDL
