MODEL 1
REMARK minimizedAffinity 10.6489305
REMARK minimizedRMSD -1
REMARK  0 active torsions:
REMARK  status: ('A' for Active; 'I' for Inactive)
ROOT
ATOM      1  C   UNL d   1      -2.645   1.877  -1.494  0.00  0.00    -0.002 A 
ATOM      2  C1  UNL d   1      -2.870   3.019  -2.249  0.00  0.00     0.010 A 
ATOM      3  C2  UNL d   1      -1.971   4.086  -2.209  0.00  0.00     0.041 A 
ATOM      4  C3  UNL d   1      -0.829   3.984  -1.390  0.00  0.00    -0.075 A 
ATOM      5  S   UNL d   1       0.410   5.165  -1.182  0.00  0.00     0.015 SA
ATOM      6  C4  UNL d   1       1.268   4.180  -0.087  0.00  0.00     0.022 A 
ATOM      7  C5  UNL d   1       0.639   2.977   0.127  0.00  0.00     0.026 A 
ATOM      8  C6  UNL d   1      -0.580   2.844  -0.621  0.00  0.00    -0.082 A 
ATOM      9  C7  UNL d   1      -1.512   1.780  -0.683  0.00  0.00     0.045 A 
ENDROOT
TORSDOF 0
ENDMDL
