MODEL 1
REMARK minimizedAffinity 9.0719738
REMARK minimizedRMSD -1
REMARK  0 active torsions:
REMARK  status: ('A' for Active; 'I' for Inactive)
ROOT
ATOM      1  C   UNL d   1       0.485   2.952   0.197  0.00  0.00    -0.002 A 
ATOM      2  C1  UNL d   1      -0.010   2.504  -1.020  0.00  0.00     0.010 A 
ATOM      3  C2  UNL d   1       0.127   1.165  -1.393  0.00  0.00     0.041 A 
ATOM      4  C3  UNL d   1       0.774   0.276  -0.513  0.00  0.00    -0.075 A 
ATOM      5  S   UNL d   1       1.056  -1.407  -0.758  0.00  0.00     0.015 SA
ATOM      6  C4  UNL d   1       1.839  -1.571   0.747  0.00  0.00     0.022 A 
ATOM      7  C5  UNL d   1       1.893  -0.381   1.433  0.00  0.00     0.026 A 
ATOM      8  C6  UNL d   1       1.280   0.703   0.718  0.00  0.00    -0.082 A 
ATOM      9  C7  UNL d   1       1.126   2.067   1.067  0.00  0.00     0.045 A 
ENDROOT
TORSDOF 0
ENDMDL
