MODEL 1
REMARK minimizedAffinity 13.6008921
REMARK minimizedRMSD -1
REMARK  0 active torsions:
REMARK  status: ('A' for Active; 'I' for Inactive)
ROOT
ATOM      1  C   UNL d   1       0.732   4.176  -0.695  0.00  0.00    -0.002 A 
ATOM      2  C1  UNL d   1       0.735   2.970  -0.009  0.00  0.00     0.010 A 
ATOM      3  C2  UNL d   1       1.743   2.680   0.913  0.00  0.00     0.041 A 
ATOM      4  C3  UNL d   1       2.757   3.633   1.136  0.00  0.00    -0.075 A 
ATOM      5  S   UNL d   1       4.092   3.495   2.219  0.00  0.00     0.015 SA
ATOM      6  C4  UNL d   1       4.689   5.035   1.796  0.00  0.00     0.022 A 
ATOM      7  C5  UNL d   1       3.902   5.652   0.853  0.00  0.00     0.026 A 
ATOM      8  C6  UNL d   1       2.775   4.855   0.458  0.00  0.00    -0.082 A 
ATOM      9  C7  UNL d   1       1.739   5.119  -0.471  0.00  0.00     0.045 A 
ENDROOT
TORSDOF 0
ENDMDL
